5gmu_ligand
  -I-interpret- 

 45 46  0  0  0  0  0  0  0  0999 V2000
    3.8850    7.7790    6.3560 C   0  0  0  0  0
    4.7020    8.8070    6.7980 C   0  0  0  0  0
    5.8530    9.1590    6.0790 O   0  0  0  0  0
    4.4410    9.4370    8.0060 C   0  0  0  0  0
    5.2990   10.4370    8.4660 O   0  0  0  0  0
    3.3380    9.0750    8.7630 C   0  0  0  0  0
    2.4950    8.0720    8.3200 C   0  0  0  0  0
    2.7600    7.4170    7.1270 C   0  0  0  0  0
    1.7420    6.3590    6.7380 C   0  0  0  0  0
    2.0060    5.7390    5.4010 C   0  0  0  0  0
    0.9270    4.7720    4.9660 C   0  0  0  0  0
   -0.1060    4.5450    5.5240 O   0  0  0  0  0
    1.2390    4.0750    3.8280 O   0  0  0  0  0
    0.3480    3.0580    3.4020 C   0  0  0  0  0
    0.4080    1.8850    4.4100 C   0  0  0  0  0
    1.7640    1.2320    4.4740 C   0  0  0  0  0
    1.6540    0.0460    5.4220 C   0  0  0  0  0
    0.6430   -0.8380    5.2540 O   0  0  0  0  0
    2.6250   -0.1330    6.3580 O   0  0  0  0  0
    2.6890    2.1280    5.0300 O   0  0  0  0  0
    2.2260    0.7250    3.0820 C   0  0  0  0  0
    2.2720    1.9460    2.1500 C   0  0  0  0  0
    2.6540    1.5640    0.8270 O   0  0  0  0  0
    0.9010    2.5830    2.0430 C   0  0  0  0  0
    1.0130    3.7080    1.2050 O   0  0  0  0  0
    4.1082    7.2571    5.4255 H   0  0  0  0  0
    6.2972    9.8847    6.5235 H   0  0  0  0  0
    4.9801   10.7679    9.3088 H   0  0  0  0  0
    3.1349    9.5805    9.7071 H   0  0  0  0  0
    1.6208    7.7960    8.9097 H   0  0  0  0  0
    0.7677    6.8450    6.6871 H   0  0  0  0  0
    1.7936    5.5651    7.4831 H   0  0  0  0  0
    2.9387    5.1799    5.4756 H   0  0  0  0  0
    2.0429    6.5435    4.6664 H   0  0  0  0  0
   -0.6819    3.4078    3.3312 H   0  0  0  0  0
   -0.3085    1.1308    4.0846 H   0  0  0  0  0
    0.1856    2.2856    5.3990 H   0  0  0  0  0
    3.2451    0.5988    6.3182 H   0  0  0  0  0
    3.5526    1.7107    5.0702 H   0  0  0  0  0
    1.5368   -0.0270    2.6978 H   0  0  0  0  0
    3.2071    0.2548    3.1495 H   0  0  0  0  0
    2.9961    2.6422    2.5731 H   0  0  0  0  0
    2.6757    2.3415    0.2643 H   0  0  0  0  0
    0.2158    1.8305    1.6527 H   0  0  0  0  0
    1.3563    3.4363    0.3506 H   0  0  0  0  0
  1  2  4  0  0  0
  1  8  4  0  0  0
  2  3  1  0  0  0
  2  4  4  0  0  0
  4  5  1  0  0  0
  4  6  4  0  0  0
  6  7  4  0  0  0
  7  8  4  0  0  0
  8  9  1  0  0  0
  9 10  1  0  0  0
 10 11  1  0  0  0
 11 12  2  0  0  0
 11 13  1  0  0  0
 13 14  1  0  0  0
 14 15  1  0  0  0
 14 24  1  0  0  0
 15 16  1  0  0  0
 16 17  1  0  0  0
 16 20  1  0  0  0
 16 21  1  0  0  0
 17 18  2  0  0  0
 17 19  1  0  0  0
 21 22  1  0  0  0
 22 23  1  0  0  0
 22 24  1  0  0  0
 24 25  1  0  0  0
  1 26  1  0  0  0
  3 27  1  0  0  0
  5 28  1  0  0  0
  6 29  1  0  0  0
  7 30  1  0  0  0
  9 31  1  0  0  0
  9 32  1  0  0  0
 10 33  1  0  0  0
 10 34  1  0  0  0
 14 35  1  0  0  0
 15 36  1  0  0  0
 15 37  1  0  0  0
 19 38  1  0  0  0
 20 39  1  0  0  0
 21 40  1  0  0  0
 21 41  1  0  0  0
 22 42  1  0  0  0
 23 43  1  0  0  0
 24 44  1  0  0  0
 25 45  1  0  0  0
M  END
$$$$
