4wy6_ligand
  -I-interpret- 

 36 38  0  0  0  0  0  0  0  0999 V2000
   20.4310  -38.6250    8.9120 C   0  0  0  0  0
   15.4750  -40.1330    6.3020 N   0  0  0  0  0
   17.8840  -38.7130    8.7000 C   0  0  0  0  0
   21.8790  -39.2200    7.1070 C   0  0  0  0  0
   16.3040  -37.8110   10.9370 C   0  0  0  0  0
   16.3400  -40.0220    7.3700 C   0  0  0  0  0
   17.6860  -37.2260    9.1330 C   0  0  0  0  0
   20.7690  -39.5300    6.3150 C   0  0  0  0  0
   19.4960  -39.3560    6.8430 C   0  0  0  0  0
   19.2860  -38.9110    8.1510 C   0  0  0  0  0
   21.7330  -38.7600    8.4140 C   0  0  0  0  0
   23.0980  -39.3690    6.6120 F   0  0  0  0  0
   20.3340  -38.2130   10.1700 F   0  0  0  0  0
   16.4560  -37.0380    9.7730 O   0  0  0  0  0
   16.3200  -39.3030   10.5880 C   0  0  0  0  0
   17.6510  -39.6420    9.9150 C   0  0  0  0  0
   17.7270  -41.1030    9.5090 C   0  0  0  0  0
   16.5470  -41.5810    8.2130 S   0  0  0  0  0
   16.8830  -38.8740    7.6400 N   0  0  0  0  0
   14.9080  -37.4090   11.4850 C   0  0  0  0  0
   14.9440  -36.1410   11.9440 F   0  0  0  0  0
   15.0457  -41.0324    6.0847 H   0  0  0  0  0
   17.1042  -37.6421   11.6576 H   0  0  0  0  0
   17.7103  -36.6003    8.2408 H   0  0  0  0  0
   18.4817  -36.9601    9.8289 H   0  0  0  0  0
   20.9006  -39.9024    5.2991 H   0  0  0  0  0
   18.6316  -39.5739    6.2158 H   0  0  0  0  0
   22.6004  -38.5142    9.0266 H   0  0  0  0  0
   15.4968  -39.5312    9.9109 H   0  0  0  0  0
   16.2060  -39.8945   11.4964 H   0  0  0  0  0
   18.4457  -39.4756   10.6423 H   0  0  0  0  0
   17.4893  -41.6944   10.3932 H   0  0  0  0  0
   18.7272  -41.2737    9.1109 H   0  0  0  0  0
   16.6042  -38.0568    7.0969 H   0  0  0  0  0
   14.6345  -38.0792   12.2999 H   0  0  0  0  0
   14.1724  -37.4811   10.6839 H   0  0  0  0  0
 10  1  4  0  0  0
  1 11  4  0  0  0
  1 13  1  0  0  0
  6  2  2  0  0  0
  7  3  1  0  0  0
  3 10  1  0  0  0
  3 16  1  0  0  0
  3 19  1  0  0  0
  4  8  4  0  0  0
 11  4  4  0  0  0
  4 12  1  0  0  0
 14  5  1  0  0  0
  5 15  1  0  0  0
  5 20  1  0  0  0
  6 18  1  0  0  0
 19  6  1  0  0  0
  7 14  1  0  0  0
  8  9  4  0  0  0
  9 10  4  0  0  0
 15 16  1  0  0  0
 16 17  1  0  0  0
 17 18  1  0  0  0
 20 21  1  0  0  0
  2 22  1  0  0  0
  5 23  1  0  0  0
  7 24  1  0  0  0
  7 25  1  0  0  0
  8 26  1  0  0  0
  9 27  1  0  0  0
 11 28  1  0  0  0
 15 29  1  0  0  0
 15 30  1  0  0  0
 16 31  1  0  0  0
 17 32  1  0  0  0
 17 33  1  0  0  0
 19 34  1  0  0  0
 20 35  1  0  0  0
 20 36  1  0  0  0
M  END
$$$$
