2yjb_ligand
  -I-interpret- 

 63 67  0  0  0  0  0  0  0  0999 V2000
    8.9810    7.4670  -14.6280 C   0  0  0  0  0
    9.1500    8.5310  -13.5200 C   0  0  0  0  0
    8.0790    8.6320  -12.6640 N   0  0  0  0  0
    7.9600    9.4540  -11.5090 C   0  0  0  0  0
    8.3140    8.7210  -10.2890 C   0  0  0  0  0
   10.2070    9.1810  -13.4370 O   0  0  0  0  0
    8.2590   10.9440  -11.5870 C   0  0  0  0  0
    6.8430   10.4850  -11.4400 C   0  0  0  0  0
    8.1860    9.1950   -9.0740 N   0  0  0  0  0
    9.1670    7.9510  -15.9800 N   0  0  0  0  0
   10.1260    7.1370  -16.6890 C   0  0  0  0  0
   10.3080    5.8760  -15.8670 C   0  0  0  0  0
   10.0610    6.3780  -14.4550 C   0  0  0  0  0
    9.2020    4.6190  -16.3100 S   0  0  0  0  0
    9.6580    4.2220  -17.9030 C   0  0  0  0  0
   10.8200    3.5750  -18.3060 C   0  0  0  0  0
   11.1430    3.2760  -19.6200 C   0  0  0  0  0
   10.2210    3.6170  -20.5990 C   0  0  0  0  0
    9.0380    4.2400  -20.2390 C   0  0  0  0  0
    8.7640    4.5370  -18.9200 C   0  0  0  0  0
   11.9840    3.1430  -17.1740 Cl  0  0  0  0  0
    9.5220    3.5150  -15.4790 O   0  0  0  0  0
    7.8900    5.1110  -16.2790 O   0  0  0  0  0
    8.3010    8.8480  -16.5480 C   0  0  0  0  0
    7.3470    9.2850  -15.8850 O   0  0  0  0  0
    7.9310    8.3830  -19.0280 C   0  0  0  0  0
    8.5260    9.2770  -17.9710 C   0  0  0  0  0
    7.3200    9.7260  -18.7440 C   0  0  0  0  0
   11.9960   10.0790  -19.3600 C   0  0  0  0  0
   12.4370   10.9640  -18.3800 C   0  0  0  0  0
   11.6190   11.2890  -17.3140 C   0  0  0  0  0
   10.3520   10.7270  -17.1920 C   0  0  0  0  0
    9.8710    9.8530  -18.1650 C   0  0  0  0  0
   10.7140    9.5110  -19.2400 C   0  0  0  0  0
   13.8160   11.6040  -18.4220 C   0  0  0  0  0
   14.1170   12.4030  -17.3690 F   0  0  0  0  0
   14.8310   10.7370  -18.4340 F   0  0  0  0  0
   14.0300   12.3700  -19.4870 F   0  0  0  0  0
    7.9542    7.1196  -14.5134 H   0  0  0  0  0
    7.2726    8.0472  -12.8834 H   0  0  0  0  0
    8.7111    7.7121  -10.4006 H   0  0  0  0  0
    8.8312   11.6264  -12.2154 H   0  0  0  0  0
    8.9328   11.6633  -11.1216 H   0  0  0  0  0
    5.9778   10.7055  -10.8148 H   0  0  0  0  0
    5.8762   10.6686  -11.9087 H   0  0  0  0  0
    7.8180   10.1353   -8.9295 H   0  0  0  0  0
   11.0722    7.6642  -16.8111 H   0  0  0  0  0
    9.7729    6.9018  -17.6931 H   0  0  0  0  0
   11.2849    5.4132  -16.0067 H   0  0  0  0  0
    9.7399    5.5813  -13.7840 H   0  0  0  0  0
   10.9675    6.7659  -13.9905 H   0  0  0  0  0
   12.0855    2.7914  -19.8747 H   0  0  0  0  0
   10.4268    3.3956  -21.6462 H   0  0  0  0  0
    8.3121    4.4997  -21.0096 H   0  0  0  0  0
    7.8248    5.0301  -18.6694 H   0  0  0  0  0
    7.6137    7.3462  -19.1397 H   0  0  0  0  0
    8.2612    7.7988  -19.8870 H   0  0  0  0  0
    6.3350   10.1486  -18.5459 H   0  0  0  0  0
    6.9861   10.6037  -19.2974 H   0  0  0  0  0
   12.6342    9.8297  -20.2077 H   0  0  0  0  0
   11.9706   11.9936  -16.5604 H   0  0  0  0  0
    9.7317   10.9719  -16.3298 H   0  0  0  0  0
   10.3692    8.7975  -19.9884 H   0  0  0  0  0
  1  2  1  0  0  0
 10  1  1  0  0  0
  1 13  1  0  0  0
  2  3  1  0  0  0
  2  6  2  0  0  0
  3  4  1  0  0  0
  4  5  1  0  0  0
  4  7  1  0  0  0
  4  8  1  0  0  0
  5  9  2  0  0  0
  8  7  1  0  0  0
 10 11  1  0  0  0
 24 10  1  0  0  0
 11 12  1  0  0  0
 12 13  1  0  0  0
 12 14  1  0  0  0
 14 15  1  0  0  0
 14 22  2  0  0  0
 14 23  2  0  0  0
 15 16  4  0  0  0
 15 20  4  0  0  0
 16 17  4  0  0  0
 16 21  1  0  0  0
 17 18  4  0  0  0
 19 18  4  0  0  0
 20 19  4  0  0  0
 24 25  2  0  0  0
 27 24  1  0  0  0
 27 26  1  0  0  0
 28 26  1  0  0  0
 27 28  1  0  0  0
 33 27  1  0  0  0
 30 29  4  0  0  0
 29 34  4  0  0  0
 31 30  4  0  0  0
 30 35  1  0  0  0
 32 31  4  0  0  0
 32 33  4  0  0  0
 33 34  4  0  0  0
 35 36  1  0  0  0
 35 37  1  0  0  0
 35 38  1  0  0  0
  1 39  1  0  0  0
  3 40  1  0  0  0
  5 41  1  0  0  0
  7 42  1  0  0  0
  7 43  1  0  0  0
  8 44  1  0  0  0
  8 45  1  0  0  0
  9 46  1  0  0  0
 11 47  1  0  0  0
 11 48  1  0  0  0
 12 49  1  0  0  0
 13 50  1  0  0  0
 13 51  1  0  0  0
 17 52  1  0  0  0
 18 53  1  0  0  0
 19 54  1  0  0  0
 20 55  1  0  0  0
 26 56  1  0  0  0
 26 57  1  0  0  0
 28 58  1  0  0  0
 28 59  1  0  0  0
 29 60  1  0  0  0
 31 61  1  0  0  0
 32 62  1  0  0  0
 34 63  1  0  0  0
M  END
$$$$
