### 
### Created by X-TOOL on Mon Sep 10 21:13:05 2018
### 

@<TRIPOS>MOLECULE
2yjb_ligand
   63    67     1     0     0
SMALL
GAST_HUCK


@<TRIPOS>ATOM
      1 C1          8.9810    7.4670  -14.6280 C.3       1 YJ9         0.1344
      2 C2          9.1500    8.5310  -13.5200 C.2       1 YJ9         0.1971
      3 N3          8.0790    8.6320  -12.6640 N.am      1 YJ9        -0.2955
      4 C4          7.9600    9.4540  -11.5090 C.3       1 YJ9         0.0783
      5 C5          8.3140    8.7210  -10.2890 C.2       1 YJ9         0.0437
      6 O6         10.2070    9.1810  -13.4370 O.2       1 YJ9        -0.3951
      7 C7          8.2590   10.9440  -11.5870 C.3       1 YJ9        -0.0407
      8 C8          6.8430   10.4850  -11.4400 C.3       1 YJ9        -0.0407
      9 N9          8.1860    9.1950   -9.0740 N.2       1 YJ9        -0.2686
     10 N10         9.1670    7.9510  -15.9800 N.am      1 YJ9        -0.2547
     11 C11        10.1260    7.1370  -16.6890 C.3       1 YJ9         0.0589
     12 C12        10.3080    5.8760  -15.8670 C.3       1 YJ9         0.1066
     13 C13        10.0610    6.3780  -14.4550 C.3       1 YJ9         0.0125
     14 S14         9.2020    4.6190  -16.3100 S.o2      1 YJ9         0.0023
     15 C15         9.6580    4.2220  -17.9030 C.ar      1 YJ9         0.1025
     16 C16        10.8200    3.5750  -18.3060 C.ar      1 YJ9         0.0651
     17 C17        11.1430    3.2760  -19.6200 C.ar      1 YJ9        -0.0460
     18 C18        10.2210    3.6170  -20.5990 C.ar      1 YJ9        -0.0612
     19 C19         9.0380    4.2400  -20.2390 C.ar      1 YJ9        -0.0598
     20 C20         8.7640    4.5370  -18.9200 C.ar      1 YJ9        -0.0364
     21 CL         11.9840    3.1430  -17.1740 Cl        1 YJ9        -0.0687
     22 O22         9.5220    3.5150  -15.4790 O.2       1 YJ9        -0.1690
     23 O23         7.8900    5.1110  -16.2790 O.2       1 YJ9        -0.1690
     24 C24         8.3010    8.8480  -16.5480 C.2       1 YJ9         0.1813
     25 O25         7.3470    9.2850  -15.8850 O.2       1 YJ9        -0.3604
     26 C26         7.9310    8.3830  -19.0280 C.3       1 YJ9        -0.0616
     27 C27         8.5260    9.2770  -17.9710 C.3       1 YJ9         0.0572
     28 C28         7.3200    9.7260  -18.7440 C.3       1 YJ9        -0.0616
     29 C29        11.9960   10.0790  -19.3600 C.ar      1 YJ9        -0.0106
     30 C30        12.4370   10.9640  -18.3800 C.ar      1 YJ9         0.0717
     31 C31        11.6190   11.2890  -17.3140 C.ar      1 YJ9        -0.0106
     32 C32        10.3520   10.7270  -17.1920 C.ar      1 YJ9        -0.0184
     33 C33         9.8710    9.8530  -18.1650 C.ar      1 YJ9        -0.0156
     34 C34        10.7140    9.5110  -19.2400 C.ar      1 YJ9        -0.0184
     35 C35        13.8160   11.6040  -18.4220 C.3       1 YJ9         0.3941
     36 F36        14.1170   12.4030  -17.3690 F         1 YJ9        -0.2085
     37 F37        14.8310   10.7370  -18.4340 F         1 YJ9        -0.2085
     38 F38        14.0300   12.3700  -19.4870 F         1 YJ9        -0.2085
     39 H           7.9542    7.1196  -14.5134 H         1 YJ9         0.0804
     40 H           7.2726    8.0472  -12.8834 H         1 YJ9         0.1774
     41 H           8.7111    7.7121  -10.4006 H         1 YJ9         0.1090
     42 H           8.8312   11.6264  -12.2154 H         1 YJ9         0.0220
     43 H           8.9328   11.6633  -11.1216 H         1 YJ9         0.0220
     44 H           5.9778   10.7055  -10.8148 H         1 YJ9         0.0220
     45 H           5.8762   10.6686  -11.9087 H         1 YJ9         0.0220
     46 H           7.8180   10.1353   -8.9295 H         1 YJ9         0.2165
     47 H          11.0722    7.6642  -16.8111 H         1 YJ9         0.0544
     48 H           9.7729    6.9018  -17.6931 H         1 YJ9         0.0544
     49 H          11.2849    5.4132  -16.0067 H         1 YJ9         0.0563
     50 H           9.7399    5.5813  -13.7840 H         1 YJ9         0.0332
     51 H          10.9675    6.7659  -13.9905 H         1 YJ9         0.0332
     52 H          12.0855    2.7914  -19.8747 H         1 YJ9         0.0624
     53 H          10.4268    3.3956  -21.6462 H         1 YJ9         0.0618
     54 H           8.3121    4.4997  -21.0096 H         1 YJ9         0.0620
     55 H           7.8248    5.0301  -18.6694 H         1 YJ9         0.0636
     56 H           7.6137    7.3462  -19.1397 H         1 YJ9         0.0180
     57 H           8.2612    7.7988  -19.8870 H         1 YJ9         0.0180
     58 H           6.3350   10.1486  -18.5459 H         1 YJ9         0.0180
     59 H           6.9861   10.6037  -19.2974 H         1 YJ9         0.0180
     60 H          12.6342    9.8297  -20.2077 H         1 YJ9         0.0897
     61 H          11.9706   11.9936  -16.5604 H         1 YJ9         0.0897
     62 H           9.7317   10.9719  -16.3298 H         1 YJ9         0.0891
     63 H          10.3692    8.7975  -19.9884 H         1 YJ9         0.0891
@<TRIPOS>BOND
     1    1    2 1  
     2   10    1 1  
     3    1   13 1  
     4    2    3 am 
     5    2    6 2  
     6    3    4 1  
     7    4    5 1  
     8    4    7 1  
     9    4    8 1  
    10    5    9 2  
    11    8    7 1  
    12   10   11 1  
    13   24   10 am 
    14   11   12 1  
    15   12   13 1  
    16   12   14 1  
    17   14   15 1  
    18   14   22 2  
    19   14   23 2  
    20   15   16 ar 
    21   15   20 ar 
    22   16   17 ar 
    23   16   21 1  
    24   17   18 ar 
    25   19   18 ar 
    26   20   19 ar 
    27   24   25 2  
    28   27   24 1  
    29   27   26 1  
    30   28   26 1  
    31   27   28 1  
    32   33   27 1  
    33   30   29 ar 
    34   29   34 ar 
    35   31   30 ar 
    36   30   35 1  
    37   32   31 ar 
    38   32   33 ar 
    39   33   34 ar 
    40   35   36 1  
    41   35   37 1  
    42   35   38 1  
    43    1   39 1  
    44    3   40 1  
    45    5   41 1  
    46    7   42 1  
    47    7   43 1  
    48    8   44 1  
    49    8   45 1  
    50    9   46 1  
    51   11   47 1  
    52   11   48 1  
    53   12   49 1  
    54   13   50 1  
    55   13   51 1  
    56   17   52 1  
    57   18   53 1  
    58   19   54 1  
    59   20   55 1  
    60   26   56 1  
    61   26   57 1  
    62   28   58 1  
    63   28   59 1  
    64   29   60 1  
    65   31   61 1  
    66   32   62 1  
    67   34   63 1  
@<TRIPOS>SUBSTRUCTURE
     1 YJ9         1

