3nok_ligand
  -I-interpret- 

 41 40  0  0  0  0  0  0  0  0999 V2000
    4.9990   10.9430   15.1360 N   0  0  0  0  0
    4.4400    9.8300   15.3900 O   0  0  0  0  0
    4.9310   12.1380   16.0060 C   0  0  0  0  0
    5.2980   11.2270   13.7320 C   0  0  0  0  0
    6.3650   10.4090   15.3980 C   0  0  0  0  0
    6.6300    9.6800   16.7250 C   0  0  0  0  0
    7.9870    8.9590   16.8170 C   0  0  0  0  0
    8.1080    8.0950   18.1080 C   0  0  0  0  0
    9.4980    7.4990   18.4170 C   0  0  0  0  0
    9.4960    6.6860   19.7390 C   0  0  0  0  0
   10.8610    6.2390   20.2980 C   0  0  0  0  0
   10.6800    5.3480   21.5390 C   0  0  0  0  0
   11.9570    5.1490   22.3550 C   0  0  0  0  0
   11.9100    4.0340   23.4070 C   0  0  0  0  0
    3.8906   12.4405   16.1249 H   0  0  0  0  0
    5.3554   11.9003   16.9814 H   0  0  0  0  0
    5.4971   12.9503   15.5502 H   0  0  0  0  0
    5.9714   10.4630   13.3435 H   0  0  0  0  0
    4.3721   11.2236   13.1568 H   0  0  0  0  0
    5.7724   12.2052   13.6536 H   0  0  0  0  0
    7.0123   11.2857   15.4220 H   0  0  0  0  0
    6.5292    9.6586   14.6246 H   0  0  0  0  0
    5.8611    8.9132   16.8199 H   0  0  0  0  0
    6.6260   10.4403   17.5060 H   0  0  0  0  0
    8.7719    9.7150   16.8400 H   0  0  0  0  0
    8.0783    8.2969   15.9560 H   0  0  0  0  0
    7.4425    7.2441   17.9627 H   0  0  0  0  0
    7.8767    8.7624   18.9382 H   0  0  0  0  0
   10.2073    8.3201   18.5210 H   0  0  0  0  0
    9.7716    6.8280   17.6027 H   0  0  0  0  0
    8.9528    5.7670   19.5187 H   0  0  0  0  0
    9.0725    7.3501   20.4924 H   0  0  0  0  0
   11.4307    7.1239   20.5816 H   0  0  0  0  0
   11.3848    5.6693   19.5305 H   0  0  0  0  0
   10.3650    4.3654   21.1877 H   0  0  0  0  0
    9.9561    5.8412   22.1876 H   0  0  0  0  0
   12.1226    6.0788   22.8992 H   0  0  0  0  0
   12.7355    4.8697   21.6451 H   0  0  0  0  0
   11.1187    4.2474   24.1256 H   0  0  0  0  0
   11.7098    3.0815   22.9163 H   0  0  0  0  0
   12.8682    3.9835   23.9241 H   0  0  0  0  0
  1  2  2  0  0  0
  1  3  1  0  0  0
  1  4  1  0  0  0
  1  5  1  0  0  0
  5  6  1  0  0  0
  6  7  1  0  0  0
  7  8  1  0  0  0
  8  9  1  0  0  0
  9 10  1  0  0  0
 10 11  1  0  0  0
 11 12  1  0  0  0
 12 13  1  0  0  0
 13 14  1  0  0  0
  3 15  1  0  0  0
  3 16  1  0  0  0
  3 17  1  0  0  0
  4 18  1  0  0  0
  4 19  1  0  0  0
  4 20  1  0  0  0
  5 21  1  0  0  0
  5 22  1  0  0  0
  6 23  1  0  0  0
  6 24  1  0  0  0
  7 25  1  0  0  0
  7 26  1  0  0  0
  8 27  1  0  0  0
  8 28  1  0  0  0
  9 29  1  0  0  0
  9 30  1  0  0  0
 10 31  1  0  0  0
 10 32  1  0  0  0
 11 33  1  0  0  0
 11 34  1  0  0  0
 12 35  1  0  0  0
 12 36  1  0  0  0
 13 37  1  0  0  0
 13 38  1  0  0  0
 14 39  1  0  0  0
 14 40  1  0  0  0
 14 41  1  0  0  0
M  END
$$$$
