2xln_ligand
  -I-interpret- 

 34 34  0  0  0  0  0  0  0  0999 V2000
   -0.2770    0.9160   38.1110 O   0  0  0  0  0
   -1.0330    0.7510   37.1540 C   0  0  0  0  0
   -0.9450   -0.1690   36.1860 N   0  0  0  0  0
   -0.0580   -1.2860   36.0150 C   0  0  0  0  0
   -0.8610   -2.5970   36.3950 B   0  0  0  0  0
   -1.5250   -2.4240   37.7640 O   0  0  0  0  0
   -1.9800   -2.8560   35.3850 O   0  0  0  0  0
    0.2960   -1.2940   34.5360 C   0  0  0  0  0
   -2.5190    0.8100   37.3220 C   0  0  0  0  0
   -3.1610    1.5970   36.3740 C   0  0  0  0  0
   -2.3830    2.1660   35.2710 O   0  0  0  0  0
   -2.8530    2.2810   33.9220 C   0  0  0  0  0
   -4.5470    1.7070   36.4800 C   0  0  0  0  0
   -5.2220    1.1190   37.5600 C   0  0  0  0  0
   -4.5310    0.3960   38.5350 C   0  0  0  0  0
   -3.1400    0.2750   38.4610 C   0  0  0  0  0
   -2.4000   -0.5100   39.4490 O   0  0  0  0  0
   -2.8700   -0.7080   40.7850 C   0  0  0  0  0
   -1.6286   -0.0573   35.4373 H   0  0  0  0  0
    0.8388   -1.2301   36.6320 H   0  0  0  0  0
   -0.8506   -2.2589   38.4269 H   0  0  0  0  0
   -1.6003   -2.9701   34.5107 H   0  0  0  0  0
    0.9121   -2.1658   34.3159 H   0  0  0  0  0
   -0.6189   -1.3355   33.9450 H   0  0  0  0  0
    0.8476   -0.3864   34.2908 H   0  0  0  0  0
   -3.0890    1.2897   33.5351 H   0  0  0  0  0
   -3.7481    2.9027   33.9022 H   0  0  0  0  0
   -2.0781    2.7378   33.3063 H   0  0  0  0  0
   -5.1081    2.2519   35.7208 H   0  0  0  0  0
   -6.3036    1.2281   37.6396 H   0  0  0  0  0
   -5.0761   -0.0739   39.3536 H   0  0  0  0  0
   -2.9747    0.2580   41.2789 H   0  0  0  0  0
   -3.8369   -1.2104   40.7579 H   0  0  0  0  0
   -2.1553   -1.3220   41.3330 H   0  0  0  0  0
  1  2  2  0  0  0
  2  3  1  0  0  0
  2  9  1  0  0  0
  3  4  1  0  0  0
  4  5  1  0  0  0
  4  8  1  0  0  0
  5  6  1  0  0  0
  5  7  1  0  0  0
  9 10  4  0  0  0
  9 16  4  0  0  0
 10 11  1  0  0  0
 10 13  4  0  0  0
 11 12  1  0  0  0
 13 14  4  0  0  0
 14 15  4  0  0  0
 15 16  4  0  0  0
 16 17  1  0  0  0
 17 18  1  0  0  0
  3 19  1  0  0  0
  4 20  1  0  0  0
  6 21  1  0  0  0
  7 22  1  0  0  0
  8 23  1  0  0  0
  8 24  1  0  0  0
  8 25  1  0  0  0
 12 26  1  0  0  0
 12 27  1  0  0  0
 12 28  1  0  0  0
 13 29  1  0  0  0
 14 30  1  0  0  0
 15 31  1  0  0  0
 18 32  1  0  0  0
 18 33  1  0  0  0
 18 34  1  0  0  0
M  END
$$$$
