### 
### Created by X-TOOL on Mon Sep 10 21:13:06 2018
### 

@<TRIPOS>MOLECULE
2xln_ligand
   34    34     1     0     0
SMALL
GAST_HUCK


@<TRIPOS>ATOM
      1 O6         -0.2770    0.9160   38.1110 O.2       1 EWA        -0.3996
      2 C5         -1.0330    0.7510   37.1540 C.2       1 EWA         0.1652
      3 N4         -0.9450   -0.1690   36.1860 N.am      1 EWA        -0.4416
      4 C3         -0.0580   -1.2860   36.0150 C.3       1 EWA        -0.2305
      5 B          -0.8610   -2.5970   36.3950 B         1 EWA         3.0000
      6 O2         -1.5250   -2.4240   37.7640 O.3       1 EWA        -0.8710
      7 O1         -1.9800   -2.8560   35.3850 O.3       1 EWA        -0.8710
      8 C16         0.2960   -1.2940   34.5360 C.3       1 EWA        -0.1732
      9 C7         -2.5190    0.8100   37.3220 C.ar      1 EWA         0.1038
     10 C14        -3.1610    1.5970   36.3740 C.ar      1 EWA         0.1042
     11 O15        -2.3830    2.1660   35.2710 O.3       1 EWA        -0.3185
     12 C15        -2.8530    2.2810   33.9220 C.3       1 EWA         0.0609
     13 C13        -4.5470    1.7070   36.4800 C.ar      1 EWA        -0.0378
     14 C12        -5.2220    1.1190   37.5600 C.ar      1 EWA        -0.0746
     15 C11        -4.5310    0.3960   38.5350 C.ar      1 EWA        -0.0378
     16 C8         -3.1400    0.2750   38.4610 C.ar      1 EWA         0.1042
     17 O9         -2.4000   -0.5100   39.4490 O.3       1 EWA        -0.3185
     18 C10        -2.8700   -0.7080   40.7850 C.3       1 EWA         0.0609
     19 H          -1.6286   -0.0573   35.4373 H         1 EWA         0.1447
     20 H           0.8388   -1.2301   36.6320 H         1 EWA        -0.1826
     21 H          -2.0066   -3.2235   37.9881 H         1 EWA        -0.1290
     22 H          -2.5828   -2.1089   35.3783 H         1 EWA        -0.1290
     23 H           0.9121   -2.1658   34.3159 H         1 EWA        -0.0100
     24 H          -0.6189   -1.3355   33.9450 H         1 EWA        -0.0100
     25 H           0.8476   -0.3864   34.2908 H         1 EWA        -0.0100
     26 H          -3.0890    1.2897   33.5351 H         1 EWA         0.0581
     27 H          -3.7481    2.9027   33.9022 H         1 EWA         0.0581
     28 H          -2.0781    2.7378   33.3063 H         1 EWA         0.0581
     29 H          -5.1081    2.2519   35.7208 H         1 EWA         0.0463
     30 H          -6.3036    1.2281   37.6396 H         1 EWA         0.0598
     31 H          -5.0761   -0.0739   39.3536 H         1 EWA         0.0463
     32 H          -2.9747    0.2580   41.2789 H         1 EWA         0.0581
     33 H          -3.8369   -1.2104   40.7579 H         1 EWA         0.0581
     34 H          -2.1553   -1.3220   41.3330 H         1 EWA         0.0581
@<TRIPOS>BOND
     1    1    2 2  
     2    2    3 am 
     3    2    9 1  
     4    3    4 1  
     5    4    5 1  
     6    4    8 1  
     7    5    6 1  
     8    5    7 1  
     9    9   10 ar 
    10    9   16 ar 
    11   10   11 1  
    12   10   13 ar 
    13   11   12 1  
    14   13   14 ar 
    15   14   15 ar 
    16   15   16 ar 
    17   16   17 1  
    18   17   18 1  
    19    3   19 1  
    20    4   20 1  
    21    6   21 1  
    22    7   22 1  
    23    8   23 1  
    24    8   24 1  
    25    8   25 1  
    26   12   26 1  
    27   12   27 1  
    28   12   28 1  
    29   13   29 1  
    30   14   30 1  
    31   15   31 1  
    32   18   32 1  
    33   18   33 1  
    34   18   34 1  
@<TRIPOS>SUBSTRUCTURE
     1 EWA         1

