6gxb_ligand
  -I-interpret- 

 53 54  0  0  0  0  0  0  0  0999 V2000
   14.8180    5.2130   15.8170 C   0  0  0  0  0
   17.0650    4.4080   15.5940 C   0  0  0  0  0
   17.4120    5.5770   14.8960 C   0  0  0  0  0
   16.4460    6.5700   14.6650 C   0  0  0  0  0
   15.1490    6.3940   15.1800 C   0  0  0  0  0
   15.9150    8.3630   13.0220 C   0  0  0  0  0
   15.7640   10.1450   11.3290 C   0  0  0  0  0
   15.9180   11.5420   11.2330 C   0  0  0  0  0
   15.2550   12.2730   10.2770 C   0  0  0  0  0
   14.4060   11.5990    9.3690 C   0  0  0  0  0
   14.2430   10.2340    9.4380 C   0  0  0  0  0
   14.9040    9.5110   10.4300 C   0  0  0  0  0
   10.1410   13.9060    6.6120 C   0  0  0  0  0
    9.2290   15.7120    4.7170 O   0  0  0  0  0
   15.8520    2.8030   18.1940 O   0  0  0  0  0
   15.3030    2.7410   16.8500 S   0  0  0  0  0
   15.8980    1.5220   16.0900 O   0  0  0  0  0
   13.8540    2.6970   16.7490 N   0  0  0  0  0
   15.7660    4.1800   16.0400 C   0  0  0  0  0
   16.7710    7.7060   13.9100 N   0  0  0  0  0
   14.6840    8.1390   12.9800 O   0  0  0  0  0
   16.4050    9.4690   12.3840 N   0  0  0  0  0
   13.7470   12.3370    8.3450 O   0  0  0  0  0
   13.5330   13.7380    8.5700 C   0  0  0  0  0
   12.5240   14.2280    7.5370 C   0  0  0  0  0
   11.2020   13.4980    7.5930 C   0  0  0  0  0
    9.5550   15.1820    6.8510 N   0  0  0  0  0
    9.1640   16.0630    5.9120 C   0  0  0  0  0
    8.3720   17.2640    6.4020 C   0  0  0  0  0
   13.7934    5.0697   16.1601 H   0  0  0  0  0
   17.8329    3.6601   15.7915 H   0  0  0  0  0
   18.4310    5.7132   14.5338 H   0  0  0  0  0
   14.4075    7.1863   15.0771 H   0  0  0  0  0
   16.5780   12.0545   11.9329 H   0  0  0  0  0
   15.3813   13.3541   10.2195 H   0  0  0  0  0
   13.6011    9.7215    8.7215 H   0  0  0  0  0
   14.7471    8.4349   10.5049 H   0  0  0  0  0
    9.3391   13.1723    6.6941 H   0  0  0  0  0
   10.6211   13.9594    5.6349 H   0  0  0  0  0
   13.2832    2.7104   17.5942 H   0  0  0  0  0
   13.4077    2.6527   15.8329 H   0  0  0  0  0
   17.7118    8.0849   14.0181 H   0  0  0  0  0
   17.3052    9.8323   12.6972 H   0  0  0  0  0
   14.4709   14.2844    8.4712 H   0  0  0  0  0
   13.1537   13.9055    9.5781 H   0  0  0  0  0
   12.9535   14.0531    6.5506 H   0  0  0  0  0
   12.3268   15.2797    7.7446 H   0  0  0  0  0
   11.4316   12.4581    7.3604 H   0  0  0  0  0
   10.7891   13.7151    8.5781 H   0  0  0  0  0
    9.4190   15.4533    7.8248 H   0  0  0  0  0
    8.7506   18.1671    5.9233 H   0  0  0  0  0
    7.3199   17.1313    6.1498 H   0  0  0  0  0
    8.4794   17.3519    7.4831 H   0  0  0  0  0
  5  1  4  0  0  0
  1 19  4  0  0  0
  3  2  4  0  0  0
  2 19  4  0  0  0
  4  3  4  0  0  0
  4  5  4  0  0  0
 20  4  1  0  0  0
  6 20  1  0  0  0
  6 21  2  0  0  0
 22  6  1  0  0  0
  8  7  4  0  0  0
 12  7  4  0  0  0
  7 22  1  0  0  0
  9  8  4  0  0  0
 10  9  4  0  0  0
 10 11  4  0  0  0
 23 10  1  0  0  0
 11 12  4  0  0  0
 13 26  1  0  0  0
 27 13  1  0  0  0
 28 14  2  0  0  0
 16 15  2  0  0  0
 16 17  2  0  0  0
 16 18  1  0  0  0
 19 16  1  0  0  0
 24 23  1  0  0  0
 25 24  1  0  0  0
 26 25  1  0  0  0
 27 28  1  0  0  0
 28 29  1  0  0  0
  1 30  1  0  0  0
  2 31  1  0  0  0
  3 32  1  0  0  0
  5 33  1  0  0  0
  8 34  1  0  0  0
  9 35  1  0  0  0
 11 36  1  0  0  0
 12 37  1  0  0  0
 13 38  1  0  0  0
 13 39  1  0  0  0
 18 40  1  0  0  0
 18 41  1  0  0  0
 20 42  1  0  0  0
 22 43  1  0  0  0
 24 44  1  0  0  0
 24 45  1  0  0  0
 25 46  1  0  0  0
 25 47  1  0  0  0
 26 48  1  0  0  0
 26 49  1  0  0  0
 27 50  1  0  0  0
 29 51  1  0  0  0
 29 52  1  0  0  0
 29 53  1  0  0  0
M  END
$$$$
