1ibg_ligand
  -I-interpret- 

 85 90  0  0  0  0  0  0  0  0999 V2000
    6.9710   11.8370   41.9510 C   0  0  0  0  0
    5.9560   11.9670   43.0680 C   0  0  0  0  0
    5.4240   10.6210   43.5440 C   0  0  0  0  0
    5.0390    9.6940   42.3750 C   0  0  0  0  0
    5.9520    9.6640   41.1110 C   0  0  0  0  0
    5.2010    9.0170   39.9300 C   0  0  0  0  0
    3.8690    9.7320   39.7060 C   0  0  0  0  0
    4.1560   11.1360   39.2150 C   0  0  0  0  0
    4.9770   11.9610   40.2210 C   0  0  0  0  0
    6.3030   11.1670   40.6900 C   0  0  0  0  0
    5.1370   13.4020   39.6330 C   0  0  0  0  0
    3.8190   14.0640   39.2490 C   0  0  0  0  0
    3.0650   13.3000   38.1650 C   0  0  0  0  0
    2.9000   11.8250   38.6330 C   0  0  0  0  0
    1.7050   11.9330   39.5610 C   0  0  0  0  0
    0.8730   13.1380   39.1160 C   0  0  0  0  0
    1.6480   13.8700   38.0430 C   0  0  0  0  0
    3.8590   13.4120   36.8630 C   0  0  0  0  0
    7.3710   11.0370   39.5680 C   0  0  0  0  0
    0.9680   13.8470   36.6910 C   0  0  0  0  0
    0.9090   15.0200   35.7670 C   0  0  0  0  0
    0.2770   12.8560   36.0790 C   0  0  0  0  0
   -0.3010   13.3270   34.8260 C   0  0  0  0  0
    5.7480    8.9910   45.3530 C   0  0  0  0  0
    6.9180    8.3560   46.1130 C   0  0  0  0  0
    7.6650    9.4740   46.8850 C   0  0  0  0  0
    6.7460   10.1000   47.9390 C   0  0  0  0  0
    5.3560   10.4590   47.3760 C   0  0  0  0  0
    4.3480   10.5060   48.5180 C   0  0  0  0  0
    8.1270   11.0920   42.3910 O   0  0  0  0  0
    6.2900   10.0080   44.4710 O   0  0  0  0  0
    7.1160    8.8120   41.3820 O   0  0  0  0  0
    5.8710   14.3020   40.4540 O   0  0  0  0  0
    2.4330   11.0510   37.5190 O   0  0  0  0  0
    8.2330   12.1910   39.4660 O   0  0  0  0  0
    0.0120   14.6140   34.6910 O   0  0  0  0  0
   -1.0190   12.7690   33.9960 O   0  0  0  0  0
    6.3600    7.3530   46.9950 O   0  0  0  0  0
    8.9210    9.0670   47.4780 O   0  0  0  0  0
    7.3720   11.3310   48.3140 O   0  0  0  0  0
    4.8580    9.4940   46.3940 O   0  0  0  0  0
    7.3125   12.8330   41.6689 H   0  0  0  0  0
    5.1127   12.5427   42.6866 H   0  0  0  0  0
    6.4496   12.4478   43.9126 H   0  0  0  0  0
    4.4965   10.8201   44.0808 H   0  0  0  0  0
    4.0781   10.0679   42.0216 H   0  0  0  0  0
    5.0894    8.6853   42.7849 H   0  0  0  0  0
    5.0121    7.9675   40.1558 H   0  0  0  0  0
    5.8090    9.0991   39.0291 H   0  0  0  0  0
    3.3055    9.7710   40.6382 H   0  0  0  0  0
    3.2760    9.1927   38.9673 H   0  0  0  0  0
    4.8236   11.0575   38.3569 H   0  0  0  0  0
    4.4730   12.0992   41.1775 H   0  0  0  0  0
    5.7178   13.2138   38.7300 H   0  0  0  0  0
    4.0458   15.0567   38.8603 H   0  0  0  0  0
    3.1883   14.0906   40.1376 H   0  0  0  0  0
    2.0369   12.0625   40.5911 H   0  0  0  0  0
    1.1070   11.0229   39.5146 H   0  0  0  0  0
    0.6848   13.7990   39.9620 H   0  0  0  0  0
   -0.0899   12.8077   38.7263 H   0  0  0  0  0
    1.6937   14.9513   38.1724 H   0  0  0  0  0
    3.9536   14.4619   36.5858 H   0  0  0  0  0
    4.8503   12.9817   37.0053 H   0  0  0  0  0
    3.3371   12.8719   36.0730 H   0  0  0  0  0
    6.8430   10.9345   38.6199 H   0  0  0  0  0
    7.9972   10.1772   39.8063 H   0  0  0  0  0
    1.8966   15.2845   35.3891 H   0  0  0  0  0
    0.5487   15.9145   36.2750 H   0  0  0  0  0
    0.1678   11.8443   36.4698 H   0  0  0  0  0
    5.1844    8.3155   44.7094 H   0  0  0  0  0
    7.6398    7.8772   45.4513 H   0  0  0  0  0
    7.9327   10.2173   46.1341 H   0  0  0  0  0
    6.6056    9.3927   48.7564 H   0  0  0  0  0
    5.4681   11.4228   46.8793 H   0  0  0  0  0
    4.3054    9.5311   49.0037 H   0  0  0  0  0
    4.6557   11.2608   49.2417 H   0  0  0  0  0
    3.3644   10.7596   48.1226 H   0  0  0  0  0
    8.5111   11.5230   43.1580 H   0  0  0  0  0
    6.8177    7.9328   41.6261 H   0  0  0  0  0
    5.9221   15.1580   40.0224 H   0  0  0  0  0
    1.6522   11.4671   37.1465 H   0  0  0  0  0
    8.8684   12.0530   38.7597 H   0  0  0  0  0
    7.0681    6.9331   47.4888 H   0  0  0  0  0
    9.3153    9.8142   47.9339 H   0  0  0  0  0
    6.8367   11.7716   48.9780 H   0  0  0  0  0
  2  1  1  0  0  0
  1 10  1  0  0  0
  1 30  1  0  0  0
  3  2  1  0  0  0
  3  4  1  0  0  0
 31  3  1  0  0  0
  4  5  1  0  0  0
  5  6  1  0  0  0
  5 10  1  0  0  0
  5 32  1  0  0  0
  6  7  1  0  0  0
  7  8  1  0  0  0
  9  8  1  0  0  0
  8 14  1  0  0  0
 10  9  1  0  0  0
  9 11  1  0  0  0
 10 19  1  0  0  0
 11 12  1  0  0  0
 11 33  1  0  0  0
 12 13  1  0  0  0
 14 13  1  0  0  0
 13 17  1  0  0  0
 13 18  1  0  0  0
 14 15  1  0  0  0
 14 34  1  0  0  0
 15 16  1  0  0  0
 17 16  1  0  0  0
 17 20  1  0  0  0
 19 35  1  0  0  0
 20 21  1  0  0  0
 20 22  2  0  0  0
 21 36  1  0  0  0
 22 23  1  0  0  0
 23 36  1  0  0  0
 23 37  2  0  0  0
 24 25  1  0  0  0
 24 31  1  0  0  0
 24 41  1  0  0  0
 25 26  1  0  0  0
 25 38  1  0  0  0
 26 27  1  0  0  0
 26 39  1  0  0  0
 27 28  1  0  0  0
 27 40  1  0  0  0
 28 29  1  0  0  0
 28 41  1  0  0  0
  1 42  1  0  0  0
  2 43  1  0  0  0
  2 44  1  0  0  0
  3 45  1  0  0  0
  4 46  1  0  0  0
  4 47  1  0  0  0
  6 48  1  0  0  0
  6 49  1  0  0  0
  7 50  1  0  0  0
  7 51  1  0  0  0
  8 52  1  0  0  0
  9 53  1  0  0  0
 11 54  1  0  0  0
 12 55  1  0  0  0
 12 56  1  0  0  0
 15 57  1  0  0  0
 15 58  1  0  0  0
 16 59  1  0  0  0
 16 60  1  0  0  0
 17 61  1  0  0  0
 18 62  1  0  0  0
 18 63  1  0  0  0
 18 64  1  0  0  0
 19 65  1  0  0  0
 19 66  1  0  0  0
 21 67  1  0  0  0
 21 68  1  0  0  0
 22 69  1  0  0  0
 24 70  1  0  0  0
 25 71  1  0  0  0
 26 72  1  0  0  0
 27 73  1  0  0  0
 28 74  1  0  0  0
 29 75  1  0  0  0
 29 76  1  0  0  0
 29 77  1  0  0  0
 30 78  1  0  0  0
 32 79  1  0  0  0
 33 80  1  0  0  0
 34 81  1  0  0  0
 35 82  1  0  0  0
 38 83  1  0  0  0
 39 84  1  0  0  0
 40 85  1  0  0  0
M  END
$$$$
