1s19_ligand
  -I-interpret- 

 70 73  0  0  0  0  0  0  0  0999 V2000
   17.0960   18.1590   34.7840 O   0  0  0  0  0
   13.1260   17.4540   36.5350 O   0  0  0  0  0
   14.1810   18.0370   35.6980 C   0  0  0  0  0
   14.9150   16.9590   34.7840 C   0  0  0  0  0
   16.0750   17.6280   33.8850 C   0  0  0  0  0
   15.4830   18.8070   32.9870 C   0  0  0  0  0
   14.6780   19.8850   33.7870 C   0  0  0  0  0
   14.8630   21.2550   33.6570 C   0  0  0  0  0
   14.2010   22.4150   34.3140 C   0  0  0  0  0
   13.9860   23.6240   33.8520 C   0  0  0  0  0
   14.4350   24.1110   32.3790 C   0  0  0  0  0
   13.6010   19.1950   34.7730 C   0  0  0  0  0
   13.1870   24.6460   31.4910 C   0  0  0  0  0
   12.2310   25.5920   32.3910 C   0  0  0  0  0
   11.8140   25.1290   33.9600 C   0  0  0  0  0
   13.2500   24.7290   34.6670 C   0  0  0  0  0
   12.6990   24.3720   36.2220 C   0  0  0  0  0
   11.4750   25.3840   36.3800 C   0  0  0  0  0
   11.4180   26.1800   35.0200 C   0  0  0  0  0
   10.7870   23.7830   33.6420 C   0  0  0  0  0
   12.2570   19.5560   34.8130 C   0  0  0  0  0
    9.9380   26.8860   34.7250 C   0  0  0  0  0
    8.6080   26.1550   35.0790 C   0  0  0  0  0
    6.1080   25.6110   34.6940 C   0  0  0  0  0
    9.8650   28.2480   35.4480 C   0  0  0  0  0
    5.5480   24.5800   33.5850 C   0  0  0  0  0
    5.0380   25.5240   32.4720 C   0  0  0  0  0
    4.2940   24.3490   33.2310 C   0  0  0  0  0
    5.2530   26.7520   34.9730 O   0  0  0  0  0
    7.5040   26.0930   34.2820 C   0  0  0  0  0
   17.4490   17.4465   35.3219 H   0  0  0  0  0
   13.5003   16.7597   37.0823 H   0  0  0  0  0
   14.9171   18.4469   36.3895 H   0  0  0  0  0
   14.1764   16.5155   34.1163 H   0  0  0  0  0
   15.3720   16.2126   35.4337 H   0  0  0  0  0
   16.5016   16.8778   33.2191 H   0  0  0  0  0
   14.7921   18.3529   32.2767 H   0  0  0  0  0
   16.3301   19.3157   32.5269 H   0  0  0  0  0
   15.6366   21.5325   32.9410 H   0  0  0  0  0
   13.8424   22.2335   35.3272 H   0  0  0  0  0
   14.8724   23.2567   31.8622 H   0  0  0  0  0
   15.1391   24.9345   32.4982 H   0  0  0  0  0
   12.6112   23.7930   31.1319 H   0  0  0  0  0
   13.5683   25.2212   30.6473 H   0  0  0  0  0
   11.2833   25.6102   31.8528 H   0  0  0  0  0
   12.8040   26.5099   32.5224 H   0  0  0  0  0
   14.0452   25.4737   34.7004 H   0  0  0  0  0
   13.4629   24.4948   36.9898 H   0  0  0  0  0
   12.4152   23.3275   36.3505 H   0  0  0  0  0
   11.6124   26.0513   37.2309 H   0  0  0  0  0
   10.5411   24.8576   36.5771 H   0  0  0  0  0
   12.0896   27.0385   35.0211 H   0  0  0  0  0
    9.9367   24.1098   33.0434 H   0  0  0  0  0
   11.3457   23.0221   33.0969 H   0  0  0  0  0
   10.4311   23.3684   34.5851 H   0  0  0  0  0
   11.8840   20.3418   34.1562 H   0  0  0  0  0
   11.5778   19.0528   35.5011 H   0  0  0  0  0
    9.9535   26.8992   33.6352 H   0  0  0  0  0
    8.5563   25.6514   36.0443 H   0  0  0  0  0
    6.1384   25.0478   35.6267 H   0  0  0  0  0
    9.9887   28.0958   36.5202 H   0  0  0  0  0
   10.6585   28.8973   35.0780 H   0  0  0  0  0
    8.8965   28.7092   35.2545 H   0  0  0  0  0
    6.2461   23.7738   33.8104 H   0  0  0  0  0
    5.2593   25.9626   31.4990 H   0  0  0  0  0
    4.9690   26.5593   32.1381 H   0  0  0  0  0
    3.3409   24.2211   33.7442 H   0  0  0  0  0
    3.7024   23.4782   32.9484 H   0  0  0  0  0
    5.6664   27.3047   35.6403 H   0  0  0  0  0
    7.6257   26.4185   33.2489 H   0  0  0  0  0
  5  1  1  0  0  0
  3  2  1  0  0  0
  3  4  1  0  0  0
 12  3  1  0  0  0
  5  4  1  0  0  0
  6  5  1  0  0  0
  7  6  1  0  0  0
  8  7  2  0  0  0
  7 12  1  0  0  0
  9  8  1  0  0  0
 10  9  2  0  0  0
 10 11  1  0  0  0
 16 10  1  0  0  0
 13 11  1  0  0  0
 12 21  2  0  0  0
 14 13  1  0  0  0
 15 14  1  0  0  0
 15 16  1  0  0  0
 19 15  1  0  0  0
 15 20  1  0  0  0
 17 16  1  0  0  0
 18 17  1  0  0  0
 19 18  1  0  0  0
 22 19  1  0  0  0
 23 22  1  0  0  0
 22 25  1  0  0  0
 30 23  2  0  0  0
 24 26  1  0  0  0
 24 29  1  0  0  0
 24 30  1  0  0  0
 26 27  1  0  0  0
 26 28  1  0  0  0
 27 28  1  0  0  0
  1 31  1  0  0  0
  2 32  1  0  0  0
  3 33  1  0  0  0
  4 34  1  0  0  0
  4 35  1  0  0  0
  5 36  1  0  0  0
  6 37  1  0  0  0
  6 38  1  0  0  0
  8 39  1  0  0  0
  9 40  1  0  0  0
 11 41  1  0  0  0
 11 42  1  0  0  0
 13 43  1  0  0  0
 13 44  1  0  0  0
 14 45  1  0  0  0
 14 46  1  0  0  0
 16 47  1  0  0  0
 17 48  1  0  0  0
 17 49  1  0  0  0
 18 50  1  0  0  0
 18 51  1  0  0  0
 19 52  1  0  0  0
 20 53  1  0  0  0
 20 54  1  0  0  0
 20 55  1  0  0  0
 21 56  1  0  0  0
 21 57  1  0  0  0
 22 58  1  0  0  0
 23 59  1  0  0  0
 24 60  1  0  0  0
 25 61  1  0  0  0
 25 62  1  0  0  0
 25 63  1  0  0  0
 26 64  1  0  0  0
 27 65  1  0  0  0
 27 66  1  0  0  0
 28 67  1  0  0  0
 28 68  1  0  0  0
 29 69  1  0  0  0
 30 70  1  0  0  0
M  END
$$$$
