4anw_ligand
  -I-interpret- 

 44 46  0  0  0  0  0  0  0  0999 V2000
   47.5780   17.6520   32.5630 C   0  0  0  0  0
   47.2490   16.3180   32.0220 N   0  0  0  0  0
   48.1620   15.6060   31.3230 C   0  0  0  0  0
   49.3120   15.9660   31.0550 O   0  0  0  0  0
   47.6430   14.2350   30.8340 C   0  0  0  0  0
   46.3420   13.9730   31.0110 N   0  0  0  0  0
   48.4500   13.2700   30.2020 C   0  0  0  0  0
   49.7520   13.4990   30.0030 N   0  0  0  0  0
   47.8990   12.0940   29.8050 N   0  0  0  0  0
   46.6120   11.8420   29.9970 C   0  0  0  0  0
   45.8010   12.8090   30.6170 C   0  0  0  0  0
   44.4360   12.6380   30.8690 C   0  0  0  0  0
   43.8750   13.2050   32.0260 C   0  0  0  0  0
   43.6370   11.9230   29.9850 C   0  0  0  0  0
   42.2880   11.7840   30.2720 C   0  0  0  0  0
   41.7290   12.3420   31.4240 C   0  0  0  0  0
   40.0550   12.1140   31.6980 Cl  0  0  0  0  0
   42.5150   13.0730   32.3320 C   0  0  0  0  0
   41.8480   13.8400   33.8570 S   0  0  0  0  0
   40.8990   14.9740   33.5160 O   0  0  0  0  0
   41.1050   12.8370   34.6690 O   0  0  0  0  0
   43.1300   14.3940   34.6740 N   0  0  0  0  0
   43.5160   15.6840   34.6300 C   0  0  0  0  0
   44.0870   16.2100   35.8310 C   0  0  0  0  0
   44.5750   17.5880   35.9520 C   0  0  0  0  0
   44.4260   18.3890   34.8260 C   0  0  0  0  0
   43.8560   17.8860   33.6480 C   0  0  0  0  0
   43.7160   18.6900   32.5670 F   0  0  0  0  0
   43.4180   16.5690   33.5460 C   0  0  0  0  0
   42.8760   16.2120   32.3700 F   0  0  0  0  0
   48.4167   17.5658   33.2539 H   0  0  0  0  0
   47.8476   18.3185   31.7437 H   0  0  0  0  0
   46.7118   18.0530   33.0893 H   0  0  0  0  0
   46.3195   15.9278   32.1778 H   0  0  0  0  0
   50.1679   14.3783   30.3099 H   0  0  0  0  0
   50.3295   12.7944   29.5443 H   0  0  0  0  0
   46.1852   10.8916   29.6765 H   0  0  0  0  0
   44.5179   13.7644   32.7056 H   0  0  0  0  0
   44.0624   11.4805   29.0843 H   0  0  0  0  0
   41.6505   11.2279   29.5847 H   0  0  0  0  0
   43.6670   13.7410   35.2447 H   0  0  0  0  0
   44.1633   15.5550   36.6989 H   0  0  0  0  0
   45.0276   17.9616   36.8705 H   0  0  0  0  0
   44.7582   19.4266   34.8594 H   0  0  0  0  0
  1  2  1  0  0  0
  2  3  1  0  0  0
  3  4  2  0  0  0
  3  5  1  0  0  0
  5  6  4  0  0  0
  5  7  4  0  0  0
  6 11  4  0  0  0
  7  8  1  0  0  0
  7  9  4  0  0  0
  9 10  4  0  0  0
 10 11  4  0  0  0
 11 12  1  0  0  0
 12 13  4  0  0  0
 12 14  4  0  0  0
 13 18  4  0  0  0
 14 15  4  0  0  0
 15 16  4  0  0  0
 16 17  1  0  0  0
 16 18  4  0  0  0
 18 19  1  0  0  0
 19 20  2  0  0  0
 19 21  2  0  0  0
 19 22  1  0  0  0
 22 23  1  0  0  0
 23 24  4  0  0  0
 23 29  4  0  0  0
 24 25  4  0  0  0
 25 26  4  0  0  0
 26 27  4  0  0  0
 27 28  1  0  0  0
 27 29  4  0  0  0
 29 30  1  0  0  0
  1 31  1  0  0  0
  1 32  1  0  0  0
  1 33  1  0  0  0
  2 34  1  0  0  0
  8 35  1  0  0  0
  8 36  1  0  0  0
 10 37  1  0  0  0
 13 38  1  0  0  0
 14 39  1  0  0  0
 15 40  1  0  0  0
 22 41  1  0  0  0
 24 42  1  0  0  0
 25 43  1  0  0  0
 26 44  1  0  0  0
M  END
$$$$
