3o9d_ligand
  -I-interpret- 

 78 82  0  0  0  0  0  0  0  0999 V2000
   15.4230   36.5910   18.5040 C   0  0  0  0  0
   14.9650   35.3250   18.5930 N   0  0  0  0  0
   16.6670   36.8450   17.3180 S   0  0  0  0  0
   15.5860   34.4770   17.7090 C   0  0  0  0  0
   16.5510   35.1650   16.9660 C   0  0  0  0  0
   17.3010   34.4470   15.9980 C   0  0  0  0  0
   17.1400   33.0660   15.7560 C   0  0  0  0  0
   16.1580   32.4210   16.5200 C   0  0  0  0  0
   15.4000   33.1190   17.4800 C   0  0  0  0  0
   18.0450   32.1760   14.7100 S   0  0  0  0  0
   18.5810   33.0370   13.6850 O   0  0  0  0  0
   17.2750   31.0920   14.1970 O   0  0  0  0  0
   19.3380   31.5720   15.4780 N   0  0  0  0  0
   20.0850   32.5990   16.2530 C   0  0  0  0  0
   21.5850   32.3130   16.2950 C   0  0  0  0  0
   22.2520   32.2240   14.9210 C   0  0  0  0  0
   22.2790   33.3600   17.1790 C   0  0  0  0  0
   19.0480   30.3530   16.2500 C   0  0  0  0  0
   19.9220   29.2230   15.7060 C   0  0  0  0  0
   22.1480   34.7680   16.6620 C   0  0  0  0  0
   19.8890   28.0940   16.5910 O   0  0  0  0  0
   19.5400   28.7640   14.3060 C   0  0  0  0  0
   20.6410   27.9570   13.8350 N   0  0  0  0  0
   21.4870   28.3090   12.8780 C   0  0  0  0  0
   21.5370   29.3390   12.2230 O   0  0  0  0  0
   22.4430   27.2710   12.6300 O   0  0  0  0  0
   23.2910   27.3900   11.4990 C   0  0  0  0  0
   24.6060   26.7870   11.9600 C   0  0  0  0  0
   24.3880   25.3850   11.8250 O   0  0  0  0  0
   23.5020   25.1410   10.7440 C   0  0  0  0  0
   22.5060   24.2330   11.1720 O   0  0  0  0  0
   21.2210   24.8640   11.2200 C   0  0  0  0  0
   21.3530   26.1120   10.3620 C   0  0  0  0  0
   22.8300   26.4570   10.3990 C   0  0  0  0  0
   18.2540   27.9490   14.1900 C   0  0  0  0  0
   17.6740   28.5440   11.8030 C   0  0  0  0  0
   17.4470   28.1940   10.4720 C   0  0  0  0  0
   17.5270   26.8780   10.0750 C   0  0  0  0  0
   17.8370   25.8960   10.9980 C   0  0  0  0  0
   18.0700   26.2470   12.3170 C   0  0  0  0  0
   17.9940   27.5700   12.7390 C   0  0  0  0  0
   15.0402   37.3963   19.1309 H   0  0  0  0  0
   18.0405   34.9912   15.4105 H   0  0  0  0  0
   15.9771   31.3569   16.3680 H   0  0  0  0  0
   14.6487   32.5807   18.0578 H   0  0  0  0  0
   19.7096   32.5908   17.2763 H   0  0  0  0  0
   19.9374   33.5637   15.7675 H   0  0  0  0  0
   21.7006   31.3179   16.7247 H   0  0  0  0  0
   21.7912   31.4206   14.3462 H   0  0  0  0  0
   22.1233   33.1695   14.3941 H   0  0  0  0  0
   23.3150   32.0187   15.0472 H   0  0  0  0  0
   23.3414   33.1172   17.2002 H   0  0  0  0  0
   21.8039   33.3264   18.1594 H   0  0  0  0  0
   17.9944   30.0908   16.1540 H   0  0  0  0  0
   19.2636   30.5181   17.3056 H   0  0  0  0  0
   20.9278   29.6383   15.6432 H   0  0  0  0  0
   22.5939   34.8322   15.6694 H   0  0  0  0  0
   21.0931   35.0364   16.6058 H   0  0  0  0  0
   22.6626   35.4512   17.3377 H   0  0  0  0  0
   20.4419   27.3942   16.2358 H   0  0  0  0  0
   19.3458   29.6615   13.7187 H   0  0  0  0  0
   20.7779   27.0459   14.2727 H   0  0  0  0  0
   23.3250   28.4211   11.1471 H   0  0  0  0  0
   24.8661   27.0754   12.9785 H   0  0  0  0  0
   25.4566   27.1379   11.3757 H   0  0  0  0  0
   24.0376   24.7341    9.8863 H   0  0  0  0  0
   20.9330   25.1092   12.2423 H   0  0  0  0  0
   20.4365   24.2042   10.8495 H   0  0  0  0  0
   20.7371   26.9288   10.7383 H   0  0  0  0  0
   21.0025   25.9422    9.3440 H   0  0  0  0  0
   23.0605   26.9447    9.4518 H   0  0  0  0  0
   17.4200   28.5485   14.5549 H   0  0  0  0  0
   18.3562   27.0391   14.7814 H   0  0  0  0  0
   17.5998   29.5873   12.1097 H   0  0  0  0  0
   17.2049   28.9665    9.7421 H   0  0  0  0  0
   17.3461   26.6104    9.0339 H   0  0  0  0  0
   17.8975   24.8524   10.6892 H   0  0  0  0  0
   18.3183   25.4699   13.0399 H   0  0  0  0  0
  2  1  4  0  0  0
  3  1  4  0  0  0
  4  2  4  0  0  0
  5  3  4  0  0  0
  5  4  4  0  0  0
  9  4  4  0  0  0
  6  5  4  0  0  0
  7  6  4  0  0  0
  7  8  4  0  0  0
 10  7  1  0  0  0
  8  9  4  0  0  0
 10 11  2  0  0  0
 10 12  2  0  0  0
 13 10  1  0  0  0
 13 14  1  0  0  0
 18 13  1  0  0  0
 14 15  1  0  0  0
 15 16  1  0  0  0
 15 17  1  0  0  0
 17 20  1  0  0  0
 19 18  1  0  0  0
 19 21  1  0  0  0
 22 19  1  0  0  0
 22 23  1  0  0  0
 35 22  1  0  0  0
 23 24  1  0  0  0
 24 25  2  0  0  0
 24 26  1  0  0  0
 26 27  1  0  0  0
 27 28  1  0  0  0
 27 34  1  0  0  0
 28 29  1  0  0  0
 30 29  1  0  0  0
 30 31  1  0  0  0
 34 30  1  0  0  0
 32 31  1  0  0  0
 33 32  1  0  0  0
 34 33  1  0  0  0
 41 35  1  0  0  0
 36 37  4  0  0  0
 36 41  4  0  0  0
 37 38  4  0  0  0
 38 39  4  0  0  0
 39 40  4  0  0  0
 40 41  4  0  0  0
  1 42  1  0  0  0
  6 43  1  0  0  0
  8 44  1  0  0  0
  9 45  1  0  0  0
 14 46  1  0  0  0
 14 47  1  0  0  0
 15 48  1  0  0  0
 16 49  1  0  0  0
 16 50  1  0  0  0
 16 51  1  0  0  0
 17 52  1  0  0  0
 17 53  1  0  0  0
 18 54  1  0  0  0
 18 55  1  0  0  0
 19 56  1  0  0  0
 20 57  1  0  0  0
 20 58  1  0  0  0
 20 59  1  0  0  0
 21 60  1  0  0  0
 22 61  1  0  0  0
 23 62  1  0  0  0
 27 63  1  0  0  0
 28 64  1  0  0  0
 28 65  1  0  0  0
 30 66  1  0  0  0
 32 67  1  0  0  0
 32 68  1  0  0  0
 33 69  1  0  0  0
 33 70  1  0  0  0
 34 71  1  0  0  0
 35 72  1  0  0  0
 35 73  1  0  0  0
 36 74  1  0  0  0
 37 75  1  0  0  0
 38 76  1  0  0  0
 39 77  1  0  0  0
 40 78  1  0  0  0
M  END
$$$$
