### 
### Created by X-TOOL on Mon Sep 10 21:13:11 2018
### 

@<TRIPOS>MOLECULE
4gz3_ligand
   36    37     1     0     0
SMALL
GAST_HUCK


@<TRIPOS>ATOM
      1 N1        -15.2680   27.6930   14.4530 N.am      1 UDP        -0.1592
      2 C2        -14.1350   27.2220   15.0720 C.2       1 UDP         0.3328
      3 N3        -13.5570   27.9670   16.0730 N.am      1 UDP        -0.1865
      4 C4        -14.1050   29.1840   16.4430 C.2       1 UDP         0.1822
      5 C5        -15.2410   29.6690   15.8010 C.2       1 UDP         0.0062
      6 C6        -15.8380   28.8860   14.8170 C.2       1 UDP         0.0591
      7 O2        -13.6560   26.1330   14.7330 O.2       1 UDP        -0.3815
      8 O4        -13.5770   29.8440   17.3340 O.2       1 UDP        -0.4124
      9 C1'       -15.8350   26.9120   13.3490 C.3       1 UDP         0.2059
     10 C2'       -17.3050   26.5680   13.4620 C.3       1 UDP         0.1387
     11 O2'       -17.5280   25.3740   14.1880 O.3       1 UDP        -0.3836
     12 C3'       -17.6570   26.4320   11.9900 C.3       1 UDP         0.1149
     13 C4'       -16.7670   27.4570   11.3060 C.3       1 UDP         0.1189
     14 O4'       -15.7190   27.7370   12.1990 O.3       1 UDP        -0.3363
     15 O3'       -17.3120   25.1560   11.5040 O.3       1 UDP        -0.3864
     16 C5'       -17.5290   28.7390   10.9970 C.3       1 UDP         0.1132
     17 O5'       -18.0120   28.6690    9.6800 O.3       1 UDP        -0.2436
     18 PA        -19.2280   29.6030    9.1830 P.3       1 UDP         0.3276
     19 O1A       -19.4100   29.4290    7.7300 O.co2     1 UDP        -0.5556
     20 O2A       -19.0060   31.0030    9.5910 O.co2     1 UDP        -0.5556
     21 O3A       -20.4110   28.9260   10.0480 O.3       1 UDP        -0.1548
     22 PB        -21.9950   29.0240    9.7840 P.3       1 UDP         0.2069
     23 O1B       -22.3730   30.1090    8.8400 O.co2     1 UDP        -0.5891
     24 O2B       -22.4530   27.7350    9.2390 O.co2     1 UDP        -0.5891
     25 O3B       -22.5950   29.2790   11.1110 O.co2     1 UDP        -0.5891
     26 H1        -12.7376   27.6286   16.5357 H         1 UDP         0.2259
     27 H2        -15.6545   30.6417   16.0634 H         1 UDP         0.0258
     28 H3        -16.7565   29.2204   14.3369 H         1 UDP         0.1178
     29 H4        -15.2573   25.9833   13.2320 H         1 UDP         0.0997
     30 H5        -17.8719   27.3833   13.9351 H         1 UDP         0.0676
     31 H6        -18.4611   25.2008   14.2317 H         1 UDP         0.2101
     32 H7        -18.7240   26.6339   11.8145 H         1 UDP         0.0648
     33 H8        -16.3674   27.0387   10.3704 H         1 UDP         0.0651
     34 H9        -16.3994   24.9797   11.7003 H         1 UDP         0.2100
     35 H10       -16.8563   29.6033   11.0991 H         1 UDP         0.0648
     36 H11       -18.3721   28.8460   11.6953 H         1 UDP         0.0648
@<TRIPOS>BOND
     1    1    2 am 
     2    1    6 1  
     3    1    9 1  
     4    2    3 am 
     5    2    7 2  
     6    3    4 am 
     7    4    5 1  
     8    4    8 2  
     9    5    6 2  
    10    9   10 1  
    11    9   14 1  
    12   10   11 1  
    13   10   12 1  
    14   12   13 1  
    15   12   15 1  
    16   13   14 1  
    17   13   16 1  
    18   16   17 1  
    19   17   18 1  
    20   18   19 ar 
    21   18   20 ar 
    22   18   21 1  
    23   21   22 1  
    24   22   23 ar 
    25   22   24 ar 
    26   22   25 ar 
    27    3   26 1  
    28    5   27 1  
    29    6   28 1  
    30    9   29 1  
    31   10   30 1  
    32   11   31 1  
    33   12   32 1  
    34   13   33 1  
    35   15   34 1  
    36   16   35 1  
    37   16   36 1  
@<TRIPOS>SUBSTRUCTURE
     1 UDP         1

