4gz3_ligand
  -I-interpret- 

 39 40  0  0  0  0  0  0  0  0999 V2000
  -15.2680   27.6930   14.4530 N   0  0  0  0  0
  -14.1350   27.2220   15.0720 C   0  0  0  0  0
  -13.5570   27.9670   16.0730 N   0  0  0  0  0
  -14.1050   29.1840   16.4430 C   0  0  0  0  0
  -15.2410   29.6690   15.8010 C   0  0  0  0  0
  -15.8380   28.8860   14.8170 C   0  0  0  0  0
  -13.6560   26.1330   14.7330 O   0  0  0  0  0
  -13.5770   29.8440   17.3340 O   0  0  0  0  0
  -15.8350   26.9120   13.3490 C   0  0  0  0  0
  -17.3050   26.5680   13.4620 C   0  0  0  0  0
  -17.5280   25.3740   14.1880 O   0  0  0  0  0
  -17.6570   26.4320   11.9900 C   0  0  0  0  0
  -16.7670   27.4570   11.3060 C   0  0  0  0  0
  -15.7190   27.7370   12.1990 O   0  0  0  0  0
  -17.3120   25.1560   11.5040 O   0  0  0  0  0
  -17.5290   28.7390   10.9970 C   0  0  0  0  0
  -18.0120   28.6690    9.6800 O   0  0  0  0  0
  -19.2280   29.6030    9.1830 P   0  0  0  0  0
  -19.4100   29.4290    7.7300 O   0  0  0  0  0
  -19.0060   31.0030    9.5910 O   0  0  0  0  0
  -20.4110   28.9260   10.0480 O   0  0  0  0  0
  -21.9950   29.0240    9.7840 P   0  0  0  0  0
  -22.3730   30.1090    8.8400 O   0  0  0  0  0
  -22.4530   27.7350    9.2390 O   0  0  0  0  0
  -22.5950   29.2790   11.1110 O   0  0  0  0  0
  -12.7212   27.6219   16.5450 H   0  0  0  0  0
  -15.6548   30.6426   16.0636 H   0  0  0  0  0
  -16.7573   29.2207   14.3364 H   0  0  0  0  0
  -15.2974   25.9640   13.3301 H   0  0  0  0  0
  -17.9047   27.2958   14.0086 H   0  0  0  0  0
  -18.4709   25.1990   14.2321 H   0  0  0  0  0
  -18.7235   26.5748   11.8157 H   0  0  0  0  0
  -16.4018   27.0630   10.3576 H   0  0  0  0  0
  -17.5438   25.0955   10.5744 H   0  0  0  0  0
  -16.8669   29.5983   11.1035 H   0  0  0  0  0
  -18.3616   28.8515   11.6914 H   0  0  0  0  0
  -18.8959   31.0438   10.5438 H   0  0  0  0  0
  -22.0773   30.9529    9.1892 H   0  0  0  0  0
  -22.2825   30.1229   11.4454 H   0  0  0  0  0
  1  2  1  0  0  0
  1  6  1  0  0  0
  1  9  1  0  0  0
  2  3  1  0  0  0
  2  7  2  0  0  0
  3  4  1  0  0  0
  4  5  1  0  0  0
  4  8  2  0  0  0
  5  6  2  0  0  0
  9 10  1  0  0  0
  9 14  1  0  0  0
 10 11  1  0  0  0
 10 12  1  0  0  0
 12 13  1  0  0  0
 12 15  1  0  0  0
 13 14  1  0  0  0
 13 16  1  0  0  0
 16 17  1  0  0  0
 17 18  1  0  0  0
 18 19  2  0  0  0
 18 20  1  0  0  0
 18 21  1  0  0  0
 21 22  1  0  0  0
 22 23  1  0  0  0
 22 24  2  0  0  0
 22 25  1  0  0  0
  3 26  1  0  0  0
  5 27  1  0  0  0
  6 28  1  0  0  0
  9 29  1  0  0  0
 10 30  1  0  0  0
 11 31  1  0  0  0
 12 32  1  0  0  0
 13 33  1  0  0  0
 15 34  1  0  0  0
 16 35  1  0  0  0
 16 36  1  0  0  0
 20 37  1  0  0  0
 23 38  1  0  0  0
 25 39  1  0  0  0
M  END
$$$$
