1zhl_ligand
  -I-interpret- 

205208  0  0  0  0  0  0  0  0999 V2000
   12.1400   14.6630   19.1710 N   0  3  0  0  0
   13.2640   14.2460   18.2880 C   0  0  0  0  0
   14.5840   14.5420   18.9860 C   0  0  0  0  0
   14.7870   15.6430   19.4850 O   0  0  0  0  0
   13.2190   15.0190   16.9670 C   0  0  0  0  0
   14.2620   14.6090   15.9230 C   0  0  0  0  0
   13.8050   13.3420   15.2120 C   0  0  0  0  0
   14.4480   15.7360   14.9210 C   0  0  0  0  0
   15.4950   13.5590   19.0340 N   0  0  0  0  0
   16.7980   13.7510   19.6810 C   0  0  0  0  0
   17.7100   14.5960   18.7970 C   0  0  0  0  0
   17.3760   14.8660   17.6410 O   0  0  0  0  0
   17.3090   12.3240   19.8470 C   0  0  0  0  0
   16.7520   11.6370   18.6230 C   0  0  0  0  0
   15.3340   12.1690   18.5680 C   0  0  0  0  0
   18.8490   15.0200   19.3390 N   0  0  0  0  0
   19.7800   15.8300   18.5620 C   0  0  0  0  0
   20.2340   15.0530   17.3360 C   0  0  0  0  0
   20.7440   13.9390   17.4490 O   0  0  0  0  0
   21.0140   16.2010   19.3880 C   0  0  0  0  0
   21.8840   17.2590   18.7020 C   0  0  0  0  0
   23.3240   17.2580   19.1740 C   0  0  0  0  0
   23.6070   16.7140   20.2610 O   0  0  0  0  0
   24.1800   17.8150   18.4520 O   0  0  0  0  0
   20.0530   15.6310   16.1420 N   0  0  0  0  0
   20.4620   14.9570   14.9080 C   0  0  0  0  0
   21.9800   14.9000   14.7830 C   0  0  0  0  0
   22.6920   15.6700   15.4210 O   0  0  0  0  0
   19.8430   15.8280   13.8160 C   0  0  0  0  0
   18.6620   16.4500   14.4950 C   0  0  0  0  0
   19.2320   16.8120   15.8400 C   0  0  0  0  0
   22.4700   13.9820   13.9590 N   0  0  0  0  0
   23.9010   13.8540   13.7470 C   0  0  0  0  0
   24.3750   15.0720   12.9650 C   0  0  0  0  0
   23.6550   15.5910   12.1090 O   0  0  0  0  0
   24.2080   12.5760   12.9650 C   0  0  0  0  0
   23.7840   11.2660   13.6370 C   0  0  0  0  0
   24.0080   10.1030   12.6830 C   0  0  0  0  0
   24.5690   11.0690   14.9270 C   0  0  0  0  0
   25.5800   15.5680   13.2710 N   0  0  0  0  0
   26.0920   16.7350   12.5500 C   0  0  0  0  0
   26.5030   16.3520   11.1310 C   0  0  0  0  0
   26.5390   15.1720   10.7890 O   0  0  0  0  0
   27.2700   17.1790   13.4140 C   0  0  0  0  0
   27.7770   15.8880   13.9650 C   0  0  0  0  0
   26.5040   15.1610   14.3440 C   0  0  0  0  0
   26.8090   17.3470   10.3070 N   0  0  0  0  0
   27.2050   17.0840    8.9280 C   0  0  0  0  0
   28.5000   16.2860    8.8460 C   0  0  0  0  0
   28.6310   15.3820    8.0190 O   0  0  0  0  0
   27.3560   18.3980    8.1590 C   0  0  0  0  0
   26.0580   19.1750    8.0090 C   0  0  0  0  0
   24.9810   18.3820    7.2880 C   0  0  0  0  0
   24.5590   17.3200    7.7480 O   0  0  0  0  0
   24.5340   18.8950    6.1470 N   0  0  0  0  0
   29.4530   16.6230    9.7070 N   0  0  0  0  0
   30.7250   15.9250    9.7150 C   0  0  0  0  0
   30.7250   14.7270   10.6440 C   0  0  0  0  0
   29.7690   13.9550   10.6800 O   0  0  0  0  0
   31.8040   14.5720   11.4020 N   0  0  0  0  0
   31.9280   13.4560   12.3310 C   0  0  0  0  0
   31.3740   13.8370   13.6990 C   0  0  0  0  0
   31.6740   14.9140   14.2090 O   0  0  0  0  0
   33.4020   13.0650   12.4710 C   0  0  0  0  0
   33.6580   11.8440   13.3380 C   0  0  0  0  0
   33.1580   10.5640   12.6990 C   0  0  0  0  0
   31.9610   10.4000   12.4630 O   0  0  0  0  0
   34.0770    9.6480   12.4130 N   0  0  0  0  0
   30.5570   12.9640   14.2840 N   0  0  0  0  0
   30.0100   13.2320   15.6150 C   0  0  0  0  0
   31.2130   13.3090   16.5500 C   0  0  0  0  0
   32.0080   12.3700   16.6250 O   0  0  0  0  0
   29.0760   12.1010   16.0550 C   0  0  0  0  0
   28.5010   12.2170   17.4720 C   0  0  0  0  0
   27.7250   13.5210   17.6080 C   0  0  0  0  0
   27.5990   11.0270   17.7600 C   0  0  0  0  0
   31.3510   14.4220   17.2610 N   0  0  0  0  0
   32.4910   14.6040   18.1530 C   0  0  0  0  0
   32.3650   13.8480   19.4700 C   0  0  0  0  0
   31.4250   14.0590   20.2330 O   0  0  0  0  0
   32.7090   16.0910   18.4780 C   0  0  0  0  0
   32.5780   16.8660   17.2810 O   0  0  0  0  0
   34.1000   16.3080   19.0580 C   0  0  0  0  0
   33.3220   12.9650   19.7310 N   0  0  0  0  0
   33.3190   12.2000   20.9700 C   0  0  0  0  0
   33.8310   13.0790   22.1010 C   0  0  0  0  0
   34.2820   14.2020   21.8720 O   0  0  0  0  0
   34.2060   10.9640   20.8280 C   0  0  0  0  0
   33.7490   12.5760   23.3270 N   0  0  0  0  0
   34.2440   13.3250   24.4770 C   0  0  0  0  0
   35.7730   13.3160   24.4390 C   0  0  0  0  0
   36.3320   12.5330   23.6420 O   0  0  0  0  0
   33.7720   12.6770   25.7810 C   0  0  0  0  0
   32.3080   12.8750   26.1080 C   0  0  0  0  0
   31.3150   12.6250   25.1610 C   0  0  0  0  0
   31.9140   13.2640   27.3870 C   0  0  0  0  0
   29.9660   12.7540   25.4810 C   0  0  0  0  0
   30.5680   13.3960   27.7170 C   0  0  0  0  0
   29.6030   13.1380   26.7650 C   0  0  0  0  0
   28.2710   13.2470   27.0970 O   0  0  0  0  0
   36.3940   14.0750   25.2080 O   0  0  0  0  0
   12.1840   14.1398   20.0455 H   0  0  0  0  0
   12.2152   15.6613   19.3665 H   0  0  0  0  0
   11.2535   14.4726   18.7038 H   0  0  0  0  0
   13.1738   13.1794   18.0823 H   0  0  0  0  0
   13.4204   16.0618   17.2121 H   0  0  0  0  0
   12.2433   14.8182   16.5245 H   0  0  0  0  0
   15.2140   14.4122   16.4160 H   0  0  0  0  0
   12.8574   13.5315   14.7078 H   0  0  0  0  0
   14.5557   13.0475   14.4787 H   0  0  0  0  0
   13.6760   12.5434   15.9425 H   0  0  0  0  0
   15.2003   15.4473   14.1869 H   0  0  0  0  0
   13.5020   15.9313   14.4161 H   0  0  0  0  0
   14.7747   16.6350   15.4437 H   0  0  0  0  0
   16.7512   14.2849   20.6301 H   0  0  0  0  0
   16.9902   11.8607   20.7807 H   0  0  0  0  0
   18.3951   12.2631   19.9155 H   0  0  0  0  0
   16.7991   10.5497   18.6839 H   0  0  0  0  0
   17.3228   11.8458   17.7182 H   0  0  0  0  0
   14.8910   12.1008   17.5744 H   0  0  0  0  0
   14.6382   11.5926   19.1776 H   0  0  0  0  0
   19.0723   14.7769   20.3041 H   0  0  0  0  0
   19.2632   16.7432   18.2668 H   0  0  0  0  0
   21.6163   15.3014   19.5147 H   0  0  0  0  0
   20.6714   16.6120   20.3376 H   0  0  0  0  0
   21.4619   18.2350   18.9414 H   0  0  0  0  0
   21.8893   17.0365   17.6350 H   0  0  0  0  0
   23.7546   18.1667   17.6665 H   0  0  0  0  0
   20.1361   13.9180   14.8599 H   0  0  0  0  0
   19.5635   15.2550   12.9319 H   0  0  0  0  0
   20.5405   16.5697   13.4268 H   0  0  0  0  0
   17.7990   15.7869   14.5553 H   0  0  0  0  0
   18.2526   17.3036   13.9548 H   0  0  0  0  0
   19.7962   17.7446   15.8366 H   0  0  0  0  0
   18.4717   17.0175   16.5936 H   0  0  0  0  0
   21.8316   13.3568   13.4671 H   0  0  0  0  0
   24.4172   13.7971   14.7053 H   0  0  0  0  0
   25.2921   12.5318   12.8603 H   0  0  0  0  0
   23.6444   12.6414   12.0343 H   0  0  0  0  0
   22.7233   11.3101   13.8840 H   0  0  0  0  0
   23.4150   10.2551   11.7812 H   0  0  0  0  0
   25.0644   10.0489   12.4199 H   0  0  0  0  0
   23.7046    9.1744   13.1666 H   0  0  0  0  0
   25.6344   11.0295   14.7001 H   0  0  0  0  0
   24.3706   11.9013   15.6022 H   0  0  0  0  0
   24.2619   10.1356   15.3988 H   0  0  0  0  0
   25.3629   17.5338   12.4144 H   0  0  0  0  0
   26.9846   17.8897   14.1896 H   0  0  0  0  0
   28.0260   17.7281   12.8528 H   0  0  0  0  0
   28.4546   16.0238   14.8079 H   0  0  0  0  0
   28.3860   15.3327   13.2517 H   0  0  0  0  0
   26.6312   14.0807   14.4141 H   0  0  0  0  0
   26.1440   15.4168   15.3405 H   0  0  0  0  0
   26.7666   18.3091   10.6431 H   0  0  0  0  0
   26.4160   16.4837    8.4749 H   0  0  0  0  0
   27.7032   18.1492    7.1562 H   0  0  0  0  0
   28.0470   19.0258    8.7215 H   0  0  0  0  0
   26.2680   20.0675    7.4196 H   0  0  0  0  0
   25.6899   19.4085    9.0081 H   0  0  0  0  0
   23.8134   18.4062    5.6157 H   0  0  0  0  0
   24.9114   19.7777    5.8022 H   0  0  0  0  0
   29.2891   17.3807   10.3699 H   0  0  0  0  0
   31.4879   16.6209   10.0641 H   0  0  0  0  0
   30.9177   15.5661    8.7040 H   0  0  0  0  0
   32.5634   15.2494   11.3325 H   0  0  0  0  0
   31.3579   12.6127   11.9412 H   0  0  0  0  0
   33.9078   13.9040   12.9489 H   0  0  0  0  0
   33.7617   12.8237   11.4707 H   0  0  0  0  0
   33.1244   11.9813   14.2785 H   0  0  0  0  0
   34.7348   11.7513   13.4791 H   0  0  0  0  0
   33.8011    8.7665   11.9803 H   0  0  0  0  0
   35.0584    9.8263   12.6262 H   0  0  0  0  0
   30.3099   12.1006   13.8005 H   0  0  0  0  0
   29.4264   14.1525   15.6246 H   0  0  0  0  0
   29.6720   11.1885   16.0402 H   0  0  0  0  0
   28.2238   12.1260   15.3758 H   0  0  0  0  0
   29.3165   12.2195   18.1953 H   0  0  0  0  0
   28.3931   14.3613   17.4193 H   0  0  0  0  0
   26.9095   13.5341   16.8849 H   0  0  0  0  0
   27.3192   13.5973   18.6168 H   0  0  0  0  0
   26.7819   11.0091   17.0388 H   0  0  0  0  0
   28.1771   10.1065   17.6789 H   0  0  0  0  0
   27.1938   11.1154   18.7680 H   0  0  0  0  0
   30.6507   15.1594   17.1825 H   0  0  0  0  0
   33.3414   14.1964   17.6064 H   0  0  0  0  0
   31.9626   16.4019   19.2090 H   0  0  0  0  0
   32.7143   17.7940   17.4854 H   0  0  0  0  0
   34.2060   15.7244   19.9725 H   0  0  0  0  0
   34.8485   15.9886   18.3328 H   0  0  0  0  0
   34.2377   17.3657   19.2824 H   0  0  0  0  0
   34.0705   12.8205   19.0533 H   0  0  0  0  0
   32.3026   11.8746   21.1915 H   0  0  0  0  0
   33.8277   10.3378   20.0200 H   0  0  0  0  0
   35.2261   11.2745   20.6017 H   0  0  0  0  0
   34.1948   10.4011   21.7614 H   0  0  0  0  0
   33.3348   11.6544   23.4666 H   0  0  0  0  0
   33.8629   14.3454   24.4350 H   0  0  0  0  0
   35.6649   12.0476   23.1511 H   0  0  0  0  0
   34.3379   13.1464   26.5857 H   0  0  0  0  0
   33.9246   11.6035   25.6693 H   0  0  0  0  0
   31.5999   12.3234   24.1530 H   0  0  0  0  0
   32.6730   13.4685   28.1421 H   0  0  0  0  0
   29.2015   12.5552   24.7299 H   0  0  0  0  0
   30.2779   13.7016   28.7223 H   0  0  0  0  0
   28.1922   13.5198   28.0140 H   0  0  0  0  0
  1  2  1  0  0  0
  2  3  1  0  0  0
  2  5  1  0  0  0
  3  4  2  0  0  0
  3  9  1  0  0  0
  5  6  1  0  0  0
  6  7  1  0  0  0
  6  8  1  0  0  0
  9 10  1  0  0  0
  9 15  1  0  0  0
 10 11  1  0  0  0
 10 13  1  0  0  0
 11 12  2  0  0  0
 11 16  1  0  0  0
 13 14  1  0  0  0
 14 15  1  0  0  0
 16 17  1  0  0  0
 17 18  1  0  0  0
 17 20  1  0  0  0
 18 19  2  0  0  0
 18 25  1  0  0  0
 20 21  1  0  0  0
 21 22  1  0  0  0
 22 23  2  0  0  0
 22 24  1  0  0  0
 25 26  1  0  0  0
 25 31  1  0  0  0
 26 27  1  0  0  0
 26 29  1  0  0  0
 27 28  2  0  0  0
 27 32  1  0  0  0
 29 30  1  0  0  0
 30 31  1  0  0  0
 32 33  1  0  0  0
 33 34  1  0  0  0
 33 36  1  0  0  0
 34 35  2  0  0  0
 34 40  1  0  0  0
 36 37  1  0  0  0
 37 38  1  0  0  0
 37 39  1  0  0  0
 40 41  1  0  0  0
 40 46  1  0  0  0
 41 42  1  0  0  0
 41 44  1  0  0  0
 42 43  2  0  0  0
 42 47  1  0  0  0
 44 45  1  0  0  0
 45 46  1  0  0  0
 47 48  1  0  0  0
 48 49  1  0  0  0
 48 51  1  0  0  0
 49 50  2  0  0  0
 49 56  1  0  0  0
 51 52  1  0  0  0
 52 53  1  0  0  0
 53 54  2  0  0  0
 53 55  1  0  0  0
 56 57  1  0  0  0
 57 58  1  0  0  0
 58 59  2  0  0  0
 58 60  1  0  0  0
 60 61  1  0  0  0
 61 62  1  0  0  0
 61 64  1  0  0  0
 62 63  2  0  0  0
 62 69  1  0  0  0
 64 65  1  0  0  0
 65 66  1  0  0  0
 66 67  2  0  0  0
 66 68  1  0  0  0
 69 70  1  0  0  0
 70 71  1  0  0  0
 70 73  1  0  0  0
 71 72  2  0  0  0
 71 77  1  0  0  0
 73 74  1  0  0  0
 74 75  1  0  0  0
 74 76  1  0  0  0
 77 78  1  0  0  0
 78 79  1  0  0  0
 78 81  1  0  0  0
 79 80  2  0  0  0
 79 84  1  0  0  0
 81 82  1  0  0  0
 81 83  1  0  0  0
 84 85  1  0  0  0
 85 86  1  0  0  0
 85 88  1  0  0  0
 86 87  2  0  0  0
 86 89  1  0  0  0
 89 90  1  0  0  0
 90 91  1  0  0  0
 90 93  1  0  0  0
 91 92  1  0  0  0
 91101  2  0  0  0
 93 94  1  0  0  0
 94 95  4  0  0  0
 94 96  4  0  0  0
 95 97  4  0  0  0
 96 98  4  0  0  0
 97 99  4  0  0  0
 98 99  4  0  0  0
 99100  1  0  0  0
  1102  1  0  0  0
  1103  1  0  0  0
  1104  1  0  0  0
  2105  1  0  0  0
  5106  1  0  0  0
  5107  1  0  0  0
  6108  1  0  0  0
  7109  1  0  0  0
  7110  1  0  0  0
  7111  1  0  0  0
  8112  1  0  0  0
  8113  1  0  0  0
  8114  1  0  0  0
 10115  1  0  0  0
 13116  1  0  0  0
 13117  1  0  0  0
 14118  1  0  0  0
 14119  1  0  0  0
 15120  1  0  0  0
 15121  1  0  0  0
 16122  1  0  0  0
 17123  1  0  0  0
 20124  1  0  0  0
 20125  1  0  0  0
 21126  1  0  0  0
 21127  1  0  0  0
 24128  1  0  0  0
 26129  1  0  0  0
 29130  1  0  0  0
 29131  1  0  0  0
 30132  1  0  0  0
 30133  1  0  0  0
 31134  1  0  0  0
 31135  1  0  0  0
 32136  1  0  0  0
 33137  1  0  0  0
 36138  1  0  0  0
 36139  1  0  0  0
 37140  1  0  0  0
 38141  1  0  0  0
 38142  1  0  0  0
 38143  1  0  0  0
 39144  1  0  0  0
 39145  1  0  0  0
 39146  1  0  0  0
 41147  1  0  0  0
 44148  1  0  0  0
 44149  1  0  0  0
 45150  1  0  0  0
 45151  1  0  0  0
 46152  1  0  0  0
 46153  1  0  0  0
 47154  1  0  0  0
 48155  1  0  0  0
 51156  1  0  0  0
 51157  1  0  0  0
 52158  1  0  0  0
 52159  1  0  0  0
 55160  1  0  0  0
 55161  1  0  0  0
 56162  1  0  0  0
 57163  1  0  0  0
 57164  1  0  0  0
 60165  1  0  0  0
 61166  1  0  0  0
 64167  1  0  0  0
 64168  1  0  0  0
 65169  1  0  0  0
 65170  1  0  0  0
 68171  1  0  0  0
 68172  1  0  0  0
 69173  1  0  0  0
 70174  1  0  0  0
 73175  1  0  0  0
 73176  1  0  0  0
 74177  1  0  0  0
 75178  1  0  0  0
 75179  1  0  0  0
 75180  1  0  0  0
 76181  1  0  0  0
 76182  1  0  0  0
 76183  1  0  0  0
 77184  1  0  0  0
 78185  1  0  0  0
 81186  1  0  0  0
 82187  1  0  0  0
 83188  1  0  0  0
 83189  1  0  0  0
 83190  1  0  0  0
 84191  1  0  0  0
 85192  1  0  0  0
 88193  1  0  0  0
 88194  1  0  0  0
 88195  1  0  0  0
 89196  1  0  0  0
 90197  1  0  0  0
 92198  1  0  0  0
 93199  1  0  0  0
 93200  1  0  0  0
 95201  1  0  0  0
 96202  1  0  0  0
 97203  1  0  0  0
 98204  1  0  0  0
100205  1  0  0  0
M  END
$$$$
