### 
### Created by X-TOOL on Mon Sep 10 21:12:52 2018
### 

@<TRIPOS>MOLECULE
1zhl_ligand
  203   206     1     0     0
SMALL
GAST_HUCK


@<TRIPOS>ATOM
      1 N          12.1400   14.6630   19.1710 N.4       1 LEU         0.2379
      2 CA         13.2640   14.2460   18.2880 C.3       1 LEU         0.0654
      3 C          14.5840   14.5420   18.9860 C.2       1 LEU         0.2292
      4 O          14.7870   15.6430   19.4850 O.2       1 LEU        -0.3905
      5 CB         13.2190   15.0190   16.9670 C.3       1 LEU         0.0102
      6 CG         14.2620   14.6090   15.9230 C.3       1 LEU        -0.0394
      7 CD1        13.8050   13.3420   15.2120 C.3       1 LEU        -0.0623
      8 CD2        14.4480   15.7360   14.9210 C.3       1 LEU        -0.0623
      9 N          15.4950   13.5590   19.0340 N.am      1 PRO        -0.2471
     10 CA         16.7980   13.7510   19.6810 C.3       1 PRO         0.1339
     11 C          17.7100   14.5960   18.7970 C.2       1 PRO         0.2041
     12 O          17.3760   14.8660   17.6410 O.2       1 PRO        -0.3944
     13 CB         17.3090   12.3240   19.8470 C.3       1 PRO        -0.0104
     14 CG         16.7520   11.6370   18.6230 C.3       1 PRO        -0.0281
     15 CD         15.3340   12.1690   18.5680 C.3       1 PRO         0.0371
     16 N          18.8490   15.0200   19.3390 N.am      1 GLU        -0.2636
     17 CA         19.7800   15.8300   18.5620 C.3       1 GLU         0.1327
     18 C          20.2340   15.0530   17.3360 C.2       1 GLU         0.2065
     19 O          20.7440   13.9390   17.4490 O.2       1 GLU        -0.3942
     20 CB         21.0140   16.2010   19.3880 C.3       1 GLU        -0.0008
     21 CG         21.8840   17.2590   18.7020 C.3       1 GLU         0.0044
     22 CD         23.3240   17.2580   19.1740 C.2       1 GLU         0.0350
     23 OE1        23.6070   16.7140   20.2610 O.co2     1 GLU        -0.5690
     24 OE2        24.1800   17.8150   18.4520 O.co2     1 GLU        -0.5690
     25 N          20.0530   15.6310   16.1420 N.am      1 PRO        -0.2498
     26 CA         20.4620   14.9570   14.9080 C.3       1 PRO         0.1338
     27 C          21.9800   14.9000   14.7830 C.2       1 PRO         0.2041
     28 O          22.6920   15.6700   15.4210 O.2       1 PRO        -0.3944
     29 CB         19.8430   15.8280   13.8160 C.3       1 PRO        -0.0104
     30 CG         18.6620   16.4500   14.4950 C.3       1 PRO        -0.0281
     31 CD         19.2320   16.8120   15.8400 C.3       1 PRO         0.0369
     32 N          22.4700   13.9820   13.9590 N.am      1 LEU        -0.2637
     33 CA         23.9010   13.8540   13.7470 C.3       1 LEU         0.1314
     34 C          24.3750   15.0720   12.9650 C.2       1 LEU         0.2064
     35 O          23.6550   15.5910   12.1090 O.2       1 LEU        -0.3942
     36 CB         24.2080   12.5760   12.9650 C.3       1 LEU        -0.0101
     37 CG         23.7840   11.2660   13.6370 C.3       1 LEU        -0.0425
     38 CD1        24.0080   10.1030   12.6830 C.3       1 LEU        -0.0625
     39 CD2        24.5690   11.0690   14.9270 C.3       1 LEU        -0.0625
     40 N          25.5800   15.5680   13.2710 N.am      1 PRO        -0.2498
     41 CA         26.0920   16.7350   12.5500 C.3       1 PRO         0.1338
     42 C          26.5030   16.3520   11.1310 C.2       1 PRO         0.2041
     43 O          26.5390   15.1720   10.7890 O.2       1 PRO        -0.3944
     44 CB         27.2700   17.1790   13.4140 C.3       1 PRO        -0.0104
     45 CG         27.7770   15.8880   13.9650 C.3       1 PRO        -0.0281
     46 CD         26.5040   15.1610   14.3440 C.3       1 PRO         0.0369
     47 N          26.8090   17.3470   10.3070 N.am      1 GLN        -0.2636
     48 CA         27.2050   17.0840    8.9280 C.3       1 GLN         0.1330
     49 C          28.5000   16.2860    8.8460 C.2       1 GLN         0.2038
     50 O          28.6310   15.3820    8.0190 O.2       1 GLN        -0.3944
     51 CB         27.3560   18.3980    8.1590 C.3       1 GLN         0.0045
     52 CG         26.0580   19.1750    8.0090 C.3       1 GLN         0.0412
     53 CD         24.9810   18.3820    7.2880 C.2       1 GLN         0.1737
     54 OE1        24.5590   17.3200    7.7480 O.2       1 GLN        -0.3973
     55 NE2        24.5340   18.8950    6.1470 N.am      1 GLN        -0.3009
     56 N          29.4530   16.6230    9.7070 N.am      1 GLY        -0.2664
     57 CA         30.7250   15.9250    9.7150 C.3       1 GLY         0.1201
     58 C          30.7250   14.7270   10.6440 C.2       1 GLY         0.2007
     59 O          29.7690   13.9550   10.6800 O.2       1 GLY        -0.3947
     60 N          31.8040   14.5720   11.4020 N.am      1 GLN        -0.2638
     61 CA         31.9280   13.4560   12.3310 C.3       1 GLN         0.1330
     62 C          31.3740   13.8370   13.6990 C.2       1 GLN         0.2040
     63 O          31.6740   14.9140   14.2090 O.2       1 GLN        -0.3944
     64 CB         33.4020   13.0650   12.4710 C.3       1 GLN         0.0045
     65 CG         33.6580   11.8440   13.3380 C.3       1 GLN         0.0412
     66 CD         33.1580   10.5640   12.6990 C.2       1 GLN         0.1737
     67 OE1        31.9610   10.4000   12.4630 O.2       1 GLN        -0.3973
     68 NE2        34.0770    9.6480   12.4130 N.am      1 GLN        -0.3009
     69 N          30.5570   12.9640   14.2840 N.am      1 LEU        -0.2637
     70 CA         30.0100   13.2320   15.6150 C.3       1 LEU         0.1312
     71 C          31.2130   13.3090   16.5500 C.2       1 LEU         0.2040
     72 O          32.0080   12.3700   16.6250 O.2       1 LEU        -0.3944
     73 CB         29.0760   12.1010   16.0550 C.3       1 LEU        -0.0101
     74 CG         28.5010   12.2170   17.4720 C.3       1 LEU        -0.0425
     75 CD1        27.7250   13.5210   17.6080 C.3       1 LEU        -0.0625
     76 CD2        27.5990   11.0270   17.7600 C.3       1 LEU        -0.0625
     77 N          31.3510   14.4220   17.2610 N.am      1 THR        -0.2613
     78 CA         32.4910   14.6040   18.1530 C.3       1 THR         0.1565
     79 C          32.3650   13.8480   19.4700 C.2       1 THR         0.2065
     80 O          31.4250   14.0590   20.2330 O.2       1 THR        -0.3943
     81 CB         32.7090   16.0910   18.4780 C.3       1 THR         0.0924
     82 OG1        32.5780   16.8660   17.2810 O.3       1 THR        -0.3874
     83 CG2        34.1000   16.3080   19.0580 C.3       1 THR        -0.0346
     84 N          33.3220   12.9650   19.7310 N.am      1 ALA        -0.2639
     85 CA         33.3190   12.2000   20.9700 C.3       1 ALA         0.1282
     86 C          33.8310   13.0790   22.1010 C.2       1 ALA         0.2032
     87 O          34.2820   14.2020   21.8720 O.2       1 ALA        -0.3944
     88 CB         34.2060   10.9640   20.8280 C.3       1 ALA        -0.0244
     89 N          33.7490   12.5760   23.3270 N.am      1 TYR        -0.2679
     90 CA         34.2440   13.3250   24.4770 C.3       1 TYR         0.1025
     91 C          35.7730   13.3160   24.4390 C.2       1 TYR         0.0619
     92 O          36.3320   12.5330   23.6420 O.co2     1 TYR        -0.5665
     93 CB         33.7720   12.6770   25.7810 C.3       1 TYR         0.0108
     94 CG         32.3080   12.8750   26.1080 C.ar      1 TYR        -0.0499
     95 CD1        31.3150   12.6250   25.1610 C.ar      1 TYR        -0.0686
     96 CD2        31.9140   13.2640   27.3870 C.ar      1 TYR        -0.0686
     97 CE1        29.9660   12.7540   25.4810 C.ar      1 TYR        -0.0398
     98 CE2        30.5680   13.3960   27.7170 C.ar      1 TYR        -0.0398
     99 CZ         29.6030   13.1380   26.7650 C.ar      1 TYR         0.0805
    100 OH         28.2710   13.2470   27.0970 O.3       1 TYR        -0.3376
    101 OXT        36.3940   14.0750   25.2080 O.co2     1 TYR        -0.5665
    102 H1         11.2632   14.4690   18.7131 H         1 LEU         0.2015
    103 H2         12.2093   15.6508   19.3593 H         1 LEU         0.2015
    104 H3         12.1865   14.1515   20.0383 H         1 LEU         0.2015
    105 H4         13.1868   13.1679   18.0838 H         1 LEU         0.1098
    106 H5         13.3684   16.0850   17.1937 H         1 LEU         0.0348
    107 H6         12.2225   14.8744   16.5243 H         1 LEU         0.0348
    108 H7         15.2203   14.4130   16.4262 H         1 LEU         0.0299
    109 H8         14.5562   13.0505   14.4632 H         1 LEU         0.0232
    110 H9         12.8428   13.5285   14.7127 H         1 LEU         0.0232
    111 H10        13.6861   12.5319   15.9465 H         1 LEU         0.0232
    112 H11        14.7777   16.6439   15.4474 H         1 LEU         0.0232
    113 H12        13.4939   15.9342   14.4107 H         1 LEU         0.0232
    114 H13        15.2071   15.4459   14.1796 H         1 LEU         0.0232
    115 H14        16.6866   14.2405   20.6598 H         1 PRO         0.0802
    116 H15        16.9226   11.8676   20.7702 H         1 PRO         0.0313
    117 H16        18.4085   12.2932   19.8551 H         1 PRO         0.0313
    118 H17        16.7624   10.5434   18.7411 H         1 PRO         0.0287
    119 H18        17.3161   11.9137   17.7201 H         1 PRO         0.0287
    120 H19        14.9372   12.1372   17.5426 H         1 PRO         0.0524
    121 H20        14.6702   11.6004   19.2359 H         1 PRO         0.0524
    122 H21        19.0679   14.7816   20.2852 H         1 GLU         0.1883
    123 H22        19.2702   16.7511   18.2431 H         1 GLU         0.0801
    124 H23        21.6184   15.2955   19.5452 H         1 GLU         0.0330
    125 H24        20.6823   16.5938   20.3604 H         1 GLU         0.0330
    126 H25        21.4520   18.2499   18.9053 H         1 GLU         0.0433
    127 H26        21.8729   17.0694   17.6185 H         1 GLU         0.0433
    128 H27        20.0576   13.9348   14.8683 H         1 PRO         0.0802
    129 H28        19.5267   15.2172   12.9576 H         1 PRO         0.0313
    130 H29        20.5523   16.5974   13.4771 H         1 PRO         0.0313
    131 H30        17.8329   15.7336   14.5916 H         1 PRO         0.0287
    132 H31        18.3142   17.3427   13.9546 H         1 PRO         0.0287
    133 H32        19.8455   17.7233   15.7836 H         1 PRO         0.0524
    134 H33        18.4377   16.9504   16.5882 H         1 PRO         0.0524
    135 H34        21.8441   13.3690   13.4767 H         1 LEU         0.1883
    136 H35        24.4156   13.8158   14.7185 H         1 LEU         0.0800
    137 H36        25.2947   12.5342   12.7995 H         1 LEU         0.0315
    138 H37        23.6917   12.6408   11.9959 H         1 LEU         0.0315
    139 H38        22.7128   11.3208   13.8811 H         1 LEU         0.0298
    140 H39        23.7022    9.1652   13.1699 H         1 LEU         0.0232
    141 H40        25.0738   10.0472   12.4167 H         1 LEU         0.0232
    142 H41        23.4100   10.2552   11.7724 H         1 LEU         0.0232
    143 H42        24.3905   11.9216   15.5987 H         1 LEU         0.0232
    144 H43        25.6425   11.0024   14.6965 H         1 LEU         0.0232
    145 H44        24.2410   10.1408   15.4177 H         1 LEU         0.0232
    146 H45        25.3328   17.5294   12.4990 H         1 PRO         0.0802
    147 H46        26.9400   17.8517   14.2193 H         1 PRO         0.0313
    148 H47        28.0390   17.6812   12.8087 H         1 PRO         0.0313
    149 H48        28.4142   16.0562   14.8457 H         1 PRO         0.0287
    150 H49        28.3418   15.3277   13.2054 H         1 PRO         0.0287
    151 H50        26.6538   14.0713   14.3489 H         1 PRO         0.0524
    152 H51        26.1381   15.4853   15.3294 H         1 PRO         0.0524
    153 H52        26.7674   18.2903   10.6365 H         1 GLN         0.1883
    154 H53        26.4087   16.4924    8.4528 H         1 GLN         0.0801
    155 H54        27.7411   18.1694    7.1543 H         1 GLN         0.0337
    156 H55        28.0792   19.0313    8.6936 H         1 GLN         0.0337
    157 H56        26.2611   20.0929    7.4379 H         1 GLN         0.0504
    158 H57        25.6887   19.4404    9.0106 H         1 GLN         0.0504
    159 H58        23.8251   18.4175    5.6279 H         1 GLN         0.1814
    160 H59        24.9064   19.7586    5.8072 H         1 GLN         0.1814
    161 H60        29.2923   17.3658   10.3569 H         1 GLY         0.1881
    162 H61        31.5089   16.6243   10.0414 H         1 GLY         0.0763
    163 H62        30.9440   15.5793    8.6939 H         1 GLY         0.0763
    164 H63        32.5485   15.2361   11.3339 H         1 GLN         0.1883
    165 H64        31.3610   12.5986   11.9395 H         1 GLN         0.0801
    166 H65        33.9415   13.9165   12.9114 H         1 GLN         0.0337
    167 H66        33.7986   12.8599   11.4657 H         1 GLN         0.0337
    168 H67        33.1449   11.9813   14.3012 H         1 GLN         0.0504
    169 H68        34.7408   11.7534   13.5090 H         1 GLN         0.0504
    170 H69        33.8063    8.7831   11.9902 H         1 GLN         0.1814
    171 H70        35.0394    9.8235   12.6205 H         1 GLN         0.1814
    172 H71        30.3148   12.1175   13.8099 H         1 LEU         0.1883
    173 H72        29.4594   14.1843   15.6172 H         1 LEU         0.0800
    174 H73        29.6388   11.1577   15.9964 H         1 LEU         0.0315
    175 H74        28.2316   12.0686   15.3508 H         1 LEU         0.0315
    176 H75        29.3292   12.2188   18.1959 H         1 LEU         0.0298
    177 H76        27.3149   13.5992   18.6257 H         1 LEU         0.0232
    178 H77        26.9016   13.5355   16.8788 H         1 LEU         0.0232
    179 H78        28.3982   14.3699   17.4178 H         1 LEU         0.0232
    180 H79        28.1760   10.0962   17.6570 H         1 LEU         0.0232
    181 H80        26.7618   11.0203   17.0465 H         1 LEU         0.0232
    182 H81        27.2068   11.1037   18.7848 H         1 LEU         0.0232
    183 H82        30.6644   15.1450   17.1840 H         1 THR         0.1884
    184 H83        33.3816   14.2271   17.6289 H         1 THR         0.0826
    185 H84        31.9549   16.4159   19.2099 H         1 THR         0.0639
    186 H85        33.2268   16.5814   16.6482 H         1 THR         0.2101
    187 H86        34.2402   17.3752   19.2849 H         1 THR         0.0257
    188 H87        34.8564   15.9861   18.3271 H         1 THR         0.0257
    189 H88        34.2083   15.7196   19.9811 H         1 THR         0.0257
    190 H89        34.0558   12.8233   19.0666 H         1 ALA         0.1883
    191 H90        32.2910   11.8804   21.1957 H         1 ALA         0.0797
    192 H91        34.1955   10.3951   21.7694 H         1 ALA         0.0277
    193 H92        35.2358   11.2760   20.5996 H         1 ALA         0.0277
    194 H93        33.8253   10.3311   20.0129 H         1 ALA         0.0277
    195 H94        33.3429   11.6725   23.4639 H         1 TYR         0.1877
    196 H95        33.8755   14.3603   24.4285 H         1 TYR         0.0747
    197 H96        34.3646   13.1007   26.6051 H         1 TYR         0.0446
    198 H97        33.9614   11.5957   25.7113 H         1 TYR         0.0446
    199 H98        31.5983   12.3251   24.1586 H         1 TYR         0.0530
    200 H99        32.6688   13.4673   28.1380 H         1 TYR         0.0530
    201 H100       29.2057   12.5563   24.7341 H         1 TYR         0.0525
    202 H101       30.2795   13.6999   28.7167 H         1 TYR         0.0525
    203 H102       28.0879   14.1353   27.3795 H         1 TYR         0.2458
@<TRIPOS>BOND
     1    1    2 1  
     2    2    3 1  
     3    2    5 1  
     4    3    4 2  
     5    3    9 am 
     6    5    6 1  
     7    6    7 1  
     8    6    8 1  
     9    9   10 1  
    10    9   15 1  
    11   10   11 1  
    12   10   13 1  
    13   11   12 2  
    14   11   16 am 
    15   13   14 1  
    16   14   15 1  
    17   16   17 1  
    18   17   18 1  
    19   17   20 1  
    20   18   19 2  
    21   18   25 am 
    22   20   21 1  
    23   21   22 1  
    24   22   23 ar 
    25   22   24 ar 
    26   25   26 1  
    27   25   31 1  
    28   26   27 1  
    29   26   29 1  
    30   27   28 2  
    31   27   32 am 
    32   29   30 1  
    33   30   31 1  
    34   32   33 1  
    35   33   34 1  
    36   33   36 1  
    37   34   35 2  
    38   34   40 am 
    39   36   37 1  
    40   37   38 1  
    41   37   39 1  
    42   40   41 1  
    43   40   46 1  
    44   41   42 1  
    45   41   44 1  
    46   42   43 2  
    47   42   47 am 
    48   44   45 1  
    49   45   46 1  
    50   47   48 1  
    51   48   49 1  
    52   48   51 1  
    53   49   50 2  
    54   49   56 am 
    55   51   52 1  
    56   52   53 1  
    57   53   54 2  
    58   53   55 am 
    59   56   57 1  
    60   57   58 1  
    61   58   59 2  
    62   58   60 am 
    63   60   61 1  
    64   61   62 1  
    65   61   64 1  
    66   62   63 2  
    67   62   69 am 
    68   64   65 1  
    69   65   66 1  
    70   66   67 2  
    71   66   68 am 
    72   69   70 1  
    73   70   71 1  
    74   70   73 1  
    75   71   72 2  
    76   71   77 am 
    77   73   74 1  
    78   74   75 1  
    79   74   76 1  
    80   77   78 1  
    81   78   79 1  
    82   78   81 1  
    83   79   80 2  
    84   79   84 am 
    85   81   82 1  
    86   81   83 1  
    87   84   85 1  
    88   85   86 1  
    89   85   88 1  
    90   86   87 2  
    91   86   89 am 
    92   89   90 1  
    93   90   91 1  
    94   90   93 1  
    95   91   92 ar 
    96   91  101 ar 
    97   93   94 1  
    98   94   95 ar 
    99   94   96 ar 
   100   95   97 ar 
   101   96   98 ar 
   102   97   99 ar 
   103   98   99 ar 
   104   99  100 1  
   105    1  102 1  
   106    1  103 1  
   107    1  104 1  
   108    2  105 1  
   109    5  106 1  
   110    5  107 1  
   111    6  108 1  
   112    7  109 1  
   113    7  110 1  
   114    7  111 1  
   115    8  112 1  
   116    8  113 1  
   117    8  114 1  
   118   10  115 1  
   119   13  116 1  
   120   13  117 1  
   121   14  118 1  
   122   14  119 1  
   123   15  120 1  
   124   15  121 1  
   125   16  122 1  
   126   17  123 1  
   127   20  124 1  
   128   20  125 1  
   129   21  126 1  
   130   21  127 1  
   131   26  128 1  
   132   29  129 1  
   133   29  130 1  
   134   30  131 1  
   135   30  132 1  
   136   31  133 1  
   137   31  134 1  
   138   32  135 1  
   139   33  136 1  
   140   36  137 1  
   141   36  138 1  
   142   37  139 1  
   143   38  140 1  
   144   38  141 1  
   145   38  142 1  
   146   39  143 1  
   147   39  144 1  
   148   39  145 1  
   149   41  146 1  
   150   44  147 1  
   151   44  148 1  
   152   45  149 1  
   153   45  150 1  
   154   46  151 1  
   155   46  152 1  
   156   47  153 1  
   157   48  154 1  
   158   51  155 1  
   159   51  156 1  
   160   52  157 1  
   161   52  158 1  
   162   55  159 1  
   163   55  160 1  
   164   56  161 1  
   165   57  162 1  
   166   57  163 1  
   167   60  164 1  
   168   61  165 1  
   169   64  166 1  
   170   64  167 1  
   171   65  168 1  
   172   65  169 1  
   173   68  170 1  
   174   68  171 1  
   175   69  172 1  
   176   70  173 1  
   177   73  174 1  
   178   73  175 1  
   179   74  176 1  
   180   75  177 1  
   181   75  178 1  
   182   75  179 1  
   183   76  180 1  
   184   76  181 1  
   185   76  182 1  
   186   77  183 1  
   187   78  184 1  
   188   81  185 1  
   189   82  186 1  
   190   83  187 1  
   191   83  188 1  
   192   83  189 1  
   193   84  190 1  
   194   85  191 1  
   195   88  192 1  
   196   88  193 1  
   197   88  194 1  
   198   89  195 1  
   199   90  196 1  
   200   93  197 1  
   201   93  198 1  
   202   95  199 1  
   203   96  200 1  
   204   97  201 1  
   205   98  202 1  
   206  100  203 1  
@<TRIPOS>SUBSTRUCTURE
     1 LEU         1

