### 
### Created by X-TOOL on Mon Aug  2 16:12:34 2021
### 

@<TRIPOS>MOLECULE
6a8n_ligand
  150   153     1     0     0
SMALL
GAST_HUCK


@<TRIPOS>ATOM
      1 N         -55.3900   43.4580  -21.4260 N.4       1 CYS         0.2385
      2 CA        -54.8640   43.5740  -22.7870 C.3       1 CYS         0.0751
      3 C         -54.0100   44.8100  -22.9940 C.2       1 CYS         0.2300
      4 O         -54.5180   45.9270  -22.9530 O.2       1 CYS        -0.3905
      5 CB        -55.9930   43.5970  -23.8130 C.3       1 CYS         0.0643
      6 SG        -56.7220   41.9980  -24.0950 S.3       1 CYS        -0.0848
      7 N         -52.7150   44.6020  -23.2320 N.am      1 CYS        -0.2471
      8 CA        -51.8320   45.7350  -23.5260 C.3       1 CYS         0.1339
      9 C         -52.2200   46.3870  -24.8390 C.2       1 CYS         0.2041
     10 O         -52.7370   45.7380  -25.7530 O.2       1 CYS        -0.3944
     11 CB        -50.4350   45.1050  -23.5990 C.3       1 CYS        -0.0104
     12 CG        -50.6190   43.6600  -23.5220 C.3       1 CYS        -0.0281
     13 CD        -51.9860   43.3280  -23.0850 C.3       1 CYS         0.0371
     14 N         -51.9660   47.6950  -24.9210 N.am      1 CYS        -0.2640
     15 CA        -52.5060   48.4920  -26.0180 C.3       1 CYS         0.1282
     16 C         -52.1000   47.9610  -27.3970 C.2       1 CYS         0.2037
     17 O         -52.8550   48.1270  -28.3520 O.2       1 CYS        -0.3944
     18 CB        -52.0870   49.9470  -25.8650 C.3       1 CYS        -0.0244
     19 N         -50.9350   47.3090  -27.5190 N.am      1 CYS        -0.2621
     20 CA        -50.3830   46.8980  -28.8070 C.3       1 CYS         0.1390
     21 C         -50.5430   45.4020  -29.0590 C.2       1 CYS         0.2058
     22 O         -49.8220   44.8270  -29.8870 O.2       1 CYS        -0.3942
     23 CB        -48.9040   47.2970  -28.9230 C.3       1 CYS         0.0163
     24 CG        -48.6570   48.8030  -28.9370 C.ar      1 CYS        -0.0493
     25 CD1       -49.6930   49.6940  -29.1610 C.ar      1 CYS        -0.0685
     26 CD2       -47.3890   49.3210  -28.7500 C.ar      1 CYS        -0.0685
     27 CE1       -49.4730   51.0590  -29.1810 C.ar      1 CYS        -0.0398
     28 CE2       -47.1630   50.6920  -28.7690 C.ar      1 CYS        -0.0398
     29 CZ        -48.2120   51.5500  -28.9770 C.ar      1 CYS         0.0805
     30 OH        -48.0110   52.9090  -28.9840 O.3       1 CYS        -0.3376
     31 N         -51.4750   44.7590  -28.3680 N.am      1 CYS        -0.2614
     32 CA        -51.7190   43.3520  -28.6190 C.3       1 CYS         0.1539
     33 C         -52.0940   43.1450  -30.0850 C.2       1 CYS         0.2062
     34 O         -52.7180   44.0000  -30.7040 O.2       1 CYS        -0.3943
     35 CB        -52.8340   42.8590  -27.6980 C.3       1 CYS         0.0843
     36 OG        -53.2110   41.5100  -27.9570 O.3       1 CYS        -0.3903
     37 N         -51.6870   41.9980  -30.6350 N.am      1 CYS        -0.2637
     38 CA        -52.2100   41.4500  -31.8810 C.3       1 CYS         0.1311
     39 C         -52.9850   40.1600  -31.6320 C.2       1 CYS         0.2040
     40 O         -53.0860   39.3120  -32.5150 O.2       1 CYS        -0.3944
     41 CB        -51.0800   41.2140  -32.8870 C.3       1 CYS        -0.0092
     42 CG        -50.4410   42.5420  -33.2910 C.3       1 CYS        -0.0156
     43 CD        -49.2810   42.3990  -34.2520 C.3       1 CYS         0.0627
     44 NE        -48.8970   43.7010  -34.7920 N.pl3     1 CYS        -0.2723
     45 CZ        -48.0280   43.8660  -35.7820 C.cat     1 CYS         0.2882
     46 NH1       -47.4420   42.8040  -36.3430 N.pl3     1 CYS        -0.2849
     47 NH2       -47.7500   45.0880  -36.2190 N.pl3     1 CYS        -0.2849
     48 N         -53.5500   40.0120  -30.4330 N.am      1 CYS        -0.2621
     49 CA        -54.2510   38.7990  -30.0330 C.3       1 CYS         0.1390
     50 C         -55.7240   38.8940  -30.4020 C.2       1 CYS         0.2057
     51 O         -56.3850   39.8940  -30.0900 O.2       1 CYS        -0.3942
     52 CB        -54.1050   38.5830  -28.5300 C.3       1 CYS         0.0163
     53 CG        -54.8840   37.4080  -27.9690 C.ar      1 CYS        -0.0493
     54 CD1       -54.9740   36.2200  -28.6780 C.ar      1 CYS        -0.0685
     55 CD2       -55.5010   37.4780  -26.7130 C.ar      1 CYS        -0.0685
     56 CE1       -55.6560   35.1470  -28.1820 C.ar      1 CYS        -0.0398
     57 CE2       -56.1990   36.4000  -26.2140 C.ar      1 CYS        -0.0398
     58 CZ        -56.2690   35.2340  -26.9500 C.ar      1 CYS         0.0805
     59 OH        -56.9540   34.1310  -26.4860 O.3       1 CYS        -0.3376
     60 N         -56.2280   37.8460  -31.0660 N.am      1 CYS        -0.2633
     61 CA        -57.6390   37.7610  -31.4580 C.3       1 CYS         0.1335
     62 C         -58.5900   38.0820  -30.2980 C.2       1 CYS         0.2040
     63 O         -59.6890   38.6110  -30.5150 O.2       1 CYS        -0.3944
     64 CB        -57.9070   36.3600  -32.0560 C.3       1 CYS        -0.0037
     65 CG1       -57.6380   36.3520  -33.5540 C.3       1 CYS        -0.0491
     66 CG2       -59.3010   35.8440  -31.7450 C.3       1 CYS        -0.0582
     67 CD1       -57.9260   35.0280  -34.1850 C.3       1 CYS        -0.0648
     68 N         -58.2030   37.7610  -29.0600 N.am      1 CYS        -0.2664
     69 CA        -59.0790   38.0480  -27.9470 C.3       1 CYS         0.1201
     70 C         -58.8530   39.3800  -27.2430 C.2       1 CYS         0.2002
     71 O         -59.2700   39.5320  -26.0940 O.2       1 CYS        -0.3947
     72 N         -58.2200   40.3520  -27.8970 N.am      1 CYS        -0.2689
     73 CA        -57.9200   41.6350  -27.2330 C.3       1 CYS         0.1041
     74 C         -58.5330   42.8220  -27.9560 C.2       1 CYS         0.0609
     75 O         -59.0610   42.6550  -29.0480 O.co2     1 CYS        -0.5666
     76 CB        -56.4100   41.8510  -27.1120 C.3       1 CYS         0.0388
     77 SG        -55.7020   41.1500  -25.6410 S.3       1 CYS        -0.0887
     78 OXT       -58.4910   43.9300  -27.4370 O.co2     1 CYS        -0.5666
     79 H1        -55.9466   42.6210  -21.3511 H         1 CYS         0.2015
     80 H2        -55.9617   44.2615  -21.2171 H         1 CYS         0.2015
     81 H3        -54.6239   43.4116  -20.7725 H         1 CYS         0.2015
     82 H4        -54.2375   42.6900  -22.9767 H         1 CYS         0.1107
     83 H5        -55.5907   43.9701  -24.7664 H         1 CYS         0.0466
     84 H6        -56.7772   44.2796  -23.4537 H         1 CYS         0.0466
     85 H7        -51.8768   46.4840  -22.7216 H         1 CYS         0.0802
     86 H8        -49.8182   45.4534  -22.7575 H         1 CYS         0.0313
     87 H9        -49.9473   45.3744  -24.5474 H         1 CYS         0.0313
     88 H10       -49.8993   43.2429  -22.8022 H         1 CYS         0.0287
     89 H11       -50.4413   43.2207  -24.5147 H         1 CYS         0.0287
     90 H12       -52.4246   42.5482  -23.7250 H         1 CYS         0.0524
     91 H13       -51.9926   42.9900  -22.0383 H         1 CYS         0.0524
     92 H14       -51.3996   48.1335  -24.2232 H         1 CYS         0.1883
     93 H15       -53.6031   48.4444  -25.9545 H         1 CYS         0.0797
     94 H16       -52.4996   50.5368  -26.6968 H         1 CYS         0.0277
     95 H17       -50.9892   50.0156  -25.8761 H         1 CYS         0.0277
     96 H18       -52.4693   50.3404  -24.9116 H         1 CYS         0.0277
     97 H19       -50.4199   47.0941  -26.6892 H         1 CYS         0.1885
     98 H20       -50.9409   47.4305  -29.5913 H         1 CYS         0.0821
     99 H21       -48.5058   46.8743  -29.8572 H         1 CYS         0.0453
    100 H22       -48.3635   46.8676  -28.0666 H         1 CYS         0.0453
    101 H23       -50.6952   49.3143  -29.3237 H         1 CYS         0.0530
    102 H24       -46.5567   48.6461  -28.5857 H         1 CYS         0.0530
    103 H25       -50.2982   51.7392  -29.3580 H         1 CYS         0.0525
    104 H26       -46.1623   51.0812  -28.6201 H         1 CYS         0.0525
    105 H27       -48.8380   53.3495  -29.1407 H         1 CYS         0.2458
    106 H28       -52.0085   45.2439  -27.6750 H         1 CYS         0.1884
    107 H29       -50.8021   42.7837  -28.4039 H         1 CYS         0.0823
    108 H30       -53.7150   43.5026  -27.8378 H         1 CYS         0.0606
    109 H31       -52.4875   42.9328  -26.6566 H         1 CYS         0.0606
    110 H32       -52.4594   40.9427  -27.8317 H         1 CYS         0.2097
    111 H33       -50.9755   41.4800  -30.1602 H         1 CYS         0.1883
    112 H34       -52.9037   42.1867  -32.3122 H         1 CYS         0.0800
    113 H35       -51.4882   40.7211  -33.7817 H         1 CYS         0.0313
    114 H36       -50.3160   40.5686  -32.4292 H         1 CYS         0.0313
    115 H37       -50.0770   43.0418  -32.3812 H         1 CYS         0.0301
    116 H38       -51.2112   43.1654  -33.7687 H         1 CYS         0.0301
    117 H39       -49.5766   41.7374  -35.0796 H         1 CYS         0.0689
    118 H40       -48.4233   41.9608  -33.7207 H         1 CYS         0.0689
    119 H41       -49.3264   44.5416  -34.3798 H         1 CYS         0.2642
    120 H42       -46.7680   42.9335  -37.1110 H         1 CYS         0.2615
    121 H43       -47.6644   41.8559  -36.0074 H         1 CYS         0.2615
    122 H44       -48.2026   45.9054  -35.7854 H         1 CYS         0.2615
    123 H45       -47.0817   45.2190  -36.9917 H         1 CYS         0.2615
    124 H46       -53.4899   40.7668  -29.7798 H         1 CYS         0.1885
    125 H47       -53.8071   37.9421  -30.5609 H         1 CYS         0.0821
    126 H48       -54.4494   39.4946  -28.0198 H         1 CYS         0.0453
    127 H49       -53.0393   38.4207  -28.3112 H         1 CYS         0.0453
    128 H50       -54.4928   36.1418  -29.6462 H         1 CYS         0.0530
    129 H51       -55.4286   38.3882  -26.1288 H         1 CYS         0.0530
    130 H52       -55.7156   34.2288  -28.7551 H         1 CYS         0.0525
    131 H53       -56.6900   36.4669  -25.2499 H         1 CYS         0.0525
    132 H54       -56.8920   33.4297  -27.1239 H         1 CYS         0.2458
    133 H55       -55.6176   37.0906  -31.3043 H         1 CYS         0.1883
    134 H56       -57.8182   38.5079  -32.2454 H         1 CYS         0.0803
    135 H57       -57.1936   35.6654  -31.5884 H         1 CYS         0.0345
    136 H58       -56.5796   36.5993  -33.7228 H         1 CYS         0.0267
    137 H59       -58.2730   37.1139  -34.0296 H         1 CYS         0.0267
    138 H60       -59.4645   35.8621  -30.6574 H         1 CYS         0.0235
    139 H61       -59.4009   34.8124  -32.1136 H         1 CYS         0.0235
    140 H62       -60.0474   36.4837  -32.2386 H         1 CYS         0.0235
    141 H63       -57.7143   35.0819  -35.2631 H         1 CYS         0.0230
    142 H64       -58.9845   34.7712  -34.0316 H         1 CYS         0.0230
    143 H65       -57.2911   34.2566  -33.7248 H         1 CYS         0.0230
    144 H66       -57.3158   37.3264  -28.9051 H         1 CYS         0.1881
    145 H67       -58.9500   37.2483  -27.2028 H         1 CYS         0.0763
    146 H68       -60.1132   38.0370  -28.3216 H         1 CYS         0.0763
    147 H69       -57.9451   40.2109  -28.8481 H         1 CYS         0.1876
    148 H70       -58.3468   41.5947  -26.2200 H         1 CYS         0.0734
    149 H71       -56.2134   42.9333  -27.1099 H         1 CYS         0.0425
    150 H72       -55.9227   41.3914  -27.9845 H         1 CYS         0.0425
@<TRIPOS>BOND
     1    1    2 1  
     2    2    3 1  
     3    2    5 1  
     4    3    4 2  
     5    3    7 am 
     6    5    6 1  
     7    6   77 1  
     8    7    8 1  
     9    7   13 1  
    10    8    9 1  
    11    8   11 1  
    12    9   10 2  
    13    9   14 am 
    14   11   12 1  
    15   12   13 1  
    16   14   15 1  
    17   15   16 1  
    18   15   18 1  
    19   16   17 2  
    20   16   19 am 
    21   19   20 1  
    22   20   21 1  
    23   20   23 1  
    24   21   22 2  
    25   21   31 am 
    26   23   24 1  
    27   24   25 ar 
    28   24   26 ar 
    29   25   27 ar 
    30   26   28 ar 
    31   27   29 ar 
    32   28   29 ar 
    33   29   30 1  
    34   31   32 1  
    35   32   33 1  
    36   32   35 1  
    37   33   34 2  
    38   33   37 am 
    39   35   36 1  
    40   37   38 1  
    41   38   39 1  
    42   38   41 1  
    43   39   40 2  
    44   39   48 am 
    45   41   42 1  
    46   42   43 1  
    47   43   44 1  
    48   44   45 ar 
    49   45   46 ar 
    50   45   47 ar 
    51   48   49 1  
    52   49   50 1  
    53   49   52 1  
    54   50   51 2  
    55   50   60 am 
    56   52   53 1  
    57   53   54 ar 
    58   53   55 ar 
    59   54   56 ar 
    60   55   57 ar 
    61   56   58 ar 
    62   57   58 ar 
    63   58   59 1  
    64   60   61 1  
    65   61   62 1  
    66   61   64 1  
    67   62   63 2  
    68   62   68 am 
    69   64   65 1  
    70   64   66 1  
    71   65   67 1  
    72   68   69 1  
    73   69   70 1  
    74   70   71 2  
    75   70   72 am 
    76   72   73 1  
    77   73   74 1  
    78   73   76 1  
    79   74   75 ar 
    80   74   78 ar 
    81   76   77 1  
    82    1   79 1  
    83    1   80 1  
    84    1   81 1  
    85    2   82 1  
    86    5   83 1  
    87    5   84 1  
    88    8   85 1  
    89   11   86 1  
    90   11   87 1  
    91   12   88 1  
    92   12   89 1  
    93   13   90 1  
    94   13   91 1  
    95   14   92 1  
    96   15   93 1  
    97   18   94 1  
    98   18   95 1  
    99   18   96 1  
   100   19   97 1  
   101   20   98 1  
   102   23   99 1  
   103   23  100 1  
   104   25  101 1  
   105   26  102 1  
   106   27  103 1  
   107   28  104 1  
   108   30  105 1  
   109   31  106 1  
   110   32  107 1  
   111   35  108 1  
   112   35  109 1  
   113   36  110 1  
   114   37  111 1  
   115   38  112 1  
   116   41  113 1  
   117   41  114 1  
   118   42  115 1  
   119   42  116 1  
   120   43  117 1  
   121   43  118 1  
   122   44  119 1  
   123   46  120 1  
   124   46  121 1  
   125   47  122 1  
   126   47  123 1  
   127   48  124 1  
   128   49  125 1  
   129   52  126 1  
   130   52  127 1  
   131   54  128 1  
   132   55  129 1  
   133   56  130 1  
   134   57  131 1  
   135   59  132 1  
   136   60  133 1  
   137   61  134 1  
   138   64  135 1  
   139   65  136 1  
   140   65  137 1  
   141   66  138 1  
   142   66  139 1  
   143   66  140 1  
   144   67  141 1  
   145   67  142 1  
   146   67  143 1  
   147   68  144 1  
   148   69  145 1  
   149   69  146 1  
   150   72  147 1  
   151   73  148 1  
   152   76  149 1  
   153   76  150 1  
@<TRIPOS>SUBSTRUCTURE
     1 CYS         1

