6a8n_ligand
  -I-interpret- 

150153  0  0  0  0  0  0  0  0999 V2000
  -55.3900   43.4580  -21.4260 N   0  3  0  0  0
  -54.8640   43.5740  -22.7870 C   0  0  0  0  0
  -54.0100   44.8100  -22.9940 C   0  0  0  0  0
  -54.5180   45.9270  -22.9530 O   0  0  0  0  0
  -55.9930   43.5970  -23.8130 C   0  0  0  0  0
  -56.7220   41.9980  -24.0950 S   0  0  0  0  0
  -52.7150   44.6020  -23.2320 N   0  0  0  0  0
  -51.8320   45.7350  -23.5260 C   0  0  0  0  0
  -52.2200   46.3870  -24.8390 C   0  0  0  0  0
  -52.7370   45.7380  -25.7530 O   0  0  0  0  0
  -50.4350   45.1050  -23.5990 C   0  0  0  0  0
  -50.6190   43.6600  -23.5220 C   0  0  0  0  0
  -51.9860   43.3280  -23.0850 C   0  0  0  0  0
  -51.9660   47.6950  -24.9210 N   0  0  0  0  0
  -52.5060   48.4920  -26.0180 C   0  0  0  0  0
  -52.1000   47.9610  -27.3970 C   0  0  0  0  0
  -52.8550   48.1270  -28.3520 O   0  0  0  0  0
  -52.0870   49.9470  -25.8650 C   0  0  0  0  0
  -50.9350   47.3090  -27.5190 N   0  0  0  0  0
  -50.3830   46.8980  -28.8070 C   0  0  0  0  0
  -50.5430   45.4020  -29.0590 C   0  0  0  0  0
  -49.8220   44.8270  -29.8870 O   0  0  0  0  0
  -48.9040   47.2970  -28.9230 C   0  0  0  0  0
  -48.6570   48.8030  -28.9370 C   0  0  0  0  0
  -49.6930   49.6940  -29.1610 C   0  0  0  0  0
  -47.3890   49.3210  -28.7500 C   0  0  0  0  0
  -49.4730   51.0590  -29.1810 C   0  0  0  0  0
  -47.1630   50.6920  -28.7690 C   0  0  0  0  0
  -48.2120   51.5500  -28.9770 C   0  0  0  0  0
  -48.0110   52.9090  -28.9840 O   0  0  0  0  0
  -51.4750   44.7590  -28.3680 N   0  0  0  0  0
  -51.7190   43.3520  -28.6190 C   0  0  0  0  0
  -52.0940   43.1450  -30.0850 C   0  0  0  0  0
  -52.7180   44.0000  -30.7040 O   0  0  0  0  0
  -52.8340   42.8590  -27.6980 C   0  0  0  0  0
  -53.2110   41.5100  -27.9570 O   0  0  0  0  0
  -51.6870   41.9980  -30.6350 N   0  0  0  0  0
  -52.2100   41.4500  -31.8810 C   0  0  0  0  0
  -52.9850   40.1600  -31.6320 C   0  0  0  0  0
  -53.0860   39.3120  -32.5150 O   0  0  0  0  0
  -51.0800   41.2140  -32.8870 C   0  0  0  0  0
  -50.4410   42.5420  -33.2910 C   0  0  0  0  0
  -49.2810   42.3990  -34.2520 C   0  0  0  0  0
  -48.8970   43.7010  -34.7920 N   0  0  0  0  0
  -48.0280   43.8660  -35.7820 C   0  0  0  0  0
  -47.4420   42.8040  -36.3430 N   0  0  0  0  0
  -47.7500   45.0880  -36.2190 N   0  0  0  0  0
  -53.5500   40.0120  -30.4330 N   0  0  0  0  0
  -54.2510   38.7990  -30.0330 C   0  0  0  0  0
  -55.7240   38.8940  -30.4020 C   0  0  0  0  0
  -56.3850   39.8940  -30.0900 O   0  0  0  0  0
  -54.1050   38.5830  -28.5300 C   0  0  0  0  0
  -54.8840   37.4080  -27.9690 C   0  0  0  0  0
  -54.9740   36.2200  -28.6780 C   0  0  0  0  0
  -55.5010   37.4780  -26.7130 C   0  0  0  0  0
  -55.6560   35.1470  -28.1820 C   0  0  0  0  0
  -56.1990   36.4000  -26.2140 C   0  0  0  0  0
  -56.2690   35.2340  -26.9500 C   0  0  0  0  0
  -56.9540   34.1310  -26.4860 O   0  0  0  0  0
  -56.2280   37.8460  -31.0660 N   0  0  0  0  0
  -57.6390   37.7610  -31.4580 C   0  0  0  0  0
  -58.5900   38.0820  -30.2980 C   0  0  0  0  0
  -59.6890   38.6110  -30.5150 O   0  0  0  0  0
  -57.9070   36.3600  -32.0560 C   0  0  0  0  0
  -57.6380   36.3520  -33.5540 C   0  0  0  0  0
  -59.3010   35.8440  -31.7450 C   0  0  0  0  0
  -57.9260   35.0280  -34.1850 C   0  0  0  0  0
  -58.2030   37.7610  -29.0600 N   0  0  0  0  0
  -59.0790   38.0480  -27.9470 C   0  0  0  0  0
  -58.8530   39.3800  -27.2430 C   0  0  0  0  0
  -59.2700   39.5320  -26.0940 O   0  0  0  0  0
  -58.2200   40.3520  -27.8970 N   0  0  0  0  0
  -57.9200   41.6350  -27.2330 C   0  0  0  0  0
  -58.5330   42.8220  -27.9560 C   0  0  0  0  0
  -59.0610   42.6550  -29.0480 O   0  0  0  0  0
  -56.4100   41.8510  -27.1120 C   0  0  0  0  0
  -55.7020   41.1500  -25.6410 S   0  0  0  0  0
  -58.4910   43.9300  -27.4370 O   0  0  0  0  0
  -54.6148   43.4451  -20.7631 H   0  0  0  0  0
  -55.9953   44.2547  -21.2277 H   0  0  0  0  0
  -55.9251   42.5937  -21.3421 H   0  0  0  0  0
  -54.2359   42.6945  -22.9286 H   0  0  0  0  0
  -55.5715   43.9380  -24.7586 H   0  0  0  0  0
  -56.7746   44.2517  -23.4277 H   0  0  0  0  0
  -51.8871   46.5257  -22.7778 H   0  0  0  0  0
  -49.8071   45.4595  -22.7816 H   0  0  0  0  0
  -49.9329   45.3826  -24.5258 H   0  0  0  0  0
  -49.9112   43.2541  -22.7993 H   0  0  0  0  0
  -50.4528   43.2318  -24.5105 H   0  0  0  0  0
  -52.4283   42.5239  -23.6731 H   0  0  0  0  0
  -52.0165   42.9451  -22.0649 H   0  0  0  0  0
  -51.3883   48.1423  -24.2093 H   0  0  0  0  0
  -53.5919   48.4162  -25.9611 H   0  0  0  0  0
  -52.4664   50.3356  -24.9199 H   0  0  0  0  0
  -50.9991   50.0136  -25.8761 H   0  0  0  0  0
  -52.4965   50.5303  -26.6897 H   0  0  0  0  0
  -50.4096   47.0898  -26.6727 H   0  0  0  0  0
  -50.9555   47.4224  -29.5721 H   0  0  0  0  0
  -48.5401   46.9042  -29.8724 H   0  0  0  0  0
  -48.3950   46.8973  -28.0459 H   0  0  0  0  0
  -50.7008   49.3122  -29.3246 H   0  0  0  0  0
  -46.5521   48.6424  -28.5848 H   0  0  0  0  0
  -50.3028   51.7430  -29.3590 H   0  0  0  0  0
  -46.1568   51.0833  -28.6193 H   0  0  0  0  0
  -47.0821   53.0948  -28.8283 H   0  0  0  0  0
  -52.0192   45.2536  -27.6612 H   0  0  0  0  0
  -50.8153   42.7784  -28.4130 H   0  0  0  0  0
  -53.7083   43.4875  -27.8677 H   0  0  0  0  0
  -52.4667   42.9111  -26.6731 H   0  0  0  0  0
  -53.9115   41.2531  -27.3529 H   0  0  0  0  0
  -50.9613   41.4696  -30.1507 H   0  0  0  0  0
  -52.8994   42.1809  -32.3035 H   0  0  0  0  0
  -51.4897   40.7324  -33.7748 H   0  0  0  0  0
  -50.3217   40.5803  -32.4271 H   0  0  0  0  0
  -50.0538   43.0042  -32.3830 H   0  0  0  0  0
  -51.2080   43.1301  -33.7949 H   0  0  0  0  0
  -49.5819   41.7503  -35.0747 H   0  0  0  0  0
  -48.4310   41.9733  -33.7187 H   0  0  0  0  0
  -49.3222   44.5335  -34.3838 H   0  0  0  0  0
  -46.7799   42.9318  -37.1083 H   0  0  0  0  0
  -47.6568   41.8656  -36.0059 H   0  0  0  0  0
  -48.2036   45.8969  -35.7944 H   0  0  0  0  0
  -53.4887   40.7819  -29.7667 H   0  0  0  0  0
  -53.8111   37.9520  -30.5594 H   0  0  0  0  0
  -54.4952   39.4779  -28.0453 H   0  0  0  0  0
  -53.0508   38.3778  -28.3437 H   0  0  0  0  0
  -54.4901   36.1414  -29.6515 H   0  0  0  0  0
  -55.4282   38.3933  -26.1256 H   0  0  0  0  0
  -55.7160   34.2237  -28.7582 H   0  0  0  0  0
  -56.6927   36.4673  -25.2445 H   0  0  0  0  0
  -57.3286   34.3275  -25.6242 H   0  0  0  0  0
  -55.6054   37.0755  -31.3091 H   0  0  0  0  0
  -57.8394   38.5197  -32.2145 H   0  0  0  0  0
  -57.2111   35.6729  -31.5747 H   0  0  0  0  0
  -56.5812   36.5719  -33.7053 H   0  0  0  0  0
  -58.2921   37.0919  -34.0153 H   0  0  0  0  0
  -59.4291   35.7756  -30.6647 H   0  0  0  0  0
  -60.0412   36.5297  -32.1572 H   0  0  0  0  0
  -59.4297   34.8576  -32.1906 H   0  0  0  0  0
  -57.2963   34.2645  -33.7281 H   0  0  0  0  0
  -58.9751   34.7747  -34.0323 H   0  0  0  0  0
  -57.7159   35.0826  -35.2532 H   0  0  0  0  0
  -57.2981   37.3177  -28.9021 H   0  0  0  0  0
  -58.8914   37.2737  -27.2031 H   0  0  0  0  0
  -60.0890   38.0858  -28.3551 H   0  0  0  0  0
  -57.9396   40.2081  -28.8671 H   0  0  0  0  0
  -58.3654   41.5728  -26.2401 H   0  0  0  0  0
  -58.9994   41.7290  -29.2937 H   0  0  0  0  0
  -56.2371   42.9266  -27.0756 H   0  0  0  0  0
  -55.9417   41.3594  -27.9647 H   0  0  0  0  0
  1  2  1  0  0  0
  2  3  1  0  0  0
  2  5  1  0  0  0
  3  4  2  0  0  0
  3  7  1  0  0  0
  5  6  1  0  0  0
  6 77  1  0  0  0
  7  8  1  0  0  0
  7 13  1  0  0  0
  8  9  1  0  0  0
  8 11  1  0  0  0
  9 10  2  0  0  0
  9 14  1  0  0  0
 11 12  1  0  0  0
 12 13  1  0  0  0
 14 15  1  0  0  0
 15 16  1  0  0  0
 15 18  1  0  0  0
 16 17  2  0  0  0
 16 19  1  0  0  0
 19 20  1  0  0  0
 20 21  1  0  0  0
 20 23  1  0  0  0
 21 22  2  0  0  0
 21 31  1  0  0  0
 23 24  1  0  0  0
 24 25  4  0  0  0
 24 26  4  0  0  0
 25 27  4  0  0  0
 26 28  4  0  0  0
 27 29  4  0  0  0
 28 29  4  0  0  0
 29 30  1  0  0  0
 31 32  1  0  0  0
 32 33  1  0  0  0
 32 35  1  0  0  0
 33 34  2  0  0  0
 33 37  1  0  0  0
 35 36  1  0  0  0
 37 38  1  0  0  0
 38 39  1  0  0  0
 38 41  1  0  0  0
 39 40  2  0  0  0
 39 48  1  0  0  0
 41 42  1  0  0  0
 42 43  1  0  0  0
 43 44  1  0  0  0
 44 45  1  0  0  0
 45 46  1  0  0  0
 45 47  2  0  0  0
 48 49  1  0  0  0
 49 50  1  0  0  0
 49 52  1  0  0  0
 50 51  2  0  0  0
 50 60  1  0  0  0
 52 53  1  0  0  0
 53 54  4  0  0  0
 53 55  4  0  0  0
 54 56  4  0  0  0
 55 57  4  0  0  0
 56 58  4  0  0  0
 57 58  4  0  0  0
 58 59  1  0  0  0
 60 61  1  0  0  0
 61 62  1  0  0  0
 61 64  1  0  0  0
 62 63  2  0  0  0
 62 68  1  0  0  0
 64 65  1  0  0  0
 64 66  1  0  0  0
 65 67  1  0  0  0
 68 69  1  0  0  0
 69 70  1  0  0  0
 70 71  2  0  0  0
 70 72  1  0  0  0
 72 73  1  0  0  0
 73 74  1  0  0  0
 73 76  1  0  0  0
 74 75  1  0  0  0
 74 78  2  0  0  0
 76 77  1  0  0  0
  1 79  1  0  0  0
  1 80  1  0  0  0
  1 81  1  0  0  0
  2 82  1  0  0  0
  5 83  1  0  0  0
  5 84  1  0  0  0
  8 85  1  0  0  0
 11 86  1  0  0  0
 11 87  1  0  0  0
 12 88  1  0  0  0
 12 89  1  0  0  0
 13 90  1  0  0  0
 13 91  1  0  0  0
 14 92  1  0  0  0
 15 93  1  0  0  0
 18 94  1  0  0  0
 18 95  1  0  0  0
 18 96  1  0  0  0
 19 97  1  0  0  0
 20 98  1  0  0  0
 23 99  1  0  0  0
 23100  1  0  0  0
 25101  1  0  0  0
 26102  1  0  0  0
 27103  1  0  0  0
 28104  1  0  0  0
 30105  1  0  0  0
 31106  1  0  0  0
 32107  1  0  0  0
 35108  1  0  0  0
 35109  1  0  0  0
 36110  1  0  0  0
 37111  1  0  0  0
 38112  1  0  0  0
 41113  1  0  0  0
 41114  1  0  0  0
 42115  1  0  0  0
 42116  1  0  0  0
 43117  1  0  0  0
 43118  1  0  0  0
 44119  1  0  0  0
 46120  1  0  0  0
 46121  1  0  0  0
 47122  1  0  0  0
 48123  1  0  0  0
 49124  1  0  0  0
 52125  1  0  0  0
 52126  1  0  0  0
 54127  1  0  0  0
 55128  1  0  0  0
 56129  1  0  0  0
 57130  1  0  0  0
 59131  1  0  0  0
 60132  1  0  0  0
 61133  1  0  0  0
 64134  1  0  0  0
 65135  1  0  0  0
 65136  1  0  0  0
 66137  1  0  0  0
 66138  1  0  0  0
 66139  1  0  0  0
 67140  1  0  0  0
 67141  1  0  0  0
 67142  1  0  0  0
 68143  1  0  0  0
 69144  1  0  0  0
 69145  1  0  0  0
 72146  1  0  0  0
 73147  1  0  0  0
 75148  1  0  0  0
 76149  1  0  0  0
 76150  1  0  0  0
M  END
$$$$
