4zij_ligand
  -I-interpret- 

 30 31  0  0  0  0  0  0  0  0999 V2000
   -4.0470   27.8340    8.5580 O   0  0  0  0  0
   -4.7400   27.6400    9.5560 C   0  0  0  0  0
   -4.5380   26.7680   10.4460 O   0  0  0  0  0
   -5.9630   28.4910    9.7290 C   0  0  0  0  0
   -6.0500   29.6510    8.9400 C   0  0  0  0  0
   -7.1500   30.5000    9.0170 C   0  0  0  0  0
   -8.1650   30.1860    9.8860 C   0  0  0  0  0
   -8.0910   29.0370   10.6590 C   0  0  0  0  0
   -7.0050   28.1740   10.6130 C   0  0  0  0  0
   -7.0230   26.9840   11.4800 N   0  0  0  0  0
   -7.1460   26.9180   13.1260 S   0  0  0  0  0
   -6.5440   25.7110   13.5810 O   0  0  0  0  0
   -8.4720   27.1760   13.5640 O   0  0  0  0  0
   -6.1700   28.2110   13.7990 C   0  0  0  0  0
   -4.8490   28.0470   14.1930 C   0  0  0  0  0
   -4.0530   29.0740   14.7120 C   0  0  0  0  0
   -4.6130   30.3200   14.8390 C   0  0  0  0  0
   -3.4770   31.8160   15.5790 I   0  0  0  0  0
   -5.9170   30.5760   14.4660 C   0  0  0  0  0
   -6.6730   29.5170   13.9470 C   0  0  0  0  0
   -5.2251   26.8287   11.1137 H   0  0  0  0  0
   -5.2384   29.8908    8.2530 H   0  0  0  0  0
   -7.2044   31.3965    8.3995 H   0  0  0  0  0
   -9.0318   30.8417    9.9688 H   0  0  0  0  0
   -8.9182   28.8025   11.3290 H   0  0  0  0  0
   -6.9502   26.0853   11.0031 H   0  0  0  0  0
   -4.4044   27.0570   14.0918 H   0  0  0  0  0
   -3.0198   28.8898   15.0064 H   0  0  0  0  0
   -6.3458   31.5725   14.5721 H   0  0  0  0  0
   -7.7010   29.7141   13.6430 H   0  0  0  0  0
  1  2  2  0  0  0
  2  3  1  0  0  0
  2  4  1  0  0  0
  4  5  4  0  0  0
  4  9  4  0  0  0
  5  6  4  0  0  0
  6  7  4  0  0  0
  7  8  4  0  0  0
  8  9  4  0  0  0
  9 10  1  0  0  0
 10 11  1  0  0  0
 11 12  2  0  0  0
 11 13  2  0  0  0
 11 14  1  0  0  0
 14 15  4  0  0  0
 14 20  4  0  0  0
 15 16  4  0  0  0
 16 17  4  0  0  0
 17 18  1  0  0  0
 17 19  4  0  0  0
 19 20  4  0  0  0
  3 21  1  0  0  0
  5 22  1  0  0  0
  6 23  1  0  0  0
  7 24  1  0  0  0
  8 25  1  0  0  0
 10 26  1  0  0  0
 15 27  1  0  0  0
 16 28  1  0  0  0
 19 29  1  0  0  0
 20 30  1  0  0  0
M  END
$$$$
