6cyi_ligand
  -I-interpret- 

 39 41  0  0  0  0  0  0  0  0999 V2000
   17.7330   38.8340  -10.9680 O   0  0  0  0  0
   16.7890   38.3410  -10.0750 C   0  0  0  0  0
   17.4990   37.7570   -8.8410 C   0  0  0  0  0
   18.5920   36.9840   -9.2650 N   0  0  0  0  0
   18.3990   35.5300   -9.4760 C   0  0  0  0  0
   17.2720   34.9920   -9.2630 O   0  0  0  0  0
   19.5610   34.6870   -9.9220 C   0  0  0  0  0
   19.9410   33.9760   -8.8720 O   0  0  0  0  0
   19.0010   33.6820  -10.9090 C   0  0  0  0  0
   19.1580   34.1090  -12.1820 O   0  0  0  0  0
   19.8970   32.4400  -10.6320 C   0  0  0  0  0
   21.1060   32.5680  -11.5080 O   0  0  0  0  0
   20.1690   32.4580   -9.3840 C   0  0  0  0  0
   19.2230   31.6560   -8.7190 N   0  0  0  0  0
   18.0060   32.0060   -8.2260 C   0  0  0  0  0
   17.4350   30.9020   -7.6710 N   0  0  0  0  0
   18.2990   29.8730   -7.8440 C   0  0  0  0  0
   19.4000   30.3240   -8.4850 C   0  0  0  0  0
   20.4290   29.4730   -8.7760 N   0  0  0  0  0
   20.3360   28.1710   -8.4150 C   0  0  0  0  0
   19.2150   27.7040   -7.7560 N   0  0  0  0  0
   18.2070   28.5620   -7.4860 C   0  0  0  0  0
   17.3250   27.6780   -6.8770 N   0  0  0  0  0
   17.2862   39.1973  -11.7361 H   0  0  0  0  0
   16.2058   37.5586  -10.5606 H   0  0  0  0  0
   16.1289   39.1504   -9.7631 H   0  0  0  0  0
   16.8043   37.1334   -8.2783 H   0  0  0  0  0
   17.8482   38.5669   -8.2005 H   0  0  0  0  0
   19.5023   37.4155   -9.4248 H   0  0  0  0  0
   20.3686   35.2906  -10.3362 H   0  0  0  0  0
   17.9323   33.4999  -10.7957 H   0  0  0  0  0
   18.7957   33.4554  -12.7846 H   0  0  0  0  0
   19.4244   31.4847  -10.8602 H   0  0  0  0  0
   21.6851   31.8160  -11.3641 H   0  0  0  0  0
   21.1843   32.1076   -9.1980 H   0  0  0  0  0
   17.5627   33.0009   -8.2678 H   0  0  0  0  0
   21.1519   27.4862   -8.6461 H   0  0  0  0  0
   16.4170   28.0079   -6.5496 H   0  0  0  0  0
   17.5854   26.6991   -6.7572 H   0  0  0  0  0
  1  2  1  0  0  0
  2  3  1  0  0  0
  3  4  1  0  0  0
  4  5  1  0  0  0
  5  6  2  0  0  0
  5  7  1  0  0  0
  7  8  1  0  0  0
  7  9  1  0  0  0
  8 13  1  0  0  0
  9 10  1  0  0  0
  9 11  1  0  0  0
 11 12  1  0  0  0
 11 13  1  0  0  0
 13 14  1  0  0  0
 14 15  4  0  0  0
 14 18  4  0  0  0
 15 16  4  0  0  0
 16 17  4  0  0  0
 17 18  4  0  0  0
 17 22  4  0  0  0
 18 19  4  0  0  0
 19 20  4  0  0  0
 20 21  4  0  0  0
 21 22  4  0  0  0
 22 23  1  0  0  0
  1 24  1  0  0  0
  2 25  1  0  0  0
  2 26  1  0  0  0
  3 27  1  0  0  0
  3 28  1  0  0  0
  4 29  1  0  0  0
  7 30  1  0  0  0
  9 31  1  0  0  0
 10 32  1  0  0  0
 11 33  1  0  0  0
 12 34  1  0  0  0
 13 35  1  0  0  0
 15 36  1  0  0  0
 20 37  1  0  0  0
 23 38  1  0  0  0
 23 39  1  0  0  0
M  END
$$$$
