2oh0_ligand
  -I-interpret- 

 49 53  0  0  0  0  0  0  0  0999 V2000
    3.3250   10.2010    4.8580 N   0  0  0  0  0
    9.5060   10.5300   -0.9050 N   0  0  0  0  0
    4.0270   10.0650    2.7230 C   0  0  0  0  0
    4.2100    9.9710    1.3510 C   0  0  0  0  0
    5.5260    9.9600    0.8100 C   0  0  0  0  0
    4.6670   10.2380    4.9680 C   0  0  0  0  0
   13.4490   13.5440    0.2790 C   0  0  0  0  0
   14.1020   11.0450    1.4890 C   0  0  0  0  0
   12.8190   13.1790    1.5080 C   0  0  0  0  0
   14.6510    9.7490    1.8010 C   0  0  0  0  0
    8.0730   10.0080    1.0060 C   0  0  0  0  0
    9.1970    9.4240    1.6440 C   0  0  0  0  0
   10.4730    9.3980    0.9970 C   0  0  0  0  0
   11.8040    8.2200    2.7230 C   0  0  0  0  0
    6.6950   10.0440    1.6390 C   0  0  0  0  0
    6.4860   10.1420    3.0590 C   0  0  0  0  0
    5.1800   10.1540    3.6060 C   0  0  0  0  0
    2.9580   10.1020    3.5760 N   0  0  0  0  0
   14.4000   12.6690   -0.3400 C   0  0  0  0  0
   14.7040   11.4490    0.2720 C   0  0  0  0  0
   13.1290   11.9370    2.1310 C   0  0  0  0  0
   15.5800   10.4480   -0.1330 N   0  0  0  0  0
   15.5430    9.4320    0.7880 C   0  0  0  0  0
   10.5650    9.9710   -0.2860 C   0  0  0  0  0
    8.2920   10.5480   -0.2800 C   0  0  0  0  0
   11.6750    8.8550    1.4630 O   0  0  0  0  0
   13.2770    7.7430    2.7970 C   0  0  0  0  0
   14.3050    8.8880    3.0220 C   0  0  0  0  0
   13.5810    7.0080    1.5440 N   0  3  0  0  0
    3.3469    9.9057    0.6885 H   0  0  0  0  0
    5.6507    9.8853   -0.2703 H   0  0  0  0  0
    5.2494   10.3149    5.8862 H   0  0  0  0  0
   13.2042   14.4961   -0.1919 H   0  0  0  0  0
   12.0985   13.8537    1.9704 H   0  0  0  0  0
    9.0876    8.9903    2.6380 H   0  0  0  0  0
   11.1086    7.3866    2.8235 H   0  0  0  0  0
   11.5628    8.9003    3.5398 H   0  0  0  0  0
    7.3468   10.2081    3.7245 H   0  0  0  0  0
   14.8807   12.9510   -1.2767 H   0  0  0  0  0
   12.6518   11.6532    3.0690 H   0  0  0  0  0
   16.1271    8.5135    0.7318 H   0  0  0  0  0
   11.5276    9.9622   -0.7972 H   0  0  0  0  0
    7.4490   11.0025   -0.8005 H   0  0  0  0  0
   13.3758    7.1005    3.6720 H   0  0  0  0  0
   13.8504    9.5628    3.7473 H   0  0  0  0  0
   15.2343    8.4038    3.3222 H   0  0  0  0  0
   14.5474    6.6827    1.5680 H   0  0  0  0  0
   12.9538    6.2081    1.4597 H   0  0  0  0  0
   13.4500    7.6298    0.7462 H   0  0  0  0  0
  6  1  4  0  0  0
  1 18  4  0  0  0
 24  2  4  0  0  0
  2 25  4  0  0  0
  4  3  4  0  0  0
 17  3  4  0  0  0
  3 18  4  0  0  0
  5  4  4  0  0  0
 15  5  4  0  0  0
 17  6  4  0  0  0
  9  7  4  0  0  0
 19  7  4  0  0  0
 10  8  4  0  0  0
  8 20  4  0  0  0
  8 21  4  0  0  0
 21  9  4  0  0  0
 10 23  4  0  0  0
 28 10  1  0  0  0
 12 11  4  0  0  0
 11 15  1  0  0  0
 11 25  4  0  0  0
 13 12  4  0  0  0
 13 24  4  0  0  0
 26 13  1  0  0  0
 14 26  1  0  0  0
 27 14  1  0  0  0
 15 16  4  0  0  0
 16 17  4  0  0  0
 20 19  4  0  0  0
 22 20  4  0  0  0
 23 22  4  0  0  0
 27 28  1  0  0  0
 27 29  1  0  0  0
  4 30  1  0  0  0
  5 31  1  0  0  0
  6 32  1  0  0  0
  7 33  1  0  0  0
  9 34  1  0  0  0
 12 35  1  0  0  0
 14 36  1  0  0  0
 14 37  1  0  0  0
 16 38  1  0  0  0
 19 39  1  0  0  0
 21 40  1  0  0  0
 23 41  1  0  0  0
 24 42  1  0  0  0
 25 43  1  0  0  0
 27 44  1  0  0  0
 28 45  1  0  0  0
 28 46  1  0  0  0
 29 47  1  0  0  0
 29 48  1  0  0  0
 29 49  1  0  0  0
M  END
$$$$
