3sfh_ligand
  -I-interpret- 

 39 41  0  0  0  0  0  0  0  0999 V2000
    5.5700   13.6050  -23.3180 N   0  3  0  0  0
    7.0170   13.2910  -23.3000 C   0  0  0  0  0
    7.5530   13.0630  -21.8310 C   0  0  0  0  0
    7.2840   14.2250  -20.8380 C   0  0  0  0  0
    8.2980   15.2690  -20.6970 C   0  0  0  0  0
    8.1010   16.3730  -19.7980 C   0  0  0  0  0
    6.8900   16.4540  -19.0240 C   0  0  0  0  0
    6.6460   17.7860  -17.9390 Cl  0  0  0  0  0
    5.8760   15.4320  -19.1430 C   0  0  0  0  0
    6.0530   14.3170  -20.0380 C   0  0  0  0  0
    4.7600   13.1270  -20.1140 Cl  0  0  0  0  0
    7.8940   14.3550  -24.0070 C   0  0  0  0  0
    7.4220   15.4900  -23.9730 O   0  0  0  0  0
    9.1370   14.1280  -24.6390 N   0  0  0  0  0
    9.7200   12.7590  -24.7040 C   0  0  0  0  0
   10.9330   13.0230  -25.5750 C   0  0  0  0  0
   11.8820   12.0660  -26.0890 C   0  0  0  0  0
   12.9790   12.5360  -26.9130 C   0  0  0  0  0
   13.1170   13.9480  -27.2150 C   0  0  0  0  0
   12.1560   14.9040  -26.6920 C   0  0  0  0  0
   11.0650   14.4180  -25.8690 C   0  0  0  0  0
    9.9540   15.2270  -25.2190 C   0  0  0  0  0
    5.0569   12.8658  -22.8376 H   0  0  0  0  0
    5.4104   14.4943  -22.8446 H   0  0  0  0  0
    5.2495   13.6704  -24.2841 H   0  0  0  0  0
    7.1055   12.3641  -23.8666 H   0  0  0  0  0
    8.6357   12.9617  -21.9064 H   0  0  0  0  0
    7.0290   12.1910  -21.4398 H   0  0  0  0  0
    9.2159   15.2092  -21.2817 H   0  0  0  0  0
    8.8646   17.1449  -19.7028 H   0  0  0  0  0
    4.9656   15.5054  -18.5482 H   0  0  0  0  0
    9.0421   12.0017  -25.0978 H   0  0  0  0  0
    9.9527   12.3246  -23.7317 H   0  0  0  0  0
   11.7762   11.0053  -25.8615 H   0  0  0  0  0
   13.7040   11.8241  -27.3076 H   0  0  0  0  0
   13.9438   14.2928  -27.8359 H   0  0  0  0  0
   12.2531   15.9667  -26.9140 H   0  0  0  0  0
   10.2993   15.9623  -24.4922 H   0  0  0  0  0
    9.4109   15.8772  -25.9048 H   0  0  0  0  0
  1  2  1  0  0  0
  2  3  1  0  0  0
  2 12  1  0  0  0
  3  4  1  0  0  0
  4  5  4  0  0  0
  4 10  4  0  0  0
  5  6  4  0  0  0
  6  7  4  0  0  0
  7  8  1  0  0  0
  7  9  4  0  0  0
  9 10  4  0  0  0
 10 11  1  0  0  0
 12 13  2  0  0  0
 12 14  1  0  0  0
 14 15  1  0  0  0
 14 22  1  0  0  0
 15 16  1  0  0  0
 16 17  4  0  0  0
 16 21  4  0  0  0
 17 18  4  0  0  0
 18 19  4  0  0  0
 19 20  4  0  0  0
 20 21  4  0  0  0
 21 22  1  0  0  0
  1 23  1  0  0  0
  1 24  1  0  0  0
  1 25  1  0  0  0
  2 26  1  0  0  0
  3 27  1  0  0  0
  3 28  1  0  0  0
  5 29  1  0  0  0
  6 30  1  0  0  0
  9 31  1  0  0  0
 15 32  1  0  0  0
 15 33  1  0  0  0
 17 34  1  0  0  0
 18 35  1  0  0  0
 19 36  1  0  0  0
 20 37  1  0  0  0
 22 38  1  0  0  0
 22 39  1  0  0  0
M  END
$$$$
