1i1e_ligand
  -I-interpret- 

 71 75  0  0  0  0  0  0  0  0999 V2000
   32.6390  -37.7100  -36.4450 C   0  0  0  0  0
   33.9650  -38.2260  -36.2490 C   0  0  0  0  0
   35.0940  -37.3320  -36.3490 C   0  0  0  0  0
   34.9040  -35.9160  -36.6400 C   0  0  0  0  0
   36.0240  -35.0590  -36.7340 O   0  0  0  0  0
   33.5580  -35.3900  -36.8440 C   0  0  0  0  0
   33.2970  -33.9790  -37.1450 C   0  0  0  0  0
   34.3500  -33.0910  -37.2450 O   0  0  0  0  0
   31.9480  -33.4320  -37.3650 C   0  0  0  0  0
   31.6510  -32.0160  -37.6730 C   0  0  0  0  0
   32.6150  -31.0140  -37.8060 O   0  0  0  0  0
   30.2660  -31.5910  -37.8690 C   0  0  0  0  0
   30.0050  -30.1160  -38.1860 C   0  0  0  0  0
   30.5500  -30.1210  -39.5430 O   0  0  0  0  0
   28.5230  -29.5880  -38.0720 C   0  0  0  0  0
   27.6410  -30.6840  -38.8450 C   0  0  0  0  0
   28.0110  -31.0840  -40.2110 O   0  0  0  0  0
   26.1070  -30.3860  -38.8870 C   0  0  0  0  0
   25.3170  -30.7210  -40.0000 O   0  0  0  0  0
   25.4500  -29.7610  -37.7220 C   0  0  0  0  0
   24.0460  -29.5800  -37.8920 O   0  0  0  0  0
   27.7750  -32.0170  -37.9870 C   0  0  0  0  0
   29.2010  -32.4930  -37.7760 C   0  0  0  0  0
   29.4750  -33.8720  -37.4740 C   0  0  0  0  0
   28.3890  -34.7000  -37.3910 O   0  0  0  0  0
   30.8310  -34.3710  -37.2610 C   0  0  0  0  0
   31.0860  -35.7960  -36.9480 C   0  0  0  0  0
   30.0390  -36.6260  -36.8620 O   0  0  0  0  0
   32.4300  -36.2800  -36.7460 C   0  0  0  0  0
   37.3960  -35.5770  -36.5380 C   0  0  0  0  0
   31.4710  -29.1430  -40.0310 C   0  0  0  0  0
   32.3720  -29.8650  -41.1260 C   0  0  0  0  0
   31.3780  -30.3210  -42.2650 C   0  0  0  0  0
   32.1870  -31.0210  -43.3760 N   0  3  0  0  0
   30.6210  -29.1120  -42.8390 C   0  0  0  0  0
   31.6990  -28.2160  -43.3630 O   0  0  0  0  0
   29.7750  -28.4270  -41.7480 C   0  0  0  0  0
   30.7020  -27.9910  -40.6110 O   0  0  0  0  0
   29.0090  -27.1770  -42.2670 C   0  0  0  0  0
   31.7814  -38.3787  -36.3710 H   0  0  0  0  0
   34.1173  -39.2822  -36.0269 H   0  0  0  0  0
   36.1021  -37.7208  -36.2050 H   0  0  0  0  0
   34.0109  -32.2154  -37.4448 H   0  0  0  0  0
   32.1829  -30.1804  -38.0059 H   0  0  0  0  0
   30.4420  -29.4191  -37.4708 H   0  0  0  0  0
   28.4101  -28.5946  -38.5062 H   0  0  0  0  0
   28.2107  -29.4723  -37.0341 H   0  0  0  0  0
   27.3890  -31.7419  -40.5301 H   0  0  0  0  0
   25.8938  -28.7749  -37.5849 H   0  0  0  0  0
   25.5945  -30.4240  -36.8690 H   0  0  0  0  0
   23.6795  -29.1715  -37.1043 H   0  0  0  0  0
   27.2558  -32.8022  -38.5365 H   0  0  0  0  0
   27.3621  -31.8033  -37.0011 H   0  0  0  0  0
   28.6822  -35.5910  -37.1867 H   0  0  0  0  0
   30.3495  -37.5106  -36.6554 H   0  0  0  0  0
   37.4832  -36.0019  -35.5380 H   0  0  0  0  0
   37.6016  -36.3478  -37.2808 H   0  0  0  0  0
   38.1105  -34.7616  -36.6513 H   0  0  0  0  0
   32.1071  -28.7434  -39.2412 H   0  0  0  0  0
   32.9076  -30.7146  -40.7025 H   0  0  0  0  0
   33.1397  -29.1952  -41.5133 H   0  0  0  0  0
   30.6428  -31.0112  -41.8513 H   0  0  0  0  0
   31.5546  -31.3203  -44.1182 H   0  0  0  0  0
   32.8747  -30.3703  -43.7555 H   0  0  0  0  0
   32.6648  -31.8336  -42.9864 H   0  0  0  0  0
   29.9119  -29.3865  -43.6200 H   0  0  0  0  0
   31.3025  -27.4285  -43.7427 H   0  0  0  0  0
   29.0316  -29.1502  -41.4127 H   0  0  0  0  0
   29.7237  -26.4439  -42.6412 H   0  0  0  0  0
   28.3356  -27.4732  -43.0713 H   0  0  0  0  0
   28.4328  -26.7409  -41.4510 H   0  0  0  0  0
  1  2  4  0  0  0
  1 29  4  0  0  0
  2  3  4  0  0  0
  3  4  4  0  0  0
  4  5  1  0  0  0
  4  6  4  0  0  0
  5 30  1  0  0  0
  6  7  4  0  0  0
  6 29  4  0  0  0
  7  8  1  0  0  0
  7  9  4  0  0  0
  9 10  4  0  0  0
  9 26  4  0  0  0
 10 11  1  0  0  0
 10 12  4  0  0  0
 12 13  1  0  0  0
 12 23  4  0  0  0
 13 14  1  0  0  0
 13 15  1  0  0  0
 14 31  1  0  0  0
 15 16  1  0  0  0
 16 17  1  0  0  0
 16 18  1  0  0  0
 16 22  1  0  0  0
 18 19  2  0  0  0
 18 20  1  0  0  0
 20 21  1  0  0  0
 22 23  1  0  0  0
 23 24  4  0  0  0
 24 25  1  0  0  0
 24 26  4  0  0  0
 26 27  4  0  0  0
 27 28  1  0  0  0
 27 29  4  0  0  0
 31 32  1  0  0  0
 31 38  1  0  0  0
 32 33  1  0  0  0
 33 34  1  0  0  0
 33 35  1  0  0  0
 35 36  1  0  0  0
 35 37  1  0  0  0
 37 38  1  0  0  0
 37 39  1  0  0  0
  1 40  1  0  0  0
  2 41  1  0  0  0
  3 42  1  0  0  0
  8 43  1  0  0  0
 11 44  1  0  0  0
 13 45  1  0  0  0
 15 46  1  0  0  0
 15 47  1  0  0  0
 17 48  1  0  0  0
 20 49  1  0  0  0
 20 50  1  0  0  0
 21 51  1  0  0  0
 22 52  1  0  0  0
 22 53  1  0  0  0
 25 54  1  0  0  0
 28 55  1  0  0  0
 30 56  1  0  0  0
 30 57  1  0  0  0
 30 58  1  0  0  0
 31 59  1  0  0  0
 32 60  1  0  0  0
 32 61  1  0  0  0
 33 62  1  0  0  0
 34 63  1  0  0  0
 34 64  1  0  0  0
 34 65  1  0  0  0
 35 66  1  0  0  0
 36 67  1  0  0  0
 37 68  1  0  0  0
 39 69  1  0  0  0
 39 70  1  0  0  0
 39 71  1  0  0  0
M  END
$$$$
