1fcx_ligand
  -I-interpret- 

 57 60  0  0  0  0  0  0  0  0999 V2000
   34.8120   18.3020   88.3100 C   0  0  0  0  0
   35.6880   17.3620   87.6370 C   0  0  0  0  0
   35.7540   16.0480   88.1900 C   0  0  0  0  0
   36.5760   15.0880   87.6060 C   0  0  0  0  0
   37.3590   15.3820   86.4520 C   0  0  0  0  0
   37.2920   16.6660   85.9170 C   0  0  0  0  0
   36.4480   17.6410   86.5260 C   0  0  0  0  0
   42.6820   13.8490   81.6850 C   0  0  0  0  0
   43.0400   13.2180   80.3560 C   0  0  0  0  0
   44.4770   13.5720   79.9670 C   0  0  0  0  0
   44.9220   14.9440   80.2750 C   0  0  0  0  0
   44.8200   15.2950   81.7390 C   0  0  0  0  0
   43.4990   14.7970   82.3090 C   0  0  0  0  0
   42.0230   13.6600   79.3050 C   0  0  0  0  0
   43.0550   11.6870   80.4240 C   0  0  0  0  0
   44.8160   16.8220   81.6780 C   0  0  0  0  0
   45.9950   14.8610   82.6600 C   0  0  0  0  0
   34.4210   18.1730   89.4200 O   0  0  0  0  0
   34.4720   19.3250   87.5700 O   0  0  0  0  0
   38.1860   14.4020   85.8600 C   0  0  0  0  0
   38.9520   14.6930   84.7340 C   0  0  0  0  0
   38.8660   15.9890   84.2030 C   0  0  0  0  0
   38.0520   16.9820   84.7780 C   0  0  0  0  0
   41.1700   14.0730   83.5500 C   0  0  0  0  0
   41.4920   13.4880   82.3290 C   0  0  0  0  0
   43.1310   15.3500   83.5270 C   0  0  0  0  0
   41.9870   14.9980   84.1470 C   0  0  0  0  0
   39.8360   13.5480   84.0920 C   0  0  0  0  0
   39.9280   12.5170   85.0740 O   0  0  0  0  0
   35.1611   15.7961   89.0693 H   0  0  0  0  0
   36.6217   14.0896   88.0409 H   0  0  0  0  0
   36.4040   18.6416   86.0959 H   0  0  0  0  0
   44.5296   13.4735   78.8827 H   0  0  0  0  0
   45.1191   12.9087   80.5465 H   0  0  0  0  0
   44.2745   15.6292   79.7278 H   0  0  0  0  0
   45.9720   15.0192   79.9923 H   0  0  0  0  0
   41.0264   13.3392   79.6081 H   0  0  0  0  0
   42.0446   14.7460   79.2145 H   0  0  0  0  0
   42.2750   13.2090   78.3452 H   0  0  0  0  0
   43.7909   11.3645   81.1606 H   0  0  0  0  0
   42.0675   11.3278   80.7138 H   0  0  0  0  0
   43.3172   11.2837   79.4459 H   0  0  0  0  0
   45.7385   17.1681   81.2118 H   0  0  0  0  0
   43.9619   17.1586   81.0904 H   0  0  0  0  0
   44.7447   17.2245   82.6884 H   0  0  0  0  0
   46.0988   13.7764   82.6276 H   0  0  0  0  0
   46.9177   15.3261   82.3131 H   0  0  0  0  0
   45.7893   15.1772   83.6826 H   0  0  0  0  0
   34.8889   19.2481   86.7087 H   0  0  0  0  0
   38.2253   13.4018   86.2914 H   0  0  0  0  0
   39.4493   16.2345   83.3155 H   0  0  0  0  0
   38.0114   17.9820   84.3463 H   0  0  0  0  0
   40.8235   12.7549   81.8776 H   0  0  0  0  0
   43.7833   16.0877   83.9944 H   0  0  0  0  0
   41.7164   15.4408   85.1056 H   0  0  0  0  0
   39.3796   13.1314   83.1941 H   0  0  0  0  0
   40.4584   11.7948   84.7294 H   0  0  0  0  0
  1 19  1  0  0  0
  1 18  2  0  0  0
  1  2  1  0  0  0
  2  7  4  0  0  0
  2  3  4  0  0  0
  3  4  4  0  0  0
  4  5  4  0  0  0
  5 20  4  0  0  0
  5  6  4  0  0  0
  6 23  4  0  0  0
  6  7  4  0  0  0
 23 22  4  0  0  0
 22 21  4  0  0  0
 21 28  1  0  0  0
 21 20  4  0  0  0
 28 29  1  0  0  0
 28 24  1  0  0  0
 24 27  4  0  0  0
 24 25  4  0  0  0
 25  8  4  0  0  0
  8 13  4  0  0  0
  8  9  1  0  0  0
  9 15  1  0  0  0
  9 14  1  0  0  0
  9 10  1  0  0  0
 10 11  1  0  0  0
 11 12  1  0  0  0
 12 17  1  0  0  0
 12 16  1  0  0  0
 12 13  1  0  0  0
 13 26  4  0  0  0
 26 27  4  0  0  0
  3 30  1  0  0  0
  4 31  1  0  0  0
  7 32  1  0  0  0
 10 33  1  0  0  0
 10 34  1  0  0  0
 11 35  1  0  0  0
 11 36  1  0  0  0
 14 37  1  0  0  0
 14 38  1  0  0  0
 14 39  1  0  0  0
 15 40  1  0  0  0
 15 41  1  0  0  0
 15 42  1  0  0  0
 16 43  1  0  0  0
 16 44  1  0  0  0
 16 45  1  0  0  0
 17 46  1  0  0  0
 17 47  1  0  0  0
 17 48  1  0  0  0
 19 49  1  0  0  0
 20 50  1  0  0  0
 22 51  1  0  0  0
 23 52  1  0  0  0
 25 53  1  0  0  0
 26 54  1  0  0  0
 27 55  1  0  0  0
 28 56  1  0  0  0
 29 57  1  0  0  0
M  END
$$$$
