5emm_ligand
  -I-interpret- 

 62 65  0  0  0  0  0  0  0  0999 V2000
   22.9070  -44.6730  -10.6760 C   0  0  0  0  0
   23.1350  -43.2580  -10.2810 C   0  0  0  0  0
   23.0400  -43.1650   -8.8970 C   0  0  0  0  0
   23.7730  -42.1650   -8.2350 C   0  0  0  0  0
   23.7160  -42.0570   -6.8400 C   0  0  0  0  0
   22.9250  -42.9460   -6.0950 C   0  0  0  0  0
   22.1940  -43.9440   -6.7450 C   0  0  0  0  0
   22.2480  -44.0550   -8.1430 C   0  0  0  0  0
   21.5210  -45.0870   -8.7380 C   0  0  0  0  0
   21.5660  -45.0740  -10.2090 N   0  3  0  0  0
   21.2190  -46.4260  -10.6860 C   0  0  0  0  0
   19.7580  -46.8410  -10.2590 C   0  0  0  0  0
   18.8460  -45.7730  -10.4420 O   0  0  0  0  0
   19.3020  -48.1070  -11.0050 C   0  0  0  0  0
   20.3900  -49.0560  -10.7100 N   0  0  0  0  0
   21.1910  -49.5750  -11.6490 C   0  0  0  0  0
   21.0540  -49.3650  -12.8600 O   0  0  0  0  0
   22.2290  -50.3760  -11.1470 C   0  0  0  0  0
   23.4470  -50.4370  -11.8270 C   0  0  0  0  0
   22.0820  -51.0900   -9.9420 C   0  0  0  0  0
   23.1190  -51.8770   -9.4320 C   0  0  0  0  0
   24.3140  -51.9410  -10.1400 C   0  0  0  0  0
   24.4980  -51.2100  -11.3210 C   0  0  0  0  0
   25.6220  -51.2680  -12.0580 N   0  0  0  0  0
   27.0580  -51.2170  -11.6610 C   0  0  0  0  0
   27.8920  -52.1440  -12.5630 C   0  0  0  0  0
   29.3580  -51.8250  -12.3070 C   0  0  0  0  0
   29.6790  -52.0430  -10.9170 O   0  0  0  0  0
   28.8890  -51.2770   -9.9940 C   0  0  0  0  0
   27.3840  -51.5630  -10.2070 C   0  0  0  0  0
   23.6662  -45.3135  -10.2272 H   0  0  0  0  0
   22.9712  -44.7737  -11.7594 H   0  0  0  0  0
   22.3884  -42.6164  -10.7490 H   0  0  0  0  0
   24.1232  -42.9351  -10.6085 H   0  0  0  0  0
   24.3876  -41.4716   -8.8091 H   0  0  0  0  0
   24.2873  -41.2806   -6.3312 H   0  0  0  0  0
   22.8810  -42.8578   -5.0095 H   0  0  0  0  0
   21.5821  -44.6360   -6.1664 H   0  0  0  0  0
   20.4790  -44.9621   -8.4436 H   0  0  0  0  0
   21.9619  -46.0275   -8.4077 H   0  0  0  0  0
   20.9001  -44.3971  -10.5814 H   0  0  0  0  0
   21.9193  -47.1352  -10.2448 H   0  0  0  0  0
   21.2716  -46.4292  -11.7747 H   0  0  0  0  0
   19.7752  -47.0748   -9.1945 H   0  0  0  0  0
   17.9679  -46.0542  -10.1746 H   0  0  0  0  0
   19.1528  -47.9448  -12.0725 H   0  0  0  0  0
   18.3234  -48.4641  -10.6842 H   0  0  0  0  0
   20.5408  -49.3320   -9.7397 H   0  0  0  0  0
   23.5796  -49.8807  -12.7549 H   0  0  0  0  0
   21.1407  -51.0278   -9.3959 H   0  0  0  0  0
   22.9934  -52.4282   -8.5000 H   0  0  0  0  0
   25.1224  -52.5714   -9.7695 H   0  0  0  0  0
   25.4645  -51.3633  -13.0613 H   0  0  0  0  0
   27.3122  -50.1638  -11.7807 H   0  0  0  0  0
   27.6426  -51.9837  -13.6119 H   0  0  0  0  0
   27.6822  -53.1893  -12.3363 H   0  0  0  0  0
   29.5453  -50.7808  -12.5574 H   0  0  0  0  0
   29.9781  -52.4761  -12.9232 H   0  0  0  0  0
   29.0762  -50.2163  -10.1612 H   0  0  0  0  0
   29.1629  -51.5548   -8.9762 H   0  0  0  0  0
   27.1600  -52.6099  -10.0025 H   0  0  0  0  0
   26.7797  -50.9642   -9.5256 H   0  0  0  0  0
  1  2  1  0  0  0
  1 10  1  0  0  0
  2  3  1  0  0  0
  3  4  4  0  0  0
  3  8  4  0  0  0
  4  5  4  0  0  0
  5  6  4  0  0  0
  6  7  4  0  0  0
  7  8  4  0  0  0
  8  9  1  0  0  0
  9 10  1  0  0  0
 10 11  1  0  0  0
 11 12  1  0  0  0
 12 13  1  0  0  0
 12 14  1  0  0  0
 14 15  1  0  0  0
 15 16  1  0  0  0
 16 17  2  0  0  0
 16 18  1  0  0  0
 18 19  4  0  0  0
 18 20  4  0  0  0
 19 23  4  0  0  0
 20 21  4  0  0  0
 21 22  4  0  0  0
 22 23  4  0  0  0
 23 24  1  0  0  0
 24 25  1  0  0  0
 25 26  1  0  0  0
 25 30  1  0  0  0
 26 27  1  0  0  0
 27 28  1  0  0  0
 28 29  1  0  0  0
 29 30  1  0  0  0
  1 31  1  0  0  0
  1 32  1  0  0  0
  2 33  1  0  0  0
  2 34  1  0  0  0
  4 35  1  0  0  0
  5 36  1  0  0  0
  6 37  1  0  0  0
  7 38  1  0  0  0
  9 39  1  0  0  0
  9 40  1  0  0  0
 10 41  1  0  0  0
 11 42  1  0  0  0
 11 43  1  0  0  0
 12 44  1  0  0  0
 13 45  1  0  0  0
 14 46  1  0  0  0
 14 47  1  0  0  0
 15 48  1  0  0  0
 19 49  1  0  0  0
 20 50  1  0  0  0
 21 51  1  0  0  0
 22 52  1  0  0  0
 24 53  1  0  0  0
 25 54  1  0  0  0
 26 55  1  0  0  0
 26 56  1  0  0  0
 27 57  1  0  0  0
 27 58  1  0  0  0
 29 59  1  0  0  0
 29 60  1  0  0  0
 30 61  1  0  0  0
 30 62  1  0  0  0
M  END
$$$$
