4urz_ligand
  -I-interpret- 

 31 32  0  0  0  0  0  0  0  0999 V2000
   57.3840   39.3920   64.0290 C   0  0  0  0  0
   58.5990   39.2930   63.4420 N   0  0  0  0  0
   53.5140   40.0480   67.3840 O   0  0  0  0  0
   53.2980   39.6950   66.0150 S   0  0  0  0  0
   57.1890   40.2170   65.1450 C   0  0  0  0  0
   52.4900   41.0210   65.3430 N   0  0  0  0  0
   52.5680   38.5080   65.6930 O   0  0  0  0  0
   55.9490   40.3040   65.7570 C   0  0  0  0  0
   52.6500   40.2950   63.2500 O   0  0  0  0  0
   54.8820   39.5770   65.2470 C   0  0  0  0  0
   55.0630   38.7170   64.1710 C   0  0  0  0  0
   56.2960   38.6540   63.5500 C   0  0  0  0  0
   51.8350   42.0400   66.2090 C   0  0  0  0  0
   51.9860   43.4380   65.6600 C   0  0  0  0  0
   51.3210   43.5640   64.3090 C   0  0  0  0  0
   51.7750   42.4840   63.3470 C   0  0  0  0  0
   52.3290   41.2240   63.9660 C   0  0  0  0  0
   59.3885   39.8230   63.8111 H   0  0  0  0  0
   58.7255   38.6884   62.6303 H   0  0  0  0  0
   58.0240   40.7979   65.5367 H   0  0  0  0  0
   55.8123   40.9387   66.6326 H   0  0  0  0  0
   54.2387   38.0966   63.8192 H   0  0  0  0  0
   56.4230   38.0193   62.6730 H   0  0  0  0  0
   52.3105   42.0077   67.1893 H   0  0  0  0  0
   50.7710   41.8087   66.2591 H   0  0  0  0  0
   53.0479   43.6572   65.5489 H   0  0  0  0  0
   51.5128   44.1374   66.3493 H   0  0  0  0  0
   51.5912   44.5316   63.8860 H   0  0  0  0  0
   50.2447   43.4639   64.4492 H   0  0  0  0  0
   52.5882   42.9186   62.7657 H   0  0  0  0  0
   50.8881   42.1828   62.7895 H   0  0  0  0  0
  1  2  1  0  0  0
  5  1  4  0  0  0
  1 12  4  0  0  0
  4  3  2  0  0  0
  4  6  1  0  0  0
  4  7  2  0  0  0
 10  4  1  0  0  0
  8  5  4  0  0  0
  6 13  1  0  0  0
  6 17  1  0  0  0
  8 10  4  0  0  0
 17  9  2  0  0  0
 10 11  4  0  0  0
 11 12  4  0  0  0
 13 14  1  0  0  0
 14 15  1  0  0  0
 15 16  1  0  0  0
 16 17  1  0  0  0
  2 18  1  0  0  0
  2 19  1  0  0  0
  5 20  1  0  0  0
  8 21  1  0  0  0
 11 22  1  0  0  0
 12 23  1  0  0  0
 13 24  1  0  0  0
 13 25  1  0  0  0
 14 26  1  0  0  0
 14 27  1  0  0  0
 15 28  1  0  0  0
 15 29  1  0  0  0
 16 30  1  0  0  0
 16 31  1  0  0  0
M  END
$$$$
