5wj6_ligand
  -I-interpret- 

 63 67  0  0  0  0  0  0  0  0999 V2000
   82.9620  164.5300    1.9390 N   0  0  0  0  0
   83.8810  165.2820    1.1090 C   0  0  0  0  0
   84.3900  167.7690    1.4530 C   0  0  0  0  0
   84.5700  169.8160    0.2220 C   0  0  0  0  0
   83.3470  168.3170    2.1990 C   0  0  0  0  0
   73.6750  162.9890   -2.7640 C   0  0  0  0  0
   71.8230  164.7210   -2.7500 C   0  0  0  0  0
   77.8560  159.8850   -1.1400 C   0  0  0  0  0
   76.5440  159.7750   -0.3840 C   0  0  0  0  0
   75.9620  161.1100   -0.1960 N   0  0  0  0  0
   76.8570  162.0570    0.4400 C   0  0  0  0  0
   78.0640  162.1970   -0.4250 C   0  0  0  0  0
   78.6840  160.8480   -0.4060 C   0  0  0  0  0
   79.9650  161.0760   -0.9460 N   0  0  0  0  0
   80.6900  161.9000    0.0310 C   0  0  0  0  0
   80.5870  161.8160    1.3720 N   0  0  0  0  0
   81.3380  162.6900    2.0820 N   0  0  0  0  0
   82.0910  163.5510    1.3810 C   0  0  0  0  0
   84.8550  166.3360    1.7330 C   0  0  0  0  0
   85.0090  168.5120    0.4670 C   0  0  0  0  0
   83.5190  170.3690    0.9680 C   0  0  0  0  0
   82.9060  169.6280    1.9530 C   0  0  0  0  0
   83.9120  165.1110   -0.0950 O   0  0  0  0  0
   81.7680  163.1850   -0.2900 S   0  0  0  0  0
   75.2010  161.6560   -1.2540 C   0  0  0  0  0
   75.2110  161.3370   -2.5620 N   0  0  0  0  0
   74.3890  162.0230   -3.3630 N   0  0  0  0  0
   72.7130  163.8080   -3.4270 N   0  0  0  0  0
   70.7910  165.4510   -3.5640 C   0  0  0  0  0
   70.2840  166.8260   -3.1120 C   0  0  0  0  0
   69.8000  167.1170   -1.8110 C   0  0  0  0  0
   69.3550  168.4040   -1.5080 C   0  0  0  0  0
   69.3730  169.3870   -2.5060 C   0  0  0  0  0
   69.8280  169.0800   -3.7940 C   0  0  0  0  0
   70.2710  167.8080   -4.0930 C   0  0  0  0  0
   71.8860  164.8770   -1.5650 O   0  0  0  0  0
   74.0820  162.9320   -1.0870 S   0  0  0  0  0
   82.9383  164.7053    2.9435 H   0  0  0  0  0
   85.0493  170.4092   -0.5567 H   0  0  0  0  0
   82.8702  167.7235    2.9791 H   0  0  0  0  0
   77.6880  160.2176   -2.1643 H   0  0  0  0  0
   78.3506  158.9158   -1.2038 H   0  0  0  0  0
   76.7275  159.3223    0.5904 H   0  0  0  0  0
   75.8506  159.1577   -0.9552 H   0  0  0  0  0
   77.1410  161.7020    1.4307 H   0  0  0  0  0
   76.3637  163.0216    0.5596 H   0  0  0  0  0
   78.7438  162.9673   -0.0610 H   0  0  0  0  0
   77.8111  162.5193   -1.4351 H   0  0  0  0  0
   78.7641  160.3923    0.5809 H   0  0  0  0  0
   80.3197  160.7358   -1.8398 H   0  0  0  0  0
   85.8405  166.2005    1.2874 H   0  0  0  0  0
   84.8787  166.1864    2.8124 H   0  0  0  0  0
   85.8288  168.0871   -0.1122 H   0  0  0  0  0
   83.1869  171.3876    0.7675 H   0  0  0  0  0
   82.0884  170.0533    2.5350 H   0  0  0  0  0
   72.6502  163.7444   -4.4431 H   0  0  0  0  0
   69.9102  164.8103   -3.5225 H   0  0  0  0  0
   71.2840  165.6437   -4.5169 H   0  0  0  0  0
   69.7758  166.3371   -1.0499 H   0  0  0  0  0
   68.9974  168.6420   -0.5062 H   0  0  0  0  0
   69.0308  170.3966   -2.2785 H   0  0  0  0  0
   69.8323  169.8504   -4.5651 H   0  0  0  0  0
   70.6115  167.5737   -5.1016 H   0  0  0  0  0
  1  2  1  0  0  0
 18  1  1  0  0  0
  2 19  1  0  0  0
  2 23  2  0  0  0
  3  5  4  0  0  0
 19  3  1  0  0  0
  3 20  4  0  0  0
 20  4  4  0  0  0
  4 21  4  0  0  0
  5 22  4  0  0  0
  6 27  4  0  0  0
  6 28  1  0  0  0
 37  6  4  0  0  0
 28  7  1  0  0  0
  7 29  1  0  0  0
  7 36  2  0  0  0
  9  8  1  0  0  0
  8 13  1  0  0  0
 10  9  1  0  0  0
 10 11  1  0  0  0
 25 10  1  0  0  0
 11 12  1  0  0  0
 12 13  1  0  0  0
 13 14  1  0  0  0
 14 15  1  0  0  0
 15 16  4  0  0  0
 15 24  4  0  0  0
 16 17  4  0  0  0
 18 17  4  0  0  0
 24 18  4  0  0  0
 22 21  4  0  0  0
 25 26  4  0  0  0
 25 37  4  0  0  0
 26 27  4  0  0  0
 29 30  1  0  0  0
 30 31  4  0  0  0
 30 35  4  0  0  0
 31 32  4  0  0  0
 32 33  4  0  0  0
 33 34  4  0  0  0
 34 35  4  0  0  0
  1 38  1  0  0  0
  4 39  1  0  0  0
  5 40  1  0  0  0
  8 41  1  0  0  0
  8 42  1  0  0  0
  9 43  1  0  0  0
  9 44  1  0  0  0
 11 45  1  0  0  0
 11 46  1  0  0  0
 12 47  1  0  0  0
 12 48  1  0  0  0
 13 49  1  0  0  0
 14 50  1  0  0  0
 19 51  1  0  0  0
 19 52  1  0  0  0
 20 53  1  0  0  0
 21 54  1  0  0  0
 22 55  1  0  0  0
 28 56  1  0  0  0
 29 57  1  0  0  0
 29 58  1  0  0  0
 31 59  1  0  0  0
 32 60  1  0  0  0
 33 61  1  0  0  0
 34 62  1  0  0  0
 35 63  1  0  0  0
M  END
$$$$
