5qa4_ligand
  -I-interpret- 

 28 29  0  0  0  0  0  0  0  0999 V2000
   96.7410  254.5670    7.1940 C   0  0  0  0  0
   96.4500  255.4380    8.0510 O   0  0  0  0  0
   96.2970  253.1480    7.4490 C   0  0  0  0  0
   94.5680  248.9930    5.1550 C   0  0  0  0  0
   95.4850  250.5280    7.8900 C   0  0  0  0  0
   95.0470  251.5410    8.7260 C   0  0  0  0  0
   95.4550  252.8450    8.5120 C   0  0  0  0  0
   96.7270  252.1260    6.6100 C   0  0  0  0  0
   96.3390  250.8070    6.8220 C   0  0  0  0  0
   96.8870  249.7160    5.9690 C   0  0  0  0  0
   98.2730  249.5500    5.9450 C   0  0  0  0  0
   98.8470  248.5210    5.2220 C   0  0  0  0  0
   98.0570  247.6550    4.5160 C   0  0  0  0  0
   96.6830  247.8130    4.5180 C   0  0  0  0  0
   96.0680  248.8400    5.2280 C   0  0  0  0  0
   97.3720  254.7900    6.1350 O   0  0  0  0  0
   95.9666  255.0273    8.7716 H   0  0  0  0  0
   94.1474  248.9198    6.1579 H   0  0  0  0  0
   94.3236  249.9653    4.7272 H   0  0  0  0  0
   94.1537  248.2040    4.5274 H   0  0  0  0  0
   95.1598  249.5029    8.0676 H   0  0  0  0  0
   94.3785  251.3100    9.5554 H   0  0  0  0  0
   95.1151  253.6372    9.1790 H   0  0  0  0  0
   97.3804  252.3628    5.7703 H   0  0  0  0  0
   98.9087  250.2385    6.5018 H   0  0  0  0  0
   99.9302  248.3993    5.2143 H   0  0  0  0  0
   98.5108  246.8403    3.9518 H   0  0  0  0  0
   96.0668  247.1163    3.9497 H   0  0  0  0  0
  1  2  1  0  0  0
  3  1  1  0  0  0
  1 16  2  0  0  0
  3  7  4  0  0  0
  8  3  4  0  0  0
 15  4  1  0  0  0
  5  6  4  0  0  0
  9  5  4  0  0  0
  6  7  4  0  0  0
  9  8  4  0  0  0
 10  9  1  0  0  0
 10 11  4  0  0  0
 10 15  4  0  0  0
 11 12  4  0  0  0
 12 13  4  0  0  0
 13 14  4  0  0  0
 14 15  4  0  0  0
  2 17  1  0  0  0
  4 18  1  0  0  0
  4 19  1  0  0  0
  4 20  1  0  0  0
  5 21  1  0  0  0
  6 22  1  0  0  0
  7 23  1  0  0  0
  8 24  1  0  0  0
 11 25  1  0  0  0
 12 26  1  0  0  0
 13 27  1  0  0  0
 14 28  1  0  0  0
M  END
$$$$
