1xn3_ligand
  -I-interpret- 

236236  0  0  0  0  0  0  0  0999 V2000
   13.9050   70.0070   19.5250 N   0  3  0  0  0
   14.3590   70.9760   20.5730 C   0  0  0  0  0
   13.3170   71.0870   21.6970 C   0  0  0  0  0
   12.4160   70.2450   21.7990 O   0  0  0  0  0
   14.6000   72.3580   19.9450 C   0  0  0  0  0
   15.6940   72.4030   18.8710 C   0  0  0  0  0
   15.3250   71.5780   17.6490 C   0  0  0  0  0
   16.3910   71.6630   16.5780 C   0  0  0  0  0
   16.0490   70.7890   15.4220 N   0  3  0  0  0
   13.4490   72.1180   22.5380 N   0  0  0  0  0
   12.5200   72.3480   23.6560 C   0  0  0  0  0
   12.5700   73.8030   24.1780 C   0  0  0  0  0
   11.7500   74.1980   25.0200 O   0  0  0  0  0
   12.8150   71.3830   24.8570 C   0  0  0  0  0
   12.8620   70.0240   24.3970 O   0  0  0  0  0
   11.7210   71.4960   25.9140 C   0  0  0  0  0
   13.5260   74.5890   23.6720 N   0  0  0  0  0
   13.7160   75.9950   24.0760 C   0  0  0  0  0
   12.6180   76.9400   23.5650 C   0  0  0  0  0
   12.4250   77.0780   22.3510 O   0  0  0  0  0
   15.0760   76.5100   23.5760 C   0  0  0  0  0
   16.2770   75.6390   23.9510 C   0  0  0  0  0
   17.6080   76.2080   23.4510 C   0  0  0  0  0
   17.9270   77.3710   23.7980 O   0  0  0  0  0
   18.3350   75.4940   22.7180 O   0  0  0  0  0
   11.9130   77.6010   24.4860 N   0  0  0  0  0
   10.8440   78.5270   24.1040 C   0  0  0  0  0
   10.4490   79.5570   25.1670 C   0  0  0  0  0
   10.4280   79.2660   26.3680 O   0  0  0  0  0
    9.5960   77.7480   23.6550 C   0  0  0  0  0
    9.3770   76.3910   24.3340 C   0  0  0  0  0
    9.2730   76.4770   25.8450 C   0  0  0  0  0
    8.4740   77.3030   26.3350 O   0  0  0  0  0
    9.9800   75.7080   26.5390 O   0  0  0  0  0
   10.1260   80.7590   24.6920 N   0  0  0  0  0
    9.7230   81.8910   25.5240 C   0  0  0  0  0
    8.2030   81.8810   25.7270 C   0  0  0  0  0
    7.4420   81.6760   24.7720 O   0  0  0  0  0
   10.1420   83.2020   24.8370 C   0  0  0  0  0
   11.6620   83.2020   24.6600 C   0  0  0  0  0
    9.6580   84.3970   25.6390 C   0  0  0  0  0
   12.1690   84.1250   23.5780 C   0  0  0  0  0
    7.7620   82.1260   26.9600 N   0  0  0  0  0
    6.3360   82.1000   27.2750 C   0  0  0  0  0
    5.7390   83.4600   27.6720 C   0  0  0  0  0
    6.4520   84.4410   27.8180 O   0  0  0  0  0
    6.0930   81.0760   28.3920 C   0  0  0  0  0
    4.7130   80.7980   28.5410 O   0  0  0  0  0
    4.4180   83.5000   27.8400 N   0  0  0  0  0
    3.7180   84.7250   28.2270 C   0  0  0  0  0
    2.3290   84.3890   28.7910 C   0  0  0  0  0
    1.6600   83.4740   28.3090 O   0  0  0  0  0
    3.5760   85.6510   27.0170 C   0  0  0  0  0
    3.1840   87.0730   27.3610 C   0  0  0  0  0
    2.9800   87.9410   26.1280 C   0  0  0  0  0
    3.8380   87.8900   25.2140 O   0  0  0  0  0
    1.9700   88.6790   26.0780 O   0  0  0  0  0
    1.9160   85.1100   29.8280 N   0  0  0  0  0
    0.6020   84.9010   30.4410 C   0  0  0  0  0
   -0.2350   86.1910   30.3700 C   0  0  0  0  0
    0.3140   87.3000   30.3910 O   0  0  0  0  0
    0.7220   84.4400   31.9370 C   0  0  0  0  0
    1.1880   82.9770   32.0070 C   0  0  0  0  0
    1.6740   85.3430   32.6980 C   0  0  0  0  0
   -1.5560   86.0270   30.2610 N   0  0  0  0  0
   -2.5060   87.1400   30.1870 C   0  0  0  0  0
   -3.8160   86.6320   30.7800 C   0  0  0  0  0
   -4.7890   86.3630   30.0600 O   0  0  0  0  0
   -2.7110   87.5750   28.7330 C   0  0  0  0  0
   -1.4920   88.2560   28.1600 C   0  0  0  0  0
   -1.2590   89.4540   28.3950 O   0  0  0  0  0
   -0.6910   87.5010   27.4190 N   0  0  0  0  0
   -3.8310   86.5170   32.1040 N   0  0  0  0  0
   -4.9690   85.9780   32.8340 C   0  0  0  0  0
   -4.5030   84.6980   33.5530 C   0  0  0  0  0
   -3.6900   83.7100   32.6940 C   0  0  0  0  0
   -2.6830   82.9080   33.5190 C   0  0  0  0  0
   -4.5810   82.7840   31.8900 C   0  0  0  0  0
   -5.5300   86.9930   33.8650 C   0  0  0  0  0
   -4.4570   87.5840   34.5830 O   0  0  0  0  0
   -6.3300   88.0950   33.1770 C   0  0  0  0  0
   -7.6190   87.5800   32.5620 C   0  0  0  0  0
   -7.6460   87.2410   31.3780 O   0  0  0  0  0
   -8.6850   87.5190   33.3570 N   0  0  0  0  0
   -9.9790   87.0740   32.8390 C   0  0  0  0  0
  -10.5930   88.1690   31.9520 C   0  0  0  0  0
  -10.4000   89.3630   32.1990 O   0  0  0  0  0
  -10.9350   86.7220   33.9950 C   0  0  0  0  0
  -11.3780   87.9840   34.7010 C   0  0  0  0  0
  -12.1190   85.9030   33.4760 C   0  0  0  0  0
  -11.3190   87.7610   30.9120 N   0  0  0  0  0
  -11.9420   88.7150   29.9850 C   0  0  0  0  0
  -13.2380   89.3080   30.5290 C   0  0  0  0  0
  -14.0420   88.5860   31.1140 O   0  0  0  0  0
  -12.2100   88.0330   28.6450 C   0  0  0  0  0
  -13.4280   90.6200   30.3360 N   0  0  0  0  0
  -14.6360   91.3350   30.7890 C   0  0  0  0  0
  -14.4820   92.8650   30.9390 C   0  0  0  0  0
  -13.3730   93.4100   30.9480 O   0  0  0  0  0
  -15.1400   90.7540   32.1300 C   0  0  0  0  0
  -16.6320   91.0110   32.4290 C   0  0  0  0  0
  -16.8700   92.0960   33.4800 C   0  0  0  0  0
  -16.1690   93.1260   33.4410 O   0  0  0  0  0
  -17.7680   91.9290   34.3400 O   0  0  0  0  0
  -15.6280   93.5400   31.0360 N   0  0  0  0  0
  -15.7340   94.9920   31.2370 C   0  0  0  0  0
  -17.2180   95.3220   31.4350 C   0  0  0  0  0
  -18.0430   94.3950   31.2660 O   0  0  0  0  0
  -15.1910   95.7920   30.0440 C   0  0  0  0  0
  -15.3930   97.2970   30.1780 C   0  0  0  0  0
  -14.6930   98.0310   31.1470 C   0  0  0  0  0
  -16.3240   97.9700   29.3720 C   0  0  0  0  0
  -14.9180   99.4130   31.3170 C   0  0  0  0  0
  -16.5580   99.3530   29.5320 C   0  0  0  0  0
  -15.8530  100.0730   30.5080 C   0  0  0  0  0
  -17.5480   96.4860   31.7570 O   0  0  0  0  0
   13.7483   69.0943   19.9526 H   0  0  0  0  0
   13.0367   70.3418   19.1074 H   0  0  0  0  0
   14.6219   69.9274   18.8038 H   0  0  0  0  0
   15.2924   70.6087   20.9997 H   0  0  0  0  0
   14.9241   73.0166   20.7508 H   0  0  0  0  0
   13.6693   72.6475   19.4571 H   0  0  0  0  0
   16.6083   71.9906   19.2977 H   0  0  0  0  0
   15.8218   73.4390   18.5573 H   0  0  0  0  0
   14.3928   71.9668   17.2392 H   0  0  0  0  0
   15.2248   70.5363   17.9538 H   0  0  0  0  0
   17.3404   71.3329   16.9997 H   0  0  0  0  0
   16.4597   72.6941   16.2312 H   0  0  0  0  0
   16.7797   70.8621   14.7141 H   0  0  0  0  0
   15.9759   69.8220   15.7383 H   0  0  0  0  0
   15.1579   71.0862   15.0245 H   0  0  0  0  0
   14.2219   72.7690   22.3996 H   0  0  0  0  0
   11.5259   72.1504   23.2551 H   0  0  0  0  0
   13.7747   71.6662   25.2894 H   0  0  0  0  0
   13.0429   69.4423   25.1389 H   0  0  0  0  0
   11.6794   72.5204   26.2840 H   0  0  0  0  0
   10.7613   71.2289   25.4717 H   0  0  0  0  0
   11.9433   70.8192   26.7390 H   0  0  0  0  0
   14.1554   74.1968   22.9716 H   0  0  0  0  0
   13.6683   75.9985   25.1650 H   0  0  0  0  0
   15.2348   77.4819   24.0432 H   0  0  0  0  0
   15.0257   76.5236   22.4872 H   0  0  0  0  0
   16.1375   74.6630   23.4862 H   0  0  0  0  0
   16.3247   75.5896   25.0388 H   0  0  0  0  0
   17.9082   74.6462   22.5745 H   0  0  0  0  0
   12.1225   77.4587   25.4740 H   0  0  0  0  0
   11.2652   79.1054   23.2817 H   0  0  0  0  0
    9.7265   77.5432   22.5924 H   0  0  0  0  0
    8.7368   78.3656   23.9167 H   0  0  0  0  0
   10.2393   75.7663   24.1010 H   0  0  0  0  0
    8.4337   75.9891   23.9641 H   0  0  0  0  0
   10.5174   75.1609   25.9615 H   0  0  0  0  0
   10.1623   80.8983   23.6822 H   0  0  0  0  0
   10.2103   81.8127   26.4958 H   0  0  0  0  0
    9.6810   83.2768   23.8521 H   0  0  0  0  0
   11.9490   82.1899   24.3749 H   0  0  0  0  0
   12.0917   83.5478   25.6002 H   0  0  0  0  0
    8.5710   84.3662   25.7143 H   0  0  0  0  0
   10.0938   84.3634   26.6375 H   0  0  0  0  0
    9.9630   85.3162   25.1389 H   0  0  0  0  0
   11.7388   83.8312   22.6206 H   0  0  0  0  0
   11.8773   85.1493   23.8099 H   0  0  0  0  0
   13.2557   84.0585   23.5252 H   0  0  0  0  0
    8.4334   82.3359   27.6986 H   0  0  0  0  0
    5.8230   81.8192   26.3552 H   0  0  0  0  0
    6.4679   81.4880   29.3289 H   0  0  0  0  0
    6.6082   80.1508   28.1337 H   0  0  0  0  0
    4.5911   80.1563   29.2445 H   0  0  0  0  0
    3.8765   82.6480   27.6939 H   0  0  0  0  0
    4.2991   85.2304   28.9983 H   0  0  0  0  0
    2.7818   85.2421   26.3924 H   0  0  0  0  0
    4.5512   85.6961   26.5322 H   0  0  0  0  0
    3.9919   87.5101   27.9478 H   0  0  0  0  0
    2.2401   87.0375   27.9050 H   0  0  0  0  0
    4.5243   87.2636   25.4554 H   0  0  0  0  0
    2.5313   85.8293   30.2079 H   0  0  0  0  0
    0.1070   84.1094   29.8784 H   0  0  0  0  0
   -0.2605   84.5123   32.4034 H   0  0  0  0  0
    0.4653   82.3419   31.4946 H   0  0  0  0  0
    2.1614   82.8836   31.5255 H   0  0  0  0  0
    1.2666   82.6716   33.0504 H   0  0  0  0  0
    2.6598   85.3023   32.2347 H   0  0  0  0  0
    1.3008   86.3668   32.6718 H   0  0  0  0  0
    1.7431   85.0065   33.7325 H   0  0  0  0  0
   -1.9232   85.0760   30.2275 H   0  0  0  0  0
   -2.1366   88.0074   30.7341 H   0  0  0  0  0
   -3.5380   88.2845   28.7063 H   0  0  0  0  0
   -2.9102   86.6833   28.1387 H   0  0  0  0  0
    0.1566   87.8999   27.0156 H   0  0  0  0  0
   -0.9229   86.5217   27.2528 H   0  0  0  0  0
   -3.0111   86.8190   32.6303 H   0  0  0  0  0
   -5.7747   85.7624   32.1322 H   0  0  0  0  0
   -5.4055   84.1701   33.8612 H   0  0  0  0  0
   -3.8458   85.0189   34.3612 H   0  0  0  0  0
   -3.1241   84.3224   31.9920 H   0  0  0  0  0
   -1.9826   83.5913   33.9993 H   0  0  0  0  0
   -3.2130   82.3349   34.2798 H   0  0  0  0  0
   -2.1381   82.2281   32.8640 H   0  0  0  0  0
   -5.2092   82.2068   32.5684 H   0  0  0  0  0
   -5.2101   83.3748   31.2242 H   0  0  0  0  0
   -3.9621   82.1069   31.3013 H   0  0  0  0  0
   -6.1903   86.4535   34.5440 H   0  0  0  0  0
   -4.8068   88.2113   35.2200 H   0  0  0  0  0
   -5.7159   88.5063   32.3758 H   0  0  0  0  0
   -6.5902   88.8408   33.9282 H   0  0  0  0  0
   -8.5988   87.7854   34.3378 H   0  0  0  0  0
   -9.8248   86.1772   32.2390 H   0  0  0  0  0
  -10.4122   86.1036   34.7246 H   0  0  0  0  0
  -10.5054   88.5006   35.1006 H   0  0  0  0  0
  -11.8934   88.6330   33.9930 H   0  0  0  0  0
  -12.0533   87.7247   35.5163 H   0  0  0  0  0
  -12.6614   86.4835   32.7297 H   0  0  0  0  0
  -11.7516   84.9814   33.0247 H   0  0  0  0  0
  -12.7844   85.6629   34.3053 H   0  0  0  0  0
  -11.4454   86.7610   30.7556 H   0  0  0  0  0
  -11.2412   89.5399   29.8563 H   0  0  0  0  0
  -11.2685   87.6814   28.2230 H   0  0  0  0  0
  -12.8800   87.1868   28.7970 H   0  0  0  0  0
  -12.6721   88.7458   27.9620 H   0  0  0  0  0
  -12.7027   91.1498   29.8527 H   0  0  0  0  0
  -15.3581   91.1770   29.9879 H   0  0  0  0  0
  -14.5707   91.2437   32.9201 H   0  0  0  0  0
  -15.0108   89.6731   32.0742 H   0  0  0  0  0
  -17.0512   90.0830   32.8178 H   0  0  0  0  0
  -17.0970   91.3472   31.5023 H   0  0  0  0  0
  -18.1892   91.0777   34.2001 H   0  0  0  0  0
  -16.4959   93.0088   30.9654 H   0  0  0  0  0
  -15.1348   95.2702   32.1040 H   0  0  0  0  0
  -17.5754   93.5921   31.0246 H   0  0  0  0  0
  -15.7343   95.4664   29.1569 H   0  0  0  0  0
  -14.1179   95.6093   29.9885 H   0  0  0  0  0
  -13.9632   97.5250   31.7790 H   0  0  0  0  0
  -16.8746   97.4168   28.6112 H   0  0  0  0  0
  -14.3657   99.9667   32.0762 H   0  0  0  0  0
  -17.2852   99.8605   28.8982 H   0  0  0  0  0
  -16.0315  101.1406   30.6365 H   0  0  0  0  0
  1  2  1  0  0  0
  2  3  1  0  0  0
  2  5  1  0  0  0
  3  4  2  0  0  0
  3 10  1  0  0  0
  5  6  1  0  0  0
  6  7  1  0  0  0
  7  8  1  0  0  0
  8  9  1  0  0  0
 10 11  1  0  0  0
 11 12  1  0  0  0
 11 14  1  0  0  0
 12 13  2  0  0  0
 12 17  1  0  0  0
 14 15  1  0  0  0
 14 16  1  0  0  0
 17 18  1  0  0  0
 18 19  1  0  0  0
 18 21  1  0  0  0
 19 20  2  0  0  0
 19 26  1  0  0  0
 21 22  1  0  0  0
 22 23  1  0  0  0
 23 24  2  0  0  0
 23 25  1  0  0  0
 26 27  1  0  0  0
 27 28  1  0  0  0
 27 30  1  0  0  0
 28 29  2  0  0  0
 28 35  1  0  0  0
 30 31  1  0  0  0
 31 32  1  0  0  0
 32 33  2  0  0  0
 32 34  1  0  0  0
 35 36  1  0  0  0
 36 37  1  0  0  0
 36 39  1  0  0  0
 37 38  2  0  0  0
 37 43  1  0  0  0
 39 40  1  0  0  0
 39 41  1  0  0  0
 40 42  1  0  0  0
 43 44  1  0  0  0
 44 45  1  0  0  0
 44 47  1  0  0  0
 45 46  2  0  0  0
 45 49  1  0  0  0
 47 48  1  0  0  0
 49 50  1  0  0  0
 50 51  1  0  0  0
 50 53  1  0  0  0
 51 52  2  0  0  0
 51 58  1  0  0  0
 53 54  1  0  0  0
 54 55  1  0  0  0
 55 56  1  0  0  0
 55 57  2  0  0  0
 58 59  1  0  0  0
 59 60  1  0  0  0
 59 62  1  0  0  0
 60 61  2  0  0  0
 60 65  1  0  0  0
 62 63  1  0  0  0
 62 64  1  0  0  0
 65 66  1  0  0  0
 66 67  1  0  0  0
 66 69  1  0  0  0
 67 68  2  0  0  0
 67 73  1  0  0  0
 69 70  1  0  0  0
 70 71  2  0  0  0
 70 72  1  0  0  0
 73 74  1  0  0  0
 74 75  1  0  0  0
 74 79  1  0  0  0
 75 76  1  0  0  0
 76 77  1  0  0  0
 76 78  1  0  0  0
 79 80  1  0  0  0
 79 81  1  0  0  0
 81 82  1  0  0  0
 82 83  2  0  0  0
 82 84  1  0  0  0
 84 85  1  0  0  0
 85 86  1  0  0  0
 85 88  1  0  0  0
 86 87  2  0  0  0
 86 91  1  0  0  0
 88 89  1  0  0  0
 88 90  1  0  0  0
 91 92  1  0  0  0
 92 93  1  0  0  0
 92 95  1  0  0  0
 93 94  2  0  0  0
 93 96  1  0  0  0
 96 97  1  0  0  0
 97 98  1  0  0  0
 97100  1  0  0  0
 98 99  2  0  0  0
 98105  1  0  0  0
100101  1  0  0  0
101102  1  0  0  0
102103  2  0  0  0
102104  1  0  0  0
105106  1  0  0  0
106107  1  0  0  0
106109  1  0  0  0
107108  1  0  0  0
107116  2  0  0  0
109110  1  0  0  0
110111  4  0  0  0
110112  4  0  0  0
111113  4  0  0  0
112114  4  0  0  0
113115  4  0  0  0
114115  4  0  0  0
  1117  1  0  0  0
  1118  1  0  0  0
  1119  1  0  0  0
  2120  1  0  0  0
  5121  1  0  0  0
  5122  1  0  0  0
  6123  1  0  0  0
  6124  1  0  0  0
  7125  1  0  0  0
  7126  1  0  0  0
  8127  1  0  0  0
  8128  1  0  0  0
  9129  1  0  0  0
  9130  1  0  0  0
  9131  1  0  0  0
 10132  1  0  0  0
 11133  1  0  0  0
 14134  1  0  0  0
 15135  1  0  0  0
 16136  1  0  0  0
 16137  1  0  0  0
 16138  1  0  0  0
 17139  1  0  0  0
 18140  1  0  0  0
 21141  1  0  0  0
 21142  1  0  0  0
 22143  1  0  0  0
 22144  1  0  0  0
 25145  1  0  0  0
 26146  1  0  0  0
 27147  1  0  0  0
 30148  1  0  0  0
 30149  1  0  0  0
 31150  1  0  0  0
 31151  1  0  0  0
 34152  1  0  0  0
 35153  1  0  0  0
 36154  1  0  0  0
 39155  1  0  0  0
 40156  1  0  0  0
 40157  1  0  0  0
 41158  1  0  0  0
 41159  1  0  0  0
 41160  1  0  0  0
 42161  1  0  0  0
 42162  1  0  0  0
 42163  1  0  0  0
 43164  1  0  0  0
 44165  1  0  0  0
 47166  1  0  0  0
 47167  1  0  0  0
 48168  1  0  0  0
 49169  1  0  0  0
 50170  1  0  0  0
 53171  1  0  0  0
 53172  1  0  0  0
 54173  1  0  0  0
 54174  1  0  0  0
 56175  1  0  0  0
 58176  1  0  0  0
 59177  1  0  0  0
 62178  1  0  0  0
 63179  1  0  0  0
 63180  1  0  0  0
 63181  1  0  0  0
 64182  1  0  0  0
 64183  1  0  0  0
 64184  1  0  0  0
 65185  1  0  0  0
 66186  1  0  0  0
 69187  1  0  0  0
 69188  1  0  0  0
 72189  1  0  0  0
 72190  1  0  0  0
 73191  1  0  0  0
 74192  1  0  0  0
 75193  1  0  0  0
 75194  1  0  0  0
 76195  1  0  0  0
 77196  1  0  0  0
 77197  1  0  0  0
 77198  1  0  0  0
 78199  1  0  0  0
 78200  1  0  0  0
 78201  1  0  0  0
 79202  1  0  0  0
 80203  1  0  0  0
 81204  1  0  0  0
 81205  1  0  0  0
 84206  1  0  0  0
 85207  1  0  0  0
 88208  1  0  0  0
 89209  1  0  0  0
 89210  1  0  0  0
 89211  1  0  0  0
 90212  1  0  0  0
 90213  1  0  0  0
 90214  1  0  0  0
 91215  1  0  0  0
 92216  1  0  0  0
 95217  1  0  0  0
 95218  1  0  0  0
 95219  1  0  0  0
 96220  1  0  0  0
 97221  1  0  0  0
100222  1  0  0  0
100223  1  0  0  0
101224  1  0  0  0
101225  1  0  0  0
104226  1  0  0  0
105227  1  0  0  0
106228  1  0  0  0
108229  1  0  0  0
109230  1  0  0  0
109231  1  0  0  0
111232  1  0  0  0
112233  1  0  0  0
113234  1  0  0  0
114235  1  0  0  0
115236  1  0  0  0
M  END
$$$$
