### 
### Created by X-TOOL on Mon Sep 10 21:12:52 2018
### 

@<TRIPOS>MOLECULE
1xn3_ligand
  231   231     1     0     0
SMALL
GAST_HUCK


@<TRIPOS>ATOM
      1 N          13.9050   70.0070   19.5250 N.4       1 LYS         0.2379
      2 CA         14.3590   70.9760   20.5730 C.3       1 LYS         0.0650
      3 C          13.3170   71.0870   21.6970 C.2       1 LYS         0.2268
      4 O          12.4160   70.2450   21.7990 O.2       1 LYS        -0.3907
      5 CB         14.6000   72.3580   19.9450 C.3       1 LYS         0.0080
      6 CG         15.6940   72.4030   18.8710 C.3       1 LYS        -0.0410
      7 CD         15.3250   71.5780   17.6490 C.3       1 LYS        -0.0123
      8 CE         16.3910   71.6630   16.5780 C.3       1 LYS        -0.0354
      9 NZ         16.0490   70.7890   15.4220 N.4       1 LYS         0.2185
     10 N          13.4490   72.1180   22.5380 N.am      1 THR        -0.2586
     11 CA         12.5200   72.3480   23.6560 C.3       1 THR         0.1566
     12 C          12.5700   73.8030   24.1780 C.2       1 THR         0.2065
     13 O          11.7500   74.1980   25.0200 O.2       1 THR        -0.3943
     14 CB         12.8150   71.3830   24.8570 C.3       1 THR         0.0924
     15 OG1        12.8620   70.0240   24.3970 O.3       1 THR        -0.3874
     16 CG2        11.7210   71.4960   25.9140 C.3       1 THR        -0.0346
     17 N          13.5260   74.5890   23.6720 N.am      1 GLU        -0.2635
     18 CA         13.7160   75.9950   24.0760 C.3       1 GLU         0.1325
     19 C          12.6180   76.9400   23.5650 C.2       1 GLU         0.2040
     20 O          12.4250   77.0780   22.3510 O.2       1 GLU        -0.3944
     21 CB         15.0760   76.5100   23.5760 C.3       1 GLU        -0.0008
     22 CG         16.2770   75.6390   23.9510 C.3       1 GLU         0.0044
     23 CD         17.6080   76.2080   23.4510 C.2       1 GLU         0.0350
     24 OE1        17.9270   77.3710   23.7980 O.co2     1 GLU        -0.5690
     25 OE2        18.3350   75.4940   22.7180 O.co2     1 GLU        -0.5690
     26 N          11.9130   77.6010   24.4860 N.am      1 GLU        -0.2636
     27 CA         10.8440   78.5270   24.1040 C.3       1 GLU         0.1325
     28 C          10.4490   79.5570   25.1670 C.2       1 GLU         0.2040
     29 O          10.4280   79.2660   26.3680 O.2       1 GLU        -0.3944
     30 CB          9.5960   77.7480   23.6550 C.3       1 GLU        -0.0008
     31 CG          9.3770   76.3910   24.3340 C.3       1 GLU         0.0044
     32 CD          9.2730   76.4770   25.8450 C.2       1 GLU         0.0350
     33 OE1         8.4740   77.3030   26.3350 O.co2     1 GLU        -0.5690
     34 OE2         9.9800   75.7080   26.5390 O.co2     1 GLU        -0.5690
     35 N          10.1260   80.7590   24.6920 N.am      1 ILE        -0.2635
     36 CA          9.7230   81.8910   25.5240 C.3       1 ILE         0.1335
     37 C           8.2030   81.8810   25.7270 C.2       1 ILE         0.2042
     38 O           7.4420   81.6760   24.7720 O.2       1 ILE        -0.3944
     39 CB         10.1420   83.2020   24.8370 C.3       1 ILE        -0.0037
     40 CG1        11.6620   83.2020   24.6600 C.3       1 ILE        -0.0491
     41 CG2         9.6580   84.3970   25.6390 C.3       1 ILE        -0.0582
     42 CD1        12.1690   84.1250   23.5780 C.3       1 ILE        -0.0648
     43 N           7.7620   82.1260   26.9600 N.am      1 SER        -0.2616
     44 CA          6.3360   82.1000   27.2750 C.3       1 SER         0.1539
     45 C           5.7390   83.4600   27.6720 C.2       1 SER         0.2062
     46 O           6.4520   84.4410   27.8180 O.2       1 SER        -0.3943
     47 CB          6.0930   81.0760   28.3920 C.3       1 SER         0.0843
     48 OG          4.7130   80.7980   28.5410 O.3       1 SER        -0.3903
     49 N           4.4180   83.5000   27.8400 N.am      1 GLU        -0.2636
     50 CA          3.7180   84.7250   28.2270 C.3       1 GLU         0.1325
     51 C           2.3290   84.3890   28.7910 C.2       1 GLU         0.2040
     52 O           1.6600   83.4740   28.3090 O.2       1 GLU        -0.3944
     53 CB          3.5760   85.6510   27.0170 C.3       1 GLU        -0.0008
     54 CG          3.1840   87.0730   27.3610 C.3       1 GLU         0.0044
     55 CD          2.9800   87.9410   26.1280 C.2       1 GLU         0.0350
     56 OE1         3.8380   87.8900   25.2140 O.co2     1 GLU        -0.5690
     57 OE2         1.9700   88.6790   26.0780 O.co2     1 GLU        -0.5690
     58 N           1.9160   85.1100   29.8280 N.am      1 VAL        -0.2635
     59 CA          0.6020   84.9010   30.4410 C.3       1 VAL         0.1333
     60 C          -0.2350   86.1910   30.3700 C.2       1 VAL         0.2043
     61 O           0.3140   87.3000   30.3910 O.2       1 VAL        -0.3944
     62 CB          0.7220   84.4400   31.9370 C.3       1 VAL        -0.0063
     63 CG1         1.1880   82.9770   32.0070 C.3       1 VAL        -0.0584
     64 CG2         1.6740   85.3430   32.6980 C.3       1 VAL        -0.0584
     65 N          -1.5560   86.0270   30.2610 N.am      1 ASN        -0.2616
     66 CA         -2.5060   87.1400   30.1870 C.3       1 ASN         0.1474
     67 C          -3.8160   86.6320   30.7800 C.2       1 ASN         0.2043
     68 O          -4.7890   86.3630   30.0600 O.2       1 ASN        -0.3944
     69 CB         -2.7110   87.5750   28.7330 C.3       1 ASN         0.0773
     70 CG         -1.4920   88.2560   28.1600 C.2       1 ASN         0.1780
     71 OD1        -1.2590   89.4540   28.3950 O.2       1 ASN        -0.3970
     72 ND2        -0.6910   87.5010   27.4190 N.am      1 ASN        -0.3007
     73 N          -3.8310   86.5170   32.1040 N.am      1 STA        -0.2792
     74 CA         -4.9690   85.9780   32.8340 C.3       1 STA         0.0703
     75 CB         -4.5030   84.6980   33.5530 C.3       1 STA        -0.0250
     76 CG         -3.6900   83.7100   32.6940 C.3       1 STA        -0.0446
     77 CD1        -2.6830   82.9080   33.5190 C.3       1 STA        -0.0626
     78 CD2        -4.5810   82.7840   31.8900 C.3       1 STA        -0.0626
     79 CH         -5.5300   86.9930   33.8650 C.3       1 STA         0.0947
     80 OH         -4.4570   87.5840   34.5830 O.3       1 STA        -0.3872
     81 CM         -6.3300   88.0950   33.1770 C.3       1 STA         0.0655
     82 C          -7.6190   87.5800   32.5620 C.2       1 STA         0.1808
     83 O          -7.6460   87.2410   31.3780 O.2       1 STA        -0.3968
     84 N          -8.6850   87.5190   33.3570 N.am      1 VAL        -0.2653
     85 CA         -9.9790   87.0740   32.8390 C.3       1 VAL         0.1332
     86 C         -10.5930   88.1690   31.9520 C.2       1 VAL         0.2041
     87 O         -10.4000   89.3630   32.1990 O.2       1 VAL        -0.3944
     88 CB        -10.9350   86.7220   33.9950 C.3       1 VAL        -0.0063
     89 CG1       -11.3780   87.9840   34.7010 C.3       1 VAL        -0.0584
     90 CG2       -12.1190   85.9030   33.4760 C.3       1 VAL        -0.0584
     91 N         -11.3190   87.7610   30.9120 N.am      1 ALA        -0.2640
     92 CA        -11.9420   88.7150   29.9850 C.3       1 ALA         0.1282
     93 C         -13.2380   89.3080   30.5290 C.2       1 ALA         0.2036
     94 O         -14.0420   88.5860   31.1140 O.2       1 ALA        -0.3944
     95 CB        -12.2100   88.0330   28.6450 C.3       1 ALA        -0.0244
     96 N         -13.4280   90.6200   30.3360 N.am      1 GLU        -0.2636
     97 CA        -14.6360   91.3350   30.7890 C.3       1 GLU         0.1324
     98 C         -14.4820   92.8650   30.9390 C.2       1 GLU         0.2036
     99 O         -13.3730   93.4100   30.9480 O.2       1 GLU        -0.3944
    100 CB        -15.1400   90.7540   32.1300 C.3       1 GLU        -0.0008
    101 CG        -16.6320   91.0110   32.4290 C.3       1 GLU         0.0044
    102 CD        -16.8700   92.0960   33.4800 C.2       1 GLU         0.0350
    103 OE1       -16.1690   93.1260   33.4410 O.co2     1 GLU        -0.5690
    104 OE2       -17.7680   91.9290   34.3400 O.co2     1 GLU        -0.5690
    105 N         -15.6280   93.5400   31.0360 N.am      1 PHE        -0.2677
    106 CA        -15.7340   94.9920   31.2370 C.3       1 PHE         0.1039
    107 C         -17.2180   95.3220   31.4350 C.2       1 PHE         0.0621
    108 O         -18.0430   94.3950   31.2660 O.co2     1 PHE        -0.5664
    109 CB        -15.1910   95.7920   30.0440 C.3       1 PHE         0.0159
    110 CG        -15.3930   97.2970   30.1780 C.ar      1 PHE        -0.0392
    111 CD1       -14.6930   98.0310   31.1470 C.ar      1 PHE        -0.0602
    112 CD2       -16.3240   97.9700   29.3720 C.ar      1 PHE        -0.0602
    113 CE1       -14.9180   99.4130   31.3170 C.ar      1 PHE        -0.0686
    114 CE2       -16.5580   99.3530   29.5320 C.ar      1 PHE        -0.0686
    115 CZ        -15.8530  100.0730   30.5080 C.ar      1 PHE        -0.0687
    116 OXT       -17.5480   96.4860   31.7570 O.co2     1 PHE        -0.5664
    117 H1         14.6006   69.9482   18.7978 H         1 LYS         0.2015
    118 H2         13.0327   70.3227   19.1307 H         1 LYS         0.2015
    119 H3         13.7763   69.0979   19.9410 H         1 LYS         0.2015
    120 H4         15.3039   70.6122   21.0029 H         1 LYS         0.1098
    121 H5         14.8833   73.0530   20.7492 H         1 LYS         0.0346
    122 H6         13.6580   72.6927   19.4860 H         1 LYS         0.0346
    123 H7         16.6275   72.0077   19.2979 H         1 LYS         0.0270
    124 H8         15.8457   73.4477   18.5618 H         1 LYS         0.0270
    125 H9         14.3757   71.9526   17.2385 H         1 LYS         0.0317
    126 H10        15.2048   70.5270   17.9506 H         1 LYS         0.0317
    127 H11        17.3540   71.3411   17.0011 H         1 LYS         0.0813
    128 H12        16.4722   72.7039   16.2316 H         1 LYS         0.0813
    129 H13        16.7705   70.8605   14.7218 H         1 LYS         0.1994
    130 H14        15.1685   71.0818   15.0283 H         1 LYS         0.1994
    131 H15        15.9765   69.8331   15.7334 H         1 LYS         0.1994
    132 H16        14.2068   72.7563   22.4024 H         1 THR         0.1885
    133 H17        11.5021   72.1478   23.2902 H         1 THR         0.0826
    134 H18        13.7833   71.6521   25.3041 H         1 THR         0.0639
    135 H19        13.5497   69.9342   23.7477 H         1 THR         0.2101
    136 H20        11.9442   70.8133   26.7471 H         1 THR         0.0257
    137 H21        10.7518   71.2266   25.4689 H         1 THR         0.0257
    138 H22        11.6780   72.5295   26.2883 H         1 THR         0.0257
    139 H23        14.1430   74.2045   22.9854 H         1 GLU         0.1883
    140 H24        13.7086   76.0299   25.1754 H         1 GLU         0.0801
    141 H25        15.2371   77.5128   23.9985 H         1 GLU         0.0330
    142 H26        15.0328   76.5769   22.4789 H         1 GLU         0.0330
    143 H27        16.1361   74.6400   23.5126 H         1 GLU         0.0433
    144 H28        16.3210   75.5556   25.0469 H         1 GLU         0.0433
    145 H29        12.1184   77.4614   25.4547 H         1 GLU         0.1883
    146 H30        11.2154   79.0936   23.2374 H         1 GLU         0.0801
    147 H31         9.6781   77.5742   22.5719 H         1 GLU         0.0330
    148 H32         8.7152   78.3742   23.8602 H         1 GLU         0.0330
    149 H33        10.2228   75.7349   24.0806 H         1 GLU         0.0433
    150 H34         8.4450   75.9544   23.9457 H         1 GLU         0.0433
    151 H35        10.1616   80.8956   23.7020 H         1 ILE         0.1883
    152 H36        10.2195   81.8171   26.5028 H         1 ILE         0.0803
    153 H37         9.6756   83.2459   23.8418 H         1 ILE         0.0345
    154 H38        11.9787   82.1779   24.4134 H         1 ILE         0.0267
    155 H39        12.1184   83.5075   25.6131 H         1 ILE         0.0267
    156 H40         8.5634   84.3526   25.7387 H         1 ILE         0.0235
    157 H41         9.9416   85.3252   25.1213 H         1 ILE         0.0235
    158 H42        10.1182   84.3789   26.6379 H         1 ILE         0.0235
    159 H43        13.2657   84.0587   23.5237 H         1 ILE         0.0230
    160 H44        11.8753   85.1592   23.8108 H         1 ILE         0.0230
    161 H45        11.7356   83.8295   22.6111 H         1 ILE         0.0230
    162 H46         8.4203   82.3318   27.6841 H         1 SER         0.1884
    163 H47         5.8053   81.7621   26.3727 H         1 SER         0.0823
    164 H48         6.4820   81.4788   29.3388 H         1 SER         0.0606
    165 H49         6.6221   80.1437   28.1453 H         1 SER         0.0606
    166 H50         4.5924   80.1630   29.2372 H         1 SER         0.2097
    167 H51         3.8871   82.6647   27.6968 H         1 GLU         0.1883
    168 H52         4.3033   85.2390   29.0037 H         1 GLU         0.0801
    169 H53         2.8058   85.2330   26.3521 H         1 GLU         0.0330
    170 H54         4.5407   85.6781   26.4892 H         1 GLU         0.0330
    171 H55         3.9794   87.5181   27.9768 H         1 GLU         0.0433
    172 H56         2.2456   87.0504   27.9344 H         1 GLU         0.0433
    173 H57         2.5193   85.8152   30.2005 H         1 VAL         0.1883
    174 H58         0.0820   84.1130   29.8765 H         1 VAL         0.0802
    175 H59        -0.2713   84.5113   32.4042 H         1 VAL         0.0343
    176 H60         1.2677   82.6676   33.0596 H         1 VAL         0.0234
    177 H61         2.1704   82.8814   31.5214 H         1 VAL         0.0234
    178 H62         0.4595   82.3350   31.4902 H         1 VAL         0.0234
    179 H63         1.3220   86.3832   32.6348 H         1 VAL         0.0234
    180 H64         2.6797   85.2690   32.2586 H         1 VAL         0.0234
    181 H65         1.7106   85.0318   33.7524 H         1 VAL         0.0234
    182 H66        -1.9160   85.0946   30.2281 H         1 ASN         0.1885
    183 H67        -2.1329   87.9936   30.7720 H         1 ASN         0.0826
    184 H68        -3.5594   88.2737   28.6893 H         1 ASN         0.0551
    185 H69        -2.9368   86.6856   28.1264 H         1 ASN         0.0551
    186 H70         0.1327   87.8957   27.0119 H         1 ASN         0.1814
    187 H71        -0.9111   86.5373   27.2676 H         1 ASN         0.1814
    188 H72        -3.0272   86.8130   32.6200 H         1 STA         0.1856
    189 H73        -5.7669   85.7264   32.1198 H         1 STA         0.0583
    190 H74        -5.3964   84.1716   33.9199 H         1 STA         0.0291
    191 H75        -3.8777   84.9980   34.4068 H         1 STA         0.0291
    192 H76        -3.1140   84.3117   31.9756 H         1 STA         0.0296
    193 H77        -2.1324   82.2215   32.8591 H         1 STA         0.0232
    194 H78        -3.2166   82.3291   34.2872 H         1 STA         0.0232
    195 H79        -1.9755   83.5964   34.0042 H         1 STA         0.0232
    196 H80        -5.2966   83.3804   31.3049 H         1 STA         0.0232
    197 H81        -5.1300   82.1190   32.5729 H         1 STA         0.0232
    198 H82        -3.9631   82.1808   31.2086 H         1 STA         0.0232
    199 H83        -6.1873   86.4593   34.5673 H         1 STA         0.0642
    200 H84        -4.8031   88.2048   35.2133 H         1 STA         0.2101
    201 H85        -5.7113   88.5361   32.3816 H         1 STA         0.0529
    202 H86        -6.5776   88.8675   33.9199 H         1 STA         0.0529
    203 H87        -8.6005   87.7801   34.3186 H         1 VAL         0.1883
    204 H88        -9.8219   86.1727   32.2283 H         1 VAL         0.0802
    205 H89       -10.3875   86.1020   34.7202 H         1 VAL         0.0343
    206 H90       -12.0597   87.7236   35.5241 H         1 VAL         0.0234
    207 H91       -11.8984   88.6399   33.9876 H         1 VAL         0.0234
    208 H92       -10.4982   88.5063   35.1049 H         1 VAL         0.0234
    209 H93       -11.7466   84.9987   32.9724 H         1 VAL         0.0234
    210 H94       -12.6985   86.5075   32.7628 H         1 VAL         0.0234
    211 H95       -12.7629   85.6140   34.3197 H         1 VAL         0.0234
    212 H96       -11.4429   86.7806   30.7587 H         1 ALA         0.1883
    213 H97       -11.2337   89.5407   29.8220 H         1 ALA         0.0797
    214 H98       -12.6764   88.7514   27.9548 H         1 ALA         0.0277
    215 H99       -12.8861   87.1788   28.7970 H         1 ALA         0.0277
    216 H100      -11.2606   87.6777   28.2180 H         1 ALA         0.0277
    217 H101      -12.7169   91.1394   29.8622 H         1 GLU         0.1883
    218 H102      -15.4115   91.1607   30.0286 H         1 GLU         0.0801
    219 H103      -14.5469   91.2018   32.9410 H         1 GLU         0.0330
    220 H104      -14.9771   89.6663   32.1140 H         1 GLU         0.0330
    221 H105      -17.0804   90.0736   32.7899 H         1 GLU         0.0433
    222 H106      -17.1256   91.3179   31.4951 H         1 GLU         0.0433
    223 H107      -16.4789   93.0192   30.9668 H         1 PHE         0.1877
    224 H108      -15.1678   95.2727   32.1373 H         1 PHE         0.0749
    225 H109      -15.7056   95.4515   29.1334 H         1 PHE         0.0467
    226 H110      -14.1132   95.5923   29.9526 H         1 PHE         0.0467
    227 H111      -13.9672   97.5278   31.7755 H         1 PHE         0.0557
    228 H112      -16.8716   97.4198   28.6154 H         1 PHE         0.0557
    229 H113      -14.3687   99.9637   32.0720 H         1 PHE         0.0599
    230 H114      -17.2812   99.8577   28.9017 H         1 PHE         0.0599
    231 H115      -16.0305  101.1347   30.6358 H         1 PHE         0.0559
@<TRIPOS>BOND
     1    1    2 1  
     2    2    3 1  
     3    2    5 1  
     4    3    4 2  
     5    3   10 am 
     6    5    6 1  
     7    6    7 1  
     8    7    8 1  
     9    8    9 1  
    10   10   11 1  
    11   11   12 1  
    12   11   14 1  
    13   12   13 2  
    14   12   17 am 
    15   14   15 1  
    16   14   16 1  
    17   17   18 1  
    18   18   19 1  
    19   18   21 1  
    20   19   20 2  
    21   19   26 am 
    22   21   22 1  
    23   22   23 1  
    24   23   24 ar 
    25   23   25 ar 
    26   26   27 1  
    27   27   28 1  
    28   27   30 1  
    29   28   29 2  
    30   28   35 am 
    31   30   31 1  
    32   31   32 1  
    33   32   33 ar 
    34   32   34 ar 
    35   35   36 1  
    36   36   37 1  
    37   36   39 1  
    38   37   38 2  
    39   37   43 am 
    40   39   40 1  
    41   39   41 1  
    42   40   42 1  
    43   43   44 1  
    44   44   45 1  
    45   44   47 1  
    46   45   46 2  
    47   45   49 am 
    48   47   48 1  
    49   49   50 1  
    50   50   51 1  
    51   50   53 1  
    52   51   52 2  
    53   51   58 am 
    54   53   54 1  
    55   54   55 1  
    56   55   56 ar 
    57   55   57 ar 
    58   58   59 1  
    59   59   60 1  
    60   59   62 1  
    61   60   61 2  
    62   60   65 am 
    63   62   63 1  
    64   62   64 1  
    65   65   66 1  
    66   66   67 1  
    67   66   69 1  
    68   67   68 2  
    69   67   73 am 
    70   69   70 1  
    71   70   71 2  
    72   70   72 am 
    73   73   74 1  
    74   74   75 1  
    75   74   79 1  
    76   75   76 1  
    77   76   77 1  
    78   76   78 1  
    79   79   80 1  
    80   79   81 1  
    81   81   82 1  
    82   82   83 2  
    83   82   84 am 
    84   84   85 1  
    85   85   86 1  
    86   85   88 1  
    87   86   87 2  
    88   86   91 am 
    89   88   89 1  
    90   88   90 1  
    91   91   92 1  
    92   92   93 1  
    93   92   95 1  
    94   93   94 2  
    95   93   96 am 
    96   96   97 1  
    97   97   98 1  
    98   97  100 1  
    99   98   99 2  
   100   98  105 am 
   101  100  101 1  
   102  101  102 1  
   103  102  103 ar 
   104  102  104 ar 
   105  105  106 1  
   106  106  107 1  
   107  106  109 1  
   108  107  108 ar 
   109  107  116 ar 
   110  109  110 1  
   111  110  111 ar 
   112  110  112 ar 
   113  111  113 ar 
   114  112  114 ar 
   115  113  115 ar 
   116  114  115 ar 
   117    1  117 1  
   118    1  118 1  
   119    1  119 1  
   120    2  120 1  
   121    5  121 1  
   122    5  122 1  
   123    6  123 1  
   124    6  124 1  
   125    7  125 1  
   126    7  126 1  
   127    8  127 1  
   128    8  128 1  
   129    9  129 1  
   130    9  130 1  
   131    9  131 1  
   132   10  132 1  
   133   11  133 1  
   134   14  134 1  
   135   15  135 1  
   136   16  136 1  
   137   16  137 1  
   138   16  138 1  
   139   17  139 1  
   140   18  140 1  
   141   21  141 1  
   142   21  142 1  
   143   22  143 1  
   144   22  144 1  
   145   26  145 1  
   146   27  146 1  
   147   30  147 1  
   148   30  148 1  
   149   31  149 1  
   150   31  150 1  
   151   35  151 1  
   152   36  152 1  
   153   39  153 1  
   154   40  154 1  
   155   40  155 1  
   156   41  156 1  
   157   41  157 1  
   158   41  158 1  
   159   42  159 1  
   160   42  160 1  
   161   42  161 1  
   162   43  162 1  
   163   44  163 1  
   164   47  164 1  
   165   47  165 1  
   166   48  166 1  
   167   49  167 1  
   168   50  168 1  
   169   53  169 1  
   170   53  170 1  
   171   54  171 1  
   172   54  172 1  
   173   58  173 1  
   174   59  174 1  
   175   62  175 1  
   176   63  176 1  
   177   63  177 1  
   178   63  178 1  
   179   64  179 1  
   180   64  180 1  
   181   64  181 1  
   182   65  182 1  
   183   66  183 1  
   184   69  184 1  
   185   69  185 1  
   186   72  186 1  
   187   72  187 1  
   188   73  188 1  
   189   74  189 1  
   190   75  190 1  
   191   75  191 1  
   192   76  192 1  
   193   77  193 1  
   194   77  194 1  
   195   77  195 1  
   196   78  196 1  
   197   78  197 1  
   198   78  198 1  
   199   79  199 1  
   200   80  200 1  
   201   81  201 1  
   202   81  202 1  
   203   84  203 1  
   204   85  204 1  
   205   88  205 1  
   206   89  206 1  
   207   89  207 1  
   208   89  208 1  
   209   90  209 1  
   210   90  210 1  
   211   90  211 1  
   212   91  212 1  
   213   92  213 1  
   214   95  214 1  
   215   95  215 1  
   216   95  216 1  
   217   96  217 1  
   218   97  218 1  
   219  100  219 1  
   220  100  220 1  
   221  101  221 1  
   222  101  222 1  
   223  105  223 1  
   224  106  224 1  
   225  109  225 1  
   226  109  226 1  
   227  111  227 1  
   228  112  228 1  
   229  113  229 1  
   230  114  230 1  
   231  115  231 1  
@<TRIPOS>SUBSTRUCTURE
     1 LYS         1

