2hnc_ligand
  -I-interpret- 

 14 14  0  0  0  0  0  0  0  0999 V2000
   -5.8090    0.9480   16.5740 S   0  0  0  0  0
   -7.2360    1.0700   16.4500 O   0  0  0  0  0
   -5.3720    1.1730   17.9280 O   0  0  0  0  0
   -5.3340   -0.4610   16.0850 N   0  0  0  0  0
   -3.8050    2.3790   15.3710 N   0  0  0  0  0
   -3.5520    3.4730   14.5830 N   0  0  0  0  0
   -6.0920    3.5030   14.9420 S   0  0  0  0  0
   -5.1120    2.1980   15.5310 C   0  0  0  0  0
   -4.6210    4.2310   14.4250 C   0  0  0  0  0
   -4.5850    5.3490   13.6810 N   0  0  0  0  0
   -6.0152   -1.1378   15.7410 H   0  0  0  0  0
   -4.3433   -0.7024   16.1104 H   0  0  0  0  0
   -2.6432    3.6771   14.1674 H   0  0  0  0  0
   -5.4542    5.8023   13.3992 H   0  0  0  0  0
  1  2  2  0  0  0
  1  3  2  0  0  0
  1  4  1  0  0  0
  8  1  1  0  0  0
  5  6  1  0  0  0
  5  8  2  0  0  0
  6  9  1  0  0  0
  8  7  1  0  0  0
  7  9  1  0  0  0
  9 10  2  0  0  0
  4 11  1  0  0  0
  4 12  1  0  0  0
  6 13  1  0  0  0
 10 14  1  0  0  0
M  END
$$$$
