4e20_ligand
  -I-interpret- 

 41 44  0  0  0  0  0  0  0  0999 V2000
   35.3190   -5.9710   25.4640 O   0  0  0  0  0
   34.6170   -7.0020   26.2220 S   0  0  0  0  0
   35.3480   -7.2750   27.4410 O   0  0  0  0  0
   33.1050   -6.5290   26.5810 C   0  0  0  0  0
   32.4810   -6.9760   27.7630 C   0  0  0  0  0
   31.1560   -6.6210   28.0460 C   0  0  0  0  0
   30.5260   -7.0430   29.3300 Cl  0  0  0  0  0
   30.4490   -5.8190   27.1440 C   0  0  0  0  0
   31.0380   -5.4210   25.9300 C   0  0  0  0  0
   32.3550   -5.7820   25.6530 C   0  0  0  0  0
   34.4830   -8.3890   25.3680 N   0  0  0  0  0
   33.8260   -9.5350   25.7740 C   0  0  0  0  0
   32.6870   -9.9940   25.0940 C   0  0  0  0  0
   32.0440  -11.1690   25.5190 C   0  0  0  0  0
   34.2860  -10.2960   26.8710 C   0  0  0  0  0
   33.6410  -11.4690   27.3070 C   0  0  0  0  0
   32.4820  -11.9010   26.6520 C   0  0  0  0  0
   31.7620  -13.1780   26.9950 C   0  0  0  0  0
   32.5520  -14.2960   27.3330 C   0  0  0  0  0
   31.9450  -15.5370   27.5700 C   0  0  0  0  0
   32.4670  -16.7810   27.8970 C   0  0  0  0  0
   33.8020  -17.0290   28.0980 N   0  0  0  0  0
   31.5170  -17.7170   28.0110 N   0  0  0  0  0
   30.5700  -15.7150   27.4520 C   0  0  0  0  0
   30.3150  -17.0300   27.7230 N   0  0  0  0  0
   29.7660  -14.6140   27.1010 C   0  0  0  0  0
   30.3640  -13.3610   26.8570 C   0  0  0  0  0
   33.0339   -7.6030   28.4625 H   0  0  0  0  0
   29.4345   -5.5002   27.3834 H   0  0  0  0  0
   30.4675   -4.8338   25.2104 H   0  0  0  0  0
   32.8091   -5.4830   24.7083 H   0  0  0  0  0
   34.9257   -8.4108   24.4494 H   0  0  0  0  0
   32.3020   -9.4400   24.2379 H   0  0  0  0  0
   31.1806  -11.5295   24.9598 H   0  0  0  0  0
   35.1771   -9.9615   27.4021 H   0  0  0  0  0
   34.0409  -12.0360   28.1476 H   0  0  0  0  0
   33.6346  -14.1952   27.4100 H   0  0  0  0  0
   34.4803  -16.2725   28.0090 H   0  0  0  0  0
   34.1157  -17.9698   28.3364 H   0  0  0  0  0
   28.6853  -14.7299   27.0182 H   0  0  0  0  0
   29.7403  -12.5189   26.5571 H   0  0  0  0  0
  1  2  2  0  0  0
  2  3  2  0  0  0
  2  4  1  0  0  0
  2 11  1  0  0  0
  4  5  4  0  0  0
  4 10  4  0  0  0
  5  6  4  0  0  0
  6  7  1  0  0  0
  6  8  4  0  0  0
  8  9  4  0  0  0
  9 10  4  0  0  0
 11 12  1  0  0  0
 12 13  4  0  0  0
 12 15  4  0  0  0
 13 14  4  0  0  0
 14 17  4  0  0  0
 15 16  4  0  0  0
 16 17  4  0  0  0
 17 18  1  0  0  0
 18 19  4  0  0  0
 18 27  4  0  0  0
 19 20  4  0  0  0
 20 21  4  0  0  0
 20 24  4  0  0  0
 21 22  1  0  0  0
 21 23  4  0  0  0
 23 25  4  0  0  0
 24 25  4  0  0  0
 24 26  4  0  0  0
 26 27  4  0  0  0
  5 28  1  0  0  0
  8 29  1  0  0  0
  9 30  1  0  0  0
 10 31  1  0  0  0
 11 32  1  0  0  0
 13 33  1  0  0  0
 14 34  1  0  0  0
 15 35  1  0  0  0
 16 36  1  0  0  0
 19 37  1  0  0  0
 22 38  1  0  0  0
 22 39  1  0  0  0
 26 40  1  0  0  0
 27 41  1  0  0  0
M  END
$$$$
