5lrq_ligand
  -I-interpret- 

 65 69  0  0  0  0  0  0  0  0999 V2000
   28.8820    3.8320  104.2370 C   0  0  0  0  0
   31.1650    3.2540  103.6950 C   0  0  0  0  0
   30.8300    2.0890  103.0210 C   0  0  0  0  0
   31.8230    1.3270  102.3910 C   0  0  0  0  0
   33.1440    1.7520  102.4820 C   0  0  0  0  0
   33.4870    2.9120  103.1270 C   0  0  0  0  0
   32.5010    3.6730  103.7520 C   0  0  0  0  0
   33.8920    5.6160  104.6180 C   0  0  0  0  0
   35.9280    6.2580  103.7330 C   0  0  0  0  0
   38.2300    5.6130  103.3640 C   0  0  0  0  0
   40.6330    4.8630  104.5310 C   0  0  0  0  0
   40.0850    6.1060  104.7830 C   0  0  0  0  0
   38.8610    6.4800  104.2710 C   0  0  0  0  0
   38.4230    7.9010  104.5140 C   0  0  0  0  0
   36.6610    9.5790  104.8220 C   0  0  0  0  0
   32.5950   -0.9000  101.8320 C   0  0  0  0  0
   30.9890   -2.6750  101.0060 C   0  0  0  0  0
   29.9590   -1.6000  100.7490 C   0  0  0  0  0
   39.2650    8.8000  104.5330 O   0  0  0  0  0
   37.1120    8.1810  104.7250 N   0  0  0  0  0
   36.0560    7.2170  104.7660 C   0  0  0  0  0
   34.9890    7.3180  105.6590 C   0  0  0  0  0
   33.9340    6.5040  105.6190 N   0  0  0  0  0
   40.0030    4.0110  103.6540 C   0  0  0  0  0
   38.7750    4.3370  103.1460 C   0  0  0  0  0
   36.9150    5.9110  102.8620 N   0  0  0  0  0
   36.5240    5.4430  101.5300 C   0  0  0  0  0
   34.8590    5.4510  103.6980 N   0  0  0  0  0
   32.7910    4.8190  104.5350 N   0  0  0  0  0
   30.2880    4.0530  104.3580 O   0  0  0  0  0
   28.2370    4.9320  105.0180 C   0  0  0  0  0
   31.5120    0.1030  101.7810 N   0  0  0  0  0
   30.1280   -0.3360  101.5640 C   0  0  0  0  0
   30.9280   -3.7030  100.0350 O   0  0  0  0  0
   32.3750   -2.1000  100.9620 C   0  0  0  0  0
   28.5973    2.8512  104.6179 H   0  0  0  0  0
   28.5640    3.8423  103.1945 H   0  0  0  0  0
   29.7901    1.7649  102.9812 H   0  0  0  0  0
   33.9282    1.1462  102.0280 H   0  0  0  0  0
   34.5269    3.2378  103.1509 H   0  0  0  0  0
   41.5571    4.5600  105.0232 H   0  0  0  0  0
   40.6365    6.8113  105.4047 H   0  0  0  0  0
   37.1709   10.0671  105.6526 H   0  0  0  0  0
   36.8949   10.1001  103.8936 H   0  0  0  0  0
   35.5845    9.6012  104.9914 H   0  0  0  0  0
   32.6490   -1.2580  102.8601 H   0  0  0  0  0
   33.5002   -0.4093  101.4744 H   0  0  0  0  0
   30.7681   -3.0849  101.9915 H   0  0  0  0  0
   28.9920   -2.0217  101.0232 H   0  0  0  0  0
   30.0612   -1.3131   99.7024 H   0  0  0  0  0
   35.0192    8.0957  106.4221 H   0  0  0  0  0
   40.4821    3.0760  103.3636 H   0  0  0  0  0
   38.2158    3.6012  102.5681 H   0  0  0  0  0
   35.9046    4.5513  101.6269 H   0  0  0  0  0
   35.9598    6.2255  101.0225 H   0  0  0  0  0
   37.4177    5.2052  100.9530 H   0  0  0  0  0
   32.0303    5.0998  105.1537 H   0  0  0  0  0
   28.5616    4.8767  106.0571 H   0  0  0  0  0
   28.5274    5.8941  104.5960 H   0  0  0  0  0
   27.1535    4.8242  104.9683 H   0  0  0  0  0
   29.7136   -0.5473  102.5498 H   0  0  0  0  0
   29.6366    0.4597  101.0041 H   0  0  0  0  0
   31.5945   -4.3658  100.2300 H   0  0  0  0  0
   33.0481   -2.8771  101.3241 H   0  0  0  0  0
   32.5482   -1.7783   99.9350 H   0  0  0  0  0
 30  1  1  0  0  0
  1 31  1  0  0  0
  3  2  4  0  0  0
  2  7  4  0  0  0
  2 30  1  0  0  0
  4  3  4  0  0  0
  4  5  4  0  0  0
 32  4  1  0  0  0
  5  6  4  0  0  0
  6  7  4  0  0  0
  7 29  1  0  0  0
  8 23  4  0  0  0
  8 28  4  0  0  0
 29  8  1  0  0  0
  9 21  4  0  0  0
  9 26  1  0  0  0
 28  9  4  0  0  0
 10 13  4  0  0  0
 10 25  4  0  0  0
 26 10  1  0  0  0
 12 11  4  0  0  0
 11 24  4  0  0  0
 13 12  4  0  0  0
 13 14  1  0  0  0
 14 19  2  0  0  0
 14 20  1  0  0  0
 20 15  1  0  0  0
 16 32  1  0  0  0
 35 16  1  0  0  0
 17 18  1  0  0  0
 17 34  1  0  0  0
 17 35  1  0  0  0
 18 33  1  0  0  0
 20 21  1  0  0  0
 21 22  4  0  0  0
 22 23  4  0  0  0
 24 25  4  0  0  0
 26 27  1  0  0  0
 32 33  1  0  0  0
  1 36  1  0  0  0
  1 37  1  0  0  0
  3 38  1  0  0  0
  5 39  1  0  0  0
  6 40  1  0  0  0
 11 41  1  0  0  0
 12 42  1  0  0  0
 15 43  1  0  0  0
 15 44  1  0  0  0
 15 45  1  0  0  0
 16 46  1  0  0  0
 16 47  1  0  0  0
 17 48  1  0  0  0
 18 49  1  0  0  0
 18 50  1  0  0  0
 22 51  1  0  0  0
 24 52  1  0  0  0
 25 53  1  0  0  0
 27 54  1  0  0  0
 27 55  1  0  0  0
 27 56  1  0  0  0
 29 57  1  0  0  0
 31 58  1  0  0  0
 31 59  1  0  0  0
 31 60  1  0  0  0
 33 61  1  0  0  0
 33 62  1  0  0  0
 34 63  1  0  0  0
 35 64  1  0  0  0
 35 65  1  0  0  0
M  END
$$$$
