3tay_ligand
  -I-interpret- 

 44 44  0  0  0  0  0  0  0  0999 V2000
  -33.0300   39.1750   21.9960 C   0  0  0  0  0
  -32.9430   40.7070   21.8010 C   0  0  0  0  0
  -33.5240   41.0360   20.5190 O   0  0  0  0  0
  -33.7840   41.4780   22.8470 C   0  0  0  0  0
  -33.0640   41.6730   24.2000 C   0  0  0  0  0
  -33.7510   42.6740   24.9500 O   0  0  0  0  0
  -31.5870   42.0920   24.0570 C   0  0  0  0  0
  -30.9630   42.1400   25.4010 N   0  0  0  0  0
  -30.8580   41.1390   23.0990 C   0  0  0  0  0
  -31.5680   41.1690   21.8130 O   0  0  0  0  0
  -29.3980   41.4580   22.7390 C   0  0  0  0  0
  -29.2970   42.8390   22.3530 O   0  0  0  0  0
  -28.9030   40.5570   21.5950 C   0  0  0  0  0
  -29.3290   39.2050   21.8000 O   0  0  0  0  0
  -27.3820   40.5780   21.4730 C   0  0  0  0  0
  -27.0150   39.7480   20.3720 O   0  0  0  0  0
  -30.0060   43.0140   25.7480 C   0  0  0  0  0
  -29.5170   43.8460   24.9890 O   0  0  0  0  0
  -29.4990   42.9240   27.1940 C   0  0  0  0  0
  -30.1850   41.9260   27.9510 O   0  0  0  0  0
  -32.9670   40.2900   19.4210 C   0  0  0  0  0
  -31.9570   38.5340   22.0650 O   0  0  0  0  0
  -34.1700   38.6740   22.0320 O   0  0  0  0  0
  -34.6837   40.8929   23.0376 H   0  0  0  0  0
  -33.9845   42.4684   22.4385 H   0  0  0  0  0
  -33.0759   40.7072   24.7051 H   0  0  0  0  0
  -34.6729   42.4240   25.0459 H   0  0  0  0  0
  -31.5149   43.0888   23.6220 H   0  0  0  0  0
  -31.2794   41.4701   26.1021 H   0  0  0  0  0
  -30.8488   40.1929   23.6403 H   0  0  0  0  0
  -28.7725   41.2703   23.6117 H   0  0  0  0  0
  -28.3860   43.0413   22.1275 H   0  0  0  0  0
  -29.3337   40.9500   20.6741 H   0  0  0  0  0
  -29.0118   38.6577   21.0779 H   0  0  0  0  0
  -26.9260   40.2080   22.3913 H   0  0  0  0  0
  -27.0320   41.5971   21.3087 H   0  0  0  0  0
  -26.0596   39.7474   20.2777 H   0  0  0  0  0
  -29.6720   43.8880   27.6724 H   0  0  0  0  0
  -28.4424   42.6578   27.1647 H   0  0  0  0  0
  -29.8350   41.9070   28.8447 H   0  0  0  0  0
  -31.8975   40.4894   19.3534 H   0  0  0  0  0
  -33.1296   39.2251   19.5873 H   0  0  0  0  0
  -33.4536   40.5927   18.4938 H   0  0  0  0  0
  -31.2174   39.1440   22.0153 H   0  0  0  0  0
  1  2  1  0  0  0
  1 22  1  0  0  0
  1 23  2  0  0  0
  2  3  1  0  0  0
  2  4  1  0  0  0
  2 10  1  0  0  0
  3 21  1  0  0  0
  4  5  1  0  0  0
  5  6  1  0  0  0
  5  7  1  0  0  0
  7  8  1  0  0  0
  7  9  1  0  0  0
  8 17  1  0  0  0
  9 10  1  0  0  0
  9 11  1  0  0  0
 11 12  1  0  0  0
 11 13  1  0  0  0
 13 14  1  0  0  0
 13 15  1  0  0  0
 15 16  1  0  0  0
 17 18  2  0  0  0
 17 19  1  0  0  0
 19 20  1  0  0  0
  4 24  1  0  0  0
  4 25  1  0  0  0
  5 26  1  0  0  0
  6 27  1  0  0  0
  7 28  1  0  0  0
  8 29  1  0  0  0
  9 30  1  0  0  0
 11 31  1  0  0  0
 12 32  1  0  0  0
 13 33  1  0  0  0
 14 34  1  0  0  0
 15 35  1  0  0  0
 15 36  1  0  0  0
 16 37  1  0  0  0
 19 38  1  0  0  0
 19 39  1  0  0  0
 20 40  1  0  0  0
 21 41  1  0  0  0
 21 42  1  0  0  0
 21 43  1  0  0  0
 22 44  1  0  0  0
M  END
$$$$
