6bmv_ligand
  -I-interpret- 

 47 51  0  0  0  0  0  0  0  0999 V2000
   16.0800   46.3450   29.6700 C   0  0  0  0  0
   16.4690   45.0200   29.9360 C   0  0  0  0  0
   15.6080   43.9360   29.6010 C   0  0  0  0  0
   14.3310   44.1880   28.9990 C   0  0  0  0  0
   13.9550   45.5430   28.7430 C   0  0  0  0  0
   13.8890   41.8030   29.0280 C   0  0  0  0  0
   16.0480   42.5230   29.9100 C   0  0  0  0  0
   15.6640   38.2310   31.4750 C   0  0  0  0  0
   15.5530   37.6350   32.7620 C   0  0  0  0  0
   15.1000   38.4090   33.8500 C   0  0  0  0  0
   14.7610   39.7750   33.6440 C   0  0  0  0  0
   11.4080   43.8580   27.4860 C   0  0  0  0  0
   10.2530   44.4110   28.0840 C   0  0  0  0  0
    9.4910   45.3840   27.4020 C   0  0  0  0  0
    8.1920   45.8590   27.9840 C   0  0  0  0  0
    9.8520   45.7660   26.0790 C   0  0  0  0  0
   11.0150   45.2460   25.4720 C   0  0  0  0  0
   11.7830   44.2780   26.1700 C   0  0  0  0  0
   14.8430   46.5980   29.0410 C   0  0  0  0  0
   13.5110   43.0480   28.6870 N   0  0  0  0  0
   15.1920   41.5220   29.5520 N   0  0  0  0  0
   17.1350   42.3350   30.4750 O   0  0  0  0  0
   15.5370   40.1180   29.8350 C   0  0  0  0  0
   15.3530   39.5970   31.2610 C   0  0  0  0  0
   14.9080   40.3800   32.3660 C   0  0  0  0  0
   16.2420   37.3080   30.1390 Cl  0  0  0  0  0
   12.9870   40.8860   28.7110 N   0  0  0  0  0
   11.9390   41.5880   28.1250 N   0  0  0  0  0
   12.2490   42.8920   28.1850 C   0  0  0  0  0
    8.0640   45.7510   29.3300 O   0  0  0  0  0
    7.2710   46.2380   27.2680 O   0  0  0  0  0
   12.9240   43.7830   25.6030 O   0  0  0  0  0
   16.7317   47.1731   29.9487 H   0  0  0  0  0
   17.4346   44.8215   30.4011 H   0  0  0  0  0
   12.9768   45.7624   28.3152 H   0  0  0  0  0
   15.8164   36.5871   32.9060 H   0  0  0  0  0
   15.0103   37.9641   34.8410 H   0  0  0  0  0
   14.3831   40.3664   34.4780 H   0  0  0  0  0
    9.9487   44.0840   29.0783 H   0  0  0  0  0
    9.2239   46.4671   25.5294 H   0  0  0  0  0
   11.3191   45.5831   24.4810 H   0  0  0  0  0
   14.5699   47.6210   28.7821 H   0  0  0  0  0
   16.6064   40.0413   29.6385 H   0  0  0  0  0
   14.8540   39.5273   29.2245 H   0  0  0  0  0
   14.6815   41.4377   32.2316 H   0  0  0  0  0
    8.8913   45.4404   29.7051 H   0  0  0  0  0
   13.0338   44.1593   24.7267 H   0  0  0  0  0
  2  1  4  0  0  0
  1 19  4  0  0  0
  3  2  4  0  0  0
  3  4  4  0  0  0
  7  3  1  0  0  0
  4  5  4  0  0  0
 20  4  1  0  0  0
  5 19  4  0  0  0
  6 20  4  0  0  0
 21  6  1  0  0  0
  6 27  4  0  0  0
 21  7  1  0  0  0
  7 22  2  0  0  0
  8  9  4  0  0  0
 24  8  4  0  0  0
  8 26  1  0  0  0
  9 10  4  0  0  0
 10 11  4  0  0  0
 11 25  4  0  0  0
 12 13  4  0  0  0
 12 18  4  0  0  0
 29 12  1  0  0  0
 13 14  4  0  0  0
 14 15  1  0  0  0
 14 16  4  0  0  0
 15 30  1  0  0  0
 15 31  2  0  0  0
 17 16  4  0  0  0
 18 17  4  0  0  0
 18 32  1  0  0  0
 20 29  4  0  0  0
 23 21  1  0  0  0
 23 24  1  0  0  0
 24 25  4  0  0  0
 27 28  4  0  0  0
 28 29  4  0  0  0
  1 33  1  0  0  0
  2 34  1  0  0  0
  5 35  1  0  0  0
  9 36  1  0  0  0
 10 37  1  0  0  0
 11 38  1  0  0  0
 13 39  1  0  0  0
 16 40  1  0  0  0
 17 41  1  0  0  0
 19 42  1  0  0  0
 23 43  1  0  0  0
 23 44  1  0  0  0
 25 45  1  0  0  0
 30 46  1  0  0  0
 32 47  1  0  0  0
M  END
$$$$
