2gtv_ligand
  -I-interpret- 

 28 29  0  0  0  0  0  0  0  0999 V2000
   -5.4700    0.6150    2.4380 C   0  0  0  0  0
   -5.3100   -0.1610    3.7510 C   0  0  0  0  0
   -6.2690   -0.0750    4.6940 C   0  0  0  0  0
   -7.3310    1.0170    4.7540 C   0  0  0  0  0
   -6.9000    1.9550    5.7170 O   0  0  0  0  0
   -7.4810    1.7910    3.4160 C   0  0  0  0  0
   -6.0770    1.9860    2.7930 C   0  0  0  0  0
   -8.2940    1.1270    2.4590 O   0  0  0  0  0
   -7.8850   -0.0160    1.7060 C   0  0  0  0  0
   -6.4000    0.0380    1.3500 C   0  0  0  0  0
   -4.1550    0.6720    1.6420 C   0  0  0  0  0
   -3.9680    1.6560    0.9120 O   0  0  0  0  0
   -3.3260   -0.2530    1.7390 O   0  0  0  0  0
   -8.1970   -1.3060    2.4650 C   0  0  0  0  0
   -7.9060   -2.4350    2.0170 O   0  0  0  0  0
   -8.7640   -1.1490    3.5540 O   0  0  0  0  0
   -4.4272   -0.7775    3.9203 H   0  0  0  0  0
   -6.2865   -0.8410    5.4692 H   0  0  0  0  0
   -8.2864    0.5458    4.9849 H   0  0  0  0  0
   -6.7939    1.5163    6.5643 H   0  0  0  0  0
   -7.9663    2.7367    3.6575 H   0  0  0  0  0
   -6.1641    2.5873    1.8881 H   0  0  0  0  0
   -5.4309    2.4918    3.5105 H   0  0  0  0  0
   -8.4519   -0.0062    0.7751 H   0  0  0  0  0
   -6.0840   -0.9927    1.1894 H   0  0  0  0  0
   -6.3136    0.6997    0.4882 H   0  0  0  0  0
   -3.6570   -0.9150    2.3504 H   0  0  0  0  0
   -7.4743   -2.3384    1.1650 H   0  0  0  0  0
  1  2  1  0  0  0
  1  7  1  0  0  0
  1 10  1  0  0  0
  1 11  1  0  0  0
  2  3  2  0  0  0
  3  4  1  0  0  0
  4  5  1  0  0  0
  4  6  1  0  0  0
  6  7  1  0  0  0
  6  8  1  0  0  0
  8  9  1  0  0  0
  9 10  1  0  0  0
  9 14  1  0  0  0
 11 12  2  0  0  0
 11 13  1  0  0  0
 14 15  1  0  0  0
 14 16  2  0  0  0
  2 17  1  0  0  0
  3 18  1  0  0  0
  4 19  1  0  0  0
  5 20  1  0  0  0
  6 21  1  0  0  0
  7 22  1  0  0  0
  7 23  1  0  0  0
  9 24  1  0  0  0
 10 25  1  0  0  0
 10 26  1  0  0  0
 13 27  1  0  0  0
 15 28  1  0  0  0
M  END
$$$$
