5tq3_ligand
  -I-interpret- 

 43 47  0  0  0  0  0  0  0  0999 V2000
    6.1060   -6.8050   13.8410 C   0  0  0  0  0
    4.2840   -4.7260   13.8910 C   0  0  0  0  0
    4.1650   -5.7670   14.7950 C   0  0  0  0  0
    5.4000   -3.5420   12.0200 C   0  0  0  0  0
    4.6070   -2.3310   10.0950 C   0  0  0  0  0
    7.4760    2.5830    9.0620 C   0  0  0  0  0
    8.4710    3.5050    9.3570 C   0  0  0  0  0
    5.3150   -4.7040   12.9500 C   0  0  0  0  0
    6.0530    0.9060    8.9320 C   0  0  0  0  0
    6.9490   -6.2410   10.5340 C   0  0  0  0  0
    7.3670   -5.8120   11.9210 C   0  0  0  0  0
    6.2360   -5.7630   12.9250 C   0  0  0  0  0
    5.0800   -6.8070   14.7720 C   0  0  0  0  0
    6.3490   -2.5350   12.2190 C   0  0  0  0  0
    6.4340   -1.4390   11.3750 C   0  0  0  0  0
    5.5630   -1.3190   10.2960 C   0  0  0  0  0
    4.5200   -3.4320   10.9410 C   0  0  0  0  0
    3.8960   -1.9730    8.9970 N   0  0  0  0  0
    4.3300   -0.7920    8.4740 N   0  0  0  0  0
    5.3490   -0.3420    9.2250 C   0  0  0  0  0
    7.1060    1.3860    9.6490 N   0  0  0  0  0
    8.5800    4.6310    8.5540 C   0  0  0  0  0
    7.7120    4.8270    7.4820 C   0  0  0  0  0
    6.7190    3.9010    7.1930 C   0  0  0  0  0
    6.6010    2.7650    7.9930 C   0  0  0  0  0
    5.7090    1.6940    7.9260 N   0  0  0  0  0
    4.9760   -7.8330   15.6660 O   0  0  0  0  0
    6.8201   -7.6284   13.8249 H   0  0  0  0  0
    3.5613   -3.9103   13.9140 H   0  0  0  0  0
    3.3538   -5.7687   15.5230 H   0  0  0  0  0
    9.1482    3.3485   10.1967 H   0  0  0  0  0
    6.5180   -7.2412   10.5789 H   0  0  0  0  0
    6.2080   -5.5417   10.1467 H   0  0  0  0  0
    7.8205   -6.2485    9.8793 H   0  0  0  0  0
    7.7657   -4.8010   11.8375 H   0  0  0  0  0
    8.0846   -6.5488   12.2820 H   0  0  0  0  0
    7.0393   -2.6138   13.0589 H   0  0  0  0  0
    7.1844   -0.6695   11.5565 H   0  0  0  0  0
    3.7705   -4.2032   10.7631 H   0  0  0  0  0
    9.3530    5.3702    8.7640 H   0  0  0  0  0
    7.8138    5.7182    6.8627 H   0  0  0  0  0
    6.0419    4.0595    6.3536 H   0  0  0  0  0
    4.2182   -7.6836   16.2361 H   0  0  0  0  0
 12  1  4  0  0  0
  1 13  4  0  0  0
  2  3  4  0  0  0
  8  2  4  0  0  0
  3 13  4  0  0  0
  4  8  1  0  0  0
 14  4  4  0  0  0
 17  4  4  0  0  0
 16  5  4  0  0  0
  5 17  4  0  0  0
  5 18  4  0  0  0
  6  7  4  0  0  0
 21  6  4  0  0  0
  6 25  4  0  0  0
  7 22  4  0  0  0
  8 12  4  0  0  0
 20  9  1  0  0  0
  9 21  4  0  0  0
  9 26  4  0  0  0
 11 10  1  0  0  0
 12 11  1  0  0  0
 13 27  1  0  0  0
 15 14  4  0  0  0
 16 15  4  0  0  0
 16 20  4  0  0  0
 18 19  4  0  0  0
 19 20  4  0  0  0
 22 23  4  0  0  0
 23 24  4  0  0  0
 24 25  4  0  0  0
 25 26  4  0  0  0
  1 28  1  0  0  0
  2 29  1  0  0  0
  3 30  1  0  0  0
  7 31  1  0  0  0
 10 32  1  0  0  0
 10 33  1  0  0  0
 10 34  1  0  0  0
 11 35  1  0  0  0
 11 36  1  0  0  0
 14 37  1  0  0  0
 15 38  1  0  0  0
 17 39  1  0  0  0
 22 40  1  0  0  0
 23 41  1  0  0  0
 24 42  1  0  0  0
 27 43  1  0  0  0
M  END
$$$$
