6qae_ligand
  -I-interpret- 

 73 75  0  0  0  0  0  0  0  0999 V2000
  134.4190  108.3970   41.0780 C   0  0  0  0  0
  132.6980  110.6590   41.3440 C   0  0  0  0  0
  132.0650  111.6700   42.3660 C   0  0  0  0  0
  132.7540  113.0510   42.2770 C   0  0  0  0  0
  132.1820  114.0870   43.2520 C   0  0  0  0  0
  130.9570  114.8370   42.7380 C   0  0  0  0  0
  129.6420  114.0760   42.9270 C   0  0  0  0  0
  136.6550  111.6930   38.7540 C   0  0  0  0  0
  139.1290  111.4410   39.2960 C   0  0  0  0  0
  139.5010  113.1350   40.7480 C   0  0  0  0  0
  139.3050  115.0140   42.1740 C   0  0  0  0  0
  137.3520  114.2010   40.9410 C   0  0  0  0  0
  138.1260  113.1750   40.3640 C   0  0  0  0  0
  129.8030  112.5890   43.2360 C   0  0  0  0  0
  135.4750  105.8570   35.6030 C   0  0  0  0  0
  135.4890  107.2940   35.0770 C   0  0  0  0  0
  134.7270  108.2740   35.9920 C   0  0  0  0  0
  135.3250  108.2850   37.4140 C   0  0  0  0  0
  134.3790  110.6810   37.3680 C   0  0  0  0  0
  136.3950  110.1380   38.8960 C   0  0  0  0  0
  136.4640  109.6880   40.4160 C   0  0  0  0  0
  134.1790  110.9480   41.0170 C   0  0  0  0  0
  130.5440  111.8020   42.1490 C   0  0  0  0  0
  137.9120  112.0930   39.4290 C   0  0  0  0  0
  137.9360  115.0880   41.8180 C   0  0  0  0  0
  140.1030  114.0340   41.6410 C   0  0  0  0  0
  135.0590  109.6110   38.2250 N   0  3  0  0  0
  135.1590  109.7010   41.2750 N   0  3  0  0  0
  140.0840  112.0600   40.0750 N   0  0  0  0  0
  134.1626  108.2817   40.0249 H   0  0  0  0  0
  135.0549  107.5690   41.3912 H   0  0  0  0  0
  133.5080  108.4037   41.6764 H   0  0  0  0  0
  132.1372  110.7440   40.4132 H   0  0  0  0  0
  132.6525  109.6684   41.7964 H   0  0  0  0  0
  132.2276  111.2741   43.3685 H   0  0  0  0  0
  132.5959  113.4304   41.2675 H   0  0  0  0  0
  133.8045  112.9089   42.5307 H   0  0  0  0  0
  132.9619  114.8298   43.4195 H   0  0  0  0  0
  131.8707  113.5447   44.1449 H   0  0  0  0  0
  131.0941  114.9880   41.6673 H   0  0  0  0  0
  130.8809  115.7636   43.3069 H   0  0  0  0  0
  129.0966  114.1470   41.9859 H   0  0  0  0  0
  129.1363  114.5245   43.7821 H   0  0  0  0  0
  135.8264  112.2271   39.2191 H   0  0  0  0  0
  136.7379  111.9354   37.6945 H   0  0  0  0  0
  139.3048  110.5676   38.6680 H   0  0  0  0  0
  139.7251  115.7373   42.8729 H   0  0  0  0  0
  136.2943  114.2926   40.6941 H   0  0  0  0  0
  128.8018  112.1654   43.3157 H   0  0  0  0  0
  130.3922  112.5109   44.1497 H   0  0  0  0  0
  135.9434  105.8270   36.5868 H   0  0  0  0  0
  134.4447  105.5093   35.6790 H   0  0  0  0  0
  136.0269  105.2148   34.9166 H   0  0  0  0  0
  134.9990  107.2974   34.1034 H   0  0  0  0  0
  136.5276  107.6215   35.0293 H   0  0  0  0  0
  133.6862  107.9561   36.0537 H   0  0  0  0  0
  134.8067  109.2768   35.5723 H   0  0  0  0  0
  136.4053  108.1881   37.3065 H   0  0  0  0  0
  134.8510  107.4731   37.9657 H   0  0  0  0  0
  135.0169  110.9235   36.5181 H   0  0  0  0  0
  133.4216  110.3030   37.0092 H   0  0  0  0  0
  134.2158  111.5760   37.9684 H   0  0  0  0  0
  137.2022  109.6725   38.3305 H   0  0  0  0  0
  137.1195  110.4165   40.8932 H   0  0  0  0  0
  136.7664  108.6413   40.3837 H   0  0  0  0  0
  134.5037  111.7561   41.6725 H   0  0  0  0  0
  134.2351  111.1898   39.9556 H   0  0  0  0  0
  130.1352  110.7916   42.1568 H   0  0  0  0  0
  130.4045  112.3461   41.2149 H   0  0  0  0  0
  137.3221  115.8760   42.2542 H   0  0  0  0  0
  141.1590  113.9571   41.9000 H   0  0  0  0  0
  134.4048  109.3909   38.9760 H   0  0  0  0  0
  135.4628  109.8099   42.2426 H   0  0  0  0  0
 28  1  1  0  0  0
  2  3  1  0  0  0
 22  2  1  0  0  0
  3  4  1  0  0  0
  3 23  1  0  0  0
  4  5  1  0  0  0
  5  6  1  0  0  0
  7  6  1  0  0  0
 14  7  1  0  0  0
 20  8  1  0  0  0
  8 24  1  0  0  0
 24  9  4  0  0  0
  9 29  4  0  0  0
 13 10  4  0  0  0
 10 26  4  0  0  0
 10 29  4  0  0  0
 25 11  4  0  0  0
 26 11  4  0  0  0
 13 12  4  0  0  0
 12 25  4  0  0  0
 24 13  4  0  0  0
 23 14  1  0  0  0
 16 15  1  0  0  0
 17 16  1  0  0  0
 18 17  1  0  0  0
 27 18  1  0  0  0
 27 19  1  0  0  0
 21 20  1  0  0  0
 20 27  1  0  0  0
 28 21  1  0  0  0
 22 28  1  0  0  0
  1 30  1  0  0  0
  1 31  1  0  0  0
  1 32  1  0  0  0
  2 33  1  0  0  0
  2 34  1  0  0  0
  3 35  1  0  0  0
  4 36  1  0  0  0
  4 37  1  0  0  0
  5 38  1  0  0  0
  5 39  1  0  0  0
  6 40  1  0  0  0
  6 41  1  0  0  0
  7 42  1  0  0  0
  7 43  1  0  0  0
  8 44  1  0  0  0
  8 45  1  0  0  0
  9 46  1  0  0  0
 11 47  1  0  0  0
 12 48  1  0  0  0
 14 49  1  0  0  0
 14 50  1  0  0  0
 15 51  1  0  0  0
 15 52  1  0  0  0
 15 53  1  0  0  0
 16 54  1  0  0  0
 16 55  1  0  0  0
 17 56  1  0  0  0
 17 57  1  0  0  0
 18 58  1  0  0  0
 18 59  1  0  0  0
 19 60  1  0  0  0
 19 61  1  0  0  0
 19 62  1  0  0  0
 20 63  1  0  0  0
 21 64  1  0  0  0
 21 65  1  0  0  0
 22 66  1  0  0  0
 22 67  1  0  0  0
 23 68  1  0  0  0
 23 69  1  0  0  0
 25 70  1  0  0  0
 26 71  1  0  0  0
 27 72  1  0  0  0
 28 73  1  0  0  0
M  END
$$$$
