4px6_ligand
  -I-interpret- 

 52 56  0  0  0  0  0  0  0  0999 V2000
   -0.9810    4.7510   12.4490 C   0  0  0  0  0
   -1.0480    5.6860   11.2470 C   0  0  0  0  0
   -0.1230    5.2270   10.1380 C   0  0  0  0  0
    6.7290    0.7840   15.3760 C   0  0  0  0  0
    2.7170    0.9000   14.1860 C   0  0  0  0  0
    0.4720   -0.2240   14.2590 C   0  0  0  0  0
   -0.2720    0.6600   13.5030 C   0  0  0  0  0
   -1.6450    0.4370   13.2580 C   0  0  0  0  0
   -2.3080   -0.6570   13.7530 C   0  0  0  0  0
   -1.5830   -1.5720   14.5240 C   0  0  0  0  0
   -0.2050   -1.3600   14.7760 C   0  0  0  0  0
   -0.8290   -3.2840   15.7980 C   0  0  0  0  0
   -1.9570   -2.7890   15.1760 C   0  0  0  0  0
    3.8660   -1.2410   15.8370 O   0  0  0  0  0
    4.5500   -0.2890   15.4360 C   0  0  0  0  0
    5.9160   -0.2660   15.8030 N   0  0  0  0  0
    6.3340    1.7940   14.6390 N   0  0  0  0  0
    4.9760    1.8230   14.2420 C   0  0  0  0  0
    4.5500    2.8830   13.4650 C   0  0  0  0  0
    4.0780    0.8010   14.6270 C   0  0  0  0  0
    2.2670    1.9360   13.4170 N   0  0  0  0  0
    3.1850    2.9040   13.0710 C   0  0  0  0  0
    2.7430    3.9510   12.2980 N   0  0  0  0  0
    1.3540    4.0790   11.8310 C   0  0  0  0  0
    1.3020    5.0390   10.6450 C   0  0  0  0  0
    0.4380    4.6100   12.9830 C   0  0  0  0  0
    0.9560    5.9130   13.4250 N   0  3  0  0  0
    1.8460   -0.1000   14.5650 N   0  0  0  0  0
    0.2480   -2.4220   15.5620 N   0  0  0  0  0
   -1.3265    3.7662   12.1346 H   0  0  0  0  0
   -1.6034    5.1682   13.2406 H   0  0  0  0  0
   -0.7397    6.6819   11.5652 H   0  0  0  0  0
   -2.0696    5.6889   10.8670 H   0  0  0  0  0
   -0.1151    5.9871    9.3568 H   0  0  0  0  0
   -0.4846    4.2712    9.7589 H   0  0  0  0  0
    7.7758    0.7632   15.6791 H   0  0  0  0  0
    0.2088    1.5457   13.0879 H   0  0  0  0  0
   -2.1964    1.1586   12.6552 H   0  0  0  0  0
   -3.3684   -0.8090   13.5516 H   0  0  0  0  0
   -0.7839   -4.2032   16.3821 H   0  0  0  0  0
   -2.9487   -3.2413   15.1807 H   0  0  0  0  0
    6.3048   -1.0139   16.3773 H   0  0  0  0  0
    5.2364    3.6748   13.1650 H   0  0  0  0  0
    3.4114    4.6753   12.0351 H   0  0  0  0  0
    0.9924    3.0980   11.5227 H   0  0  0  0  0
    1.6831    6.0075   10.9687 H   0  0  0  0  0
    1.9029    4.6214    9.8371 H   0  0  0  0  0
    0.4317    3.9223   13.8286 H   0  0  0  0  0
    0.3689    6.2735   14.1771 H   0  0  0  0  0
    1.9120    5.8008   13.7623 H   0  0  0  0  0
    0.9452    6.5655   12.6411 H   0  0  0  0  0
    2.2438   -0.8438   15.1385 H   0  0  0  0  0
  2  1  1  0  0  0
  1 26  1  0  0  0
  3  2  1  0  0  0
 25  3  1  0  0  0
  4 16  1  0  0  0
 17  4  2  0  0  0
  5 20  4  0  0  0
 21  5  4  0  0  0
  5 28  1  0  0  0
  6  7  4  0  0  0
  6 11  4  0  0  0
 28  6  1  0  0  0
  7  8  4  0  0  0
  8  9  4  0  0  0
 10  9  4  0  0  0
 11 10  4  0  0  0
 10 13  4  0  0  0
 11 29  4  0  0  0
 12 13  4  0  0  0
 29 12  4  0  0  0
 15 14  2  0  0  0
 15 16  1  0  0  0
 20 15  1  0  0  0
 18 17  1  0  0  0
 19 18  4  0  0  0
 18 20  4  0  0  0
 22 19  4  0  0  0
 22 21  4  0  0  0
 23 22  1  0  0  0
 24 23  1  0  0  0
 24 25  1  0  0  0
 24 26  1  0  0  0
 26 27  1  0  0  0
  1 30  1  0  0  0
  1 31  1  0  0  0
  2 32  1  0  0  0
  2 33  1  0  0  0
  3 34  1  0  0  0
  3 35  1  0  0  0
  4 36  1  0  0  0
  7 37  1  0  0  0
  8 38  1  0  0  0
  9 39  1  0  0  0
 12 40  1  0  0  0
 13 41  1  0  0  0
 16 42  1  0  0  0
 19 43  1  0  0  0
 23 44  1  0  0  0
 24 45  1  0  0  0
 25 46  1  0  0  0
 25 47  1  0  0  0
 26 48  1  0  0  0
 27 49  1  0  0  0
 27 50  1  0  0  0
 27 51  1  0  0  0
 28 52  1  0  0  0
M  END
$$$$
