5qcl_ligand
  -I-interpret- 

 59 63  0  0  0  0  0  0  0  0999 V2000
   38.1340  -16.9910   28.7300 C   0  0  0  0  0
   38.8100  -20.9940   27.2010 C   0  0  0  0  0
   39.2790  -19.1590   28.9600 C   0  0  0  0  0
   40.2000  -21.4090   29.2920 C   0  0  0  0  0
   40.0670  -22.8960   29.0170 C   0  0  0  0  0
   39.7620  -23.2540   27.7040 C   0  0  0  0  0
   39.5710  -22.1880   26.6530 C   0  0  0  0  0
   40.2810  -23.8890   29.9700 C   0  0  0  0  0
   40.1950  -25.2230   29.6290 C   0  0  0  0  0
   43.8720  -21.2980   30.3420 C   0  0  0  0  0
   41.6930  -21.0960   29.1140 C   0  0  0  0  0
   44.6920  -20.6590   29.4140 C   0  0  0  0  0
   33.6950  -14.5620   29.6210 Cl  0  0  0  0  0
   36.7350  -13.8800   27.0880 C   0  0  0  0  0
   35.5580  -13.7390   27.8150 C   0  0  0  0  0
   35.1910  -14.7300   28.7070 C   0  0  0  0  0
   35.9800  -15.8480   28.9050 C   0  0  0  0  0
   37.1940  -15.9780   28.2210 C   0  0  0  0  0
   37.5420  -15.0100   27.2620 C   0  0  0  0  0
   38.6530  -15.2060   26.3810 N   0  0  0  0  0
   38.7570  -15.1530   25.0460 C   0  0  0  0  0
   39.9800  -15.4380   24.6890 N   0  0  0  0  0
   40.6530  -15.6760   25.8450 N   0  0  0  0  0
   39.8720  -15.5360   26.8730 N   0  0  0  0  0
   38.3780  -18.2100   28.2480 C   0  0  0  0  0
   39.8150  -18.8930   30.0390 O   0  0  0  0  0
   39.4430  -20.4740   28.4300 N   0  0  0  0  0
   39.8910  -25.5820   28.3360 C   0  0  0  0  0
   39.6790  -24.6040   27.3770 C   0  0  0  0  0
   42.1110  -20.6110   28.0640 O   0  0  0  0  0
   44.4420  -21.8130   31.5060 C   0  0  0  0  0
   45.8090  -21.7250   31.7140 C   0  0  0  0  0
   46.6360  -21.1090   30.7750 C   0  0  0  0  0
   46.0540  -20.5630   29.6330 C   0  0  0  0  0
   42.4730  -21.4540   30.1680 N   0  0  0  0  0
   48.1230  -21.1690   30.9020 C   0  0  0  0  0
   48.5750  -21.9680   31.8420 O   0  0  0  0  0
   48.8530  -20.4410   30.2270 O   0  0  0  0  0
   38.7038  -16.7077   29.6150 H   0  0  0  0  0
   37.7943  -21.3092   27.4399 H   0  0  0  0  0
   38.8122  -20.2054   26.4486 H   0  0  0  0  0
   39.7792  -21.2466   30.2843 H   0  0  0  0  0
   40.5531  -21.8490   26.3234 H   0  0  0  0  0
   38.9973  -22.6142   25.8300 H   0  0  0  0  0
   40.5190  -23.6091   30.9962 H   0  0  0  0  0
   40.3676  -25.9913   30.3826 H   0  0  0  0  0
   44.2572  -20.2323   28.5101 H   0  0  0  0  0
   37.0305  -13.1065   26.3791 H   0  0  0  0  0
   34.9314  -12.8569   27.6832 H   0  0  0  0  0
   35.6564  -16.6282   29.5939 H   0  0  0  0  0
   37.9440  -14.9090   24.3621 H   0  0  0  0  0
   37.9086  -18.5185   27.3139 H   0  0  0  0  0
   39.8169  -26.6354   28.0659 H   0  0  0  0  0
   39.4442  -24.8961   26.3535 H   0  0  0  0  0
   43.8088  -22.2872   32.2559 H   0  0  0  0  0
   46.2433  -22.1422   32.6225 H   0  0  0  0  0
   46.6811  -20.0529   28.9018 H   0  0  0  0  0
   41.9825  -21.8980   30.9443 H   0  0  0  0  0
   47.8400  -22.4410   32.2391 H   0  0  0  0  0
 18  1  1  0  0  0
  1 25  2  0  0  0
  2  7  1  0  0  0
 27  2  1  0  0  0
 25  3  1  0  0  0
  3 26  2  0  0  0
  3 27  1  0  0  0
  4  5  1  0  0  0
  4 11  1  0  0  0
 27  4  1  0  0  0
  5  6  4  0  0  0
  5  8  4  0  0  0
  7  6  1  0  0  0
  6 29  4  0  0  0
  8  9  4  0  0  0
  9 28  4  0  0  0
 10 12  4  0  0  0
 10 31  4  0  0  0
 35 10  1  0  0  0
 11 30  2  0  0  0
 11 35  1  0  0  0
 12 34  4  0  0  0
 16 13  1  0  0  0
 15 14  4  0  0  0
 14 19  4  0  0  0
 16 15  4  0  0  0
 17 16  4  0  0  0
 17 18  4  0  0  0
 18 19  4  0  0  0
 19 20  1  0  0  0
 20 21  4  0  0  0
 20 24  4  0  0  0
 21 22  4  0  0  0
 22 23  4  0  0  0
 23 24  4  0  0  0
 28 29  4  0  0  0
 31 32  4  0  0  0
 32 33  4  0  0  0
 33 34  4  0  0  0
 33 36  1  0  0  0
 36 37  1  0  0  0
 36 38  2  0  0  0
  1 39  1  0  0  0
  2 40  1  0  0  0
  2 41  1  0  0  0
  4 42  1  0  0  0
  7 43  1  0  0  0
  7 44  1  0  0  0
  8 45  1  0  0  0
  9 46  1  0  0  0
 12 47  1  0  0  0
 14 48  1  0  0  0
 15 49  1  0  0  0
 17 50  1  0  0  0
 21 51  1  0  0  0
 25 52  1  0  0  0
 28 53  1  0  0  0
 29 54  1  0  0  0
 31 55  1  0  0  0
 32 56  1  0  0  0
 34 57  1  0  0  0
 35 58  1  0  0  0
 37 59  1  0  0  0
M  END
$$$$
