3g15_ligand
  -I-interpret- 

 64 67  0  0  0  0  0  0  0  0999 V2000
   -9.9530  -13.1760    5.1130 C   0  0  0  0  0
   -9.2730  -12.3060    4.1160 N   0  3  0  0  0
  -10.2140  -11.6050    3.2020 C   0  0  0  0  0
   -8.4700  -11.3780    4.9250 C   0  0  0  0  0
   -8.4010  -13.1220    3.2860 C   0  0  0  0  0
   -9.2050  -14.1950    2.5720 C   0  0  0  0  0
   -9.8710  -15.0860    3.5470 O   0  0  0  0  0
  -10.7190  -14.3550    4.4630 C   0  0  0  0  0
  -11.7500  -13.7380    3.6760 O   0  0  0  0  0
  -11.2190  -15.2250    5.5500 C   0  0  0  0  0
  -10.5250  -16.3780    5.9660 C   0  0  0  0  0
  -10.9950  -17.1920    7.0180 C   0  0  0  0  0
  -12.3950  -14.9120    6.2440 C   0  0  0  0  0
  -12.8780  -15.7210    7.2900 C   0  0  0  0  0
  -12.1940  -16.8770    7.6740 C   0  0  0  0  0
  -12.6840  -17.6440    8.7610 C   0  0  0  0  0
  -11.7930  -18.2380    9.6560 C   0  0  0  0  0
  -12.2180  -18.9580   10.7660 C   0  0  0  0  0
  -14.0370  -17.8040    9.0020 C   0  0  0  0  0
  -14.4850  -18.5380   10.1160 C   0  0  0  0  0
  -13.5810  -19.1420   11.0190 C   0  0  0  0  0
  -14.0320  -19.9140   12.1850 C   0  0  0  0  0
  -15.2900  -19.4250   12.6820 O   0  0  0  0  0
  -14.2420  -21.3800   11.8130 C   0  0  0  0  0
  -13.0500  -19.8210   13.2910 O   0  0  0  0  0
  -13.4630  -20.6870   14.4060 C   0  0  0  0  0
  -13.6330  -22.1210   13.9940 C   0  0  0  0  0
  -14.6550  -22.2310   12.9450 N   0  3  0  0  0
  -15.9740  -21.8390   13.5050 C   0  0  0  0  0
  -14.6730  -23.6260   12.4710 C   0  0  0  0  0
  -10.6781  -12.5636    5.6490 H   0  0  0  0  0
   -9.1871  -13.5962    5.7649 H   0  0  0  0  0
   -9.6488  -10.9824    2.5084 H   0  0  0  0  0
  -10.7919  -12.3411    2.6433 H   0  0  0  0  0
  -10.8884  -10.9796    3.7869 H   0  0  0  0  0
   -7.7938  -11.9464    5.5636 H   0  0  0  0  0
   -7.8913  -10.7307    4.2660 H   0  0  0  0  0
   -9.1315  -10.7711    5.5433 H   0  0  0  0  0
   -7.6528  -13.5998    3.9184 H   0  0  0  0  0
   -7.9188  -12.4858    2.5438 H   0  0  0  0  0
   -8.5301  -14.7892    1.9559 H   0  0  0  0  0
   -9.9660  -13.7142    1.9574 H   0  0  0  0  0
  -12.3361  -13.2410    4.2514 H   0  0  0  0  0
   -9.5981  -16.6491    5.4605 H   0  0  0  0  0
  -10.4240  -18.0692    7.3222 H   0  0  0  0  0
  -12.9517  -14.0170    5.9663 H   0  0  0  0  0
  -13.7965  -15.4421    7.8064 H   0  0  0  0  0
  -10.7228  -18.1332    9.4775 H   0  0  0  0  0
  -11.4810  -19.3839   11.4468 H   0  0  0  0  0
  -14.7628  -17.3573    8.3225 H   0  0  0  0  0
  -15.5564  -18.6434   10.2867 H   0  0  0  0  0
  -15.5578  -19.9477   13.4414 H   0  0  0  0  0
  -13.2875  -21.7625   11.4514 H   0  0  0  0  0
  -15.0412  -21.4152   11.0727 H   0  0  0  0  0
  -14.4252  -20.3272   14.7705 H   0  0  0  0  0
  -12.6834  -20.6476   15.1668 H   0  0  0  0  0
  -13.9460  -22.7055   14.8591 H   0  0  0  0  0
  -12.6849  -22.4957   13.6084 H   0  0  0  0  0
  -15.9250  -20.8098   13.8605 H   0  0  0  0  0
  -16.7355  -21.9210   12.7294 H   0  0  0  0  0
  -16.2259  -22.4996   14.3346 H   0  0  0  0  0
  -15.3805  -23.7193   11.6471 H   0  0  0  0  0
  -13.6763  -23.9051   12.1292 H   0  0  0  0  0
  -14.9754  -24.2819   13.2874 H   0  0  0  0  0
  1  2  1  0  0  0
  1  8  1  0  0  0
  2  3  1  0  0  0
  2  4  1  0  0  0
  2  5  1  0  0  0
  5  6  1  0  0  0
  6  7  1  0  0  0
  7  8  1  0  0  0
  8  9  1  0  0  0
  8 10  1  0  0  0
 10 11  4  0  0  0
 10 13  4  0  0  0
 11 12  4  0  0  0
 12 15  4  0  0  0
 13 14  4  0  0  0
 14 15  4  0  0  0
 15 16  1  0  0  0
 16 17  4  0  0  0
 16 19  4  0  0  0
 17 18  4  0  0  0
 18 21  4  0  0  0
 19 20  4  0  0  0
 20 21  4  0  0  0
 21 22  1  0  0  0
 22 23  1  0  0  0
 22 24  1  0  0  0
 22 25  1  0  0  0
 24 28  1  0  0  0
 25 26  1  0  0  0
 26 27  1  0  0  0
 27 28  1  0  0  0
 28 29  1  0  0  0
 28 30  1  0  0  0
  1 31  1  0  0  0
  1 32  1  0  0  0
  3 33  1  0  0  0
  3 34  1  0  0  0
  3 35  1  0  0  0
  4 36  1  0  0  0
  4 37  1  0  0  0
  4 38  1  0  0  0
  5 39  1  0  0  0
  5 40  1  0  0  0
  6 41  1  0  0  0
  6 42  1  0  0  0
  9 43  1  0  0  0
 11 44  1  0  0  0
 12 45  1  0  0  0
 13 46  1  0  0  0
 14 47  1  0  0  0
 17 48  1  0  0  0
 18 49  1  0  0  0
 19 50  1  0  0  0
 20 51  1  0  0  0
 23 52  1  0  0  0
 24 53  1  0  0  0
 24 54  1  0  0  0
 26 55  1  0  0  0
 26 56  1  0  0  0
 27 57  1  0  0  0
 27 58  1  0  0  0
 29 59  1  0  0  0
 29 60  1  0  0  0
 29 61  1  0  0  0
 30 62  1  0  0  0
 30 63  1  0  0  0
 30 64  1  0  0  0
M  END
$$$$
