2wly_ligand
  -I-interpret- 

 54 56  0  0  0  0  0  0  0  0999 V2000
   28.1140   73.5570   -4.2230 C   0  0  0  0  0
   29.2080   77.2730   -5.7190 S   0  0  0  0  0
   28.3700   74.3420   -5.5300 C   0  0  0  0  0
   28.2920   73.3820   -6.7470 C   0  0  0  0  0
   29.1390   72.1230   -6.4910 C   0  0  0  0  0
   28.9020   71.4690   -5.1250 C   0  0  0  0  0
   29.8650   70.2980   -4.8730 C   0  0  0  0  0
   27.6130   76.7020   -5.7060 C   0  0  0  0  0
   26.4550   77.6750   -5.8250 C   0  0  0  0  0
   27.3350   75.3660   -5.6220 N   0  0  0  0  0
   29.0150   73.9200   -7.8420 O   0  0  0  0  0
   28.7560   71.2220   -7.4810 O   0  0  0  0  0
   29.0280   72.4440   -4.0960 O   0  0  0  0  0
   29.4780   69.5060   -3.7380 O   0  0  0  0  0
   27.8580   74.6070    0.8840 C   0  0  0  0  0
   27.8620   73.1010    0.5680 C   0  0  0  0  0
   28.5030   73.0640   -0.8470 C   0  0  0  0  0
   27.8500   74.0390   -1.8920 C   0  0  0  0  0
   27.8180   75.4690   -1.4020 C   0  0  0  0  0
   27.0860   76.4740   -2.2830 C   0  0  0  0  0
   29.7150   73.3520    1.9800 C   0  0  0  0  0
   30.8720   72.8570    2.8080 C   0  0  0  0  0
   28.9210   72.5390    1.3980 N   0  0  0  0  0
   29.3770   74.9730    1.7370 S   0  0  0  0  0
   28.5340   71.7430   -1.4360 O   0  0  0  0  0
   28.5970   74.1480   -3.1200 O   0  0  0  0  0
   27.2890   75.5140   -0.0890 O   0  0  0  0  0
   25.7120   76.4000   -1.9740 O   0  0  0  0  0
   27.0384   73.3911   -4.2831 H   0  0  0  0  0
   29.3608   74.7964   -5.5281 H   0  0  0  0  0
   27.2293   73.2100   -6.9177 H   0  0  0  0  0
   30.1936   72.3980   -6.5058 H   0  0  0  0  0
   27.8907   71.0622   -5.1202 H   0  0  0  0  0
   30.8541   70.7110   -4.6749 H   0  0  0  0  0
   29.8524   69.6552   -5.7532 H   0  0  0  0  0
   26.4884   78.3808   -4.9950 H   0  0  0  0  0
   26.5327   78.2167   -6.7677 H   0  0  0  0  0
   25.5149   77.1241   -5.7975 H   0  0  0  0  0
   26.3584   75.0715   -5.6237 H   0  0  0  0  0
   28.5988   74.7362   -8.1287 H   0  0  0  0  0
   28.8985   71.6172   -8.3442 H   0  0  0  0  0
   30.1061   68.7896   -3.6200 H   0  0  0  0  0
   27.0550   74.8607    1.5761 H   0  0  0  0  0
   26.8931   72.6154    0.6840 H   0  0  0  0  0
   29.5189   73.4025   -0.6436 H   0  0  0  0  0
   26.8614   73.6047   -2.0407 H   0  0  0  0  0
   28.8600   75.7874   -1.4331 H   0  0  0  0  0
   27.2495   76.2432   -3.3357 H   0  0  0  0  0
   27.4609   77.4809   -2.0994 H   0  0  0  0  0
   30.4952   72.2439    3.6267 H   0  0  0  0  0
   31.5364   72.2612    2.1821 H   0  0  0  0  0
   31.4187   73.7090    3.2122 H   0  0  0  0  0
   28.9402   71.7906   -2.3045 H   0  0  0  0  0
   25.2286   77.0260   -2.5181 H   0  0  0  0  0
  1  3  1  0  0  0
  1 13  1  0  0  0
 26  1  1  0  0  0
  8  2  2  0  0  0
  3  4  1  0  0  0
  3 10  1  0  0  0
  4  5  1  0  0  0
  4 11  1  0  0  0
  6  5  1  0  0  0
  5 12  1  0  0  0
  6  7  1  0  0  0
 13  6  1  0  0  0
  7 14  1  0  0  0
  8  9  1  0  0  0
 10  8  1  0  0  0
 16 15  1  0  0  0
 15 24  1  0  0  0
 15 27  1  0  0  0
 16 17  1  0  0  0
 23 16  1  0  0  0
 17 18  1  0  0  0
 17 25  1  0  0  0
 18 19  1  0  0  0
 18 26  1  0  0  0
 19 20  1  0  0  0
 27 19  1  0  0  0
 20 28  1  0  0  0
 21 22  1  0  0  0
 21 23  2  0  0  0
 21 24  1  0  0  0
  1 29  1  0  0  0
  3 30  1  0  0  0
  4 31  1  0  0  0
  5 32  1  0  0  0
  6 33  1  0  0  0
  7 34  1  0  0  0
  7 35  1  0  0  0
  9 36  1  0  0  0
  9 37  1  0  0  0
  9 38  1  0  0  0
 10 39  1  0  0  0
 11 40  1  0  0  0
 12 41  1  0  0  0
 14 42  1  0  0  0
 15 43  1  0  0  0
 16 44  1  0  0  0
 17 45  1  0  0  0
 18 46  1  0  0  0
 19 47  1  0  0  0
 20 48  1  0  0  0
 20 49  1  0  0  0
 22 50  1  0  0  0
 22 51  1  0  0  0
 22 52  1  0  0  0
 25 53  1  0  0  0
 28 54  1  0  0  0
M  END
$$$$
