4qrc_ligand
  -I-interpret- 

 68 72  0  0  0  0  0  0  0  0999 V2000
   48.4550    2.7390   83.3570 N   0  0  0  0  0
   52.0120    0.6670   67.7030 N   0  3  0  0  0
   49.9250   -0.1510   79.8030 C   0  0  0  0  0
   50.6770   -0.8530   78.7160 C   0  0  0  0  0
   51.3080   -2.0950   78.8750 C   0  0  0  0  0
   51.9840   -2.6960   77.8180 C   0  0  0  0  0
   52.0390   -2.0720   76.5930 C   0  0  0  0  0
   50.7320   -0.2110   77.4950 C   0  0  0  0  0
   52.2830    0.0230   72.6870 C   0  0  0  0  0
   52.2980   -0.2180   70.2630 C   0  0  0  0  0
   52.4260    1.9780   71.2320 C   0  0  0  0  0
   52.4490    1.6360   68.6660 C   0  0  0  0  0
   50.5770    0.7500   67.4830 C   0  0  0  0  0
   50.0940   -0.3010   66.5570 C   0  0  0  0  0
   52.8820    0.5840   66.5270 C   0  0  0  0  0
   45.9940    2.5720   83.6190 C   0  0  0  0  0
   44.8910    1.9260   83.0960 C   0  0  0  0  0
   45.0280    1.0340   82.0710 C   0  0  0  0  0
   46.2310    0.7630   81.5450 N   0  0  0  0  0
   47.3560    1.3830   82.0340 N   0  0  0  0  0
   47.2490    2.2870   83.0730 C   0  0  0  0  0
   49.3510    2.1840   82.5590 C   0  0  0  0  0
   48.6820    1.3180   81.7040 C   0  0  0  0  0
   49.3380    0.4810   80.6560 C   0  0  0  0  0
   51.4190   -0.8480   76.4610 C   0  0  0  0  0
   51.2680   -2.8040   80.1940 C   0  0  0  0  0
   51.4320   -0.0870   75.1730 C   0  0  0  0  0
   50.7690    0.9430   75.2710 O   0  0  0  0  0
   52.2010   -0.6070   74.0160 N   0  0  0  0  0
   52.2440   -0.7680   71.5430 C   0  0  0  0  0
   52.3840    1.1350   70.0990 C   0  0  0  0  0
   52.3690    1.4290   72.5340 C   0  0  0  0  0
   52.5130    3.4640   71.0430 C   0  0  0  0  0
   53.7000    3.7550   70.5200 F   0  0  0  0  0
   52.3240    4.0730   72.2210 F   0  0  0  0  0
   51.5790    3.8680   70.2070 F   0  0  0  0  0
   52.2390   -0.1640   65.3700 C   0  0  0  0  0
   50.1580   -0.5850   64.1430 C   0  0  0  0  0
   50.7780   -0.0840   65.3240 N   0  3  0  0  0
   52.1342   -0.2673   68.0935 H   0  0  0  0  0
   52.4701   -3.6612   77.9603 H   0  0  0  0  0
   52.5575   -2.5320   75.7518 H   0  0  0  0  0
   50.2562    0.7580   77.3443 H   0  0  0  0  0
   52.2715   -0.8703   69.3901 H   0  0  0  0  0
   51.7859    2.4977   68.5890 H   0  0  0  0  0
   53.4908    1.8701   68.4469 H   0  0  0  0  0
   50.3563    1.7212   67.0401 H   0  0  0  0  0
   50.0773    0.6142   68.4422 H   0  0  0  0  0
   49.0136   -0.2439   66.4243 H   0  0  0  0  0
   50.2965   -1.2971   66.9506 H   0  0  0  0  0
   53.7825    0.0419   66.8156 H   0  0  0  0  0
   53.0897    1.6006   66.1930 H   0  0  0  0  0
   45.8887    3.2855   84.4363 H   0  0  0  0  0
   43.9016    2.1301   83.5053 H   0  0  0  0  0
   44.1445    0.5341   81.6739 H   0  0  0  0  0
   50.4245    2.3727   82.5701 H   0  0  0  0  0
   51.7321   -2.1777   80.9559 H   0  0  0  0  0
   50.2316   -3.0027   80.4670 H   0  0  0  0  0
   51.8113   -3.7457   80.1155 H   0  0  0  0  0
   52.7176   -1.4758   74.1525 H   0  0  0  0  0
   52.1690   -1.8501   71.6507 H   0  0  0  0  0
   52.3909    2.0791   73.4086 H   0  0  0  0  0
   52.4947   -1.2165   65.4923 H   0  0  0  0  0
   52.6101    0.2927   64.4525 H   0  0  0  0  0
   50.0395   -1.6653   64.2267 H   0  0  0  0  0
   49.1800   -0.1192   64.0220 H   0  0  0  0  0
   50.7819   -0.3524   63.2800 H   0  0  0  0  0
   50.6283    0.9178   65.2041 H   0  0  0  0  0
  1 21  4  0  0  0
 22  1  4  0  0  0
 12  2  1  0  0  0
  2 13  1  0  0  0
  2 15  1  0  0  0
  4  3  1  0  0  0
  3 24  3  0  0  0
  4  5  4  0  0  0
  8  4  4  0  0  0
  6  5  4  0  0  0
  5 26  1  0  0  0
  7  6  4  0  0  0
 25  7  4  0  0  0
 25  8  4  0  0  0
 29  9  1  0  0  0
  9 30  4  0  0  0
  9 32  4  0  0  0
 30 10  4  0  0  0
 10 31  4  0  0  0
 11 31  4  0  0  0
 32 11  4  0  0  0
 11 33  1  0  0  0
 31 12  1  0  0  0
 13 14  1  0  0  0
 14 39  1  0  0  0
 15 37  1  0  0  0
 16 17  4  0  0  0
 21 16  4  0  0  0
 18 17  4  0  0  0
 19 18  4  0  0  0
 20 19  4  0  0  0
 20 21  4  0  0  0
 23 20  4  0  0  0
 23 22  4  0  0  0
 24 23  1  0  0  0
 27 25  1  0  0  0
 27 28  2  0  0  0
 27 29  1  0  0  0
 33 34  1  0  0  0
 33 35  1  0  0  0
 33 36  1  0  0  0
 37 39  1  0  0  0
 39 38  1  0  0  0
  2 40  1  0  0  0
  6 41  1  0  0  0
  7 42  1  0  0  0
  8 43  1  0  0  0
 10 44  1  0  0  0
 12 45  1  0  0  0
 12 46  1  0  0  0
 13 47  1  0  0  0
 13 48  1  0  0  0
 14 49  1  0  0  0
 14 50  1  0  0  0
 15 51  1  0  0  0
 15 52  1  0  0  0
 16 53  1  0  0  0
 17 54  1  0  0  0
 18 55  1  0  0  0
 22 56  1  0  0  0
 26 57  1  0  0  0
 26 58  1  0  0  0
 26 59  1  0  0  0
 29 60  1  0  0  0
 30 61  1  0  0  0
 32 62  1  0  0  0
 37 63  1  0  0  0
 37 64  1  0  0  0
 38 65  1  0  0  0
 38 66  1  0  0  0
 38 67  1  0  0  0
 39 68  1  0  0  0
M  END
$$$$
