5olb_ligand
  -I-interpret- 

 54 57  0  0  0  0  0  0  0  0999 V2000
   28.1420   30.1190   26.9620 C   0  0  0  0  0
   27.6100   26.6720   24.4370 C   0  0  0  0  0
   27.9620   28.9150   26.0810 C   0  0  0  0  0
   26.6850   27.0040   25.4070 C   0  0  0  0  0
   28.7160   27.4890   24.3080 C   0  0  0  0  0
   26.8400   28.1060   26.2220 C   0  0  0  0  0
   28.9040   28.6020   25.1070 C   0  0  0  0  0
   18.2170   39.4550   20.2490 O   0  0  0  0  0
   19.0770   38.8910   21.0860 C   0  0  0  0  0
   18.5990   38.5100   22.3080 O   0  0  0  0  0
   19.6800   37.9440   22.9520 C   0  0  0  0  0
   19.7490   37.4280   24.2280 C   0  0  0  0  0
   20.3770   38.6150   20.9150 N   0  0  0  0  0
   20.7740   38.0330   22.1190 C   0  0  0  0  0
   22.0080   37.5470   22.5540 C   0  0  0  0  0
   22.0960   36.9910   23.8240 C   0  0  0  0  0
   20.9760   36.9320   24.6720 C   0  0  0  0  0
   21.0570   36.3290   26.0350 C   0  0  0  0  0
   20.0680   36.2600   26.7470 O   0  0  0  0  0
   22.3700   35.7410   26.4990 C   0  0  0  0  0
   22.1720   34.8750   27.7270 C   0  0  0  0  0
   23.2720   33.8740   27.9710 N   0  3  0  0  0
   24.4770   34.3870   28.6900 C   0  0  0  0  0
   25.1790   33.1810   29.3170 C   0  0  0  0  0
   23.6710   32.9780   26.8400 C   0  0  0  0  0
   24.3870   31.7660   27.4490 C   0  0  0  0  0
   25.5220   32.1780   28.2950 N   0  0  0  0  0
   26.7600   31.6380   28.2130 C   0  0  0  0  0
   27.6770   31.9490   28.9350 O   0  0  0  0  0
   26.8430   30.7330   27.2150 O   0  0  0  0  0
   25.2680   26.0140   25.5950 Cl  0  0  0  0  0
   29.8940   27.1220   23.0820 Cl  0  0  0  0  0
   28.7942   30.8382   26.4666 H   0  0  0  0  0
   28.5909   29.8143   27.9074 H   0  0  0  0  0
   27.4727   25.7995   23.7983 H   0  0  0  0  0
   26.0862   28.3416   26.9733 H   0  0  0  0  0
   29.7850   29.2300   24.9742 H   0  0  0  0  0
   18.8702   37.4077   24.8725 H   0  0  0  0  0
   20.9487   38.7911   20.0889 H   0  0  0  0  0
   22.8855   37.6026   21.9098 H   0  0  0  0  0
   23.0503   36.5934   24.1693 H   0  0  0  0  0
   23.0490   36.5557   26.7508 H   0  0  0  0  0
   22.7802   35.1251   25.6986 H   0  0  0  0  0
   21.2539   34.3082   27.5725 H   0  0  0  0  0
   22.1522   35.5429   28.5881 H   0  0  0  0  0
   22.7642   33.2689   28.6163 H   0  0  0  0  0
   24.1885   35.1046   29.4580 H   0  0  0  0  0
   25.1445   34.9029   27.9998 H   0  0  0  0  0
   24.5064   32.7240   30.0428 H   0  0  0  0  0
   26.0979   33.5212   29.7945 H   0  0  0  0  0
   24.3293   33.5041   26.1486 H   0  0  0  0  0
   22.7944   32.6609   26.2751 H   0  0  0  0  0
   24.7683   31.1464   26.6373 H   0  0  0  0  0
   23.6754   31.2196   28.0680 H   0  0  0  0  0
  1  3  1  0  0  0
 30  1  1  0  0  0
  4  2  4  0  0  0
  5  2  4  0  0  0
  3  6  4  0  0  0
  3  7  4  0  0  0
  6  4  4  0  0  0
  4 31  1  0  0  0
  7  5  4  0  0  0
  5 32  1  0  0  0
  9  8  2  0  0  0
 10  9  1  0  0  0
 13  9  1  0  0  0
 11 10  1  0  0  0
 12 11  4  0  0  0
 11 14  4  0  0  0
 17 12  4  0  0  0
 14 13  1  0  0  0
 15 14  4  0  0  0
 16 15  4  0  0  0
 17 16  4  0  0  0
 18 17  1  0  0  0
 18 19  2  0  0  0
 20 18  1  0  0  0
 21 20  1  0  0  0
 22 21  1  0  0  0
 23 22  1  0  0  0
 25 22  1  0  0  0
 24 23  1  0  0  0
 27 24  1  0  0  0
 26 25  1  0  0  0
 27 26  1  0  0  0
 28 27  1  0  0  0
 28 29  2  0  0  0
 28 30  1  0  0  0
  1 33  1  0  0  0
  1 34  1  0  0  0
  2 35  1  0  0  0
  6 36  1  0  0  0
  7 37  1  0  0  0
 12 38  1  0  0  0
 13 39  1  0  0  0
 15 40  1  0  0  0
 16 41  1  0  0  0
 20 42  1  0  0  0
 20 43  1  0  0  0
 21 44  1  0  0  0
 21 45  1  0  0  0
 22 46  1  0  0  0
 23 47  1  0  0  0
 23 48  1  0  0  0
 24 49  1  0  0  0
 24 50  1  0  0  0
 25 51  1  0  0  0
 25 52  1  0  0  0
 26 53  1  0  0  0
 26 54  1  0  0  0
M  END
$$$$
