3suw_ligand
  -I-interpret- 

 35 36  0  0  0  0  0  0  0  0999 V2000
   33.2480   19.8410  -15.7720 O   0  0  0  0  0
   33.1730   19.5670  -16.9790 C   0  0  0  0  0
   32.0320   20.1210  -17.8330 C   0  0  0  0  0
   34.0240   18.7900  -17.6570 N   0  0  0  0  0
   35.2240   18.1370  -17.0710 C   0  0  0  0  0
   34.8470   16.9430  -16.1580 C   0  0  0  0  0
   34.3320   15.8820  -16.9380 O   0  0  0  0  0
   36.0380   16.3970  -15.3160 C   0  0  0  0  0
   35.5190   15.6520  -14.2210 O   0  0  0  0  0
   36.1330   19.1680  -16.3460 C   0  0  0  0  0
   37.3200   18.4010  -15.8570 N   0  3  0  0  0
   36.9060   17.5080  -14.7560 C   0  0  0  0  0
   38.4090   19.1990  -15.2600 C   0  0  0  0  0
   39.2370   18.1000  -14.5660 C   0  0  0  0  0
   38.2240   17.0150  -14.1400 C   0  0  0  0  0
   38.5830   15.7220  -14.6760 O   0  0  0  0  0
   31.0789   19.7779  -17.4305 H   0  0  0  0  0
   32.0637   21.2104  -17.8168 H   0  0  0  0  0
   32.1429   19.7682  -18.8583 H   0  0  0  0  0
   33.8364   18.6341  -18.6474 H   0  0  0  0  0
   35.8043   17.7229  -17.8955 H   0  0  0  0  0
   34.1006   17.3261  -15.4622 H   0  0  0  0  0
   33.5956   16.2015  -17.4644 H   0  0  0  0  0
   36.6513   15.7817  -15.9743 H   0  0  0  0  0
   34.9651   14.9415  -14.5527 H   0  0  0  0  0
   35.6058   19.6469  -15.5209 H   0  0  0  0  0
   36.4326   19.9714  -17.0190 H   0  0  0  0  0
   37.6645   17.9413  -16.6999 H   0  0  0  0  0
   36.2983   17.9896  -13.9899 H   0  0  0  0  0
   38.0619   19.9809  -14.5845 H   0  0  0  0  0
   38.9745   19.7837  -15.9856 H   0  0  0  0  0
   39.7791   18.4952  -13.7069 H   0  0  0  0  0
   39.9955   17.6933  -15.2349 H   0  0  0  0  0
   38.1761   16.8822  -13.0592 H   0  0  0  0  0
   39.4076   15.4305  -14.2803 H   0  0  0  0  0
  1  2  2  0  0  0
  2  3  1  0  0  0
  2  4  1  0  0  0
  4  5  1  0  0  0
  5  6  1  0  0  0
  5 10  1  0  0  0
  6  7  1  0  0  0
  6  8  1  0  0  0
  8  9  1  0  0  0
  8 12  1  0  0  0
 10 11  1  0  0  0
 11 12  1  0  0  0
 11 13  1  0  0  0
 12 15  1  0  0  0
 13 14  1  0  0  0
 14 15  1  0  0  0
 15 16  1  0  0  0
  3 17  1  0  0  0
  3 18  1  0  0  0
  3 19  1  0  0  0
  4 20  1  0  0  0
  5 21  1  0  0  0
  6 22  1  0  0  0
  7 23  1  0  0  0
  8 24  1  0  0  0
  9 25  1  0  0  0
 10 26  1  0  0  0
 10 27  1  0  0  0
 11 28  1  0  0  0
 12 29  1  0  0  0
 13 30  1  0  0  0
 13 31  1  0  0  0
 14 32  1  0  0  0
 14 33  1  0  0  0
 15 34  1  0  0  0
 16 35  1  0  0  0
M  END
$$$$
