4btb_ligand
  -I-interpret- 

130138  0  0  0  0  0  0  0  0999 V2000
   84.5970   53.8960   59.5350 N   0  3  0  0  0
   83.8740   54.5350   58.4350 C   0  0  0  0  0
   82.7600   55.4210   58.9910 C   0  0  0  0  0
   82.4330   55.3060   60.1750 O   0  0  0  0  0
   83.2900   53.3370   57.6850 C   0  0  0  0  0
   83.0150   52.3480   58.7600 C   0  0  0  0  0
   84.0810   52.5420   59.8110 C   0  0  0  0  0
   82.1820   56.2990   58.1540 N   0  0  0  0  0
   81.1050   57.1690   58.6320 C   0  0  0  0  0
   79.8540   56.3500   58.8830 C   0  0  0  0  0
   79.8550   55.1560   58.5870 O   0  0  0  0  0
   80.8640   58.0910   57.4360 C   0  0  0  0  0
   81.2410   57.2620   56.2640 C   0  0  0  0  0
   82.4400   56.4960   56.7160 C   0  0  0  0  0
   78.7930   56.9760   59.4170 N   0  0  0  0  0
   77.5250   56.2460   59.4450 C   0  0  0  0  0
   77.0200   56.0380   58.0290 C   0  0  0  0  0
   77.5320   56.6700   57.1040 O   0  0  0  0  0
   76.5810   57.1980   60.1980 C   0  0  0  0  0
   77.2230   58.5420   60.1030 C   0  0  0  0  0
   78.6950   58.2880   60.0790 C   0  0  0  0  0
   76.0330   55.1470   57.8570 N   0  0  0  0  0
   75.3490   55.0410   56.5640 C   0  0  0  0  0
   74.7000   56.3710   56.2010 C   0  0  0  0  0
   74.3430   57.1290   57.0970 O   0  0  0  0  0
   74.2620   53.9890   56.8300 C   0  0  0  0  0
   74.8200   53.1490   57.9590 C   0  0  0  0  0
   75.5960   54.1140   58.8170 C   0  0  0  0  0
   74.5320   56.6480   54.8980 N   0  0  0  0  0
   73.8860   57.8800   54.4280 C   0  0  0  0  0
   72.4820   58.0780   55.0040 C   0  0  0  0  0
   71.8850   57.1070   55.4730 O   0  0  0  0  0
   73.8090   57.6780   52.9060 C   0  0  0  0  0
   74.0420   56.2080   52.6820 C   0  0  0  0  0
   74.9490   55.7820   53.7820 C   0  0  0  0  0
   71.9680   59.3240   54.9790 N   0  0  0  0  0
   70.6210   59.6280   55.4770 C   0  0  0  0  0
   69.5730   58.6710   54.9400 C   0  0  0  0  0
   69.4440   58.5190   53.7290 O   0  0  0  0  0
   70.3740   61.0410   54.9600 C   0  0  0  0  0
   71.7390   61.6570   54.9230 C   0  0  0  0  0
   72.6800   60.5400   54.5430 C   0  0  0  0  0
   68.8520   57.9950   55.8420 N   0  0  0  0  0
   67.8080   57.0860   55.3810 C   0  0  0  0  0
   66.4910   57.8420   55.2150 C   0  0  0  0  0
   66.3040   58.9150   55.7940 O   0  0  0  0  0
   67.7160   56.0750   56.5250 C   0  0  0  0  0
   68.0030   56.9050   57.7460 C   0  0  0  0  0
   69.0400   57.9290   57.3040 C   0  0  0  0  0
   65.5720   57.2750   54.4300 N   0  0  0  0  0
   64.2450   57.8650   54.2900 C   0  0  0  0  0
   63.4790   57.7420   55.6000 C   0  0  0  0  0
   63.4140   56.6460   56.1630 O   0  0  0  0  0
   63.6030   56.9940   53.2060 C   0  0  0  0  0
   64.2840   55.6870   53.3150 C   0  0  0  0  0
   65.7000   56.0070   53.6910 C   0  0  0  0  0
   62.9280   58.8600   56.1040 N   0  0  0  0  0
   62.1260   58.7910   57.3280 C   0  0  0  0  0
   60.8930   57.9320   57.0890 C   0  0  0  0  0
   60.4170   57.8610   55.9520 O   0  0  0  0  0
   61.7060   60.2490   57.5610 C   0  0  0  0  0
   62.7080   61.0570   56.8370 C   0  0  0  0  0
   63.1310   60.2440   55.6490 C   0  0  0  0  0
   60.3530   57.3050   58.0060 O   0  0  0  0  0
   84.4752   54.4641   60.3734 H   0  0  0  0  0
   85.5796   53.8188   59.2726 H   0  0  0  0  0
   84.4926   55.1771   57.8080 H   0  0  0  0  0
   83.9706   52.9489   56.9272 H   0  0  0  0  0
   82.3948   53.5965   57.1199 H   0  0  0  0  0
   83.0371   51.3314   58.3674 H   0  0  0  0  0
   82.0215   52.4993   59.1820 H   0  0  0  0  0
   83.6909   52.4428   60.8240 H   0  0  0  0  0
   84.8595   51.7807   59.7609 H   0  0  0  0  0
   81.3479   57.6906   59.5578 H   0  0  0  0  0
   81.4472   59.0098   57.4977 H   0  0  0  0  0
   79.8322   58.4382   57.3825 H   0  0  0  0  0
   81.4533   57.8707   55.3851 H   0  0  0  0  0
   80.4301   56.6037   55.9522 H   0  0  0  0  0
   82.5707   55.5577   56.1770 H   0  0  0  0  0
   83.3754   57.0207   56.5218 H   0  0  0  0  0
   77.6054   55.2628   59.9085 H   0  0  0  0  0
   76.4431   56.8907   61.2346 H   0  0  0  0  0
   75.5809   57.1986   59.7645 H   0  0  0  0  0
   76.9433   59.1758   60.9445 H   0  0  0  0  0
   76.8976   59.0750   59.2096 H   0  0  0  0  0
   79.2501   59.0674   59.5570 H   0  0  0  0  0
   79.1414   58.2942   61.0734 H   0  0  0  0  0
   76.0186   54.7799   55.7445 H   0  0  0  0  0
   74.0441   53.3921   55.9444 H   0  0  0  0  0
   73.3067   54.4441   57.0915 H   0  0  0  0  0
   75.4510   52.3415   57.5877 H   0  0  0  0  0
   74.0294   52.6535   58.5225 H   0  0  0  0  0
   74.9994   54.5241   59.6318 H   0  0  0  0  0
   76.4314   53.6394   59.3317 H   0  0  0  0  0
   74.4414   58.7655   54.7371 H   0  0  0  0  0
   74.5508   58.2835   52.3851 H   0  0  0  0  0
   72.8439   57.9939   52.5099 H   0  0  0  0  0
   74.4811   56.0161   51.7030 H   0  0  0  0  0
   73.1073   55.6474   52.6930 H   0  0  0  0  0
   74.8671   54.7201   54.0139 H   0  0  0  0  0
   76.0039   55.8910   53.5300 H   0  0  0  0  0
   70.5528   59.5346   56.5608 H   0  0  0  0  0
   69.6859   61.5990   55.5951 H   0  0  0  0  0
   69.8923   61.0449   53.9822 H   0  0  0  0  0
   72.0057   62.0914   55.8865 H   0  0  0  0  0
   71.7859   62.4776   54.2071 H   0  0  0  0  0
   72.9072   60.5306   53.4770 H   0  0  0  0  0
   73.6585   60.6412   55.0124 H   0  0  0  0  0
   68.0169   56.6244   54.4159 H   0  0  0  0  0
   68.4136   55.2456   56.4085 H   0  0  0  0  0
   66.7448   55.5824   56.5719 H   0  0  0  0  0
   68.3708   56.2924   58.5691 H   0  0  0  0  0
   67.1010   57.3862   58.1241 H   0  0  0  0  0
   68.9064   58.8965   57.7879 H   0  0  0  0  0
   70.0547   57.6456   57.5838 H   0  0  0  0  0
   64.2578   58.9258   54.0397 H   0  0  0  0  0
   63.7209   57.4302   52.2140 H   0  0  0  0  0
   62.5260   56.9020   53.3461 H   0  0  0  0  0
   64.2340   55.1300   52.3794 H   0  0  0  0  0
   63.8070   55.0474   54.0577 H   0  0  0  0  0
   66.1666   55.2198   54.2832 H   0  0  0  0  0
   66.3573   56.0886   52.8254 H   0  0  0  0  0
   62.6639   58.3575   58.1711 H   0  0  0  0  0
   61.6786   60.4964   58.6222 H   0  0  0  0  0
   60.6957   60.4406   57.1996 H   0  0  0  0  0
   63.5602   61.2873   57.4764 H   0  0  0  0  0
   62.2880   62.0137   56.5263 H   0  0  0  0  0
   62.5604   60.4808   54.7510 H   0  0  0  0  0
   64.1594   60.4421   55.3468 H   0  0  0  0  0
   60.8331   57.4583   58.8231 H   0  0  0  0  0
  1  2  1  0  0  0
  1  7  1  0  0  0
  2  3  1  0  0  0
  2  5  1  0  0  0
  3  4  2  0  0  0
  3  8  1  0  0  0
  5  6  1  0  0  0
  6  7  1  0  0  0
  8  9  1  0  0  0
  8 14  1  0  0  0
  9 10  1  0  0  0
  9 12  1  0  0  0
 10 11  2  0  0  0
 10 15  1  0  0  0
 12 13  1  0  0  0
 13 14  1  0  0  0
 15 16  1  0  0  0
 15 21  1  0  0  0
 16 17  1  0  0  0
 16 19  1  0  0  0
 17 18  2  0  0  0
 17 22  1  0  0  0
 19 20  1  0  0  0
 20 21  1  0  0  0
 22 23  1  0  0  0
 22 28  1  0  0  0
 23 24  1  0  0  0
 23 26  1  0  0  0
 24 25  2  0  0  0
 24 29  1  0  0  0
 26 27  1  0  0  0
 27 28  1  0  0  0
 29 30  1  0  0  0
 29 35  1  0  0  0
 30 31  1  0  0  0
 30 33  1  0  0  0
 31 32  2  0  0  0
 31 36  1  0  0  0
 33 34  1  0  0  0
 34 35  1  0  0  0
 36 37  1  0  0  0
 36 42  1  0  0  0
 37 38  1  0  0  0
 37 40  1  0  0  0
 38 39  2  0  0  0
 38 43  1  0  0  0
 40 41  1  0  0  0
 41 42  1  0  0  0
 43 44  1  0  0  0
 43 49  1  0  0  0
 44 45  1  0  0  0
 44 47  1  0  0  0
 45 46  2  0  0  0
 45 50  1  0  0  0
 47 48  1  0  0  0
 48 49  1  0  0  0
 50 51  1  0  0  0
 50 56  1  0  0  0
 51 52  1  0  0  0
 51 54  1  0  0  0
 52 53  2  0  0  0
 52 57  1  0  0  0
 54 55  1  0  0  0
 55 56  1  0  0  0
 57 58  1  0  0  0
 57 63  1  0  0  0
 58 59  1  0  0  0
 58 61  1  0  0  0
 59 60  2  0  0  0
 59 64  1  0  0  0
 61 62  1  0  0  0
 62 63  1  0  0  0
  1 65  1  0  0  0
  1 66  1  0  0  0
  2 67  1  0  0  0
  5 68  1  0  0  0
  5 69  1  0  0  0
  6 70  1  0  0  0
  6 71  1  0  0  0
  7 72  1  0  0  0
  7 73  1  0  0  0
  9 74  1  0  0  0
 12 75  1  0  0  0
 12 76  1  0  0  0
 13 77  1  0  0  0
 13 78  1  0  0  0
 14 79  1  0  0  0
 14 80  1  0  0  0
 16 81  1  0  0  0
 19 82  1  0  0  0
 19 83  1  0  0  0
 20 84  1  0  0  0
 20 85  1  0  0  0
 21 86  1  0  0  0
 21 87  1  0  0  0
 23 88  1  0  0  0
 26 89  1  0  0  0
 26 90  1  0  0  0
 27 91  1  0  0  0
 27 92  1  0  0  0
 28 93  1  0  0  0
 28 94  1  0  0  0
 30 95  1  0  0  0
 33 96  1  0  0  0
 33 97  1  0  0  0
 34 98  1  0  0  0
 34 99  1  0  0  0
 35100  1  0  0  0
 35101  1  0  0  0
 37102  1  0  0  0
 40103  1  0  0  0
 40104  1  0  0  0
 41105  1  0  0  0
 41106  1  0  0  0
 42107  1  0  0  0
 42108  1  0  0  0
 44109  1  0  0  0
 47110  1  0  0  0
 47111  1  0  0  0
 48112  1  0  0  0
 48113  1  0  0  0
 49114  1  0  0  0
 49115  1  0  0  0
 51116  1  0  0  0
 54117  1  0  0  0
 54118  1  0  0  0
 55119  1  0  0  0
 55120  1  0  0  0
 56121  1  0  0  0
 56122  1  0  0  0
 58123  1  0  0  0
 61124  1  0  0  0
 61125  1  0  0  0
 62126  1  0  0  0
 62127  1  0  0  0
 63128  1  0  0  0
 63129  1  0  0  0
 64130  1  0  0  0
M  END
$$$$
