1xlx_ligand
  -I-interpret- 

 50 52  0  0  0  0  0  0  0  0999 V2000
    7.9420    4.6870   -6.5890 O   0  0  0  0  0
    7.5860    3.4940   -6.9050 C   0  0  0  0  0
    8.3870    2.5060   -6.9390 O   0  0  0  0  0
    6.1320    3.2870   -7.3190 C   0  0  0  0  0
    6.0640    2.7220   -8.7220 C   0  0  0  0  0
    4.6350    2.7440   -9.2690 C   0  0  0  0  0
    5.3430    2.3310   -6.4460 C   0  0  0  0  0
    3.8900    2.3100   -6.9890 C   0  0  0  0  0
    3.7010    1.8680   -8.4480 C   0  0  0  0  0
    4.1120    0.4820   -8.6500 C   0  0  0  0  0
    4.4000   -0.6190   -8.8760 N   0  0  0  0  0
    2.2530    1.8440   -8.9660 C   0  0  0  0  0
    1.1400    2.1900   -8.1900 C   0  0  0  0  0
   -0.1550    2.1250   -8.7190 C   0  0  0  0  0
   -0.4000    1.7080  -10.0480 C   0  0  0  0  0
   -1.6840    1.6250  -10.6010 O   0  0  0  0  0
   -2.8660    1.8650   -9.8090 C   0  0  0  0  0
    0.6990    1.3670  -10.8250 C   0  0  0  0  0
    2.0010    1.4220  -10.2850 C   0  0  0  0  0
    0.4640    0.9490  -12.1020 O   0  0  0  0  0
    1.6130    0.8440  -12.9960 C   0  0  0  0  0
    1.5100   -0.4340  -13.7600 C   0  0  0  0  0
    0.4070   -0.1240  -14.7200 C   0  0  0  0  0
    0.4930    1.3530  -14.9750 C   0  0  0  0  0
    1.6120    1.8690  -14.1020 C   0  0  0  0  0
    7.1793    5.2686   -6.6295 H   0  0  0  0  0
    5.6892    4.2788   -7.2281 H   0  0  0  0  0
    6.4062    1.6875   -8.6938 H   0  0  0  0  0
    6.6907    3.3341   -9.3707 H   0  0  0  0  0
    4.6534    2.3619  -10.2897 H   0  0  0  0  0
    4.2680    3.7695   -9.2263 H   0  0  0  0  0
    5.3602    2.6567   -5.4060 H   0  0  0  0  0
    5.7795    1.3327   -6.4769 H   0  0  0  0  0
    3.5380    3.3405   -6.9409 H   0  0  0  0  0
    3.3551    1.5784   -6.3834 H   0  0  0  0  0
    1.2836    2.5146   -7.1594 H   0  0  0  0  0
   -0.9989    2.4040   -8.0880 H   0  0  0  0  0
   -2.9031    1.1492   -8.9878 H   0  0  0  0  0
   -2.8338    2.8782   -9.4083 H   0  0  0  0  0
   -3.7509    1.7483  -10.4347 H   0  0  0  0  0
    2.8425    1.1270  -10.9119 H   0  0  0  0  0
    2.4856    0.9505  -12.3515 H   0  0  0  0  0
    1.3084   -1.3014  -13.1314 H   0  0  0  0  0
    2.4407   -0.7260  -14.2465 H   0  0  0  0  0
   -0.5649   -0.4008  -14.3115 H   0  0  0  0  0
    0.5121   -0.6935  -15.6434 H   0  0  0  0  0
   -0.4491    1.8474  -14.7381 H   0  0  0  0  0
    0.6899    1.5585  -16.0272 H   0  0  0  0  0
    2.5674    1.9599  -14.6188 H   0  0  0  0  0
    1.4636    2.8914  -13.7545 H   0  0  0  0  0
  1  2  1  0  0  0
  2  3  2  0  0  0
  2  4  1  0  0  0
  4  5  1  0  0  0
  4  7  1  0  0  0
  5  6  1  0  0  0
  6  9  1  0  0  0
  7  8  1  0  0  0
  8  9  1  0  0  0
  9 10  1  0  0  0
  9 12  1  0  0  0
 10 11  3  0  0  0
 12 13  4  0  0  0
 12 19  4  0  0  0
 13 14  4  0  0  0
 14 15  4  0  0  0
 15 16  1  0  0  0
 15 18  4  0  0  0
 16 17  1  0  0  0
 18 19  4  0  0  0
 18 20  1  0  0  0
 20 21  1  0  0  0
 21 22  1  0  0  0
 21 25  1  0  0  0
 22 23  1  0  0  0
 23 24  1  0  0  0
 24 25  1  0  0  0
  1 26  1  0  0  0
  4 27  1  0  0  0
  5 28  1  0  0  0
  5 29  1  0  0  0
  6 30  1  0  0  0
  6 31  1  0  0  0
  7 32  1  0  0  0
  7 33  1  0  0  0
  8 34  1  0  0  0
  8 35  1  0  0  0
 13 36  1  0  0  0
 14 37  1  0  0  0
 17 38  1  0  0  0
 17 39  1  0  0  0
 17 40  1  0  0  0
 19 41  1  0  0  0
 21 42  1  0  0  0
 22 43  1  0  0  0
 22 44  1  0  0  0
 23 45  1  0  0  0
 23 46  1  0  0  0
 24 47  1  0  0  0
 24 48  1  0  0  0
 25 49  1  0  0  0
 25 50  1  0  0  0
M  END
$$$$
