2wtd_ligand
  -I-interpret- 

 40 43  0  0  0  0  0  0  0  0999 V2000
   35.0780  -32.2010   13.7160 N   0  0  0  0  0
   34.7610  -33.3720   12.9210 C   0  0  0  0  0
   34.1590  -34.2680   13.4260 O   0  0  0  0  0
   35.3420  -33.4650   11.5030 C   0  0  0  0  0
   35.4800  -32.2950   10.7350 C   0  0  0  0  0
   36.0680  -32.3520    9.4620 C   0  0  0  0  0
   36.5260  -33.5750    8.9420 C   0  0  0  0  0
   37.1160  -33.6110    7.6770 C   0  0  0  0  0
   37.9900  -32.6180    7.2970 C   0  0  0  0  0
   38.5700  -32.6180    6.0460 C   0  0  0  0  0
   39.4010  -31.5680    5.6530 C   0  0  0  0  0
   39.4190  -30.3950    6.4270 C   0  0  0  0  0
   40.2070  -29.2970    6.0520 C   0  0  0  0  0
   40.9470  -29.3520    4.8650 C   0  0  0  0  0
   40.9030  -30.4980    4.0580 C   0  0  0  0  0
   41.5400  -30.8100    2.8090 O   0  0  0  0  0
   40.9790  -32.0580    2.3890 C   0  0  0  0  0
   40.2450  -32.5520    3.5190 O   0  0  0  0  0
   40.1150  -31.6030    4.4400 C   0  0  0  0  0
   38.2510  -33.6440    5.1490 C   0  0  0  0  0
   37.3750  -34.6300    5.5200 N   0  0  0  0  0
   36.7980  -34.6250    6.7620 C   0  0  0  0  0
   35.8640  -35.6770    7.1120 N   0  0  0  0  0
   36.3890  -34.7400    9.7150 C   0  0  0  0  0
   35.8010  -34.6870   10.9880 C   0  0  0  0  0
   34.7863  -32.1531   14.6922 H   0  0  0  0  0
   35.5926  -31.4254   13.2989 H   0  0  0  0  0
   35.1293  -31.3413   11.1295 H   0  0  0  0  0
   36.1703  -31.4411    8.8721 H   0  0  0  0  0
   38.2279  -31.8174    7.9974 H   0  0  0  0  0
   38.8124  -30.3378    7.3308 H   0  0  0  0  0
   40.2429  -28.4071    6.6804 H   0  0  0  0  0
   41.5595  -28.5011    4.5670 H   0  0  0  0  0
   41.7543  -32.7593    2.0804 H   0  0  0  0  0
   40.3339  -31.9320    1.5195 H   0  0  0  0  0
   38.6994  -33.6586    4.1556 H   0  0  0  0  0
   35.4284  -35.6862    8.0343 H   0  0  0  0  0
   35.6424  -36.4080    6.4360 H   0  0  0  0  0
   36.7425  -35.6934    9.3225 H   0  0  0  0  0
   35.7005  -35.5977   11.5785 H   0  0  0  0  0
  1  2  1  0  0  0
  2  3  2  0  0  0
  2  4  1  0  0  0
  4  5  4  0  0  0
  4 25  4  0  0  0
  5  6  4  0  0  0
  6  7  4  0  0  0
  7  8  1  0  0  0
  7 24  4  0  0  0
  8  9  4  0  0  0
  8 22  4  0  0  0
  9 10  4  0  0  0
 10 11  1  0  0  0
 10 20  4  0  0  0
 11 12  4  0  0  0
 11 19  4  0  0  0
 12 13  4  0  0  0
 13 14  4  0  0  0
 14 15  4  0  0  0
 15 16  1  0  0  0
 15 19  4  0  0  0
 16 17  1  0  0  0
 17 18  1  0  0  0
 18 19  1  0  0  0
 20 21  4  0  0  0
 21 22  4  0  0  0
 22 23  1  0  0  0
 24 25  4  0  0  0
  1 26  1  0  0  0
  1 27  1  0  0  0
  5 28  1  0  0  0
  6 29  1  0  0  0
  9 30  1  0  0  0
 12 31  1  0  0  0
 13 32  1  0  0  0
 14 33  1  0  0  0
 17 34  1  0  0  0
 17 35  1  0  0  0
 20 36  1  0  0  0
 23 37  1  0  0  0
 23 38  1  0  0  0
 24 39  1  0  0  0
 25 40  1  0  0  0
M  END
$$$$
