2wcx_ligand
  -I-interpret- 

 45 48  0  0  0  0  0  0  0  0999 V2000
   30.8760   14.9350    7.3790 C   0  0  0  0  0
   31.2790   16.1490    8.1720 C   0  0  0  0  0
   32.2210   15.7110    9.3530 C   0  0  0  0  0
   31.5720   14.6390   10.2300 C   0  0  0  0  0
   31.0080   13.4930    9.3910 C   0  0  0  0  0
   30.0150   14.0120    8.3390 C   0  0  0  0  0
   29.4940   12.8140    7.5280 C   0  0  0  0  0
   30.2940   12.0990    6.6360 C   0  0  0  0  0
   31.8620   11.9370    5.9650 S   0  0  0  0  0
   31.4210   10.6180    5.0130 C   0  0  0  0  0
   32.3840    9.8970    4.1100 C   0  0  0  0  0
   31.9800    8.9130    3.4810 O   0  0  0  0  0
   33.5430   10.2810    4.0740 O   0  0  0  0  0
   30.1570   10.2710    5.2030 C   0  0  0  0  0
   29.4990   11.0910    6.1070 C   0  0  0  0  0
   28.3060   11.2770    6.6700 N   0  0  0  0  0
   27.0970   10.5000    6.4880 C   0  0  0  0  0
   28.2320   12.2780    7.5110 C   0  0  0  0  0
   27.1190   12.6500    8.2400 C   0  0  0  0  0
   25.8700   12.8490    7.6540 C   0  0  0  0  0
   24.7450   13.2140    8.4470 C   0  0  0  0  0
   24.8410   13.4580    9.8560 C   0  0  0  0  0
   26.1240   13.2620   10.4180 C   0  0  0  0  0
   27.2360   12.8390    9.6240 C   0  0  0  0  0
   31.7562   14.4009    7.0210 H   0  0  0  0  0
   30.2957   15.2243    6.5028 H   0  0  0  0  0
   30.3893   16.6325    8.5756 H   0  0  0  0  0
   31.8077   16.8483    7.5243 H   0  0  0  0  0
   32.4222   16.5848    9.9727 H   0  0  0  0  0
   33.1351   15.2976    8.9267 H   0  0  0  0  0
   30.7524   15.0965   10.7840 H   0  0  0  0  0
   32.3314   14.2349   10.8994 H   0  0  0  0  0
   30.4853   12.8018   10.0522 H   0  0  0  0  0
   31.8327   12.9987    8.8775 H   0  0  0  0  0
   29.1725   14.5420    8.7833 H   0  0  0  0  0
   31.0433    8.7888    3.6505 H   0  0  0  0  0
   29.6829    9.4278    4.7006 H   0  0  0  0  0
   26.8055   10.5244    5.4380 H   0  0  0  0  0
   27.2799    9.4693    6.7917 H   0  0  0  0  0
   26.2991   10.9237    7.0978 H   0  0  0  0  0
   25.7532   12.7239    6.5775 H   0  0  0  0  0
   23.7730   13.3116    7.9636 H   0  0  0  0  0
   23.9849   13.7727   10.4529 H   0  0  0  0  0
   26.2692   13.4379   11.4839 H   0  0  0  0  0
   28.1968   12.6594   10.1064 H   0  0  0  0  0
  1  2  1  0  0  0
  1  6  1  0  0  0
  2  3  1  0  0  0
  3  4  1  0  0  0
  4  5  1  0  0  0
  5  6  1  0  0  0
  6  7  1  0  0  0
  7  8  4  0  0  0
  7 18  4  0  0  0
  8  9  4  0  0  0
  8 15  4  0  0  0
  9 10  4  0  0  0
 10 11  1  0  0  0
 10 14  4  0  0  0
 11 12  1  0  0  0
 11 13  2  0  0  0
 14 15  4  0  0  0
 15 16  4  0  0  0
 16 17  1  0  0  0
 16 18  4  0  0  0
 18 19  1  0  0  0
 19 20  4  0  0  0
 19 24  4  0  0  0
 20 21  4  0  0  0
 21 22  4  0  0  0
 22 23  4  0  0  0
 23 24  4  0  0  0
  1 25  1  0  0  0
  1 26  1  0  0  0
  2 27  1  0  0  0
  2 28  1  0  0  0
  3 29  1  0  0  0
  3 30  1  0  0  0
  4 31  1  0  0  0
  4 32  1  0  0  0
  5 33  1  0  0  0
  5 34  1  0  0  0
  6 35  1  0  0  0
 12 36  1  0  0  0
 14 37  1  0  0  0
 17 38  1  0  0  0
 17 39  1  0  0  0
 17 40  1  0  0  0
 20 41  1  0  0  0
 21 42  1  0  0  0
 22 43  1  0  0  0
 23 44  1  0  0  0
 24 45  1  0  0  0
M  END
$$$$
