4l8m_ligand
  -I-interpret- 

 73 78  0  0  0  0  0  0  0  0999 V2000
   -0.3600   -1.9840  -15.3160 O   0  0  0  0  0
   -2.2630    3.9170  -23.1320 O   0  0  0  0  0
   -4.7760   -1.7660  -14.9090 F   0  0  0  0  0
    0.1250   -5.5790  -11.9550 C   0  0  0  0  0
   -0.4490   -6.0690  -13.1220 C   0  0  0  0  0
    0.2770   -4.1970  -11.7910 C   0  0  0  0  0
   -0.8430   -5.1710  -14.1250 C   0  0  0  0  0
   -0.1340   -3.3120  -12.7910 C   0  0  0  0  0
   -4.2050   -0.6100  -18.2340 C   0  0  0  0  0
   -2.7660    1.1720  -20.2540 C   0  0  0  0  0
   -4.8220   -0.7840  -16.9920 C   0  0  0  0  0
   -1.6370    1.8610  -27.5150 C   0  0  0  0  0
   -0.8040    1.1750  -26.6400 C   0  0  0  0  0
   -2.6420    2.1230  -21.2760 C   0  0  0  0  0
   -2.3750   -2.0320  -17.5260 C   0  0  0  0  0
   -1.6390   -0.4590  -21.6510 C   0  0  0  0  0
   -2.6160    3.0980  -25.6650 C   0  0  0  0  0
   -6.2770    6.2770  -29.1130 C   0  0  0  0  0
   -5.8590    6.2330  -31.5280 C   0  0  0  0  0
   -3.1940    3.0350  -29.2430 C   0  0  0  0  0
   -6.0980    4.7560  -29.1580 C   0  0  0  0  0
   -5.4320    4.7580  -31.4790 C   0  0  0  0  0
   -4.5510    3.0420  -29.9630 C   0  0  0  0  0
   -0.0130    0.6940  -24.5250 C   0  0  0  0  0
   -2.4220   -3.0150  -15.3370 N   0  0  0  0  0
   -2.2890   -1.1490  -19.6030 N   0  0  0  0  0
   -5.5810    6.8960  -30.2340 O   0  0  0  0  0
   -3.3480    3.5000  -27.8810 O   0  0  0  0  0
   -0.8410   -0.1400  -23.7230 O   0  0  0  0  0
   -1.1180   -2.8900  -14.9500 C   0  0  0  0  0
   -1.9730    2.7710  -23.4390 C   0  0  0  0  0
   -2.9780   -1.2320  -18.4760 C   0  0  0  0  0
   -2.2600   -0.1210  -20.4560 C   0  0  0  0  0
   -4.2010   -1.5980  -16.0340 C   0  0  0  0  0
   -2.5370    2.8160  -27.0270 C   0  0  0  0  0
   -0.7040   -3.7960  -13.9610 C   0  0  0  0  0
   -0.8860    1.4680  -25.2750 C   0  0  0  0  0
   -2.9750   -2.2170  -16.2930 C   0  0  0  0  0
   -1.4970    0.4680  -22.6670 C   0  0  0  0  0
   -2.0020    1.7680  -22.4790 C   0  0  0  0  0
   -1.7710    2.4280  -24.7840 C   0  0  0  0  0
   -5.0170    4.4280  -30.1060 N   0  3  0  0  0
    0.4540   -6.2647  -11.1742 H   0  0  0  0  0
   -0.5917   -7.1412  -13.2566 H   0  0  0  0  0
    0.7202   -3.8077  -10.8744 H   0  0  0  0  0
   -1.2667   -5.5580  -15.0517 H   0  0  0  0  0
   -0.0068   -2.2384  -12.6523 H   0  0  0  0  0
   -4.6749    0.0028  -19.0033 H   0  0  0  0  0
   -3.2500    1.4338  -19.3131 H   0  0  0  0  0
   -5.7708   -0.2947  -16.7717 H   0  0  0  0  0
   -1.5897    1.6552  -28.5843 H   0  0  0  0  0
   -0.1031    0.4261  -27.0087 H   0  0  0  0  0
   -3.0379    3.1295  -21.1407 H   0  0  0  0  0
   -1.4251   -2.5185  -17.7476 H   0  0  0  0  0
   -1.2576   -1.4706  -21.7903 H   0  0  0  0  0
   -3.3298    3.8334  -25.2939 H   0  0  0  0  0
   -5.8629    6.6587  -28.1798 H   0  0  0  0  0
   -7.3390    6.5144  -29.1759 H   0  0  0  0  0
   -6.9287    6.2856  -31.7304 H   0  0  0  0  0
   -5.2969    6.7387  -32.3131 H   0  0  0  0  0
   -2.5070    3.6969  -29.7703 H   0  0  0  0  0
   -2.8021    2.0180  -29.2305 H   0  0  0  0  0
   -7.0265    4.2859  -29.4821 H   0  0  0  0  0
   -5.8412    4.3865  -28.1652 H   0  0  0  0  0
   -4.6017    4.5915  -32.1653 H   0  0  0  0  0
   -6.2667    4.1224  -31.7748 H   0  0  0  0  0
   -5.2755    2.4713  -29.3820 H   0  0  0  0  0
   -4.4436    2.5894  -30.9488 H   0  0  0  0  0
    0.6494    0.1072  -25.1614 H   0  0  0  0  0
    0.6450    1.3115  -23.9136 H   0  0  0  0  0
   -3.0010   -3.7294  -14.8957 H   0  0  0  0  0
   -1.7178   -1.9581  -19.8470 H   0  0  0  0  0
   -4.2063    5.0051  -29.8821 H   0  0  0  0  0
 30  1  2  0  0  0
 31  2  2  0  0  0
 34  3  1  0  0  0
  5  4  4  0  0  0
  6  4  4  0  0  0
  7  5  4  0  0  0
  8  6  4  0  0  0
 36  7  4  0  0  0
 36  8  4  0  0  0
  9 11  4  0  0  0
 32  9  4  0  0  0
 14 10  4  0  0  0
 10 33  4  0  0  0
 11 34  4  0  0  0
 13 12  4  0  0  0
 12 35  4  0  0  0
 37 13  4  0  0  0
 40 14  4  0  0  0
 32 15  4  0  0  0
 15 38  4  0  0  0
 33 16  4  0  0  0
 16 39  4  0  0  0
 35 17  4  0  0  0
 17 41  4  0  0  0
 21 18  1  0  0  0
 18 27  1  0  0  0
 22 19  1  0  0  0
 19 27  1  0  0  0
 20 23  1  0  0  0
 28 20  1  0  0  0
 42 21  1  0  0  0
 42 22  1  0  0  0
 23 42  1  0  0  0
 29 24  1  0  0  0
 24 37  1  0  0  0
 25 30  1  0  0  0
 38 25  1  0  0  0
 26 32  1  0  0  0
 33 26  1  0  0  0
 35 28  1  0  0  0
 39 29  1  0  0  0
 30 36  1  0  0  0
 31 40  1  0  0  0
 31 41  1  0  0  0
 34 38  4  0  0  0
 37 41  4  0  0  0
 39 40  4  0  0  0
  4 43  1  0  0  0
  5 44  1  0  0  0
  6 45  1  0  0  0
  7 46  1  0  0  0
  8 47  1  0  0  0
  9 48  1  0  0  0
 10 49  1  0  0  0
 11 50  1  0  0  0
 12 51  1  0  0  0
 13 52  1  0  0  0
 14 53  1  0  0  0
 15 54  1  0  0  0
 16 55  1  0  0  0
 17 56  1  0  0  0
 18 57  1  0  0  0
 18 58  1  0  0  0
 19 59  1  0  0  0
 19 60  1  0  0  0
 20 61  1  0  0  0
 20 62  1  0  0  0
 21 63  1  0  0  0
 21 64  1  0  0  0
 22 65  1  0  0  0
 22 66  1  0  0  0
 23 67  1  0  0  0
 23 68  1  0  0  0
 24 69  1  0  0  0
 24 70  1  0  0  0
 25 71  1  0  0  0
 26 72  1  0  0  0
 42 73  1  0  0  0
M  END
$$$$
