4jz1_ligand
  -I-interpret- 

 58 61  0  0  0  0  0  0  0  0999 V2000
   18.0270   63.9700   19.9250 O   0  0  0  0  0
   17.0260   64.4780   20.8280 S   0  0  0  0  0
   17.8590   65.2170   21.6980 O   0  0  0  0  0
   16.0120   65.6210   20.3290 C   0  0  0  0  0
   15.6010   66.5810   21.2650 C   0  0  0  0  0
   14.6950   67.5740   20.9300 C   0  0  0  0  0
   14.1860   67.6280   19.6500 C   0  0  0  0  0
   13.3020   68.6040   19.3380 F   0  0  0  0  0
   14.5760   66.6780   18.7090 C   0  0  0  0  0
   15.4830   65.6730   19.0520 C   0  0  0  0  0
   16.3450   63.9130   22.0590 N   0  0  0  0  0
   16.2450   63.7630   23.3500 C   0  0  0  0  0
   16.9020   62.7940   24.0230 C   0  0  0  0  0
   17.9420   62.1560   23.4230 O   0  0  0  0  0
   18.4810   61.0760   24.0730 C   0  0  0  0  0
   19.1510   61.2990   25.2650 C   0  0  0  0  0
   19.7110   60.2370   25.9480 C   0  0  0  0  0
   19.6220   58.9420   25.4450 C   0  0  0  0  0
   20.2500   57.8050   26.1890 C   0  0  0  0  0
   20.2100   56.6440   25.7050 N   0  0  0  0  0
   20.8750   58.0070   27.3400 N   0  0  0  0  0
   18.9430   58.7110   24.2470 C   0  0  0  0  0
   18.3680   59.7840   23.5640 C   0  0  0  0  0
   15.1050   64.3870   23.8740 C   0  0  0  0  0
   14.7270   64.1150   25.1570 C   0  0  0  0  0
   15.4560   63.1590   25.8360 C   0  0  0  0  0
   16.5170   62.5310   25.2780 N   0  0  0  0  0
   15.1830   62.8990   27.1360 O   0  0  0  0  0
   14.0480   62.4650   27.6800 C   0  0  0  0  0
   12.8760   62.3870   26.9460 C   0  0  0  0  0
   11.7540   61.9000   27.5700 C   0  0  0  0  0
   11.8360   61.5080   28.8940 C   0  0  0  0  0
   10.6220   60.9660   29.5410 C   0  0  0  0  0
   10.7580   60.0000   30.3380 N   0  0  0  0  0
    9.4350   61.4770   29.2390 N   0  0  0  0  0
   13.0130   61.5870   29.6230 C   0  0  0  0  0
   14.1460   62.0710   29.0050 C   0  0  0  0  0
   16.0029   66.5451   22.2776 H   0  0  0  0  0
   14.3864   68.3083   21.6741 H   0  0  0  0  0
   14.1705   66.7193   17.6981 H   0  0  0  0  0
   15.7747   64.9279   18.3118 H   0  0  0  0  0
   15.5645   63.3732   21.6852 H   0  0  0  0  0
   19.2360   62.3102   25.6629 H   0  0  0  0  0
   20.2281   60.4148   26.8909 H   0  0  0  0  0
   19.7509   56.4805   24.8090 H   0  0  0  0  0
   21.3173   57.2257   27.8242 H   0  0  0  0  0
   20.9138   58.9437   27.7417 H   0  0  0  0  0
   18.8625   57.6999   23.8479 H   0  0  0  0  0
   17.8302   59.6110   22.6318 H   0  0  0  0  0
   14.5270   65.0814   23.2642 H   0  0  0  0  0
   13.8874   64.6294   25.6245 H   0  0  0  0  0
   12.8452   62.7030   25.9033 H   0  0  0  0  0
   10.8109   61.8233   27.0290 H   0  0  0  0  0
   11.6851   59.6156   30.5200 H   0  0  0  0  0
    8.5904   61.0869   29.6573 H   0  0  0  0  0
    9.3673   62.2598   28.5886 H   0  0  0  0  0
   13.0417   61.2720   30.6661 H   0  0  0  0  0
   15.0915   62.1418   29.5428 H   0  0  0  0  0
  1  2  2  0  0  0
  2  3  2  0  0  0
  2  4  1  0  0  0
  2 11  1  0  0  0
  4  5  4  0  0  0
  4 10  4  0  0  0
  5  6  4  0  0  0
  6  7  4  0  0  0
  7  8  1  0  0  0
  7  9  4  0  0  0
  9 10  4  0  0  0
 11 12  1  0  0  0
 12 13  4  0  0  0
 12 24  4  0  0  0
 13 14  1  0  0  0
 13 27  4  0  0  0
 14 15  1  0  0  0
 15 16  4  0  0  0
 15 23  4  0  0  0
 16 17  4  0  0  0
 17 18  4  0  0  0
 18 19  1  0  0  0
 18 22  4  0  0  0
 19 20  2  0  0  0
 19 21  1  0  0  0
 22 23  4  0  0  0
 24 25  4  0  0  0
 25 26  4  0  0  0
 26 27  4  0  0  0
 26 28  1  0  0  0
 28 29  1  0  0  0
 29 30  4  0  0  0
 29 37  4  0  0  0
 30 31  4  0  0  0
 31 32  4  0  0  0
 32 33  1  0  0  0
 32 36  4  0  0  0
 33 34  2  0  0  0
 33 35  1  0  0  0
 36 37  4  0  0  0
  5 38  1  0  0  0
  6 39  1  0  0  0
  9 40  1  0  0  0
 10 41  1  0  0  0
 11 42  1  0  0  0
 16 43  1  0  0  0
 17 44  1  0  0  0
 20 45  1  0  0  0
 21 46  1  0  0  0
 21 47  1  0  0  0
 22 48  1  0  0  0
 23 49  1  0  0  0
 24 50  1  0  0  0
 25 51  1  0  0  0
 30 52  1  0  0  0
 31 53  1  0  0  0
 34 54  1  0  0  0
 35 55  1  0  0  0
 35 56  1  0  0  0
 36 57  1  0  0  0
 37 58  1  0  0  0
M  END
$$$$
