4o3c_ligand
  -I-interpret- 

 17 16  0  0  0  0  0  0  0  0999 V2000
  -13.6050    2.6420  -16.2500 N   0  3  0  0  0
  -14.5390    1.5110  -16.4460 C   0  0  0  0  0
  -14.7960    1.2870  -17.9190 C   0  0  0  0  0
  -13.9990    1.7780  -18.7350 O   0  0  0  0  0
  -15.8510    1.7070  -15.6690 C   0  0  0  0  0
  -16.1740    0.4870  -14.7880 C   0  0  0  0  0
  -16.8230   -0.4410  -15.2970 O   0  0  0  0  0
  -15.7420    0.4380  -13.6050 O   0  0  0  0  0
  -15.7760    0.6060  -18.2970 O   0  0  0  0  0
  -12.7508    2.4719  -16.7809 H   0  0  0  0  0
  -14.0432    3.5036  -16.5756 H   0  0  0  0  0
  -13.3794    2.7273  -15.2589 H   0  0  0  0  0
  -14.0668    0.6159  -16.0411 H   0  0  0  0  0
  -16.6607    1.8379  -16.3869 H   0  0  0  0  0
  -15.7428    2.5791  -15.0241 H   0  0  0  0  0
  -15.2690    1.2489  -13.4044 H   0  0  0  0  0
  -16.2750    0.3128  -17.5311 H   0  0  0  0  0
  1  2  1  0  0  0
  2  3  1  0  0  0
  2  5  1  0  0  0
  3  4  2  0  0  0
  3  9  1  0  0  0
  5  6  1  0  0  0
  6  7  2  0  0  0
  6  8  1  0  0  0
  1 10  1  0  0  0
  1 11  1  0  0  0
  1 12  1  0  0  0
  2 13  1  0  0  0
  5 14  1  0  0  0
  5 15  1  0  0  0
  8 16  1  0  0  0
  9 17  1  0  0  0
M  END
$$$$
