4tln_ligand
  -I-interpret- 

 25 24  0  0  0  0  0  0  0  0999 V2000
   52.9070   16.5460   -4.3540 N   0  3  0  0  0
   51.9980   17.6810   -4.7520 C   0  0  0  0  0
   52.5700   18.7580   -5.6730 C   0  0  0  0  0
   53.6330   18.7010   -6.3740 O   0  0  0  0  0
   52.0280   18.4720   -3.3480 C   0  0  0  0  0
   52.9200   17.7210   -2.3660 C   0  0  0  0  0
   54.2770   17.6690   -3.1420 C   0  0  0  0  0
   53.0310   18.2540   -0.9470 C   0  0  0  0  0
   51.8440   19.8300   -5.6540 N   0  0  0  0  0
   52.4760   20.7250   -6.4920 O   0  0  0  0  0
   53.0182   15.9085   -5.1425 H   0  0  0  0  0
   53.8176   16.9193   -4.0860 H   0  0  0  0  0
   52.4980   16.0450   -3.5652 H   0  0  0  0  0
   51.1031   17.2832   -5.2305 H   0  0  0  0  0
   51.0174   18.5392   -2.9452 H   0  0  0  0  0
   52.4211   19.4767   -3.5034 H   0  0  0  0  0
   52.4934   16.7491   -2.1180 H   0  0  0  0  0
   54.6940   18.6738   -3.2098 H   0  0  0  0  0
   54.9733   17.0203   -2.6106 H   0  0  0  0  0
   54.1060   17.2768   -4.1445 H   0  0  0  0  0
   53.7034   17.6169   -0.3725 H   0  0  0  0  0
   53.4241   19.2703   -0.9717 H   0  0  0  0  0
   52.0448   18.2557   -0.4827 H   0  0  0  0  0
   50.9831   19.9813   -5.1283 H   0  0  0  0  0
   51.9776   21.5451   -6.5168 H   0  0  0  0  0
  1  2  1  0  0  0
  2  3  1  0  0  0
  2  5  1  0  0  0
  3  4  2  0  0  0
  3  9  1  0  0  0
  5  6  1  0  0  0
  6  7  1  0  0  0
  6  8  1  0  0  0
  9 10  1  0  0  0
  1 11  1  0  0  0
  1 12  1  0  0  0
  1 13  1  0  0  0
  2 14  1  0  0  0
  5 15  1  0  0  0
  5 16  1  0  0  0
  6 17  1  0  0  0
  7 18  1  0  0  0
  7 19  1  0  0  0
  7 20  1  0  0  0
  8 21  1  0  0  0
  8 22  1  0  0  0
  8 23  1  0  0  0
  9 24  1  0  0  0
 10 25  1  0  0  0
M  END
$$$$
