1y3x_ligand
  -I-interpret- 

 66 70  0  0  0  0  0  0  0  0999 V2000
   -5.0170    9.5770   19.8370 N   0  0  0  0  0
   -3.7270    9.3500   19.6500 C   0  0  0  0  0
   -3.0410   10.3560   19.0290 N   0  0  0  0  0
   -3.1370    8.1210   20.0830 C   0  0  0  0  0
   -1.7680    7.8570   19.8580 C   0  0  0  0  0
   -1.2160    6.6560   20.2930 C   0  0  0  0  0
   -2.0090    5.6880   20.9520 C   0  0  0  0  0
   -1.3370    4.4500   21.4840 C   0  0  0  0  0
   -0.7630    4.4420   22.9150 C   0  0  0  0  0
   -0.4360    2.9350   23.1290 C   0  0  0  0  0
   -1.4120    2.2010   22.1670 C   0  0  0  0  0
   -2.1330    1.1340   23.0160 C   0  0  0  0  0
   -0.5110    1.5400   21.1020 C   0  0  0  0  0
   -2.2270    3.2530   21.4180 N   0  3  0  0  0
   -2.5370    2.8520   20.0400 C   0  0  0  0  0
   -0.7490    2.7330   24.6450 C   0  0  0  0  0
   -1.8100    3.6930   24.9060 N   0  0  0  0  0
   -2.7820    3.6560   26.0570 C   0  0  0  0  0
   -2.5730    4.7960   27.0540 C   0  0  0  0  0
   -3.5640    5.8110   27.2260 C   0  0  0  0  0
   -3.4700    6.8050   28.2200 C   0  0  0  0  0
   -2.3330    6.7840   29.0380 C   0  0  0  0  0
   -1.3350    5.8040   28.9060 C   0  0  0  0  0
   -1.4270    4.8030   27.9240 C   0  0  0  0  0
   -0.3070    5.9780   29.8440 O   0  0  0  0  0
   -0.7300    7.1530   30.5830 C   0  0  0  0  0
   -2.0080    7.6340   30.0670 O   0  0  0  0  0
   -1.8490    4.7090   23.9840 C   0  0  0  0  0
   -2.6300    5.6990   24.0180 O   0  0  0  0  0
    0.4760    2.8910   25.5700 C   0  0  0  0  0
    1.2450    1.5920   25.6870 C   0  0  0  0  0
   -3.3580    5.9540   21.1870 C   0  0  0  0  0
   -3.9250    7.1760   20.7470 C   0  0  0  0  0
   -5.5979    8.8732   20.2927 H   0  0  0  0  0
   -3.5281   11.2062   18.7457 H   0  0  0  0  0
   -2.0420   10.2565   18.8489 H   0  0  0  0  0
   -1.1462    8.5911   19.3456 H   0  0  0  0  0
   -0.1575    6.4585   20.1235 H   0  0  0  0  0
   -0.4826    4.4305   20.8075 H   0  0  0  0  0
    0.0385    5.1749   23.0074 H   0  0  0  0  0
    0.5728    2.5790   22.9203 H   0  0  0  0  0
   -1.3981    0.4441   23.4309 H   0  0  0  0  0
   -2.6740    1.6215   23.8270 H   0  0  0  0  0
   -2.8346    0.5850   22.3880 H   0  0  0  0  0
    0.0604    2.3096   20.5830 H   0  0  0  0  0
    0.1725    0.8436   21.5877 H   0  0  0  0  0
   -1.1320    1.0017   20.3859 H   0  0  0  0  0
   -3.1491    3.4139   21.8233 H   0  0  0  0  0
   -3.0413    3.6721   19.5290 H   0  0  0  0  0
   -1.6120    2.6101   19.5165 H   0  0  0  0  0
   -3.1870    1.9771   20.0550 H   0  0  0  0  0
   -1.0529    1.7097   24.8656 H   0  0  0  0  0
   -2.6294    2.7174   26.5898 H   0  0  0  0  0
   -3.7866    3.7550   25.6459 H   0  0  0  0  0
   -4.4277    5.8164   26.5612 H   0  0  0  0  0
   -4.2481    7.5576   28.3470 H   0  0  0  0  0
   -0.6471    4.0482   27.8236 H   0  0  0  0  0
    0.0197    7.9363   30.4709 H   0  0  0  0  0
   -0.8431    6.8932   31.6355 H   0  0  0  0  0
    0.1281    3.1799   26.5618 H   0  0  0  0  0
    1.1356    3.6489   25.1474 H   0  0  0  0  0
    0.5938    0.8217   26.1000 H   0  0  0  0  0
    1.5912    1.2860   24.6998 H   0  0  0  0  0
    2.1017    1.7365   26.3452 H   0  0  0  0  0
   -3.9754    5.2227   21.7086 H   0  0  0  0  0
   -4.9805    7.3801   20.9271 H   0  0  0  0  0
  1  2  2  0  0  0
  2  3  1  0  0  0
  2  4  1  0  0  0
  4  5  4  0  0  0
  4 33  4  0  0  0
  5  6  4  0  0  0
  6  7  4  0  0  0
  7  8  1  0  0  0
  7 32  4  0  0  0
  8  9  1  0  0  0
  8 14  1  0  0  0
  9 10  1  0  0  0
  9 28  1  0  0  0
 10 11  1  0  0  0
 10 16  1  0  0  0
 11 12  1  0  0  0
 11 13  1  0  0  0
 11 14  1  0  0  0
 14 15  1  0  0  0
 16 17  1  0  0  0
 16 30  1  0  0  0
 17 18  1  0  0  0
 17 28  1  0  0  0
 18 19  1  0  0  0
 19 20  4  0  0  0
 19 24  4  0  0  0
 20 21  4  0  0  0
 21 22  4  0  0  0
 22 23  4  0  0  0
 22 27  1  0  0  0
 23 24  4  0  0  0
 23 25  1  0  0  0
 25 26  1  0  0  0
 26 27  1  0  0  0
 28 29  2  0  0  0
 30 31  1  0  0  0
 32 33  4  0  0  0
  1 34  1  0  0  0
  3 35  1  0  0  0
  3 36  1  0  0  0
  5 37  1  0  0  0
  6 38  1  0  0  0
  8 39  1  0  0  0
  9 40  1  0  0  0
 10 41  1  0  0  0
 12 42  1  0  0  0
 12 43  1  0  0  0
 12 44  1  0  0  0
 13 45  1  0  0  0
 13 46  1  0  0  0
 13 47  1  0  0  0
 14 48  1  0  0  0
 15 49  1  0  0  0
 15 50  1  0  0  0
 15 51  1  0  0  0
 16 52  1  0  0  0
 18 53  1  0  0  0
 18 54  1  0  0  0
 20 55  1  0  0  0
 21 56  1  0  0  0
 24 57  1  0  0  0
 26 58  1  0  0  0
 26 59  1  0  0  0
 30 60  1  0  0  0
 30 61  1  0  0  0
 31 62  1  0  0  0
 31 63  1  0  0  0
 31 64  1  0  0  0
 32 65  1  0  0  0
 33 66  1  0  0  0
M  END
$$$$
