1vj5_ligand
  -I-interpret- 

 34 35  0  0  0  0  0  0  0  0999 V2000
   13.5790   10.6230  142.8130 C   0  0  0  0  0
   14.0880   10.8790  141.3560 C   0  0  0  0  0
   15.2020   11.9700  141.3250 C   0  0  0  0  0
   14.6830   13.3090  141.9410 C   0  0  0  0  0
   14.2110   13.0920  143.4170 C   0  0  0  0  0
   13.1240   11.9580  143.5160 C   0  0  0  0  0
   15.6320   12.1750  139.9280 N   0  0  0  0  0
   16.4570   11.3760  139.2540 C   0  0  0  0  0
   16.6090   10.2710  139.7650 O   0  0  0  0  0
   17.0770   11.7040  138.1310 N   0  0  0  0  0
   17.9780   10.9550  137.3190 C   0  0  0  0  0
   21.1070    8.3390  134.4770 I   0  0  0  0  0
   18.3260    9.6360  137.6510 C   0  0  0  0  0
   19.2730    8.8590  136.7900 C   0  0  0  0  0
   19.7880    9.4640  135.6590 C   0  0  0  0  0
   19.4350   10.8040  135.3180 C   0  0  0  0  0
   18.5250   11.5450  136.1460 C   0  0  0  0  0
   14.3966   10.1924  143.3912 H   0  0  0  0  0
   12.7215    9.9519  142.7637 H   0  0  0  0  0
   13.2488   11.2243  140.7521 H   0  0  0  0  0
   14.5032    9.9495  140.9664 H   0  0  0  0  0
   16.0503   11.6372  141.9231 H   0  0  0  0  0
   13.8393   13.6653  141.3499 H   0  0  0  0  0
   15.4934   14.0379  141.9336 H   0  0  0  0  0
   13.7728   14.0221  143.7790 H   0  0  0  0  0
   15.0732   12.7961  144.0146 H   0  0  0  0  0
   12.9579   11.7426  144.5715 H   0  0  0  0  0
   12.2226   12.3115  143.0153 H   0  0  0  0  0
   15.2684   12.9936  139.4401 H   0  0  0  0  0
   16.8776   12.6451  137.7919 H   0  0  0  0  0
   17.9032    9.1737  138.5430 H   0  0  0  0  0
   19.5505    7.8374  137.0497 H   0  0  0  0  0
   19.8575   11.2667  134.4261 H   0  0  0  0  0
   18.2522   12.5647  135.8741 H   0  0  0  0  0
  2  1  1  0  0  0
  1  6  1  0  0  0
  2  3  1  0  0  0
  3  4  1  0  0  0
  3  7  1  0  0  0
  4  5  1  0  0  0
  5  6  1  0  0  0
  7  8  1  0  0  0
  8  9  2  0  0  0
  8 10  1  0  0  0
 10 11  1  0  0  0
 11 13  4  0  0  0
 11 17  4  0  0  0
 13 14  4  0  0  0
 14 15  4  0  0  0
 15 16  4  0  0  0
 16 17  4  0  0  0
 15 12  1  0  0  0
  1 18  1  0  0  0
  1 19  1  0  0  0
  2 20  1  0  0  0
  2 21  1  0  0  0
  3 22  1  0  0  0
  4 23  1  0  0  0
  4 24  1  0  0  0
  5 25  1  0  0  0
  5 26  1  0  0  0
  6 27  1  0  0  0
  6 28  1  0  0  0
  7 29  1  0  0  0
 10 30  1  0  0  0
 13 31  1  0  0  0
 14 32  1  0  0  0
 16 33  1  0  0  0
 17 34  1  0  0  0
M  END
$$$$
