1w83_ligand
  -I-interpret- 

 52 55  0  0  0  0  0  0  0  0999 V2000
    5.9360    9.7580   30.3880 Cl  0  0  0  0  0
    6.0270   10.9370   31.6870 C   0  0  0  0  0
    7.2650   11.3930   32.1210 C   0  0  0  0  0
    7.3600   12.3370   33.1290 C   0  0  0  0  0
    4.8800   11.4350   32.3020 C   0  0  0  0  0
    3.5100   11.0280   31.8380 C   0  0  0  0  0
    3.1410    9.7200   32.2250 O   0  0  0  0  0
    2.0190    9.3160   31.5430 C   0  0  0  0  0
    1.3990    8.1140   31.9190 C   0  0  0  0  0
    0.3170    7.6850   31.2590 N   0  0  0  0  0
   -0.2180    8.3740   30.2380 C   0  0  0  0  0
    0.3440    9.5770   29.8220 C   0  0  0  0  0
    1.4810   10.0600   30.4730 C   0  0  0  0  0
    4.9760   12.3860   33.3080 C   0  0  0  0  0
    6.2190   12.8370   33.7480 C   0  0  0  0  0
    6.3540   13.8060   34.7580 N   0  0  0  0  0
    5.8060   13.8050   36.0020 C   0  0  0  0  0
    4.9370   13.0360   36.3450 O   0  0  0  0  0
    6.2420   14.7940   36.9970 C   0  0  0  0  0
    7.0430   15.8630   36.6020 C   0  0  0  0  0
    7.4410   16.7810   37.5590 C   0  0  0  0  0
    8.2070   17.8050   37.1740 F   0  0  0  0  0
    5.8630   14.6520   38.3310 C   0  0  0  0  0
    6.2740   15.5740   39.2960 C   0  0  0  0  0
    7.0590   16.6600   38.8930 C   0  0  0  0  0
    5.8450   15.4370   40.6340 N   0  0  0  0  0
    5.8530   14.0640   41.1580 C   0  0  0  0  0
    5.1010   14.0950   42.4990 C   0  0  0  0  0
    5.6780   15.0350   43.4180 O   0  0  0  0  0
    5.7780   16.3550   42.8800 C   0  0  0  0  0
    6.5230   16.3540   41.5590 C   0  0  0  0  0
    8.1733   11.0026   31.6621 H   0  0  0  0  0
    8.3416   12.6931   33.4417 H   0  0  0  0  0
    3.5149   11.0550   30.7483 H   0  0  0  0  0
    2.7959   11.7147   32.2925 H   0  0  0  0  0
    1.7988    7.5304   32.7482 H   0  0  0  0  0
   -1.1014    7.9870   29.7301 H   0  0  0  0  0
   -0.0982   10.1360   28.9973 H   0  0  0  0  0
    1.9443   10.9955   30.1596 H   0  0  0  0  0
    4.0679   12.7852   33.7597 H   0  0  0  0  0
    6.9366   14.6111   34.5282 H   0  0  0  0  0
    7.3498   15.9744   35.5620 H   0  0  0  0  0
    5.2371   13.8095   38.6250 H   0  0  0  0  0
    7.3706   17.4091   39.6209 H   0  0  0  0  0
    6.8740   13.7076   41.2947 H   0  0  0  0  0
    5.3710   13.3801   40.4594 H   0  0  0  0  0
    5.1595   13.1023   42.9454 H   0  0  0  0  0
    4.0714   14.3960   42.3054 H   0  0  0  0  0
    6.3249   16.9784   43.5873 H   0  0  0  0  0
    4.7719   16.7392   42.7117 H   0  0  0  0  0
    6.5335   17.3602   41.1401 H   0  0  0  0  0
    7.5512   16.0277   41.7151 H   0  0  0  0  0
  1  2  1  0  0  0
  2  3  4  0  0  0
  2  5  4  0  0  0
  3  4  4  0  0  0
  4 15  4  0  0  0
  5  6  1  0  0  0
  5 14  4  0  0  0
  6  7  1  0  0  0
  7  8  1  0  0  0
  8  9  4  0  0  0
  8 13  4  0  0  0
  9 10  4  0  0  0
 10 11  4  0  0  0
 11 12  4  0  0  0
 12 13  4  0  0  0
 14 15  4  0  0  0
 15 16  1  0  0  0
 16 17  1  0  0  0
 17 18  2  0  0  0
 17 19  1  0  0  0
 19 20  4  0  0  0
 19 23  4  0  0  0
 20 21  4  0  0  0
 21 22  1  0  0  0
 21 25  4  0  0  0
 23 24  4  0  0  0
 24 25  4  0  0  0
 24 26  1  0  0  0
 26 27  1  0  0  0
 26 31  1  0  0  0
 27 28  1  0  0  0
 28 29  1  0  0  0
 29 30  1  0  0  0
 30 31  1  0  0  0
  3 32  1  0  0  0
  4 33  1  0  0  0
  6 34  1  0  0  0
  6 35  1  0  0  0
  9 36  1  0  0  0
 11 37  1  0  0  0
 12 38  1  0  0  0
 13 39  1  0  0  0
 14 40  1  0  0  0
 16 41  1  0  0  0
 20 42  1  0  0  0
 23 43  1  0  0  0
 25 44  1  0  0  0
 27 45  1  0  0  0
 27 46  1  0  0  0
 28 47  1  0  0  0
 28 48  1  0  0  0
 30 49  1  0  0  0
 30 50  1  0  0  0
 31 51  1  0  0  0
 31 52  1  0  0  0
M  END
$$$$
