5i4o_ligand
  -I-interpret- 

 78 81  0  0  0  0  0  0  0  0999 V2000
  -16.8090  -10.8740   -1.4910 O   0  0  0  0  0
  -16.8440  -12.1080   -2.1460 S   0  0  0  0  0
  -17.6030  -13.0260   -1.3960 O   0  0  0  0  0
  -15.3620  -12.7120   -2.3380 C   0  0  0  0  0
  -15.1840  -14.0860   -2.4210 C   0  0  0  0  0
  -13.9230  -14.6410   -2.5730 C   0  0  0  0  0
  -12.8090  -13.8270   -2.6520 C   0  0  0  0  0
  -11.4800  -14.4570   -2.8010 C   0  0  0  0  0
  -10.4100  -13.9820   -2.0610 C   0  0  0  0  0
   -9.1570  -14.5830   -2.1770 C   0  0  0  0  0
   -8.9990  -15.6650   -3.0280 C   0  0  0  0  0
  -10.0700  -16.1510   -3.7560 C   0  0  0  0  0
  -11.3090  -15.5480   -3.6400 C   0  0  0  0  0
  -12.9660  -12.4560   -2.5610 C   0  0  0  0  0
  -14.2300  -11.9040   -2.4260 C   0  0  0  0  0
  -17.4330  -12.0000   -3.5340 N   0  0  0  0  0
  -17.0300  -10.9660   -4.4840 C   0  0  0  0  0
  -16.0030  -11.4400   -5.4970 C   0  0  0  0  0
  -16.1630  -12.4900   -6.1500 O   0  0  0  0  0
  -14.9770  -10.7580   -5.6730 O   0  0  0  0  0
  -18.2730  -10.3930   -5.1640 C   0  0  0  0  0
  -19.1710   -9.6580   -4.1780 C   0  0  0  0  0
  -17.9190   -9.4900   -6.3420 C   0  0  0  0  0
  -18.2800  -13.0500   -4.0980 C   0  0  0  0  0
  -19.7100  -13.3190   -3.6450 C   0  0  0  0  0
  -20.8360  -12.9160   -4.2740 N   0  0  0  0  0
  -21.9530  -13.3810   -3.5980 N   0  0  0  0  0
  -20.0990  -14.0820   -2.5580 C   0  0  0  0  0
  -21.4260  -14.0890   -2.5340 N   0  0  0  0  0
  -22.4250  -14.7270   -1.6390 C   0  0  0  0  0
  -22.5720  -16.2250   -1.9610 C   0  0  0  0  0
  -23.3510  -16.4390   -3.1530 N   0  0  0  0  0
  -22.7780  -16.5590   -4.3220 C   0  0  0  0  0
  -23.7110  -16.6430   -5.4850 C   0  0  0  0  0
  -21.5710  -16.5990   -4.4330 O   0  0  0  0  0
  -22.0010  -14.4800   -0.3050 O   0  0  0  0  0
  -22.8000  -15.1290    0.6550 C   0  0  0  0  0
  -22.4070  -14.6110    2.0130 C   0  0  0  0  0
  -23.1120  -13.3820    2.1310 O   0  0  0  0  0
  -22.6390  -16.6330    0.4880 C   0  0  0  0  0
  -23.3470  -17.3350    1.4980 O   0  0  0  0  0
  -23.2080  -17.0490   -0.8520 C   0  0  0  0  0
  -23.0010  -18.4450   -1.0870 O   0  0  0  0  0
  -16.0531  -14.7416   -2.3656 H   0  0  0  0  0
  -13.8096  -15.7236   -2.6304 H   0  0  0  0  0
  -10.5475  -13.1368   -1.3866 H   0  0  0  0  0
   -8.3103  -14.2053   -1.6039 H   0  0  0  0  0
   -8.0216  -16.1376   -3.1247 H   0  0  0  0  0
   -9.9378  -17.0062   -4.4187 H   0  0  0  0  0
  -12.1548  -15.9318   -4.2104 H   0  0  0  0  0
  -12.0914  -11.8064   -2.5956 H   0  0  0  0  0
  -14.3405  -10.8203   -2.3880 H   0  0  0  0  0
  -16.5268  -10.1798   -3.9212 H   0  0  0  0  0
  -16.9962  -12.8966   -5.9009 H   0  0  0  0  0
  -18.8283  -11.2457   -5.5546 H   0  0  0  0  0
  -19.4946  -10.3483   -3.3990 H   0  0  0  0  0
  -18.6167   -8.8343   -3.7280 H   0  0  0  0  0
  -20.0422   -9.2671   -4.7037 H   0  0  0  0  0
  -17.3101   -8.6574   -5.9898 H   0  0  0  0  0
  -17.3603  -10.0628   -7.0822 H   0  0  0  0  0
  -18.8346   -9.1070   -6.7926 H   0  0  0  0  0
  -17.7588  -13.9627   -3.8093 H   0  0  0  0  0
  -18.4098  -12.7276   -5.1311 H   0  0  0  0  0
  -19.4378  -14.5844   -1.8520 H   0  0  0  0  0
  -23.4202  -14.3065   -1.7831 H   0  0  0  0  0
  -21.5437  -16.5617   -2.0926 H   0  0  0  0  0
  -24.3670  -16.4980   -3.0842 H   0  0  0  0  0
  -23.5141  -15.8163   -6.1675 H   0  0  0  0  0
  -23.5579  -17.5890   -6.0044 H   0  0  0  0  0
  -24.7396  -16.5849   -5.1289 H   0  0  0  0  0
  -23.8626  -14.9207    0.5297 H   0  0  0  0  0
  -21.3292  -14.4793    2.1084 H   0  0  0  0  0
  -22.6598  -15.3099    2.8103 H   0  0  0  0  0
  -22.9141  -12.9811    2.9806 H   0  0  0  0  0
  -21.5773  -16.8700    0.5569 H   0  0  0  0  0
  -23.2303  -18.2794    1.3715 H   0  0  0  0  0
  -24.2826  -16.8667   -0.8424 H   0  0  0  0  0
  -23.4075  -18.9511   -0.3798 H   0  0  0  0  0
  1  2  2  0  0  0
  2  3  2  0  0  0
  2  4  1  0  0  0
  2 16  1  0  0  0
  4  5  4  0  0  0
  4 15  4  0  0  0
  5  6  4  0  0  0
  6  7  4  0  0  0
  7  8  1  0  0  0
  7 14  4  0  0  0
  8  9  4  0  0  0
  8 13  4  0  0  0
  9 10  4  0  0  0
 10 11  4  0  0  0
 11 12  4  0  0  0
 12 13  4  0  0  0
 14 15  4  0  0  0
 16 17  1  0  0  0
 16 24  1  0  0  0
 17 18  1  0  0  0
 17 21  1  0  0  0
 18 19  1  0  0  0
 18 20  2  0  0  0
 21 22  1  0  0  0
 21 23  1  0  0  0
 24 25  1  0  0  0
 25 26  4  0  0  0
 25 28  4  0  0  0
 26 27  4  0  0  0
 27 29  4  0  0  0
 28 29  4  0  0  0
 29 30  1  0  0  0
 30 31  1  0  0  0
 30 36  1  0  0  0
 31 32  1  0  0  0
 31 42  1  0  0  0
 32 33  1  0  0  0
 33 34  1  0  0  0
 33 35  2  0  0  0
 36 37  1  0  0  0
 37 38  1  0  0  0
 37 40  1  0  0  0
 38 39  1  0  0  0
 40 41  1  0  0  0
 40 42  1  0  0  0
 42 43  1  0  0  0
  5 44  1  0  0  0
  6 45  1  0  0  0
  9 46  1  0  0  0
 10 47  1  0  0  0
 11 48  1  0  0  0
 12 49  1  0  0  0
 13 50  1  0  0  0
 14 51  1  0  0  0
 15 52  1  0  0  0
 17 53  1  0  0  0
 19 54  1  0  0  0
 21 55  1  0  0  0
 22 56  1  0  0  0
 22 57  1  0  0  0
 22 58  1  0  0  0
 23 59  1  0  0  0
 23 60  1  0  0  0
 23 61  1  0  0  0
 24 62  1  0  0  0
 24 63  1  0  0  0
 28 64  1  0  0  0
 30 65  1  0  0  0
 31 66  1  0  0  0
 32 67  1  0  0  0
 34 68  1  0  0  0
 34 69  1  0  0  0
 34 70  1  0  0  0
 37 71  1  0  0  0
 38 72  1  0  0  0
 38 73  1  0  0  0
 39 74  1  0  0  0
 40 75  1  0  0  0
 41 76  1  0  0  0
 42 77  1  0  0  0
 43 78  1  0  0  0
M  END
$$$$
