2uxu_ligand
  -I-interpret- 

 32 34  0  0  0  0  0  0  0  0999 V2000
   16.2160   37.2890   -2.6910 C   0  0  0  0  0
   16.8820   38.5070   -2.5870 C   0  0  0  0  0
   18.0860   38.7190   -3.2650 C   0  0  0  0  0
   18.6430   37.7190   -4.0510 C   0  0  0  0  0
   17.9740   36.4840   -4.1730 C   0  0  0  0  0
   16.7560   36.2840   -3.4990 C   0  0  0  0  0
   18.4890   35.4430   -4.9600 C   0  0  0  0  0
   17.7150   34.1670   -5.2350 C   0  0  0  0  0
   16.2380   34.3870   -4.8910 C   0  0  0  0  0
   16.0920   35.0940   -3.5920 O   0  0  0  0  0
   19.6140   35.5480   -5.4620 O   0  0  0  0  0
   15.3220   33.1060   -4.9220 C   0  0  0  0  0
   15.9000   31.7140   -5.3040 C   0  0  0  0  0
   14.9220   30.7160   -5.2770 C   0  0  0  0  0
   13.5870   30.8890   -4.9720 C   0  0  0  0  0
   13.1180   32.1380   -4.6280 C   0  0  0  0  0
   13.9730   33.2390   -4.5980 C   0  0  0  0  0
   12.7430   29.8440   -4.9810 O   0  0  0  0  0
   16.3790   39.5000   -1.8170 O   0  0  0  0  0
   19.8370   37.9600   -4.6890 O   0  0  0  0  0
   15.2852   37.1210   -2.1493 H   0  0  0  0  0
   18.5930   39.6797   -3.1757 H   0  0  0  0  0
   18.1156   33.3582   -4.6239 H   0  0  0  0  0
   17.8091   33.9028   -6.2883 H   0  0  0  0  0
   15.8703   35.0098   -5.7065 H   0  0  0  0  0
   16.9442   31.5375   -5.5622 H   0  0  0  0  0
   15.2445   29.7036   -5.5202 H   0  0  0  0  0
   12.0654   32.2670   -4.3761 H   0  0  0  0  0
   13.5812   34.2167   -4.3174 H   0  0  0  0  0
   11.8616   30.1440   -4.7471 H   0  0  0  0  0
   16.9607   40.2625   -1.8598 H   0  0  0  0  0
   20.0934   37.1824   -5.1901 H   0  0  0  0  0
  1  2  4  0  0  0
  1  6  4  0  0  0
  2  3  4  0  0  0
  2 19  1  0  0  0
  3  4  4  0  0  0
  4  5  4  0  0  0
  4 20  1  0  0  0
  5  6  4  0  0  0
  5  7  1  0  0  0
  6 10  1  0  0  0
  7  8  1  0  0  0
  7 11  2  0  0  0
  8  9  1  0  0  0
  9 10  1  0  0  0
  9 12  1  0  0  0
 12 13  4  0  0  0
 12 17  4  0  0  0
 13 14  4  0  0  0
 14 15  4  0  0  0
 15 16  4  0  0  0
 15 18  1  0  0  0
 16 17  4  0  0  0
  1 21  1  0  0  0
  3 22  1  0  0  0
  8 23  1  0  0  0
  8 24  1  0  0  0
  9 25  1  0  0  0
 13 26  1  0  0  0
 14 27  1  0  0  0
 16 28  1  0  0  0
 17 29  1  0  0  0
 18 30  1  0  0  0
 19 31  1  0  0  0
 20 32  1  0  0  0
M  END
$$$$
