4heu_ligand
  -I-interpret- 

 55 59  0  0  0  0  0  0  0  0999 V2000
   15.0720   84.5850   33.9290 O   0  0  0  0  0
   14.6680   85.9170   33.5850 C   0  0  0  0  0
   13.4430   86.3640   34.3940 C   0  0  0  0  0
   13.7500   86.3400   35.8990 C   0  0  0  0  0
   12.5340   86.7960   36.7190 C   0  0  0  0  0
   13.0880   87.7980   33.9680 C   0  0  0  0  0
   11.9320   88.4100   34.7750 C   0  0  0  0  0
   12.0050   88.1120   36.2330 N   0  0  0  0  0
   11.4140   89.0080   37.1510 C   0  0  0  0  0
   10.1770   89.4790   36.8830 N   0  0  0  0  0
    9.5440   90.3120   37.7000 C   0  0  0  0  0
   10.1440   90.7350   38.8840 C   0  0  0  0  0
   11.4210   90.2730   39.1980 C   0  0  0  0  0
   12.0660   89.3910   38.3280 C   0  0  0  0  0
   13.3280   88.9150   38.5750 O   0  0  0  0  0
   13.7940   88.7100   39.8450 C   0  0  0  0  0
   15.0560   89.1930   40.1940 C   0  0  0  0  0
   15.5620   88.9840   41.4800 C   0  0  0  0  0
   13.0510   87.9940   40.7830 C   0  0  0  0  0
   13.5580   87.7890   42.0650 C   0  0  0  0  0
   14.8140   88.2720   42.4270 C   0  0  0  0  0
   15.2300   88.0270   43.6820 N   0  0  0  0  0
   16.4680   88.1670   44.1810 C   0  0  0  0  0
   17.6030   88.2900   43.4920 N   0  0  0  0  0
   18.5950   88.4070   44.3760 C   0  0  0  0  0
   19.9740   88.5690   44.2330 C   0  0  0  0  0
   20.7870   88.6600   45.3660 C   0  0  0  0  0
   20.2170   88.5920   46.6420 C   0  0  0  0  0
   18.8370   88.4350   46.7830 C   0  0  0  0  0
   18.0280   88.3430   45.6480 C   0  0  0  0  0
   16.7150   88.1920   45.4900 N   0  0  0  0  0
   15.8383   84.3390   33.4056 H   0  0  0  0  0
   14.4065   85.9346   32.5270 H   0  0  0  0  0
   15.4925   86.5945   33.8069 H   0  0  0  0  0
   12.6113   85.6856   34.2038 H   0  0  0  0  0
   14.5787   87.0199   36.0967 H   0  0  0  0  0
   14.0021   85.3195   36.1872 H   0  0  0  0  0
   12.8420   86.9105   37.7583 H   0  0  0  0  0
   11.7477   86.0484   36.6150 H   0  0  0  0  0
   12.7752   87.7614   32.9245 H   0  0  0  0  0
   13.9690   88.4172   34.1372 H   0  0  0  0  0
   11.0042   87.9797   34.3979 H   0  0  0  0  0
   11.9865   89.4923   34.6578 H   0  0  0  0  0
    8.5465   90.6680   37.4424 H   0  0  0  0  0
    9.6224   91.4174   39.5551 H   0  0  0  0  0
   11.9124   90.5975   40.1153 H   0  0  0  0  0
   15.6504   89.7363   39.4595 H   0  0  0  0  0
   16.5430   89.3767   41.7474 H   0  0  0  0  0
   12.0733   87.5945   40.5135 H   0  0  0  0  0
   12.9626   87.2422   42.7961 H   0  0  0  0  0
   14.5189   87.6947   44.3333 H   0  0  0  0  0
   20.4164   88.6245   43.2384 H   0  0  0  0  0
   21.8643   88.7839   45.2558 H   0  0  0  0  0
   20.8506   88.6616   47.5262 H   0  0  0  0  0
   18.3918   88.3843   47.7766 H   0  0  0  0  0
  1  2  1  0  0  0
  2  3  1  0  0  0
  3  4  1  0  0  0
  3  6  1  0  0  0
  4  5  1  0  0  0
  5  8  1  0  0  0
  6  7  1  0  0  0
  7  8  1  0  0  0
  8  9  1  0  0  0
  9 10  4  0  0  0
  9 14  4  0  0  0
 10 11  4  0  0  0
 11 12  4  0  0  0
 12 13  4  0  0  0
 13 14  4  0  0  0
 14 15  1  0  0  0
 15 16  1  0  0  0
 16 17  4  0  0  0
 16 19  4  0  0  0
 17 18  4  0  0  0
 18 21  4  0  0  0
 19 20  4  0  0  0
 20 21  4  0  0  0
 21 22  1  0  0  0
 22 23  1  0  0  0
 23 24  4  0  0  0
 23 31  4  0  0  0
 24 25  4  0  0  0
 25 26  4  0  0  0
 25 30  4  0  0  0
 26 27  4  0  0  0
 27 28  4  0  0  0
 28 29  4  0  0  0
 29 30  4  0  0  0
 30 31  4  0  0  0
  1 32  1  0  0  0
  2 33  1  0  0  0
  2 34  1  0  0  0
  3 35  1  0  0  0
  4 36  1  0  0  0
  4 37  1  0  0  0
  5 38  1  0  0  0
  5 39  1  0  0  0
  6 40  1  0  0  0
  6 41  1  0  0  0
  7 42  1  0  0  0
  7 43  1  0  0  0
 11 44  1  0  0  0
 12 45  1  0  0  0
 13 46  1  0  0  0
 17 47  1  0  0  0
 18 48  1  0  0  0
 19 49  1  0  0  0
 20 50  1  0  0  0
 22 51  1  0  0  0
 26 52  1  0  0  0
 27 53  1  0  0  0
 28 54  1  0  0  0
 29 55  1  0  0  0
M  END
$$$$
