3qwc_ligand
  -I-interpret- 

 55 57  0  0  0  0  0  0  0  0999 V2000
   16.3970  -15.3470   23.1690 N   0  3  0  0  0
   17.6100  -14.5520   23.2980 C   0  0  0  0  0
   17.3580  -13.1950   22.6970 C   0  0  0  0  0
   16.3610  -12.5520   23.0190 O   0  0  0  0  0
   18.0050  -14.4560   24.7780 C   0  0  0  0  0
   19.4320  -13.9630   24.9000 C   0  0  0  0  0
   20.4820  -14.7060   24.3680 C   0  0  0  0  0
   19.6990  -12.7720   25.5610 C   0  0  0  0  0
   21.7910  -14.2420   24.4870 C   0  0  0  0  0
   21.0030  -12.3100   25.6770 C   0  0  0  0  0
   22.0540  -13.0480   25.1400 C   0  0  0  0  0
   18.2460  -12.7420   21.8050 N   0  0  0  0  0
   18.0340  -11.4370   21.1770 C   0  0  0  0  0
   16.7110  -11.4310   20.4770 C   0  0  0  0  0
   16.3900  -12.3850   19.7730 O   0  0  0  0  0
   19.1650  -11.2950   20.1670 C   0  0  0  0  0
   20.2070  -12.3360   20.5570 C   0  0  0  0  0
   19.4590  -13.4130   21.3270 C   0  0  0  0  0
   14.5970  -10.2330   20.0690 C   0  0  0  0  0
   13.6110  -11.0090   20.9210 C   0  0  0  0  0
   13.4330  -12.3730   20.7490 C   0  0  0  0  0
   12.3950  -14.4910   21.3050 C   0  0  0  0  0
   11.8350  -12.4310   22.4530 C   0  0  0  0  0
   11.9720  -11.0690   22.6730 C   0  0  0  0  0
   12.8680  -10.3690   21.8820 C   0  0  0  0  0
   15.9190  -10.3750   20.6700 N   0  0  0  0  0
   12.5620  -13.0480   21.5090 N   0  0  0  0  0
   13.0960   -8.6210   22.1220 Cl  0  0  0  0  0
   16.1361  -15.4097   22.1849 H   0  0  0  0  0
   16.5646  -16.2831   23.5379 H   0  0  0  0  0
   15.6436  -14.9032   23.6942 H   0  0  0  0  0
   18.4393  -15.0185   22.7663 H   0  0  0  0  0
   17.9249  -15.4418   25.2361 H   0  0  0  0  0
   17.3387  -13.7568   25.2832 H   0  0  0  0  0
   20.2810  -15.6488   23.8593 H   0  0  0  0  0
   18.8799  -12.1960   25.9916 H   0  0  0  0  0
   22.6120  -14.8211   24.0644 H   0  0  0  0  0
   21.2039  -11.3689   26.1889 H   0  0  0  0  0
   23.0789  -12.6887   25.2326 H   0  0  0  0  0
   18.0303  -10.6201   21.8987 H   0  0  0  0  0
   19.5854  -10.2895   20.1829 H   0  0  0  0  0
   18.8086  -11.4542   19.1493 H   0  0  0  0  0
   20.9971  -11.8943   21.1643 H   0  0  0  0  0
   20.6985  -12.7504   19.6768 H   0  0  0  0  0
   19.2306  -14.2782   20.7046 H   0  0  0  0  0
   20.0529  -13.8186   22.1461 H   0  0  0  0  0
   14.3129   -9.1815   20.0264 H   0  0  0  0  0
   14.6021  -10.6207   19.0503 H   0  0  0  0  0
   14.0076  -12.9008   19.9878 H   0  0  0  0  0
   12.0622  -14.6761   20.2837 H   0  0  0  0  0
   13.3473  -14.9933   21.4749 H   0  0  0  0  0
   11.6518  -14.8721   22.0054 H   0  0  0  0  0
   11.1297  -13.0062   23.0528 H   0  0  0  0  0
   11.3919  -10.5641   23.4454 H   0  0  0  0  0
   16.2568   -9.6241   21.2720 H   0  0  0  0  0
  2  1  1  0  0  0
  3  2  1  0  0  0
  2  5  1  0  0  0
  3  4  2  0  0  0
 12  3  1  0  0  0
  5  6  1  0  0  0
  6  7  4  0  0  0
  6  8  4  0  0  0
  7  9  4  0  0  0
  8 10  4  0  0  0
  9 11  4  0  0  0
 10 11  4  0  0  0
 13 12  1  0  0  0
 12 18  1  0  0  0
 14 13  1  0  0  0
 13 16  1  0  0  0
 14 15  2  0  0  0
 26 14  1  0  0  0
 16 17  1  0  0  0
 17 18  1  0  0  0
 20 19  1  0  0  0
 19 26  1  0  0  0
 21 20  4  0  0  0
 20 25  4  0  0  0
 27 21  4  0  0  0
 27 22  1  0  0  0
 23 24  4  0  0  0
 23 27  4  0  0  0
 24 25  4  0  0  0
 25 28  1  0  0  0
  1 29  1  0  0  0
  1 30  1  0  0  0
  1 31  1  0  0  0
  2 32  1  0  0  0
  5 33  1  0  0  0
  5 34  1  0  0  0
  7 35  1  0  0  0
  8 36  1  0  0  0
  9 37  1  0  0  0
 10 38  1  0  0  0
 11 39  1  0  0  0
 13 40  1  0  0  0
 16 41  1  0  0  0
 16 42  1  0  0  0
 17 43  1  0  0  0
 17 44  1  0  0  0
 18 45  1  0  0  0
 18 46  1  0  0  0
 19 47  1  0  0  0
 19 48  1  0  0  0
 21 49  1  0  0  0
 22 50  1  0  0  0
 22 51  1  0  0  0
 22 52  1  0  0  0
 23 53  1  0  0  0
 24 54  1  0  0  0
 26 55  1  0  0  0
M  END
$$$$
