5t4f_ligand
  -I-interpret- 

 61 65  0  0  0  0  0  0  0  0999 V2000
   39.7490   49.3740   39.9600 C   0  0  0  0  0
   37.5500   48.2340   40.4450 C   0  0  0  0  0
   37.8710   48.4160   41.8520 N   0  0  0  0  0
   39.9060   49.4090   37.8610 C   0  0  0  0  0
   38.5770   48.7490   39.5320 C   0  0  0  0  0
   40.5230   49.8210   38.9720 N   0  0  0  0  0
   38.6660   48.7510   38.1530 N   0  0  0  0  0
   40.0320   49.4900   41.3560 N   0  0  0  0  0
   39.0840   49.0130   42.2670 C   0  0  0  0  0
   39.4900   49.2120   43.5260 N   0  0  0  0  0
   40.8560   49.8470   43.5210 C   0  0  0  0  0
   41.2020   50.0670   42.0290 C   0  0  0  0  0
   36.5100   47.7360   40.1120 O   0  0  0  0  0
   38.1080   47.6730   37.2640 C   0  0  0  0  0
   36.7260   47.9590   36.8010 C   0  0  0  0  0
   35.6280   48.2120   36.3770 C   0  0  0  0  0
   34.2130   48.4660   35.9450 C   0  0  0  0  0
   40.3510   49.6020   36.5660 N   0  0  0  0  0
   39.3510   50.1080   35.5680 C   0  0  0  0  0
   39.1880   51.6460   35.6780 C   0  0  0  0  0
   40.5470   52.3500   35.5310 C   0  0  0  0  0
   41.6530   51.7310   36.4670 C   0  0  0  0  0
   41.7370   50.1480   36.3590 C   0  0  0  0  0
   38.1510   52.1320   34.6960 N   0  3  0  0  0
   36.9090   47.9540   42.9150 C   0  0  0  0  0
   36.3300   49.1820   43.6040 C   0  0  0  0  0
   36.2530   49.1510   45.0150 C   0  0  0  0  0
   35.7000   50.2550   45.7210 C   0  0  0  0  0
   35.3310   51.3960   45.0140 C   0  0  0  0  0
   35.4460   51.4670   43.5800 C   0  0  0  0  0
   35.9320   50.3500   42.8970 C   0  0  0  0  0
   34.8010   52.4780   45.7930 C   0  0  0  0  0
   34.3750   53.3460   46.4180 N   0  0  0  0  0
   38.9565   48.9708   44.3612 H   0  0  0  0  0
   41.5936   49.2133   44.0135 H   0  0  0  0  0
   40.8631   50.7852   44.0759 H   0  0  0  0  0
   41.3736   51.1131   41.7754 H   0  0  0  0  0
   42.1430   49.6043   41.7313 H   0  0  0  0  0
   38.0799   46.7487   37.8410 H   0  0  0  0  0
   38.7460   47.6065   36.3827 H   0  0  0  0  0
   33.7098   47.5141   35.7755 H   0  0  0  0  0
   33.6906   49.0209   36.7243 H   0  0  0  0  0
   34.2148   49.0468   35.0226 H   0  0  0  0  0
   38.3879   49.6385   35.7683 H   0  0  0  0  0
   39.7023   49.8638   34.5655 H   0  0  0  0  0
   38.8214   51.9036   36.6717 H   0  0  0  0  0
   40.4160   53.3951   35.8116 H   0  0  0  0  0
   40.8763   52.2322   34.4986 H   0  0  0  0  0
   41.3973   51.9819   37.4964 H   0  0  0  0  0
   42.6162   52.1378   36.1592 H   0  0  0  0  0
   42.1186   49.8540   35.3812 H   0  0  0  0  0
   42.4175   49.7517   37.1127 H   0  0  0  0  0
   38.0539   53.1440   34.7789 H   0  0  0  0  0
   38.4438   51.8938   33.7484 H   0  0  0  0  0
   37.2566   51.6857   34.8991 H   0  0  0  0  0
   37.4275   47.3280   43.6413 H   0  0  0  0  0
   36.1089   47.3665   42.4647 H   0  0  0  0  0
   36.6173   48.2813   45.5619 H   0  0  0  0  0
   35.5668   50.2082   46.8018 H   0  0  0  0  0
   35.1607   52.3705   43.0411 H   0  0  0  0  0
   36.0071   50.3737   41.8098 H   0  0  0  0  0
  5  1  4  0  0  0
  1  6  4  0  0  0
  1  8  1  0  0  0
  2  3  1  0  0  0
  2  5  1  0  0  0
  2 13  2  0  0  0
  3  9  4  0  0  0
  3 25  1  0  0  0
  6  4  4  0  0  0
  4  7  4  0  0  0
  4 18  1  0  0  0
  5  7  4  0  0  0
  7 14  1  0  0  0
  8  9  1  0  0  0
  8 12  1  0  0  0
  9 10  1  0  0  0
 10 11  1  0  0  0
 11 12  1  0  0  0
 14 15  1  0  0  0
 15 16  3  0  0  0
 16 17  1  0  0  0
 18 19  1  0  0  0
 18 23  1  0  0  0
 19 20  1  0  0  0
 20 21  1  0  0  0
 20 24  1  0  0  0
 21 22  1  0  0  0
 22 23  1  0  0  0
 25 26  1  0  0  0
 26 27  4  0  0  0
 26 31  4  0  0  0
 27 28  4  0  0  0
 28 29  4  0  0  0
 29 30  4  0  0  0
 29 32  1  0  0  0
 30 31  4  0  0  0
 32 33  3  0  0  0
 10 34  1  0  0  0
 11 35  1  0  0  0
 11 36  1  0  0  0
 12 37  1  0  0  0
 12 38  1  0  0  0
 14 39  1  0  0  0
 14 40  1  0  0  0
 17 41  1  0  0  0
 17 42  1  0  0  0
 17 43  1  0  0  0
 19 44  1  0  0  0
 19 45  1  0  0  0
 20 46  1  0  0  0
 21 47  1  0  0  0
 21 48  1  0  0  0
 22 49  1  0  0  0
 22 50  1  0  0  0
 23 51  1  0  0  0
 23 52  1  0  0  0
 24 53  1  0  0  0
 24 54  1  0  0  0
 24 55  1  0  0  0
 25 56  1  0  0  0
 25 57  1  0  0  0
 27 58  1  0  0  0
 28 59  1  0  0  0
 30 60  1  0  0  0
 31 61  1  0  0  0
M  END
$$$$
