4jql_ligand
  -I-interpret- 

 81 82  0  0  0  0  0  0  0  0999 V2000
   36.0510    2.6890   54.9920 C   0  0  0  0  0
   35.6220    3.6320   54.0140 N   0  0  0  0  0
   36.8820    1.8830   54.6220 O   0  0  0  0  0
   35.5370    2.6770   56.3990 C   0  0  0  0  0
   38.5200    9.8190   60.2360 N   0  0  0  0  0
   37.0830    5.5800   59.9720 O   0  0  0  0  0
   35.6480    3.7930   57.2290 C   0  0  0  0  0
   39.3400    6.0360   60.6730 N   0  0  0  0  0
   37.0070    8.1680   59.3500 O   0  0  0  0  0
   35.1860    3.7900   58.6680 C   0  0  0  0  0
   36.3170    9.6770   60.8950 O   0  0  0  0  0
   34.8910    5.1980   59.1160 C   0  0  0  0  0
   30.2080    9.3360   58.0830 O   0  0  0  0  0
   36.1270    6.0370   59.0780 C   0  0  0  0  0
   29.9530    6.7190   59.2540 O   0  0  0  0  0
   35.8370    7.4530   59.4460 C   0  0  0  0  0
   38.7780    5.6210   58.5120 O   0  0  0  0  0
   34.8220    8.0760   58.5360 C   0  0  0  0  0
   34.2320    8.1620   53.2020 O   0  0  0  0  0
   33.6390    8.4990   59.1350 C   0  0  0  0  0
   31.1900    5.5730   56.9650 O   0  0  0  0  0
   32.5450    9.2560   58.4340 C   0  0  0  0  0
   31.1850    8.7340   58.8440 C   0  0  0  0  0
   31.0790    7.2340   58.6760 C   0  0  0  0  0
   31.0310    6.9270   57.2080 C   0  0  0  0  0
   29.0030    9.7390   58.6620 C   0  0  0  0  0
   31.1240    5.1400   55.6420 C   0  0  0  0  0
   32.4210    5.3950   54.9520 C   0  0  0  0  0
   32.7100    6.7390   54.3740 C   0  0  0  0  0
   33.9040    6.9530   53.7640 C   0  0  0  0  0
   34.9080    5.8680   53.6430 C   0  0  0  0  0
   34.6480    4.6530   54.1760 C   0  0  0  0  0
   33.3380    4.3920   54.8460 C   0  0  0  0  0
   34.9370    1.4130   56.9210 C   0  0  0  0  0
   38.4310    5.5340   59.6840 C   0  0  0  0  0
   37.2090    9.2530   60.1740 C   0  0  0  0  0
   35.1570    8.2560   57.0780 C   0  0  0  0  0
   32.6570   10.6910   58.8090 C   0  0  0  0  0
   29.7680    6.8480   60.6120 C   0  0  0  0  0
   34.9010    8.0330   51.9950 C   0  0  0  0  0
   36.0628    3.5667   53.0965 H   0  0  0  0  0
   38.7162   10.5814   60.8845 H   0  0  0  0  0
   39.2594    9.4605   59.6317 H   0  0  0  0  0
   36.0860    4.7047   56.8228 H   0  0  0  0  0
   40.2305    6.4431   60.3873 H   0  0  0  0  0
   39.0960    5.9860   61.6621 H   0  0  0  0  0
   35.9715    3.3703   59.2965 H   0  0  0  0  0
   34.2807    3.1889   58.7533 H   0  0  0  0  0
   34.5166    5.1700   60.1393 H   0  0  0  0  0
   34.1505    5.6326   58.4445 H   0  0  0  0  0
   36.4974    5.9720   58.0549 H   0  0  0  0  0
   35.4332    7.4678   60.4583 H   0  0  0  0  0
   33.4950    8.2643   60.1896 H   0  0  0  0  0
   32.6494    9.1292   57.3565 H   0  0  0  0  0
   31.0505    8.9703   59.8995 H   0  0  0  0  0
   31.9430    6.7834   59.1644 H   0  0  0  0  0
   30.0584    7.2340   56.8235 H   0  0  0  0  0
   31.8436    7.4627   56.7173 H   0  0  0  0  0
   28.4992    8.8723   59.0899 H   0  0  0  0  0
   29.2044   10.4680   59.4469 H   0  0  0  0  0
   28.3680   10.1902   57.8996 H   0  0  0  0  0
   30.3326    5.6847   55.1272 H   0  0  0  0  0
   30.9157    4.0702   55.6265 H   0  0  0  0  0
   31.9725    7.5389   54.4404 H   0  0  0  0  0
   35.8508    6.0493   53.1269 H   0  0  0  0  0
   33.1166    3.4035   55.2484 H   0  0  0  0  0
   35.5249    1.0553   57.7663 H   0  0  0  0  0
   33.9135    1.6043   57.2436 H   0  0  0  0  0
   34.9362    0.6601   56.1328 H   0  0  0  0  0
   34.4111    7.7448   56.4693 H   0  0  0  0  0
   35.1593    9.3187   56.8356 H   0  0  0  0  0
   36.1420    7.8343   56.8781 H   0  0  0  0  0
   32.5502   10.7924   59.8890 H   0  0  0  0  0
   33.6315   11.0705   58.5018 H   0  0  0  0  0
   31.8711   11.2580   58.3101 H   0  0  0  0  0
   30.5880    6.3583   61.1372 H   0  0  0  0  0
   29.7460    7.9054   60.8756 H   0  0  0  0  0
   28.8240    6.3821   60.8947 H   0  0  0  0  0
   35.8257    7.4774   52.1511 H   0  0  0  0  0
   34.2692    7.4976   51.2863 H   0  0  0  0  0
   35.1324    9.0229   51.6017 H   0  0  0  0  0
  1  2  1  0  0  0
  1  3  2  0  0  0
  4  1  1  0  0  0
  2 32  1  0  0  0
  7  4  2  0  0  0
  4 34  1  0  0  0
 36  5  1  0  0  0
 14  6  1  0  0  0
  6 35  1  0  0  0
 10  7  1  0  0  0
 35  8  1  0  0  0
 16  9  1  0  0  0
  9 36  1  0  0  0
 12 10  1  0  0  0
 36 11  2  0  0  0
 14 12  1  0  0  0
 23 13  1  0  0  0
 13 26  1  0  0  0
 16 14  1  0  0  0
 24 15  1  0  0  0
 15 39  1  0  0  0
 18 16  1  0  0  0
 35 17  2  0  0  0
 20 18  2  0  0  0
 18 37  1  0  0  0
 30 19  1  0  0  0
 19 40  1  0  0  0
 22 20  1  0  0  0
 21 25  1  0  0  0
 27 21  1  0  0  0
 23 22  1  0  0  0
 22 38  1  0  0  0
 24 23  1  0  0  0
 25 24  1  0  0  0
 28 27  1  0  0  0
 29 28  4  0  0  0
 28 33  4  0  0  0
 29 30  4  0  0  0
 30 31  4  0  0  0
 31 32  4  0  0  0
 32 33  4  0  0  0
  2 41  1  0  0  0
  5 42  1  0  0  0
  5 43  1  0  0  0
  7 44  1  0  0  0
  8 45  1  0  0  0
  8 46  1  0  0  0
 10 47  1  0  0  0
 10 48  1  0  0  0
 12 49  1  0  0  0
 12 50  1  0  0  0
 14 51  1  0  0  0
 16 52  1  0  0  0
 20 53  1  0  0  0
 22 54  1  0  0  0
 23 55  1  0  0  0
 24 56  1  0  0  0
 25 57  1  0  0  0
 25 58  1  0  0  0
 26 59  1  0  0  0
 26 60  1  0  0  0
 26 61  1  0  0  0
 27 62  1  0  0  0
 27 63  1  0  0  0
 29 64  1  0  0  0
 31 65  1  0  0  0
 33 66  1  0  0  0
 34 67  1  0  0  0
 34 68  1  0  0  0
 34 69  1  0  0  0
 37 70  1  0  0  0
 37 71  1  0  0  0
 37 72  1  0  0  0
 38 73  1  0  0  0
 38 74  1  0  0  0
 38 75  1  0  0  0
 39 76  1  0  0  0
 39 77  1  0  0  0
 39 78  1  0  0  0
 40 79  1  0  0  0
 40 80  1  0  0  0
 40 81  1  0  0  0
M  END
$$$$
