4e1m_ligand
  -I-interpret- 

 55 57  0  0  0  0  0  0  0  0999 V2000
   24.3160   17.7770   -5.7660 C   0  0  0  0  0
   24.8490   16.5400   -5.3740 C   0  0  0  0  0
   26.2250   16.4280   -5.1080 C   0  0  0  0  0
   27.0240   17.5950   -5.2590 C   0  0  0  0  0
   26.4830   18.8210   -5.6570 C   0  0  0  0  0
   25.1200   18.9070   -5.9140 C   0  0  0  0  0
   24.0120   15.5040   -5.2550 N   0  0  0  0  0
   24.4680   14.2850   -4.8770 C   0  0  0  0  0
   25.8220   14.0390   -4.5800 C   0  0  0  0  0
   26.7160   15.1400   -4.7000 C   0  0  0  0  0
   23.3720   13.2580   -4.8090 C   0  0  0  0  0
   28.1540   14.9390   -4.4010 C   0  0  0  0  0
   26.3460   12.6600   -4.1730 C   0  0  0  0  0
   25.8530   11.6870   -5.0990 O   0  0  0  0  0
   29.1240   14.9430   -5.4090 C   0  0  0  0  0
   30.4720   14.7290   -5.0960 C   0  0  0  0  0
   30.8780   14.5200   -3.7740 C   0  0  0  0  0
   29.9180   14.5100   -2.7510 C   0  0  0  0  0
   28.5670   14.7190   -3.0710 C   0  0  0  0  0
   32.3380   14.3120   -3.4720 C   0  0  0  0  0
   30.3120   14.2910   -1.3150 C   0  0  0  0  0
   26.5200   11.3790   -6.3330 C   0  0  0  0  0
   26.1620   12.5080   -7.3080 C   0  0  0  0  0
   28.0520   11.3200   -6.1600 C   0  0  0  0  0
   25.9840   10.0680   -6.9210 C   0  0  0  0  0
   25.8850   12.2250   -2.7940 C   0  0  0  0  0
   25.6970   11.0670   -2.4530 O   0  0  0  0  0
   25.6930   13.2790   -1.9720 O   0  0  0  0  0
   23.2464   17.8571   -5.9598 H   0  0  0  0  0
   28.0934   17.5313   -5.0578 H   0  0  0  0  0
   27.1217   19.6977   -5.7643 H   0  0  0  0  0
   24.6812   19.8535   -6.2299 H   0  0  0  0  0
   22.6218   13.5764   -4.0851 H   0  0  0  0  0
   22.9105   13.1554   -5.7911 H   0  0  0  0  0
   23.7919   12.3002   -4.5016 H   0  0  0  0  0
   27.4336   12.7319   -4.1680 H   0  0  0  0  0
   28.8287   15.1137   -6.4443 H   0  0  0  0  0
   31.2150   14.7253   -5.8935 H   0  0  0  0  0
   27.8223   14.7110   -2.2751 H   0  0  0  0  0
   32.6965   13.4322   -4.0063 H   0  0  0  0  0
   32.9023   15.1880   -3.7920 H   0  0  0  0  0
   32.4687   14.1658   -2.3998 H   0  0  0  0  0
   30.7960   13.3193   -1.2165 H   0  0  0  0  0
   31.0026   15.0754   -1.0054 H   0  0  0  0  0
   29.4217   14.3203   -0.6868 H   0  0  0  0  0
   25.0810   12.5399   -7.4438 H   0  0  0  0  0
   26.5067   13.4593   -6.9027 H   0  0  0  0  0
   26.6448   12.3242   -8.2678 H   0  0  0  0  0
   28.4140   12.2858   -5.8075 H   0  0  0  0  0
   28.3048   10.5483   -5.4329 H   0  0  0  0  0
   28.5157   11.0843   -7.1179 H   0  0  0  0  0
   26.1554    9.2570   -6.2133 H   0  0  0  0  0
   24.9152   10.1665   -7.1107 H   0  0  0  0  0
   26.5018    9.8520   -7.8555 H   0  0  0  0  0
   25.8986   14.0909   -2.4412 H   0  0  0  0  0
  1  2  4  0  0  0
  1  6  4  0  0  0
  2  3  4  0  0  0
  2  7  4  0  0  0
  3  4  4  0  0  0
  3 10  4  0  0  0
  4  5  4  0  0  0
  5  6  4  0  0  0
  7  8  4  0  0  0
  8  9  4  0  0  0
  8 11  1  0  0  0
  9 10  4  0  0  0
  9 13  1  0  0  0
 10 12  1  0  0  0
 12 15  4  0  0  0
 12 19  4  0  0  0
 13 14  1  0  0  0
 13 26  1  0  0  0
 14 22  1  0  0  0
 15 16  4  0  0  0
 16 17  4  0  0  0
 17 18  4  0  0  0
 17 20  1  0  0  0
 18 19  4  0  0  0
 18 21  1  0  0  0
 22 23  1  0  0  0
 22 24  1  0  0  0
 22 25  1  0  0  0
 26 27  2  0  0  0
 26 28  1  0  0  0
  1 29  1  0  0  0
  4 30  1  0  0  0
  5 31  1  0  0  0
  6 32  1  0  0  0
 11 33  1  0  0  0
 11 34  1  0  0  0
 11 35  1  0  0  0
 13 36  1  0  0  0
 15 37  1  0  0  0
 16 38  1  0  0  0
 19 39  1  0  0  0
 20 40  1  0  0  0
 20 41  1  0  0  0
 20 42  1  0  0  0
 21 43  1  0  0  0
 21 44  1  0  0  0
 21 45  1  0  0  0
 23 46  1  0  0  0
 23 47  1  0  0  0
 23 48  1  0  0  0
 24 49  1  0  0  0
 24 50  1  0  0  0
 24 51  1  0  0  0
 25 52  1  0  0  0
 25 53  1  0  0  0
 25 54  1  0  0  0
 28 55  1  0  0  0
M  END
$$$$
