5vqr_ligand
  -I-interpret- 

 61 64  0  0  0  0  0  0  0  0999 V2000
  844.1670  -36.9820  140.1940 N   0  0  0  0  0
  846.2800  -34.2800  142.2790 C   0  0  0  0  0
  844.6070  -39.2160  140.6110 N   0  0  0  0  0
  842.1540  -30.9160  145.6990 N   0  0  0  0  0
  846.8160  -34.2860  144.6400 C   0  0  0  0  0
  839.3650  -36.7170  150.0280 N   0  0  0  0  0
  848.5610  -33.9090  143.0060 C   0  0  0  0  0
  845.7470  -35.0920  140.0190 C   0  0  0  0  0
  844.9290  -38.0940  139.8890 C   0  0  0  0  0
  847.6230  -34.0300  141.9870 C   0  0  0  0  0
  843.6570  -39.3840  141.5760 C   0  0  0  0  0
  842.8990  -38.1770  141.8470 C   0  0  0  0  0
  843.1900  -37.0570  141.1560 C   0  0  0  0  0
  843.6330  -34.1660  144.7050 C   0  0  0  0  0
  843.0130  -35.0650  145.5690 C   0  0  0  0  0
  842.0750  -34.6030  146.5390 C   0  0  0  0  0
  841.7740  -33.2040  146.6020 C   0  0  0  0  0
  842.4300  -32.3050  145.6960 C   0  0  0  0  0
  843.3350  -32.8080  144.7550 C   0  0  0  0  0
  841.4300  -35.4950  147.4430 C   0  0  0  0  0
  840.5180  -35.0330  148.3870 C   0  0  0  0  0
  840.2330  -33.6750  148.4490 C   0  0  0  0  0
  840.8340  -32.7700  147.5800 C   0  0  0  0  0
  839.8740  -35.9700  149.3020 C   0  0  0  0  0
  843.3420  -36.5540  145.4900 C   0  0  0  0  0
  842.7500  -30.0170  146.5480 C   0  0  0  0  0
  843.7350  -30.4950  147.5040 C   0  0  0  0  0
  841.1490  -30.5140  144.7050 C   0  0  0  0  0
  844.3990  -29.6550  148.3210 C   0  0  0  0  0
  845.8600  -34.4010  143.6130 C   0  0  0  0  0
  848.1550  -34.0370  144.3310 C   0  0  0  0  0
  844.4700  -35.7450  139.4650 C   0  0  0  0  0
  844.5110  -34.6590  143.7730 O   0  0  0  0  0
  845.4230  -34.3780  141.1980 O   0  0  0  0  0
  845.8310  -38.1340  139.0480 O   0  0  0  0  0
  843.4750  -40.4560  142.1440 O   0  0  0  0  0
  842.4680  -28.8120  146.5100 O   0  0  0  0  0
  845.1588  -40.0461  140.3944 H   0  0  0  0  0
  846.5098  -34.3918  145.6808 H   0  0  0  0  0
  849.6071  -33.7152  142.7688 H   0  0  0  0  0
  846.1632  -34.4097  139.2778 H   0  0  0  0  0
  846.4856  -35.8610  140.2453 H   0  0  0  0  0
  847.9390  -33.9287  140.9487 H   0  0  0  0  0
  842.1077  -38.1760  142.5966 H   0  0  0  0  0
  842.6153  -36.1568  141.3739 H   0  0  0  0  0
  843.8131  -32.1265  144.0514 H   0  0  0  0  0
  841.6552  -36.5604  147.3944 H   0  0  0  0  0
  839.5245  -33.3112  149.1932 H   0  0  0  0  0
  840.5815  -31.7119  147.6487 H   0  0  0  0  0
  843.0917  -36.9279  144.4972 H   0  0  0  0  0
  844.4058  -36.7002  145.6772 H   0  0  0  0  0
  842.7625  -37.0931  146.2394 H   0  0  0  0  0
  843.9422  -31.5636  147.5613 H   0  0  0  0  0
  841.5023  -30.7742  143.7072 H   0  0  0  0  0
  840.2121  -31.0332  144.9070 H   0  0  0  0  0
  840.9898  -29.4374  144.7661 H   0  0  0  0  0
  844.2038  -28.5836  148.2765 H   0  0  0  0  0
  845.1316  -30.0466  149.0267 H   0  0  0  0  0
  848.8870  -33.9423  145.1330 H   0  0  0  0  0
  843.6376  -35.0513  139.5836 H   0  0  0  0  0
  844.6221  -35.9828  138.4122 H   0  0  0  0  0
  1  9  1  0  0  0
  1 13  1  0  0  0
 32  1  1  0  0  0
  2 10  4  0  0  0
 30  2  4  0  0  0
  2 34  1  0  0  0
  9  3  1  0  0  0
  3 11  1  0  0  0
 18  4  1  0  0  0
  4 26  1  0  0  0
  4 28  1  0  0  0
 30  5  4  0  0  0
  5 31  4  0  0  0
 24  6  3  0  0  0
 10  7  4  0  0  0
 31  7  4  0  0  0
  8 32  1  0  0  0
 34  8  1  0  0  0
  9 35  2  0  0  0
 12 11  1  0  0  0
 11 36  2  0  0  0
 13 12  2  0  0  0
 14 15  4  0  0  0
 14 19  4  0  0  0
 33 14  1  0  0  0
 15 16  4  0  0  0
 15 25  1  0  0  0
 16 17  4  0  0  0
 16 20  4  0  0  0
 18 17  4  0  0  0
 17 23  4  0  0  0
 19 18  4  0  0  0
 20 21  4  0  0  0
 21 22  4  0  0  0
 21 24  1  0  0  0
 23 22  4  0  0  0
 26 27  1  0  0  0
 26 37  2  0  0  0
 27 29  2  0  0  0
 30 33  1  0  0  0
  3 38  1  0  0  0
  5 39  1  0  0  0
  7 40  1  0  0  0
  8 41  1  0  0  0
  8 42  1  0  0  0
 10 43  1  0  0  0
 12 44  1  0  0  0
 13 45  1  0  0  0
 19 46  1  0  0  0
 20 47  1  0  0  0
 22 48  1  0  0  0
 23 49  1  0  0  0
 25 50  1  0  0  0
 25 51  1  0  0  0
 25 52  1  0  0  0
 27 53  1  0  0  0
 28 54  1  0  0  0
 28 55  1  0  0  0
 28 56  1  0  0  0
 29 57  1  0  0  0
 29 58  1  0  0  0
 31 59  1  0  0  0
 32 60  1  0  0  0
 32 61  1  0  0  0
M  END
$$$$
