5na0_ligand
  -I-interpret- 

106111  0  0  0  0  0  0  0  0999 V2000
   32.0350   48.0550   49.0450 O   0  0  0  0  0
   32.8930   48.3000   48.1920 C   0  0  0  0  0
   34.2760   48.8260   48.6190 C   0  0  0  0  0
   35.0870   47.9720   49.4520 O   0  0  0  0  0
   36.2280   47.2430   48.9730 C   0  0  0  0  0
   32.5430   48.0790   46.8550 N   0  0  0  0  0
   33.4300   47.0770   46.2020 C   0  0  0  0  0
   34.4700   47.6890   45.2570 C   0  0  0  0  0
   32.5020   49.3290   46.0590 C   0  0  0  0  0
   32.5040   48.9760   44.5710 C   0  0  0  0  0
   33.8560   48.5090   44.1790 N   0  0  0  0  0
   33.8610   47.9530   42.8600 C   0  0  0  0  0
   34.0370   46.6090   42.5370 C   0  0  0  0  0
   34.0680   46.1650   41.2110 C   0  0  0  0  0
   33.7170   48.8540   41.8170 C   0  0  0  0  0
   33.7370   48.4580   40.4920 C   0  0  0  0  0
   33.5790   49.3840   39.5000 O   0  0  0  0  0
   34.3850   50.5600   39.3990 C   0  0  0  0  0
   33.8920   47.0370   40.1370 C   0  0  0  0  0
   34.0130   46.7070   38.8070 N   0  0  0  0  0
   34.8090   45.7040   38.3070 C   0  0  0  0  0
   35.0400   45.6920   36.9660 N   0  0  0  0  0
   35.3980   44.7620   39.0830 N   0  0  0  0  0
   36.2080   43.8040   38.5680 C   0  0  0  0  0
   36.6970   42.8740   39.3890 N   0  0  0  0  0
   36.3540   42.8090   40.6530 C   0  0  0  0  0
   37.0070   41.7090   41.1550 C   0  0  0  0  0
   37.7390   41.0800   40.1560 C   0  0  0  0  0
   37.4760   41.8950   38.9270 C   0  0  0  0  0
   37.9760   41.7650   37.4940 C   0  0  0  0  0
   37.3040   42.7230   36.4900 C   0  0  0  0  0
   36.4300   43.8030   37.1050 C   0  0  0  0  0
   35.8030   44.7770   36.3540 C   0  0  0  0  0
   38.5750   39.8200   40.2860 C   0  0  0  0  0
   39.2100   39.4890   39.2860 O   0  0  0  0  0
   38.5200   39.1580   41.5020 N   0  0  0  0  0
   39.2610   38.0320   41.6930 C   0  0  0  0  0
   40.6660   38.0380   42.1270 C   0  0  0  0  0
   41.3740   39.1370   42.8440 C   0  0  0  0  0
   41.4920   40.3090   41.9160 C   0  0  0  0  0
   41.1750   36.8200   41.8520 N   0  0  0  0  0
   40.1840   36.0720   41.1770 N   0  0  0  0  0
   39.0250   36.7480   41.0080 C   0  0  0  0  0
   37.7530   36.2730   40.3510 C   0  0  0  0  0
   36.5620   36.8040   41.1270 C   0  0  0  0  0
   40.6290   34.7040   40.8120 C   0  0  0  0  0
   41.4090   34.5550   39.4850 C   0  0  0  0  0
   42.3040   35.6390   39.1740 O   0  0  0  0  0
   43.6720   35.5160   39.5940 C   0  0  0  0  0
   44.5500   34.6680   38.6480 C   0  0  0  0  0
   44.7620   35.2560   37.3440 O   0  0  0  0  0
   43.8820   34.8100   36.2790 C   0  0  0  0  0
   42.8380   35.8590   35.8380 C   0  0  0  0  0
   41.4500   35.5750   36.1500 O   0  0  0  0  0
   40.5030   36.4220   35.4700 C   0  0  0  0  0
   34.0790   49.7162   49.2164 H   0  0  0  0  0
   34.8390   48.9534   47.6944 H   0  0  0  0  0
   35.9156   46.5596   48.1834 H   0  0  0  0  0
   36.9653   47.9425   48.5792 H   0  0  0  0  0
   36.6659   46.6756   49.7942 H   0  0  0  0  0
   32.7949   46.4229   45.6046 H   0  0  0  0  0
   33.9748   46.5623   46.9935 H   0  0  0  0  0
   35.0151   46.8713   44.7854 H   0  0  0  0  0
   35.1146   48.3409   45.8466 H   0  0  0  0  0
   33.3739   49.9403   46.2917 H   0  0  0  0  0
   31.5985   49.8884   46.3016 H   0  0  0  0  0
   32.2391   49.8573   43.9869 H   0  0  0  0  0
   31.7767   48.1863   44.3827 H   0  0  0  0  0
   34.1539   45.8825   43.3411 H   0  0  0  0  0
   34.2346   45.1065   41.0113 H   0  0  0  0  0
   33.5834   49.9107   42.0487 H   0  0  0  0  0
   34.2648   51.1599   40.3011 H   0  0  0  0  0
   35.4309   50.2737   39.2882 H   0  0  0  0  0
   34.0718   51.1401   38.5310 H   0  0  0  0  0
   33.4680   47.2505   38.1377 H   0  0  0  0  0
   35.6905   43.4852   41.1921 H   0  0  0  0  0
   36.9575   41.3766   42.1919 H   0  0  0  0  0
   38.7469   41.0520   37.2018 H   0  0  0  0  0
   37.4462   42.6317   35.4132 H   0  0  0  0  0
   35.9279   44.8012   35.2715 H   0  0  0  0  0
   37.9263   39.5131   42.2515 H   0  0  0  0  0
   42.3652   38.8037   43.1516 H   0  0  0  0  0
   40.8146   39.4218   43.7351 H   0  0  0  0  0
   42.0574   40.0151   41.0317 H   0  0  0  0  0
   40.4960   40.6376   41.6193 H   0  0  0  0  0
   42.0081   41.1232   42.4248 H   0  0  0  0  0
   37.7293   35.1833   40.3451 H   0  0  0  0  0
   37.7131   36.6381   39.3247 H   0  0  0  0  0
   36.6045   36.4359   42.1521 H   0  0  0  0  0
   36.5882   37.8937   41.1296 H   0  0  0  0  0
   35.6408   36.4625   40.6548 H   0  0  0  0  0
   39.7194   34.1155   40.6920 H   0  0  0  0  0
   41.3157   34.3928   41.5992 H   0  0  0  0  0
   40.6664   34.5241   38.6877 H   0  0  0  0  0
   42.0237   33.6602   39.5825 H   0  0  0  0  0
   43.6676   35.0167   40.5629 H   0  0  0  0  0
   44.0949   36.5205   39.6115 H   0  0  0  0  0
   44.0316   33.7219   38.4922 H   0  0  0  0  0
   45.5283   34.5723   39.1190 H   0  0  0  0  0
   43.3317   33.9482   36.6567 H   0  0  0  0  0
   44.5084   34.5965   35.4129 H   0  0  0  0  0
   42.8971   35.8999   34.7504 H   0  0  0  0  0
   43.0849   36.7719   36.3799 H   0  0  0  0  0
   40.6853   37.4613   35.7434 H   0  0  0  0  0
   40.6188   36.3026   34.3928 H   0  0  0  0  0
   39.4911   36.1405   35.7613 H   0  0  0  0  0
  1  2  2  0  0  0
  2  3  1  0  0  0
  2  6  1  0  0  0
  3  4  1  0  0  0
  4  5  1  0  0  0
  6  7  1  0  0  0
  6  9  1  0  0  0
  7  8  1  0  0  0
  8 11  1  0  0  0
  9 10  1  0  0  0
 10 11  1  0  0  0
 11 12  1  0  0  0
 12 13  4  0  0  0
 12 15  4  0  0  0
 13 14  4  0  0  0
 14 19  4  0  0  0
 15 16  4  0  0  0
 16 17  1  0  0  0
 16 19  4  0  0  0
 17 18  1  0  0  0
 19 20  1  0  0  0
 20 21  1  0  0  0
 21 22  4  0  0  0
 21 23  4  0  0  0
 22 33  4  0  0  0
 23 24  4  0  0  0
 24 25  4  0  0  0
 24 32  4  0  0  0
 25 26  4  0  0  0
 25 29  4  0  0  0
 26 27  4  0  0  0
 27 28  4  0  0  0
 28 29  4  0  0  0
 28 34  1  0  0  0
 29 30  4  0  0  0
 30 31  4  0  0  0
 31 32  4  0  0  0
 32 33  4  0  0  0
 34 35  2  0  0  0
 34 36  1  0  0  0
 36 37  1  0  0  0
 37 38  4  0  0  0
 37 43  4  0  0  0
 38 39  1  0  0  0
 38 41  4  0  0  0
 39 40  1  0  0  0
 41 42  4  0  0  0
 42 43  4  0  0  0
 42 46  1  0  0  0
 43 44  1  0  0  0
 44 45  1  0  0  0
 46 47  1  0  0  0
 47 48  1  0  0  0
 48 49  1  0  0  0
 49 50  1  0  0  0
 50 51  1  0  0  0
 51 52  1  0  0  0
 52 53  1  0  0  0
 53 54  1  0  0  0
 54 55  1  0  0  0
  3 56  1  0  0  0
  3 57  1  0  0  0
  5 58  1  0  0  0
  5 59  1  0  0  0
  5 60  1  0  0  0
  7 61  1  0  0  0
  7 62  1  0  0  0
  8 63  1  0  0  0
  8 64  1  0  0  0
  9 65  1  0  0  0
  9 66  1  0  0  0
 10 67  1  0  0  0
 10 68  1  0  0  0
 13 69  1  0  0  0
 14 70  1  0  0  0
 15 71  1  0  0  0
 18 72  1  0  0  0
 18 73  1  0  0  0
 18 74  1  0  0  0
 20 75  1  0  0  0
 26 76  1  0  0  0
 27 77  1  0  0  0
 30 78  1  0  0  0
 31 79  1  0  0  0
 33 80  1  0  0  0
 36 81  1  0  0  0
 39 82  1  0  0  0
 39 83  1  0  0  0
 40 84  1  0  0  0
 40 85  1  0  0  0
 40 86  1  0  0  0
 44 87  1  0  0  0
 44 88  1  0  0  0
 45 89  1  0  0  0
 45 90  1  0  0  0
 45 91  1  0  0  0
 46 92  1  0  0  0
 46 93  1  0  0  0
 47 94  1  0  0  0
 47 95  1  0  0  0
 49 96  1  0  0  0
 49 97  1  0  0  0
 50 98  1  0  0  0
 50 99  1  0  0  0
 52100  1  0  0  0
 52101  1  0  0  0
 53102  1  0  0  0
 53103  1  0  0  0
 55104  1  0  0  0
 55105  1  0  0  0
 55106  1  0  0  0
M  END
$$$$
