6moo_ligand
  -I-interpret- 

 51 52  0  0  0  0  0  0  0  0999 V2000
  -18.4710   13.0970  -34.3370 C   0  0  0  0  0
  -19.8270   13.5110  -33.7300 C   0  0  0  0  0
  -18.9020   12.5380  -32.9810 C   0  0  0  0  0
  -21.1310   12.9210  -34.3240 C   0  0  0  0  0
  -18.0000   13.0460  -31.9360 C   0  0  0  0  0
  -10.4380   18.2330  -23.9930 C   0  0  0  0  0
  -10.7230   16.7190  -23.7910 C   0  0  0  0  0
  -17.2500   13.4110  -31.0980 C   0  0  0  0  0
  -11.6840   19.1280  -24.1940 C   0  0  0  0  0
   -9.5830   18.7720  -22.8470 C   0  0  0  0  0
  -11.2320   16.4480  -22.4190 C   0  0  0  0  0
  -11.3930   15.4160  -25.7840 C   0  0  0  0  0
  -16.2840   13.7990  -30.1730 C   0  0  0  0  0
  -12.4550   14.9960  -26.7890 C   0  0  0  0  0
  -12.0910   14.4550  -28.0250 C   0  0  0  0  0
  -13.7970   15.2800  -26.5070 C   0  0  0  0  0
  -14.4600   14.3780  -28.6050 C   0  0  0  0  0
  -15.4120   14.0800  -29.4200 C   0  0  0  0  0
  -13.1170   14.1250  -28.9210 C   0  0  0  0  0
  -14.7970   14.9840  -27.4090 C   0  0  0  0  0
  -11.7220   16.1250  -24.6930 N   0  0  0  0  0
   -9.6640   18.3830  -25.2140 N   0  3  0  0  0
  -10.4610   15.6220  -21.7170 N   0  0  0  0  0
  -22.1020   12.6260  -33.2960 O   0  0  0  0  0
  -12.2930   16.9430  -22.0380 O   0  0  0  0  0
  -10.2310   15.1720  -26.0890 O   0  0  0  0  0
  -10.7250   15.3890  -20.3760 O   0  0  0  0  0
  -17.5977   13.5711  -34.7849 H   0  0  0  0  0
  -18.0787   12.7289  -35.2850 H   0  0  0  0  0
  -20.3038   14.4671  -33.5140 H   0  0  0  0  0
  -19.1114   11.5789  -32.5073 H   0  0  0  0  0
  -20.8840   11.9927  -34.8391 H   0  0  0  0  0
  -21.5626   13.6569  -35.0024 H   0  0  0  0  0
   -9.7522   16.2687  -23.9982 H   0  0  0  0  0
  -11.3678   20.1601  -24.3456 H   0  0  0  0  0
  -12.2393   18.7848  -25.0669 H   0  0  0  0  0
  -12.3196   19.0674  -23.3106 H   0  0  0  0  0
   -8.6565   18.2010  -22.7869 H   0  0  0  0  0
   -9.3532   19.8218  -23.0295 H   0  0  0  0  0
  -10.1316   18.6764  -21.9100 H   0  0  0  0  0
  -11.0443   14.2950  -28.2836 H   0  0  0  0  0
  -14.0562   15.7443  -25.5555 H   0  0  0  0  0
  -12.8677   13.6651  -29.8773 H   0  0  0  0  0
  -15.8360   15.2238  -27.1828 H   0  0  0  0  0
  -12.7104   16.2582  -24.4793 H   0  0  0  0  0
   -9.4637   19.3711  -25.3689 H   0  0  0  0  0
   -8.7885   17.8671  -25.1257 H   0  0  0  0  0
  -10.1985   18.0157  -26.0013 H   0  0  0  0  0
   -9.6721   15.1580  -22.1673 H   0  0  0  0  0
  -22.8939   12.2635  -33.6999 H   0  0  0  0  0
  -10.0772   14.7731  -20.0258 H   0  0  0  0  0
  2  1  1  0  0  0
  3  1  1  0  0  0
  3  2  1  0  0  0
  2  4  1  0  0  0
  5  3  1  0  0  0
  4 24  1  0  0  0
  8  5  3  0  0  0
  7  6  1  0  0  0
  6  9  1  0  0  0
  6 10  1  0  0  0
  6 22  1  0  0  0
  7 11  1  0  0  0
 21  7  1  0  0  0
 13  8  1  0  0  0
 11 23  1  0  0  0
 11 25  2  0  0  0
 14 12  1  0  0  0
 12 21  1  0  0  0
 12 26  2  0  0  0
 18 13  3  0  0  0
 15 14  4  0  0  0
 14 16  4  0  0  0
 19 15  4  0  0  0
 16 20  4  0  0  0
 17 18  1  0  0  0
 17 19  4  0  0  0
 17 20  4  0  0  0
 23 27  1  0  0  0
  1 28  1  0  0  0
  1 29  1  0  0  0
  2 30  1  0  0  0
  3 31  1  0  0  0
  4 32  1  0  0  0
  4 33  1  0  0  0
  7 34  1  0  0  0
  9 35  1  0  0  0
  9 36  1  0  0  0
  9 37  1  0  0  0
 10 38  1  0  0  0
 10 39  1  0  0  0
 10 40  1  0  0  0
 15 41  1  0  0  0
 16 42  1  0  0  0
 19 43  1  0  0  0
 20 44  1  0  0  0
 21 45  1  0  0  0
 22 46  1  0  0  0
 22 47  1  0  0  0
 22 48  1  0  0  0
 23 49  1  0  0  0
 24 50  1  0  0  0
 27 51  1  0  0  0
M  END
$$$$
