5ndf_ligand
  -I-interpret- 

 31 33  0  0  0  0  0  0  0  0999 V2000
   18.5010  -44.2570  -37.2030 C   0  0  0  0  0
   17.7390  -46.3130  -36.1150 O   0  0  0  0  0
   18.3090  -45.1160  -36.0950 C   0  0  0  0  0
   19.6400  -43.2050  -33.5220 O   0  0  0  0  0
   18.6950  -44.7750  -34.8600 C   0  0  0  0  0
   20.1550  -41.0690  -34.5170 O   0  0  0  0  0
   19.2640  -43.5570  -34.7640 C   0  0  0  0  0
   19.3610  -42.0400  -38.1780 O   0  0  0  0  0
   19.4770  -42.6810  -35.8520 C   0  0  0  0  0
   21.3110  -38.6820  -41.8480 O   0  0  0  0  0
   19.0940  -42.9860  -37.1320 C   0  0  0  0  0
   20.4910  -36.3200  -41.0730 O   0  0  0  0  0
   20.0160  -41.4500  -35.6360 C   0  0  0  0  0
   20.0820  -40.4510  -36.5370 C   0  0  0  0  0
   19.8420  -40.7610  -37.8330 C   0  0  0  0  0
   20.0020  -39.6610  -38.6870 C   0  0  0  0  0
   20.6320  -39.7610  -39.9100 C   0  0  0  0  0
   20.7460  -38.6190  -40.6630 C   0  0  0  0  0
   20.3060  -37.3790  -40.2460 C   0  0  0  0  0
   19.6920  -37.2340  -39.0230 C   0  0  0  0  0
   19.5490  -38.3740  -38.2490 C   0  0  0  0  0
   18.1653  -44.6061  -38.1795 H   0  0  0  0  0
   17.7369  -46.6801  -35.2279 H   0  0  0  0  0
   20.0332  -42.3295  -33.5440 H   0  0  0  0  0
   18.5599  -45.4305  -33.9996 H   0  0  0  0  0
   20.9324  -36.6137  -41.8733 H   0  0  0  0  0
   20.3197  -39.4312  -36.2342 H   0  0  0  0  0
   21.0254  -40.7132  -40.2659 H   0  0  0  0  0
   19.3337  -36.2641  -38.6782 H   0  0  0  0  0
   20.1725  -38.1689  -37.3788 H   0  0  0  0  0
   18.4684  -38.4971  -38.1770 H   0  0  0  0  0
  1  3  4  0  0  0
 11  1  4  0  0  0
  3  2  1  0  0  0
  3  5  4  0  0  0
  7  4  1  0  0  0
  7  5  4  0  0  0
 13  6  2  0  0  0
  9  7  4  0  0  0
  8 11  1  0  0  0
 15  8  1  0  0  0
 11  9  4  0  0  0
 13  9  1  0  0  0
 18 10  2  0  0  0
 19 12  1  0  0  0
 14 13  1  0  0  0
 15 14  2  0  0  0
 16 15  1  0  0  0
 17 16  2  0  0  0
 16 21  1  0  0  0
 18 17  1  0  0  0
 18 19  1  0  0  0
 19 20  2  0  0  0
 20 21  1  0  0  0
  1 22  1  0  0  0
  2 23  1  0  0  0
  4 24  1  0  0  0
  5 25  1  0  0  0
 12 26  1  0  0  0
 14 27  1  0  0  0
 17 28  1  0  0  0
 20 29  1  0  0  0
 21 30  1  0  0  0
 21 31  1  0  0  0
M  END
$$$$
