5vyy_ligand
  -I-interpret- 

 46 48  0  0  0  0  0  0  0  0999 V2000
   -3.9220  -35.1170    7.4240 C   0  0  0  0  0
    1.9970  -29.9070    4.3410 C   0  0  0  0  0
    1.9660  -30.9220    5.2890 C   0  0  0  0  0
    1.8400  -30.2260    2.9900 C   0  0  0  0  0
    1.5930  -36.3170    5.6310 C   0  0  0  0  0
    1.8040  -32.2640    4.8910 C   0  0  0  0  0
    1.6630  -31.5480    2.5950 C   0  0  0  0  0
    2.1690  -35.4580    4.7780 C   0  0  0  0  0
   -5.5380  -33.3480    2.0760 C   0  0  0  0  0
   -1.3590  -35.1010    3.8770 C   0  0  0  0  0
   -1.9060  -33.7280    4.2640 C   0  0  0  0  0
    1.4770  -33.9000    3.0160 C   0  0  0  0  0
   -4.4360  -33.8550    5.5860 C   0  0  0  0  0
    1.6340  -32.5830    3.5330 C   0  0  0  0  0
   -4.3280  -33.2640    1.4000 C   0  0  0  0  0
   -5.5380  -33.5460    3.4410 C   0  0  0  0  0
   -3.1460  -33.3950    2.1300 C   0  0  0  0  0
    0.0380  -35.4040    4.4600 C   0  0  0  0  0
   -3.1490  -33.5990    3.5250 C   0  0  0  0  0
   -4.3680  -33.6490    4.1950 C   0  0  0  0  0
    0.2670  -36.2920    5.4310 N   0  0  0  0  0
    1.2100  -34.9010    4.0410 N   0  0  0  0  0
   -4.9450  -33.0360    6.3700 O   0  0  0  0  0
   -4.2400  -33.1340    0.0310 O   0  0  0  0  0
   -6.7290  -33.5870    4.0890 O   0  0  0  0  0
   -3.9470  -35.0550    5.9840 O   0  0  0  0  0
   -1.6860  -33.2150    1.1990 Cl  0  0  0  0  0
   -3.2850  -34.3210    7.8097 H   0  0  0  0  0
   -4.9341  -34.9931    7.8094 H   0  0  0  0  0
   -3.5281  -36.0836    7.7380 H   0  0  0  0  0
    2.1425  -28.8714    4.6484 H   0  0  0  0  0
    2.0676  -30.6789    6.3467 H   0  0  0  0  0
    1.8563  -29.4343    2.2410 H   0  0  0  0  0
    2.1147  -36.9324    6.3640 H   0  0  0  0  0
    1.8106  -33.0571    5.6387 H   0  0  0  0  0
    1.5450  -31.7802    1.5366 H   0  0  0  0  0
    3.2365  -35.2515    4.7011 H   0  0  0  0  0
   -6.4789  -33.2583    1.5331 H   0  0  0  0  0
   -1.2684  -35.1198    2.7909 H   0  0  0  0  0
   -2.0457  -35.8479    4.2753 H   0  0  0  0  0
   -1.2052  -32.9297    4.0197 H   0  0  0  0  0
   -2.0638  -33.6436    5.3392 H   0  0  0  0  0
    2.4126  -34.1733    2.5281 H   0  0  0  0  0
    0.6209  -33.8865    2.3415 H   0  0  0  0  0
   -3.3161  -33.0941   -0.2268 H   0  0  0  0  0
   -6.5774  -33.7297    5.0262 H   0  0  0  0  0
 26  1  1  0  0  0
  3  2  4  0  0  0
  4  2  4  0  0  0
  6  3  4  0  0  0
  7  4  4  0  0  0
  5  8  4  0  0  0
 21  5  4  0  0  0
 14  6  4  0  0  0
 14  7  4  0  0  0
  8 22  4  0  0  0
 15  9  4  0  0  0
  9 16  4  0  0  0
 10 11  1  0  0  0
 18 10  1  0  0  0
 11 19  1  0  0  0
 12 14  1  0  0  0
 22 12  1  0  0  0
 20 13  1  0  0  0
 13 23  2  0  0  0
 13 26  1  0  0  0
 17 15  4  0  0  0
 15 24  1  0  0  0
 16 20  4  0  0  0
 16 25  1  0  0  0
 19 17  4  0  0  0
 17 27  1  0  0  0
 18 21  4  0  0  0
 18 22  4  0  0  0
 19 20  4  0  0  0
  1 28  1  0  0  0
  1 29  1  0  0  0
  1 30  1  0  0  0
  2 31  1  0  0  0
  3 32  1  0  0  0
  4 33  1  0  0  0
  5 34  1  0  0  0
  6 35  1  0  0  0
  7 36  1  0  0  0
  8 37  1  0  0  0
  9 38  1  0  0  0
 10 39  1  0  0  0
 10 40  1  0  0  0
 11 41  1  0  0  0
 11 42  1  0  0  0
 12 43  1  0  0  0
 12 44  1  0  0  0
 24 45  1  0  0  0
 25 46  1  0  0  0
M  END
$$$$
