6evp_ligand
  -I-interpret- 

 97100  0  0  0  0  0  0  0  0999 V2000
  -11.7200   17.9310  -17.3530 N   0  3  0  0  0
  -12.5370   16.8730  -16.7480 C   0  0  0  0  0
  -13.3570   17.3760  -15.5600 C   0  0  0  0  0
  -12.9580   18.3580  -14.9280 O   0  0  0  0  0
  -11.4960   15.8450  -16.3070 C   0  0  0  0  0
  -10.3980   15.9940  -17.3180 C   0  0  0  0  0
  -10.3650   17.4610  -17.6880 C   0  0  0  0  0
  -14.4770   16.7270  -15.2480 N   0  0  0  0  0
  -14.9530   15.5200  -15.9110 C   0  0  0  0  0
  -16.0420   15.0020  -14.9930 C   0  0  0  0  0
  -15.9230   15.1990  -13.7980 O   0  0  0  0  0
  -17.0950   14.3750  -15.5250 N   0  0  0  0  0
  -18.2230   13.9830  -14.6640 C   0  0  0  0  0
  -17.8310   12.9030  -13.6730 C   0  0  0  0  0
  -16.9340   12.0940  -13.9220 O   0  0  0  0  0
  -19.2640   13.4620  -15.6570 C   0  0  0  0  0
  -18.4440   12.9690  -16.7850 C   0  0  0  0  0
  -17.2900   13.9190  -16.9130 C   0  0  0  0  0
  -18.5210   12.8930  -12.5270 N   0  0  0  0  0
  -18.2640   11.9220  -11.4720 C   0  0  0  0  0
  -19.5580   11.2000  -11.1290 C   0  0  0  0  0
  -20.5730   11.8380  -10.8300 O   0  0  0  0  0
  -17.6860   12.5900  -10.2140 C   0  0  0  0  0
  -17.1840   11.5890   -9.1690 C   0  0  0  0  0
  -16.7740   12.2450   -7.8470 C   0  0  0  0  0
  -16.5120   13.4670   -7.8330 O   0  0  0  0  0
  -16.7270   11.5380   -6.8160 O   0  0  0  0  0
  -19.5190    9.8730  -11.1690 N   0  0  0  0  0
  -20.6720    9.0660  -10.8360 C   0  0  0  0  0
  -20.7340    8.6930   -9.3710 C   0  0  0  0  0
  -19.8750    9.0780   -8.5730 O   0  0  0  0  0
  -21.7640    7.9380   -8.9900 N   0  0  0  0  0
  -21.9230    7.5300   -7.5930 C   0  0  0  0  0
  -20.7150    6.7470   -7.1230 C   0  0  0  0  0
  -20.1390    5.9560   -7.8900 O   0  0  0  0  0
  -23.1850    6.6490   -7.6090 C   0  0  0  0  0
  -23.9150    7.0200   -8.8690 C   0  0  0  0  0
  -22.8950    7.5220   -9.8380 C   0  0  0  0  0
  -20.2860    6.9570   -5.8760 N   0  0  0  0  0
  -19.1380    6.1860   -5.3750 C   0  0  0  0  0
  -19.3630    4.6890   -5.4510 C   0  0  0  0  0
  -18.4970    3.9530   -5.9380 O   0  0  0  0  0
  -19.0000    6.6860   -3.9300 C   0  0  0  0  0
  -19.5830    8.0630   -3.9490 C   0  0  0  0  0
  -20.7320    7.9790   -4.9090 C   0  0  0  0  0
  -20.5180    4.2190   -5.0020 N   0  0  0  0  0
  -20.8420    2.8080   -5.0730 C   0  0  0  0  0
  -22.3290    2.6170   -5.2940 C   0  0  0  0  0
  -22.8980    1.5310   -5.1150 O   0  0  0  0  0
  -23.0070    3.5820   -5.6440 O   0  0  0  0  0
  -11.6353   18.6922  -16.6794 H   0  0  0  0  0
  -12.1751   18.2308  -18.2152 H   0  0  0  0  0
  -13.2792   16.4738  -17.4392 H   0  0  0  0  0
  -11.8986   14.8325  -16.2767 H   0  0  0  0  0
  -11.1488   16.0159  -15.2880 H   0  0  0  0  0
  -10.5812   15.3709  -18.1934 H   0  0  0  0  0
   -9.4407   15.6687  -16.9108 H   0  0  0  0  0
   -9.5889   18.0091  -17.1538 H   0  0  0  0  0
  -10.1145   17.6217  -18.7366 H   0  0  0  0  0
  -15.0441   17.1029  -14.4881 H   0  0  0  0  0
  -14.1575   14.7901  -16.0609 H   0  0  0  0  0
  -15.3214   15.7195  -16.9173 H   0  0  0  0  0
  -18.5851   14.8099  -14.0531 H   0  0  0  0  0
  -19.9750   14.2304  -15.9603 H   0  0  0  0  0
  -19.8988   12.6857  -15.2298 H   0  0  0  0  0
  -19.0257   12.9323  -17.7061 H   0  0  0  0  0
  -18.0965   11.9522  -16.6022 H   0  0  0  0  0
  -16.4004   13.4546  -17.3384 H   0  0  0  0  0
  -17.4854   14.7364  -17.6071 H   0  0  0  0  0
  -19.2527   13.5897  -12.3870 H   0  0  0  0  0
  -17.5235   11.2096  -11.8355 H   0  0  0  0  0
  -18.4852   13.1714   -9.7543 H   0  0  0  0  0
  -16.8341   13.1946  -10.5253 H   0  0  0  0  0
  -16.3016   11.0989   -9.5804 H   0  0  0  0  0
  -18.0009   10.8999   -8.9547 H   0  0  0  0  0
  -16.9613   10.6340   -7.0383 H   0  0  0  0  0
  -18.6520    9.4103  -11.4421 H   0  0  0  0  0
  -20.6057    8.1418  -11.4101 H   0  0  0  0  0
  -21.5626    9.6507  -11.0664 H   0  0  0  0  0
  -22.0131    8.3754   -6.9108 H   0  0  0  0  0
  -23.8011    6.8163   -6.7255 H   0  0  0  0  0
  -22.9331    5.5887   -7.5899 H   0  0  0  0  0
  -24.6636    7.7863   -8.6678 H   0  0  0  0  0
  -24.4402    6.1565   -9.2771 H   0  0  0  0  0
  -22.6070    6.7607  -10.5630 H   0  0  0  0  0
  -23.2753    8.3419  -10.4473 H   0  0  0  0  0
  -18.2351    6.3343   -5.9673 H   0  0  0  0  0
  -17.9621    6.6878   -3.5971 H   0  0  0  0  0
  -19.5150    6.0355   -3.2231 H   0  0  0  0  0
  -18.8508    8.8096   -4.2566 H   0  0  0  0  0
  -19.9050    8.3812   -2.9574 H   0  0  0  0  0
  -21.6706    7.7163   -4.4210 H   0  0  0  0  0
  -20.9579    8.9354   -5.3806 H   0  0  0  0  0
  -21.1949    4.8655   -4.5969 H   0  0  0  0  0
  -20.5588    2.3314   -4.1345 H   0  0  0  0  0
  -20.2993    2.3609   -5.9059 H   0  0  0  0  0
  -22.2524    0.8731   -4.8468 H   0  0  0  0  0
  1  2  1  0  0  0
  1  7  1  0  0  0
  2  3  1  0  0  0
  2  5  1  0  0  0
  3  4  2  0  0  0
  3  8  1  0  0  0
  5  6  1  0  0  0
  6  7  1  0  0  0
  8  9  1  0  0  0
  9 10  1  0  0  0
 10 11  2  0  0  0
 10 12  1  0  0  0
 12 13  1  0  0  0
 12 18  1  0  0  0
 13 14  1  0  0  0
 13 16  1  0  0  0
 14 15  2  0  0  0
 14 19  1  0  0  0
 16 17  1  0  0  0
 17 18  1  0  0  0
 19 20  1  0  0  0
 20 21  1  0  0  0
 20 23  1  0  0  0
 21 22  2  0  0  0
 21 28  1  0  0  0
 23 24  1  0  0  0
 24 25  1  0  0  0
 25 26  2  0  0  0
 25 27  1  0  0  0
 28 29  1  0  0  0
 29 30  1  0  0  0
 30 31  2  0  0  0
 30 32  1  0  0  0
 32 33  1  0  0  0
 32 38  1  0  0  0
 33 34  1  0  0  0
 33 36  1  0  0  0
 34 35  2  0  0  0
 34 39  1  0  0  0
 36 37  1  0  0  0
 37 38  1  0  0  0
 39 40  1  0  0  0
 39 45  1  0  0  0
 40 41  1  0  0  0
 40 43  1  0  0  0
 41 42  2  0  0  0
 41 46  1  0  0  0
 43 44  1  0  0  0
 44 45  1  0  0  0
 46 47  1  0  0  0
 47 48  1  0  0  0
 48 49  1  0  0  0
 48 50  2  0  0  0
  1 51  1  0  0  0
  1 52  1  0  0  0
  2 53  1  0  0  0
  5 54  1  0  0  0
  5 55  1  0  0  0
  6 56  1  0  0  0
  6 57  1  0  0  0
  7 58  1  0  0  0
  7 59  1  0  0  0
  8 60  1  0  0  0
  9 61  1  0  0  0
  9 62  1  0  0  0
 13 63  1  0  0  0
 16 64  1  0  0  0
 16 65  1  0  0  0
 17 66  1  0  0  0
 17 67  1  0  0  0
 18 68  1  0  0  0
 18 69  1  0  0  0
 19 70  1  0  0  0
 20 71  1  0  0  0
 23 72  1  0  0  0
 23 73  1  0  0  0
 24 74  1  0  0  0
 24 75  1  0  0  0
 27 76  1  0  0  0
 28 77  1  0  0  0
 29 78  1  0  0  0
 29 79  1  0  0  0
 33 80  1  0  0  0
 36 81  1  0  0  0
 36 82  1  0  0  0
 37 83  1  0  0  0
 37 84  1  0  0  0
 38 85  1  0  0  0
 38 86  1  0  0  0
 40 87  1  0  0  0
 43 88  1  0  0  0
 43 89  1  0  0  0
 44 90  1  0  0  0
 44 91  1  0  0  0
 45 92  1  0  0  0
 45 93  1  0  0  0
 46 94  1  0  0  0
 47 95  1  0  0  0
 47 96  1  0  0  0
 49 97  1  0  0  0
M  END
$$$$
