6fbw_ligand
  -I-interpret- 

149153  0  0  0  0  0  0  0  0999 V2000
   22.6960   -4.5860  -16.4500 N   0  3  0  0  0
   22.9540   -5.6250  -15.4590 C   0  0  0  0  0
   22.1350   -6.8930  -15.7430 C   0  0  0  0  0
   21.2000   -6.8730  -16.5490 O   0  0  0  0  0
   22.6300   -5.1130  -14.0490 C   0  0  0  0  0
   23.6390   -4.1260  -13.4470 C   0  0  0  0  0
   23.4760   -4.0770  -11.9220 C   0  0  0  0  0
   24.2710   -3.0350  -11.2650 N   0  0  0  0  0
   25.5330   -3.1800  -10.8610 C   0  0  0  0  0
   26.1830   -4.3230  -11.0550 N   0  0  0  0  0
   26.1540   -2.1730  -10.2620 N   0  0  0  0  0
   22.4960   -7.9900  -15.0780 N   0  0  0  0  0
   21.7140   -9.2180  -15.1730 C   0  0  0  0  0
   20.3150   -8.9810  -14.6050 C   0  0  0  0  0
   20.1730   -8.3040  -13.5890 O   0  0  0  0  0
   22.3780  -10.3220  -14.3470 C   0  0  0  0  0
   23.7310  -10.5230  -14.7820 O   0  0  0  0  0
   21.5880  -11.6220  -14.4820 C   0  0  0  0  0
   19.2580   -9.5490  -15.2130 N   0  0  0  0  0
   17.9360   -9.3140  -14.6120 C   0  0  0  0  0
   17.6370  -10.0660  -13.2920 C   0  0  0  0  0
   17.9180  -11.2600  -13.1270 O   0  0  0  0  0
   16.9630   -9.7740  -15.7100 C   0  0  0  0  0
   17.7500   -9.7280  -16.9760 C   0  0  0  0  0
   19.1500  -10.0770  -16.5850 C   0  0  0  0  0
   17.0370   -9.3420  -12.3550 N   0  0  0  0  0
   16.5640   -9.9160  -11.1020 C   0  0  0  0  0
   16.7350   -8.8950   -9.9760 C   0  0  0  0  0
   16.0110   -7.7170  -10.3130 O   0  0  0  0  0
   15.0870  -10.2960  -11.2250 C   0  0  0  0  0
   14.4790  -10.1390  -12.2820 O   0  0  0  0  0
   16.2220   -6.3980   -9.4220 P   0  0  0  0  0
   15.2170   -5.3430  -10.0320 O   0  0  0  0  0
   17.7230   -5.9530   -9.5710 O   0  0  0  0  0
   15.8820   -6.7630   -7.9270 O   0  0  0  0  0
   14.5010  -10.7750  -10.1390 N   0  0  0  0  0
   13.0990  -11.1910  -10.1680 C   0  0  0  0  0
   12.2210   -9.9980  -10.5460 C   0  0  0  0  0
   12.3510   -8.9190   -9.9650 O   0  0  0  0  0
   12.6820  -11.7300   -8.7970 C   0  0  0  0  0
   11.3860  -12.5480   -8.7100 C   0  0  0  0  0
   11.5210  -13.9030   -9.4090 C   0  0  0  0  0
   11.0070  -12.7420   -7.2440 C   0  0  0  0  0
   11.3320  -10.1770  -11.5190 N   0  0  0  0  0
   10.5150   -9.0450  -11.9910 C   0  0  0  0  0
    9.2510   -8.7930  -11.1760 C   0  0  0  0  0
    8.2310   -8.3460  -11.7050 O   0  0  0  0  0
   10.1560   -9.4620  -13.4190 C   0  0  0  0  0
   10.0630  -10.9440  -13.3420 C   0  0  0  0  0
   11.1730  -11.3550  -12.3870 C   0  0  0  0  0
    9.3200   -9.0470   -9.8830 N   0  0  0  0  0
    8.1960   -8.8970   -8.9950 C   0  0  0  0  0
    8.6040   -9.3990   -7.6400 C   0  0  0  0  0
    9.8120   -9.6040   -7.4370 O   0  0  0  0  0
    3.3790   -9.3750   -7.5110 C   0  0  0  0  0
    3.1720  -11.6070   -6.7100 C   0  0  0  0  0
    1.9990   -9.2590   -7.4570 C   0  0  0  0  0
    1.7910  -11.4970   -6.6520 C   0  0  0  0  0
    1.2040  -10.3300   -7.0180 C   0  0  0  0  0
    8.6620  -13.9950  -11.2430 C   0  0  0  0  0
    7.1190  -12.7060   -9.9500 C   0  0  0  0  0
    6.6080  -12.1510  -11.1180 C   0  0  0  0  0
    5.6880  -11.0650  -11.0160 C   0  0  0  0  0
    5.3170  -10.6100   -9.7780 C   0  0  0  0  0
    5.8630  -11.2050   -8.5980 C   0  0  0  0  0
    5.5070  -10.7310   -7.1860 C   0  0  0  0  0
    3.9760  -10.5430   -7.1390 C   0  0  0  0  0
    6.3360   -9.5030   -6.8320 C   0  0  0  0  0
    8.0190  -10.1330   -5.3090 C   0  0  0  0  0
    6.7490   -9.8310   -4.5220 C   0  0  0  0  0
    5.9520   -9.0830   -5.3120 C   0  0  0  0  0
    6.7500  -12.2420   -8.6960 C   0  0  0  0  0
    7.6500   -9.7640   -6.7750 N   0  0  0  0  0
    8.0180  -13.7780   -9.9760 O   0  0  0  0  0
   22.9162   -4.9426  -17.3799 H   0  0  0  0  0
   21.7127   -4.3178  -16.4115 H   0  0  0  0  0
   23.2793   -3.7738  -16.2490 H   0  0  0  0  0
   24.0124   -5.8781  -15.5217 H   0  0  0  0  0
   22.6288   -5.9869  -13.3975 H   0  0  0  0  0
   21.6843   -4.5766  -14.1267 H   0  0  0  0  0
   23.4604   -3.1330  -13.8596 H   0  0  0  0  0
   24.6501   -4.4527  -13.6900 H   0  0  0  0  0
   23.8173   -5.0357  -11.5314 H   0  0  0  0  0
   22.4279   -3.8582  -11.7178 H   0  0  0  0  0
   23.8251   -2.1317  -11.1051 H   0  0  0  0  0
   27.1497   -4.4190  -10.7442 H   0  0  0  0  0
   25.7151   -5.1041  -11.5147 H   0  0  0  0  0
   25.6660   -1.2901  -10.1114 H   0  0  0  0  0
   23.3318   -7.9708  -14.4937 H   0  0  0  0  0
   21.6555   -9.5134  -16.2206 H   0  0  0  0  0
   22.3876  -10.0186  -13.3001 H   0  0  0  0  0
   24.1352  -11.2172  -14.2563 H   0  0  0  0  0
   20.5709  -11.4666  -14.1223 H   0  0  0  0  0
   21.5623  -11.9230  -15.5293 H   0  0  0  0  0
   22.0689  -12.4010  -13.8904 H   0  0  0  0  0
   17.8556   -8.2689  -14.3131 H   0  0  0  0  0
   16.0827   -9.1332  -15.7608 H   0  0  0  0  0
   16.5783  -10.7745  -15.5123 H   0  0  0  0  0
   17.6981   -8.7452  -17.4445 H   0  0  0  0  0
   17.3563  -10.4227  -17.7179 H   0  0  0  0  0
   19.3476  -11.1475  -16.6404 H   0  0  0  0  0
   19.8934   -9.6514  -17.2591 H   0  0  0  0  0
   16.9017   -8.3443  -12.5186 H   0  0  0  0  0
   17.1456  -10.8101  -10.8775 H   0  0  0  0  0
   17.7911   -8.6567   -9.8500 H   0  0  0  0  0
   16.3552   -9.3079   -9.0415 H   0  0  0  0  0
   14.3170   -5.6570   -9.9179 H   0  0  0  0  0
   14.9620   -7.0304   -7.8653 H   0  0  0  0  0
   15.0330  -10.8549   -9.2724 H   0  0  0  0  0
   12.9751  -11.9811  -10.9086 H   0  0  0  0  0
   12.5104  -10.8486   -8.1791 H   0  0  0  0  0
   13.4770  -12.4143   -8.5006 H   0  0  0  0  0
   10.5989  -11.9965   -9.2242 H   0  0  0  0  0
   11.7570  -13.7456  -10.4614 H   0  0  0  0  0
   12.3200  -14.4754   -8.9378 H   0  0  0  0  0
   10.5818  -14.4495   -9.3238 H   0  0  0  0  0
   11.8085  -13.2726   -6.7300 H   0  0  0  0  0
   10.8561  -11.7686   -6.7772 H   0  0  0  0  0
   10.0867  -13.3228   -7.1818 H   0  0  0  0  0
   11.0613   -8.1056  -11.9069 H   0  0  0  0  0
   10.8958   -9.1296  -14.1472 H   0  0  0  0  0
    9.2286   -9.0051  -13.7644 H   0  0  0  0  0
   10.1780  -11.4088  -14.3212 H   0  0  0  0  0
    9.0843  -11.2710  -12.9908 H   0  0  0  0  0
   10.9294  -12.2575  -11.8265 H   0  0  0  0  0
   12.0944  -11.6194  -12.9059 H   0  0  0  0  0
   10.2087   -9.3636   -9.4952 H   0  0  0  0  0
    7.3442   -9.4667   -9.3666 H   0  0  0  0  0
    7.9010   -7.8494   -8.9350 H   0  0  0  0  0
    3.9853   -8.5350   -7.8499 H   0  0  0  0  0
    3.6436  -12.5443   -6.4146 H   0  0  0  0  0
    1.5250   -8.3251   -7.7590 H   0  0  0  0  0
    1.1843  -12.3381   -6.3164 H   0  0  0  0  0
    0.1201  -10.2242   -6.9715 H   0  0  0  0  0
    7.9073  -14.1989  -12.0026 H   0  0  0  0  0
    9.2263  -13.1044  -11.5195 H   0  0  0  0  0
    9.3389  -14.8457  -11.1641 H   0  0  0  0  0
    6.9045  -12.5381  -12.0929 H   0  0  0  0  0
    5.2837  -10.6012  -11.9157 H   0  0  0  0  0
    4.6027   -9.7911   -9.6923 H   0  0  0  0  0
    5.7597  -11.4565   -6.4127 H   0  0  0  0  0
    6.1334   -8.7481   -7.5917 H   0  0  0  0  0
    8.3287  -11.1734   -5.2102 H   0  0  0  0  0
    8.8759   -9.5670   -4.9436 H   0  0  0  0  0
    6.9877   -9.2947   -3.6036 H   0  0  0  0  0
    6.2463  -10.7559   -4.2392 H   0  0  0  0  0
    4.8976   -9.2620   -5.1013 H   0  0  0  0  0
    6.1043   -8.0174   -5.1404 H   0  0  0  0  0
    7.1629  -12.6994   -7.7969 H   0  0  0  0  0
  2  1  1  0  0  0
  3  2  1  0  0  0
  2  5  1  0  0  0
  3  4  2  0  0  0
 12  3  1  0  0  0
  5  6  1  0  0  0
  6  7  1  0  0  0
  7  8  1  0  0  0
  8  9  1  0  0  0
  9 10  1  0  0  0
  9 11  2  0  0  0
 13 12  1  0  0  0
 14 13  1  0  0  0
 13 16  1  0  0  0
 14 15  2  0  0  0
 19 14  1  0  0  0
 16 17  1  0  0  0
 16 18  1  0  0  0
 20 19  1  0  0  0
 19 25  1  0  0  0
 21 20  1  0  0  0
 20 23  1  0  0  0
 21 22  2  0  0  0
 26 21  1  0  0  0
 23 24  1  0  0  0
 24 25  1  0  0  0
 27 26  1  0  0  0
 27 28  1  0  0  0
 30 27  1  0  0  0
 28 29  1  0  0  0
 29 32  1  0  0  0
 30 31  2  0  0  0
 36 30  1  0  0  0
 32 33  1  0  0  0
 32 34  2  0  0  0
 32 35  1  0  0  0
 37 36  1  0  0  0
 38 37  1  0  0  0
 37 40  1  0  0  0
 38 39  2  0  0  0
 44 38  1  0  0  0
 40 41  1  0  0  0
 41 42  1  0  0  0
 41 43  1  0  0  0
 45 44  1  0  0  0
 44 50  1  0  0  0
 46 45  1  0  0  0
 45 48  1  0  0  0
 46 47  2  0  0  0
 51 46  1  0  0  0
 48 49  1  0  0  0
 49 50  1  0  0  0
 52 51  1  0  0  0
 53 52  1  0  0  0
 53 54  2  0  0  0
 73 53  1  0  0  0
 55 57  4  0  0  0
 67 55  4  0  0  0
 56 58  4  0  0  0
 67 56  4  0  0  0
 57 59  4  0  0  0
 58 59  4  0  0  0
 74 60  1  0  0  0
 61 62  4  0  0  0
 72 61  4  0  0  0
 61 74  1  0  0  0
 63 62  4  0  0  0
 64 63  4  0  0  0
 65 64  4  0  0  0
 66 65  1  0  0  0
 65 72  4  0  0  0
 66 67  1  0  0  0
 68 66  1  0  0  0
 68 71  1  0  0  0
 73 68  1  0  0  0
 69 70  1  0  0  0
 73 69  1  0  0  0
 70 71  1  0  0  0
  1 75  1  0  0  0
  1 76  1  0  0  0
  1 77  1  0  0  0
  2 78  1  0  0  0
  5 79  1  0  0  0
  5 80  1  0  0  0
  6 81  1  0  0  0
  6 82  1  0  0  0
  7 83  1  0  0  0
  7 84  1  0  0  0
  8 85  1  0  0  0
 10 86  1  0  0  0
 10 87  1  0  0  0
 11 88  1  0  0  0
 12 89  1  0  0  0
 13 90  1  0  0  0
 16 91  1  0  0  0
 17 92  1  0  0  0
 18 93  1  0  0  0
 18 94  1  0  0  0
 18 95  1  0  0  0
 20 96  1  0  0  0
 23 97  1  0  0  0
 23 98  1  0  0  0
 24 99  1  0  0  0
 24100  1  0  0  0
 25101  1  0  0  0
 25102  1  0  0  0
 26103  1  0  0  0
 27104  1  0  0  0
 28105  1  0  0  0
 28106  1  0  0  0
 33107  1  0  0  0
 35108  1  0  0  0
 36109  1  0  0  0
 37110  1  0  0  0
 40111  1  0  0  0
 40112  1  0  0  0
 41113  1  0  0  0
 42114  1  0  0  0
 42115  1  0  0  0
 42116  1  0  0  0
 43117  1  0  0  0
 43118  1  0  0  0
 43119  1  0  0  0
 45120  1  0  0  0
 48121  1  0  0  0
 48122  1  0  0  0
 49123  1  0  0  0
 49124  1  0  0  0
 50125  1  0  0  0
 50126  1  0  0  0
 51127  1  0  0  0
 52128  1  0  0  0
 52129  1  0  0  0
 55130  1  0  0  0
 56131  1  0  0  0
 57132  1  0  0  0
 58133  1  0  0  0
 59134  1  0  0  0
 60135  1  0  0  0
 60136  1  0  0  0
 60137  1  0  0  0
 62138  1  0  0  0
 63139  1  0  0  0
 64140  1  0  0  0
 66141  1  0  0  0
 68142  1  0  0  0
 69143  1  0  0  0
 69144  1  0  0  0
 70145  1  0  0  0
 70146  1  0  0  0
 71147  1  0  0  0
 71148  1  0  0  0
 72149  1  0  0  0
M  END
$$$$
