### 
### Created by X-TOOL on Wed Jan  1 15:39:35 2020
### 

@<TRIPOS>MOLECULE
6fbw_ligand
  148   152     1     0     0
SMALL
GAST_HUCK


@<TRIPOS>ATOM
      1 N          22.6960   -4.5860  -16.4500 N.4       1 ARG         0.2379
      2 CA         22.9540   -5.6250  -15.4590 C.3       1 ARG         0.0651
      3 C          22.1350   -6.8930  -15.7430 C.2       1 ARG         0.2268
      4 O          21.2000   -6.8730  -16.5490 O.2       1 ARG        -0.3907
      5 CB         22.6300   -5.1130  -14.0490 C.3       1 ARG         0.0110
      6 CG         23.6390   -4.1260  -13.4470 C.3       1 ARG        -0.0125
      7 CD         23.4760   -4.0770  -11.9220 C.3       1 ARG         0.0629
      8 NE         24.2710   -3.0350  -11.2650 N.pl3     1 ARG        -0.2723
      9 CZ         25.5330   -3.1800  -10.8610 C.cat     1 ARG         0.2882
     10 NH1        26.1830   -4.3230  -11.0550 N.pl3     1 ARG        -0.2849
     11 NH2        26.1540   -2.1730  -10.2620 N.pl3     1 ARG        -0.2849
     12 N          22.4960   -7.9900  -15.0780 N.am      1 THR        -0.2586
     13 CA         21.7140   -9.2180  -15.1730 C.3       1 THR         0.1568
     14 C          20.3150   -8.9810  -14.6050 C.2       1 THR         0.2090
     15 O          20.1730   -8.3040  -13.5890 O.2       1 THR        -0.3941
     16 CB         22.3780  -10.3220  -14.3470 C.3       1 THR         0.0924
     17 OG1        23.7310  -10.5230  -14.7820 O.3       1 THR        -0.3874
     18 CG2        21.5880  -11.6220  -14.4820 C.3       1 THR        -0.0346
     19 N          19.2580   -9.5490  -15.2130 N.am      1 PRO        -0.2498
     20 CA         17.9360   -9.3140  -14.6120 C.3       1 PRO         0.1338
     21 C          17.6370  -10.0660  -13.2920 C.2       1 PRO         0.2042
     22 O          17.9180  -11.2600  -13.1270 O.2       1 PRO        -0.3944
     23 CB         16.9630   -9.7740  -15.7100 C.3       1 PRO        -0.0104
     24 CG         17.7500   -9.7280  -16.9760 C.3       1 PRO        -0.0281
     25 CD         19.1500  -10.0770  -16.5850 C.3       1 PRO         0.0369
     26 N          17.0370   -9.3420  -12.3550 N.am      1 SEP        -0.2613
     27 CA         16.5640   -9.9160  -11.1020 C.3       1 SEP         0.1586
     28 CB         16.7350   -8.8950   -9.9760 C.3       1 SEP         0.1184
     29 OG         16.0110   -7.7170  -10.3130 O.3       1 SEP        -0.2714
     30 C          15.0870  -10.2960  -11.2250 C.2       1 SEP         0.2065
     31 O          14.4790  -10.1390  -12.2820 O.2       1 SEP        -0.3943
     32 P          16.2220   -6.3980   -9.4220 P.3       1 SEP         0.2010
     33 O1P        15.2170   -5.3430  -10.0320 O.co2     1 SEP        -0.5537
     34 O2P        17.7230   -5.9530   -9.5710 O.co2     1 SEP        -0.5537
     35 O3P        15.8820   -6.7630   -7.9270 O.co2     1 SEP        -0.5537
     36 N          14.5010  -10.7750  -10.1390 N.am      1 LEU        -0.2636
     37 CA         13.0990  -11.1910  -10.1680 C.3       1 LEU         0.1314
     38 C          12.2210   -9.9980  -10.5460 C.2       1 LEU         0.2064
     39 O          12.3510   -8.9190   -9.9650 O.2       1 LEU        -0.3942
     40 CB         12.6820  -11.7300   -8.7970 C.3       1 LEU        -0.0101
     41 CG         11.3860  -12.5480   -8.7100 C.3       1 LEU        -0.0425
     42 CD1        11.5210  -13.9030   -9.4090 C.3       1 LEU        -0.0625
     43 CD2        11.0070  -12.7420   -7.2440 C.3       1 LEU        -0.0625
     44 N          11.3320  -10.1770  -11.5190 N.am      1 PRO        -0.2498
     45 CA         10.5150   -9.0450  -11.9910 C.3       1 PRO         0.1338
     46 C           9.2510   -8.7930  -11.1760 C.2       1 PRO         0.2039
     47 O           8.2310   -8.3460  -11.7050 O.2       1 PRO        -0.3944
     48 CB         10.1560   -9.4620  -13.4190 C.3       1 PRO        -0.0104
     49 CG         10.0630  -10.9440  -13.3420 C.3       1 PRO        -0.0281
     50 CD         11.1730  -11.3550  -12.3870 C.3       1 PRO         0.0369
     51 N           9.3200   -9.0470   -9.8830 N.am      1 GLY        -0.2664
     52 CA          8.1960   -8.8970   -8.9950 C.3       1 GLY         0.1202
     53 C           8.6040   -9.3990   -7.6400 C.2       1 GLY         0.2015
     54 O           9.8120   -9.6040   -7.4370 O.2       1 GLY        -0.3946
     55 C14         3.3790   -9.3750   -7.5110 C.ar      1 D4K        -0.0580
     56 C10         3.1720  -11.6070   -6.7100 C.ar      1 D4K        -0.0580
     57 C13         1.9990   -9.2590   -7.4570 C.ar      1 D4K        -0.0682
     58 C11         1.7910  -11.4970   -6.6520 C.ar      1 D4K        -0.0682
     59 C12         1.2040  -10.3300   -7.0180 C.ar      1 D4K        -0.0685
     60 C01         8.6620  -13.9950  -11.2430 C.3       1 D4K         0.0592
     61 C03         7.1190  -12.7060   -9.9500 C.ar      1 D4K         0.0844
     62 C04         6.6080  -12.1510  -11.1180 C.ar      1 D4K        -0.0399
     63 C05         5.6880  -11.0650  -11.0160 C.ar      1 D4K        -0.0768
     64 C06         5.3170  -10.6100   -9.7780 C.ar      1 D4K        -0.0691
     65 C07         5.8630  -11.2050   -8.5980 C.ar      1 D4K        -0.0355
     66 C08         5.5070  -10.7310   -7.1860 C.3       1 D4K         0.0462
     67 C09         3.9760  -10.5430   -7.1390 C.ar      1 D4K        -0.0269
     68 C15         6.3360   -9.5030   -6.8320 C.3       1 D4K         0.0663
     69 C17         8.0190  -10.1330   -5.3090 C.3       1 D4K         0.0347
     70 C18         6.7490   -9.8310   -4.5220 C.3       1 D4K        -0.0301
     71 C19         5.9520   -9.0830   -5.3120 C.3       1 D4K        -0.0239
     72 C20         6.7500  -12.2420   -8.6960 C.ar      1 D4K        -0.0299
     73 N16         7.6500   -9.7640   -6.7750 N.am      1 D4K        -0.2644
     74 O02         8.0180  -13.7780   -9.9760 O.3       1 D4K        -0.3229
     75 H1         23.2481   -3.7709  -16.2337 H         1 ARG         0.2015
     76 H2         21.7179   -4.3429  -16.4351 H         1 ARG         0.2015
     77 H3         22.9438   -4.9262  -17.3659 H         1 ARG         0.2015
     78 H4         24.0222   -5.8841  -15.5023 H         1 ARG         0.1098
     79 H5         22.5697   -5.9838  -13.3796 H         1 ARG         0.0347
     80 H6         21.6513   -4.6125  -14.0886 H         1 ARG         0.0347
     81 H7         23.4627   -3.1239  -13.8649 H         1 ARG         0.0302
     82 H8         24.6601   -4.4520  -13.6943 H         1 ARG         0.0302
     83 H9         23.7784   -5.0517  -11.5114 H         1 ARG         0.0689
     84 H10        22.4151   -3.8963  -11.6942 H         1 ARG         0.0689
     85 H11        23.8208   -2.1228  -11.1035 H         1 ARG         0.2642
     86 H12        27.1580   -4.4213  -10.7377 H         1 ARG         0.2615
     87 H13        25.7117   -5.1105  -11.5226 H         1 ARG         0.2615
     88 H14        25.6600   -1.2827  -10.1065 H         1 ARG         0.2615
     89 H15        27.1304   -2.2812   -9.9523 H         1 ARG         0.2615
     90 H16        23.3154   -7.9712  -14.5051 H         1 THR         0.1885
     91 H17        21.6436   -9.5293  -16.2257 H         1 THR         0.0826
     92 H18        22.3862  -10.0184  -13.2898 H         1 THR         0.0639
     93 H19        24.2206   -9.7162  -14.6733 H         1 THR         0.2101
     94 H20        22.0724  -12.4090  -13.8854 H         1 THR         0.0257
     95 H21        21.5614  -11.9269  -15.5386 H         1 THR         0.0257
     96 H22        20.5613  -11.4665  -14.1192 H         1 THR         0.0257
     97 H23        17.8154   -8.2377  -14.4198 H         1 PRO         0.0802
     98 H24        16.0990   -9.0957  -15.7684 H         1 PRO         0.0313
     99 H25        16.6129  -10.7976  -15.5108 H         1 PRO         0.0313
    100 H26        17.7130   -8.7205  -17.4160 H         1 PRO         0.0287
    101 H27        17.3588  -10.4586  -17.6993 H         1 PRO         0.0287
    102 H28        19.3044  -11.1660  -16.6019 H         1 PRO         0.0524
    103 H29        19.8782   -9.5930  -17.2524 H         1 PRO         0.0524
    104 H30        16.9044   -8.3639  -12.5154 H         1 SEP         0.1884
    105 H31        17.1522  -10.8162  -10.8705 H         1 SEP         0.0827
    106 H32        17.8011   -8.6522   -9.8555 H         1 SEP         0.0662
    107 H33        16.3454   -9.3124   -9.0358 H         1 SEP         0.0662
    108 H34        15.0226  -10.8533   -9.2894 H         1 LEU         0.1883
    109 H35        12.9737  -11.9846  -10.9193 H         1 LEU         0.0800
    110 H36        12.5694  -10.8658   -8.1258 H         1 LEU         0.0315
    111 H37        13.4990  -12.3715   -8.4350 H         1 LEU         0.0315
    112 H38        10.5850  -11.9827   -9.2088 H         1 LEU         0.0298
    113 H39        10.5737  -14.4556   -9.3237 H         1 LEU         0.0232
    114 H40        12.3271  -14.4818   -8.9344 H         1 LEU         0.0232
    115 H41        11.7592  -13.7455  -10.4713 H         1 LEU         0.0232
    116 H42        10.9140  -11.7604   -6.7564 H         1 LEU         0.0232
    117 H43        11.7870  -13.3301   -6.7383 H         1 LEU         0.0232
    118 H44        10.0469  -13.2752   -7.1809 H         1 LEU         0.0232
    119 H45        11.1165   -8.1241  -11.9932 H         1 PRO         0.0802
    120 H46        10.9406   -9.1547  -14.1261 H         1 PRO         0.0313
    121 H47         9.1944   -9.0243  -13.7252 H         1 PRO         0.0313
    122 H48        10.2190  -11.3939  -14.3336 H         1 PRO         0.0287
    123 H49         9.0819  -11.2507  -12.9504 H         1 PRO         0.0287
    124 H50        10.8805  -12.2388  -11.8010 H         1 PRO         0.0524
    125 H51        12.1031  -11.5691  -12.9339 H         1 PRO         0.0524
    126 H52        10.1913   -9.3574   -9.5028 H         1 GLY         0.1881
    127 H53         7.3439   -9.4835   -9.3692 H         1 GLY         0.0763
    128 H54         7.9109   -7.8366   -8.9297 H         1 GLY         0.0763
    129 H55         3.9820   -8.5396   -7.8480 H         1 GLY         0.0561
    130 H56         3.6410  -12.5391   -6.4162 H         1 GLY         0.0561
    131 H57         1.5276   -8.3302   -7.7573 H         1 GLY         0.0600
    132 H58         1.1877  -12.3334   -6.3182 H         1 GLY         0.0600
    133 H59         0.1261  -10.2248   -6.9718 H         1 GLY         0.0561
    134 H60         9.3455  -14.8533  -11.1646 H         1 GLY         0.0577
    135 H61         9.2319  -13.0969  -11.5232 H         1 GLY         0.0577
    136 H62         7.9014  -14.2009  -12.0105 H         1 GLY         0.0577
    137 H63         6.9029  -12.5359  -12.0875 H         1 GLY         0.0487
    138 H64         5.2859  -10.6037  -11.9107 H         1 GLY         0.0572
    139 H65         4.6067   -9.7956   -9.6928 H         1 GLY         0.0468
    140 H66         5.7699  -11.5207   -6.4668 H         1 GLY         0.0639
    141 H67         6.1313   -8.6909   -7.5451 H         1 GLY         0.0606
    142 H68         8.2849  -11.1974   -5.2288 H         1 GLY         0.0522
    143 H69         8.8571   -9.5176   -4.9501 H         1 GLY         0.0522
    144 H70         6.9978   -9.2756   -3.6057 H         1 GLY         0.0285
    145 H71         6.2401  -10.7690   -4.2554 H         1 GLY         0.0285
    146 H72         4.8934   -9.3015   -5.1080 H         1 GLY         0.0291
    147 H73         6.1435   -8.0122   -5.1484 H         1 GLY         0.0291
    148 H74         7.1607  -12.6969   -7.8018 H         1 GLY         0.0482
@<TRIPOS>BOND
     1    2    1 1  
     2    3    2 1  
     3    2    5 1  
     4    3    4 2  
     5   12    3 am 
     6    5    6 1  
     7    6    7 1  
     8    7    8 1  
     9    8    9 ar 
    10    9   10 ar 
    11    9   11 ar 
    12   13   12 1  
    13   14   13 1  
    14   13   16 1  
    15   14   15 2  
    16   19   14 am 
    17   16   17 1  
    18   16   18 1  
    19   20   19 1  
    20   19   25 1  
    21   21   20 1  
    22   20   23 1  
    23   21   22 2  
    24   26   21 am 
    25   23   24 1  
    26   24   25 1  
    27   27   26 1  
    28   27   28 1  
    29   30   27 1  
    30   28   29 1  
    31   29   32 1  
    32   30   31 2  
    33   36   30 am 
    34   32   33 ar 
    35   32   34 ar 
    36   32   35 ar 
    37   37   36 1  
    38   38   37 1  
    39   37   40 1  
    40   38   39 2  
    41   44   38 am 
    42   40   41 1  
    43   41   42 1  
    44   41   43 1  
    45   45   44 1  
    46   44   50 1  
    47   46   45 1  
    48   45   48 1  
    49   46   47 2  
    50   51   46 am 
    51   48   49 1  
    52   49   50 1  
    53   52   51 1  
    54   53   52 1  
    55   53   54 2  
    56   73   53 am 
    57   55   57 ar 
    58   67   55 ar 
    59   56   58 ar 
    60   67   56 ar 
    61   57   59 ar 
    62   58   59 ar 
    63   74   60 1  
    64   61   62 ar 
    65   72   61 ar 
    66   61   74 1  
    67   63   62 ar 
    68   64   63 ar 
    69   65   64 ar 
    70   66   65 1  
    71   65   72 ar 
    72   66   67 1  
    73   68   66 1  
    74   68   71 1  
    75   73   68 1  
    76   69   70 1  
    77   73   69 1  
    78   70   71 1  
    79    1   75 1  
    80    1   76 1  
    81    1   77 1  
    82    2   78 1  
    83    5   79 1  
    84    5   80 1  
    85    6   81 1  
    86    6   82 1  
    87    7   83 1  
    88    7   84 1  
    89    8   85 1  
    90   10   86 1  
    91   10   87 1  
    92   11   88 1  
    93   11   89 1  
    94   12   90 1  
    95   13   91 1  
    96   16   92 1  
    97   17   93 1  
    98   18   94 1  
    99   18   95 1  
   100   18   96 1  
   101   20   97 1  
   102   23   98 1  
   103   23   99 1  
   104   24  100 1  
   105   24  101 1  
   106   25  102 1  
   107   25  103 1  
   108   26  104 1  
   109   27  105 1  
   110   28  106 1  
   111   28  107 1  
   112   36  108 1  
   113   37  109 1  
   114   40  110 1  
   115   40  111 1  
   116   41  112 1  
   117   42  113 1  
   118   42  114 1  
   119   42  115 1  
   120   43  116 1  
   121   43  117 1  
   122   43  118 1  
   123   45  119 1  
   124   48  120 1  
   125   48  121 1  
   126   49  122 1  
   127   49  123 1  
   128   50  124 1  
   129   50  125 1  
   130   51  126 1  
   131   52  127 1  
   132   52  128 1  
   133   55  129 1  
   134   56  130 1  
   135   57  131 1  
   136   58  132 1  
   137   59  133 1  
   138   60  134 1  
   139   60  135 1  
   140   60  136 1  
   141   62  137 1  
   142   63  138 1  
   143   64  139 1  
   144   66  140 1  
   145   68  141 1  
   146   69  142 1  
   147   69  143 1  
   148   70  144 1  
   149   70  145 1  
   150   71  146 1  
   151   71  147 1  
   152   72  148 1  
@<TRIPOS>SUBSTRUCTURE
     1 ARG         1

