4an2_ligand
  -I-interpret- 

 52 55  0  0  0  0  0  0  0  0999 V2000
  -31.1580   12.8710   -6.2920 O   0  0  0  0  0
  -30.6740   12.7290   -5.1760 C   0  0  0  0  0
  -31.1960   11.7010   -4.2240 C   0  0  0  0  0
  -30.2890   11.0380   -3.3310 C   0  0  0  0  0
  -30.7470   10.0440   -2.4520 C   0  0  0  0  0
  -32.1190    9.7390   -2.5130 C   0  0  0  0  0
  -32.7780    8.8720   -1.7900 F   0  0  0  0  0
  -32.9780   10.3550   -3.3910 C   0  0  0  0  0
  -34.2420   10.0390   -3.3390 F   0  0  0  0  0
  -32.5580   11.3320   -4.2630 C   0  0  0  0  0
  -33.5470   11.8970   -5.0440 N   0  0  0  0  0
  -34.8100   12.4390   -4.7530 C   0  0  0  0  0
  -35.3320   12.4230   -3.4350 C   0  0  0  0  0
  -36.6090   12.9830   -3.1520 C   0  0  0  0  0
  -37.3470   13.5770   -4.1780 C   0  0  0  0  0
  -39.3310   14.4550   -3.8890 I   0  0  0  0  0
  -35.5700   13.0360   -5.7550 C   0  0  0  0  0
  -35.1060   13.0620   -7.0100 F   0  0  0  0  0
  -36.8320   13.5950   -5.4590 C   0  0  0  0  0
  -29.6500   13.5370   -4.8420 N   0  0  0  0  0
  -28.9250   13.6760   -3.5900 C   0  0  0  0  0
  -28.2250   14.8240   -4.4330 C   0  0  0  0  0
  -29.0660   14.5390   -5.7280 C   0  0  0  0  0
  -28.5980   16.1420   -4.0240 O   0  0  0  0  0
  -26.7130   14.7600   -4.6300 C   0  0  0  0  0
  -26.1890   13.3010   -4.7850 C   0  0  0  0  0
  -24.6570   13.3010   -4.6250 C   0  0  0  0  0
  -24.2860   13.7990   -3.2030 C   0  0  0  0  0
  -24.8170   15.2450   -3.0510 C   0  0  0  0  0
  -26.2470   15.4030   -3.3920 N   0  3  0  0  0
  -29.2333   11.3092   -3.3354 H   0  0  0  0  0
  -30.0758    9.5359   -1.7596 H   0  0  0  0  0
  -33.3121   11.9269   -6.0361 H   0  0  0  0  0
  -34.7486   11.9768   -2.6296 H   0  0  0  0  0
  -37.0095   12.9485   -2.1388 H   0  0  0  0  0
  -37.4133   14.0514   -6.2602 H   0  0  0  0  0
  -28.4130   12.8740   -3.0582 H   0  0  0  0  0
  -29.3741   13.7937   -2.6038 H   0  0  0  0  0
  -29.6235   15.2827   -6.2973 H   0  0  0  0  0
  -28.6561   14.3458   -6.7193 H   0  0  0  0  0
  -28.1424   16.7864   -4.5706 H   0  0  0  0  0
  -26.3593   15.2392   -5.5429 H   0  0  0  0  0
  -26.4565   12.9161   -5.7691 H   0  0  0  0  0
  -26.6390   12.6651   -4.0226 H   0  0  0  0  0
  -24.2138   13.9628   -5.3691 H   0  0  0  0  0
  -24.2767   12.2894   -4.7666 H   0  0  0  0  0
  -23.2049   13.7778   -3.0660 H   0  0  0  0  0
  -24.7326   13.1518   -2.4482 H   0  0  0  0  0
  -24.2503   15.8704   -3.7408 H   0  0  0  0  0
  -24.7034   15.5214   -2.0028 H   0  0  0  0  0
  -26.7648   14.9573   -2.6347 H   0  0  0  0  0
  -26.3925   16.4036   -3.5260 H   0  0  0  0  0
  1  2  2  0  0  0
  2  3  1  0  0  0
  2 20  1  0  0  0
  3  4  4  0  0  0
  3 10  4  0  0  0
  4  5  4  0  0  0
  5  6  4  0  0  0
  6  7  1  0  0  0
  6  8  4  0  0  0
  8  9  1  0  0  0
  8 10  4  0  0  0
 10 11  1  0  0  0
 11 12  1  0  0  0
 12 13  4  0  0  0
 12 17  4  0  0  0
 13 14  4  0  0  0
 14 15  4  0  0  0
 15 16  1  0  0  0
 15 19  4  0  0  0
 17 18  1  0  0  0
 17 19  4  0  0  0
 20 21  1  0  0  0
 20 23  1  0  0  0
 21 22  1  0  0  0
 22 23  1  0  0  0
 22 24  1  0  0  0
 22 25  1  0  0  0
 25 26  1  0  0  0
 25 30  1  0  0  0
 26 27  1  0  0  0
 27 28  1  0  0  0
 28 29  1  0  0  0
 29 30  1  0  0  0
  4 31  1  0  0  0
  5 32  1  0  0  0
 11 33  1  0  0  0
 13 34  1  0  0  0
 14 35  1  0  0  0
 19 36  1  0  0  0
 21 37  1  0  0  0
 21 38  1  0  0  0
 23 39  1  0  0  0
 23 40  1  0  0  0
 24 41  1  0  0  0
 25 42  1  0  0  0
 26 43  1  0  0  0
 26 44  1  0  0  0
 27 45  1  0  0  0
 27 46  1  0  0  0
 28 47  1  0  0  0
 28 48  1  0  0  0
 29 49  1  0  0  0
 29 50  1  0  0  0
 30 51  1  0  0  0
 30 52  1  0  0  0
M  END
$$$$
