2z3z_ligand

Created by X-TOOL on Fri Nov 18 15:08:35 2016
 51 51  0  0  0  0  0  0  0  0999 V2000
   -7.1940   43.7210   67.3900  O 0  0  0  1  0  1
   -7.3780   43.5720   66.1810  C 0  0  0  1  0  3
   -6.8320   44.6160   65.2310  C 0  0  0  2  0  4
   -5.2900   44.6080   65.2470  C 0  0  0  2  0  4
   -4.6740   45.6040   64.2590  C 0  0  0  3  0  4
   -5.0120   45.3300   62.8090  C 0  0  0  4  0  4
   -4.6790   43.2350   64.9730  C 0  0  0  4  0  4
   -7.2590   45.9490   65.6600  N 0  0  0  2  0  3
   -8.5100   46.3600   65.4750  C 0  0  0  1  0  3
   -9.3840   45.6240   65.0470  O 0  0  0  1  0  1
   -8.8420   47.7850   65.8840  C 0  0  0  2  0  4
   -9.1670   47.7540   67.3790  C 0  0  0  4  0  4
  -10.0040   48.2740   65.1590  N 0  3  0  4  0  4
   -8.0230   42.5160   65.7130  N 0  0  0  1  0  3
   -8.3530   42.1710   64.3180  C 0  0  0  3  0  4
   -9.0640   40.8390   64.3950  C 0  0  0  3  0  4
   -9.5360   40.6930   65.8400  C 0  0  0  3  0  4
   -8.5310   41.5230   66.6580  C 0  0  0  3  0  5
   -7.2510   40.6780   67.1640  B 0  0  0  1  0  3
   -6.4090   41.2480   68.3070  O 0  0  0  3  0  3
   -6.4560   39.8670   66.1280  O 0  0  0  3  0  3
   -7.1977   44.4113   64.2140  H 0  0  0  1  0  1
   -4.9855   44.9103   66.2599  H 0  0  0  1  0  1
   -3.5803   45.5689   64.3707  H 0  0  0  1  0  1
   -5.0365   46.6110   64.5132  H 0  0  0  1  0  1
   -4.5325   46.0873   62.1713  H 0  0  0  1  0  1
   -6.1026   45.3729   62.6723  H 0  0  0  1  0  1
   -4.6464   44.3308   62.5297  H 0  0  0  1  0  1
   -5.1048   42.4985   65.6703  H 0  0  0  1  0  1
   -3.5890   43.2843   65.1123  H 0  0  0  1  0  1
   -4.9033   42.9335   63.9392  H 0  0  0  1  0  1
   -6.5999   46.5597   66.0988  H 0  0  0  1  0  1
   -7.9818   48.4430   65.6912  H 0  0  0  1  0  1
   -9.4149   48.7695   67.7214  H 0  0  0  1  0  1
   -8.2947   47.3819   67.9363  H 0  0  0  1  0  1
  -10.0251   47.0884   67.5540  H 0  0  0  1  0  1
   -9.7989   48.2978   64.1724  H 0  0  0  1  0  1
  -10.2322   49.2028   65.4772  H 0  0  0  1  0  1
  -10.7863   47.6603   65.3248  H 0  0  0  1  0  1
   -7.4369   42.0846   63.7152  H 0  0  0  1  0  1
   -9.0112   42.9343   63.8775  H 0  0  0  1  0  1
   -8.3743   40.0226   64.1345  H 0  0  0  1  0  1
   -9.9241   40.8253   63.7094  H 0  0  0  1  0  1
   -9.5143   39.6383   66.1517  H 0  0  0  1  0  1
  -10.5552   41.0894   65.9583  H 0  0  0  1  0  1
   -9.0309   42.0133   67.5063  H 0  0  0  1  0  1
   -7.7143   40.8875   67.0311  H 0  0  0  1  0  1
   -5.9900   40.5359   68.7758  H 0  0  0  1  0  1
   -5.9900   40.5359   68.7758  H 0  0  0  1  0  1
   -5.7938   40.4222   65.7333  H 0  0  0  1  0  1
   -5.7938   40.4222   65.7333  H 0  0  0  1  0  1
  1  2  2  0  0  2
  2  3  1  0  0  2
  2 14  1  0  0  2
  3  4  1  0  0  2
  3  8  1  0  0  2
  4  5  1  0  0  2
  4  7  1  0  0  2
  5  6  1  0  0  2
  8  9  1  0  0  2
  9 10  2  0  0  2
  9 11  1  0  0  2
 11 12  1  0  0  2
 11 13  1  0  0  2
 14 15  1  0  0  1
 14 18  1  0  0  1
 15 16  1  0  0  1
 16 17  1  0  0  1
 17 18  1  0  0  1
 18 19  1  0  0  2
 19 20  1  0  0  2
 19 21  1  0  0  2
  3 22  1  0  0  2
  4 23  1  0  0  2
  5 24  1  0  0  2
  5 25  1  0  0  2
  6 26  1  0  0  2
  6 27  1  0  0  2
  6 28  1  0  0  2
  7 29  1  0  0  2
  7 30  1  0  0  2
  7 31  1  0  0  2
  8 32  1  0  0  2
 11 33  1  0  0  2
 12 34  1  0  0  2
 12 35  1  0  0  2
 12 36  1  0  0  2
 13 37  1  0  0  2
 13 38  1  0  0  2
 13 39  1  0  0  2
 15 40  1  0  0  2
 15 41  1  0  0  2
 16 42  1  0  0  2
 16 43  1  0  0  2
 17 44  1  0  0  2
 17 45  1  0  0  2
 18 46  1  0  0  2
 18 47  1  0  0  2
 20 48  1  0  0  2
 20 49  1  0  0  2
 21 50  1  0  0  2
 21 51  1  0  0  2
M  END
> <MOLECULAR_FORMULA>
C13H30N3O4B

> <MOLECULAR_WEIGHT>
303.0

> <NUM_HB_ATOMS>
6  

> <NUM_ROTOR>
6  

> <XLOGP2>
-0.59

$$$$
