#	Name:			2z3z_ligand
#	Creating user name:	wangrx
#	Creation time:		Wed Aug  4 16:36:19 2021

#	Modifying user name:	wangrx
#	Modification time:	Wed Aug  4 16:36:50 2021

@<TRIPOS>MOLECULE
2z3z_ligand
   50    50     1     0     0
SMALL
GAST_HUCK


@<TRIPOS>ATOM
      1 O2         -7.1940   43.7210   67.3900 O.2       1 AIO        -0.3969 
      2 C9         -7.3780   43.5720   66.1810 C.2       1 AIO         0.1760 
      3 C4         -6.8320   44.6160   65.2310 C.3       1 AIO         0.1312 
      4 C5         -5.2900   44.6080   65.2470 C.3       1 AIO        -0.0038 
      5 C7         -4.6740   45.6040   64.2590 C.3       1 AIO        -0.0491 
      6 C8         -5.0120   45.3300   62.8090 C.3       1 AIO        -0.0648 
      7 C6         -4.6790   43.2350   64.9730 C.3       1 AIO        -0.0582 
      8 N2         -7.2590   45.9490   65.6600 N.am      1 AIO        -0.2608 
      9 C3         -8.5100   46.3600   65.4750 C.2       1 AIO         0.2264 
     10 O1         -9.3840   45.6240   65.0470 O.2       1 AIO        -0.3907 
     11 C1         -8.8420   47.7850   65.8840 C.3       1 AIO         0.0621 
     12 C2         -9.1670   47.7540   67.3790 C.3       1 AIO        -0.0040 
     13 N1        -10.0040   48.2740   65.1590 N.4       1 AIO         0.2377 
     14 N3         -8.0230   42.5160   65.7130 N.am      1 AIO        -0.4230 
     15 C13        -8.3530   42.1710   64.3180 C.3       1 AIO         0.0013 
     16 C12        -9.0640   40.8390   64.3950 C.3       1 AIO        -0.0604 
     17 C11        -9.5360   40.6930   65.8400 C.3       1 AIO        -0.1589 
     18 C10        -8.5310   41.5230   66.6580 C.3       1 AIO        -0.2232 
     19 B          -7.2510   40.6780   67.1640 B         1 AIO         3.0000 
     20 O4         -6.4090   41.2480   68.3070 O.3       1 AIO        -0.4105 
     21 O3         -6.4560   39.8670   66.1280 O.3       1 AIO        -0.4105 
     22 H1         -7.1977   44.4113   64.2140 H         1 AIO         0.0802 
     23 H2         -4.9855   44.9103   66.2599 H         1 AIO         0.0345 
     24 H3         -3.5803   45.5689   64.3707 H         1 AIO         0.0267 
     25 H4         -5.0365   46.6110   64.5132 H         1 AIO         0.0267 
     26 H5         -4.5325   46.0873   62.1713 H         1 AIO         0.0230 
     27 H6         -6.1026   45.3729   62.6723 H         1 AIO         0.0230 
     28 H7         -4.6464   44.3308   62.5297 H         1 AIO         0.0230 
     29 H8         -5.1048   42.4985   65.6703 H         1 AIO         0.0235 
     30 H9         -3.5890   43.2843   65.1123 H         1 AIO         0.0235 
     31 H10        -4.9033   42.9335   63.9392 H         1 AIO         0.0235 
     32 H11        -6.5999   46.5597   66.0988 H         1 AIO         0.1885 
     33 H12        -7.9818   48.4430   65.6912 H         1 AIO         0.1095 
     34 H13        -9.4149   48.7695   67.7214 H         1 AIO         0.0310 
     35 H14        -8.2947   47.3819   67.9363 H         1 AIO         0.0310 
     36 H15       -10.0251   47.0884   67.5540 H         1 AIO         0.0310 
     37 H16        -9.7989   48.2978   64.1724 H         1 AIO         0.2015 
     38 H17       -10.2322   49.2028   65.4772 H         1 AIO         0.2015 
     39 H18       -10.7863   47.6603   65.3248 H         1 AIO         0.2015 
     40 H19        -7.4369   42.0846   63.7152 H         1 AIO         0.0495 
     41 H20        -9.0112   42.9343   63.8775 H         1 AIO         0.0495 
     42 H21        -8.3743   40.0226   64.1345 H         1 AIO         0.0260 
     43 H22        -9.9241   40.8253   63.7094 H         1 AIO         0.0260 
     44 H23        -9.5143   39.6383   66.1517 H         1 AIO        -0.0065 
     45 H24       -10.5552   41.0894   65.9583 H         1 AIO        -0.0065 
     46 H25        -9.0309   42.0133   67.5063 H         1 AIO        -0.1820 
     47 H27        -5.9900   40.5359   68.7758 H         1 AIO         0.2052 
     48 H28        -5.9900   40.5359   68.7758 H         1 AIO         0.2052 
     49 H29        -5.7938   40.4222   65.7333 H         1 AIO         0.2052 
     50 H30        -5.7938   40.4222   65.7333 H         1 AIO         0.2052 
@<TRIPOS>BOND
     1    1    2 2    
     2    2    3 1    
     3    2   14 am   
     4    3    4 1    
     5    3    8 1    
     6    4    5 1    
     7    4    7 1    
     8    5    6 1    
     9    8    9 am   
    10    9   10 2    
    11    9   11 1    
    12   11   12 1    
    13   11   13 1    
    14   14   15 1    
    15   14   18 1    
    16   15   16 1    
    17   16   17 1    
    18   17   18 1    
    19   18   19 1    
    20   19   20 1    
    21   19   21 1    
    22    3   22 1    
    23    4   23 1    
    24    5   24 1    
    25    5   25 1    
    26    6   26 1    
    27    6   27 1    
    28    6   28 1    
    29    7   29 1    
    30    7   30 1    
    31    7   31 1    
    32    8   32 1    
    33   11   33 1    
    34   12   34 1    
    35   12   35 1    
    36   12   36 1    
    37   13   37 1    
    38   13   38 1    
    39   13   39 1    
    40   15   40 1    
    41   15   41 1    
    42   16   42 1    
    43   16   43 1    
    44   17   44 1    
    45   17   45 1    
    46   18   46 1    
    47   20   47 1    
    48   20   48 1    
    49   21   49 1    
    50   21   50 1    
@<TRIPOS>SUBSTRUCTURE
     1 AIO         1 PERM              0 ****  ****    0 ROOT 
