### 
### Created by X-TOOL on Mon Aug  2 16:15:51 2021
### 

@<TRIPOS>MOLECULE
6ouv_ligand
   57    58     1     0     0
SMALL
GAST_HUCK


@<TRIPOS>ATOM
      1 O2B       -23.7910   -7.4610   46.9960 O.co2     1 TDK        -0.5891
      2 PB        -23.1860   -8.8160   46.6240 P.3       1 TDK         0.2069
      3 O3B       -23.5920   -9.1330   45.1830 O.co2     1 TDK        -0.5891
      4 O1B       -23.5390   -9.8880   47.5840 O.co2     1 TDK        -0.5891
      5 O3A       -21.6040   -8.6000   46.5970 O.3       1 TDK        -0.1548
      6 PA        -20.4370   -9.4350   47.2870 P.3       1 TDK         0.3276
      7 O1A       -20.8790  -10.0040   48.5830 O.co2     1 TDK        -0.5556
      8 O2A       -19.2010   -8.5280   47.3530 O.co2     1 TDK        -0.5556
      9 O7        -20.1400  -10.6140   46.2260 O.3       1 TDK        -0.2451
     10 C7        -19.5090  -10.3470   44.9490 C.3       1 TDK         0.0875
     11 C6        -19.7960  -11.5110   44.0250 C.3       1 TDK        -0.0077
     12 C5        -19.1760  -11.3540   42.6640 C.2       1 TDK        -0.0220
     13 S1        -19.7620  -10.0900   41.6200 S.3       1 TDK        -0.1141
     14 C4        -18.1890  -12.0940   42.1080 C.2       1 TDK         0.0023
     15 CM4       -17.5310  -13.2960   42.6950 C.3       1 TDK        -0.0281
     16 N3        -17.8800  -11.6280   40.8270 N.pl3     1 TDK        -0.3015
     17 C2        -18.6440  -10.5600   40.3910 C.3       1 TDK         0.1329
     18 CMA       -18.7970  -10.1010   38.9450 C.3       1 TDK         0.1836
     19 OM1       -17.5340  -10.0150   38.2870 O.3       1 TDK        -0.3675
     20 CMB       -19.4340   -8.7110   39.0140 C.3       1 TDK        -0.0141
     21 PC        -19.8030  -11.2070   37.8730 P.3       1 TDK         0.1548
     22 OM3       -21.3160  -10.9650   38.2190 O.co2     1 TDK        -0.6185
     23 OM2       -19.5440  -10.7010   36.4060 O.3       1 TDK        -0.2803
     24 CMC       -20.3710   -9.7240   35.7500 C.3       1 TDK         0.0712
     25 OM4       -19.4980  -12.6610   38.0850 O.co2     1 TDK        -0.6185
     26 C7'       -16.7940  -12.2600   40.0620 C.3       1 TDK         0.0609
     27 C5'       -15.4040  -11.8570   40.4820 C.ar      1 TDK         0.0402
     28 C6'       -14.4550  -12.8010   40.8020 C.ar      1 TDK         0.0082
     29 N1'       -13.1920  -12.5150   41.1430 N.ar      1 TDK        -0.2938
     30 C2'       -12.8700  -11.2140   41.1710 C.ar      1 TDK         0.0758
     31 CM2       -11.4660  -10.8630   41.5450 C.3       1 TDK        -0.0029
     32 N3'       -13.6980  -10.2040   40.8900 N.ar      1 TDK        -0.2610
     33 C4'       -14.9630  -10.5010   40.5410 C.ar      1 TDK         0.1231
     34 N4'       -15.7680   -9.4730   40.2450 N.pl3     1 TDK        -0.3186
     35 H1        -18.4228  -10.2398   45.0859 H         1 TDK         0.0634
     36 H2        -19.9176   -9.4208   44.5185 H         1 TDK         0.0634
     37 H3        -20.8856  -11.6012   43.9044 H         1 TDK         0.0359
     38 H4        -19.4008  -12.4285   44.4854 H         1 TDK         0.0359
     39 H5        -17.9277  -13.4745   43.7053 H         1 TDK         0.0360
     40 H6        -16.4453  -13.1288   42.7517 H         1 TDK         0.0360
     41 H7        -17.7346  -14.1717   42.0612 H         1 TDK         0.0360
     42 H8        -17.8886   -9.7934   40.6181 H         1 TDK         0.0723
     43 H9        -17.6552   -9.6514   37.4177 H         1 TDK         0.2122
     44 H10       -18.8240   -8.0597   39.6571 H         1 TDK         0.0275
     45 H11       -20.4483   -8.7928   39.4318 H         1 TDK         0.0275
     46 H12       -19.4875   -8.2815   38.0027 H         1 TDK         0.0275
     47 H13       -19.9858   -9.5387   34.7365 H         1 TDK         0.0586
     48 H14       -20.3568   -8.7862   36.3248 H         1 TDK         0.0586
     49 H15       -21.4028  -10.0999   35.6870 H         1 TDK         0.0586
     50 H16       -16.9218  -11.9927   39.0027 H         1 TDK         0.0654
     51 H17       -16.8835  -13.3501   40.1785 H         1 TDK         0.0654
     52 H18       -14.7491  -13.8440   40.7763 H         1 TDK         0.0791
     53 H19       -10.8997  -11.7838   41.7486 H         1 TDK         0.0449
     54 H20       -11.4734  -10.2306   42.4450 H         1 TDK         0.0449
     55 H21       -10.9916  -10.3164   40.7167 H         1 TDK         0.0449
     56 H22       -15.4122   -8.5080   40.2995 H         1 TDK         0.1789
     57 H23       -16.7431   -9.6472   39.9627 H         1 TDK         0.1789
@<TRIPOS>BOND
     1    1    2 ar 
     2    2    3 ar 
     3    2    4 ar 
     4    2    5 1  
     5    5    6 1  
     6    6    7 ar 
     7    6    8 ar 
     8    6    9 1  
     9    9   10 1  
    10   10   11 1  
    11   11   12 1  
    12   12   13 1  
    13   12   14 2  
    14   13   17 1  
    15   14   15 1  
    16   14   16 1  
    17   16   17 1  
    18   16   26 1  
    19   17   18 1  
    20   18   19 1  
    21   18   20 1  
    22   18   21 1  
    23   21   22 ar 
    24   21   23 1  
    25   21   25 ar 
    26   23   24 1  
    27   26   27 1  
    28   27   28 ar 
    29   27   33 ar 
    30   28   29 ar 
    31   29   30 ar 
    32   30   31 1  
    33   30   32 ar 
    34   32   33 ar 
    35   33   34 1  
    36   10   35 1  
    37   10   36 1  
    38   11   37 1  
    39   11   38 1  
    40   15   39 1  
    41   15   40 1  
    42   15   41 1  
    43   17   42 1  
    44   19   43 1  
    45   20   44 1  
    46   20   45 1  
    47   20   46 1  
    48   24   47 1  
    49   24   48 1  
    50   24   49 1  
    51   26   50 1  
    52   26   51 1  
    53   28   52 1  
    54   31   53 1  
    55   31   54 1  
    56   31   55 1  
    57   34   56 1  
    58   34   57 1  
@<TRIPOS>SUBSTRUCTURE
     1 TDK         1

