6ouv_ligand
  -I-interpret- 

 61 62  0  0  0  0  0  0  0  0999 V2000
  -23.7910   -7.4610   46.9960 O   0  0  0  0  0
  -23.1860   -8.8160   46.6240 P   0  0  0  0  0
  -23.5920   -9.1330   45.1830 O   0  0  0  0  0
  -23.5390   -9.8880   47.5840 O   0  0  0  0  0
  -21.6040   -8.6000   46.5970 O   0  0  0  0  0
  -20.4370   -9.4350   47.2870 P   0  0  0  0  0
  -20.8790  -10.0040   48.5830 O   0  0  0  0  0
  -19.2010   -8.5280   47.3530 O   0  0  0  0  0
  -20.1400  -10.6140   46.2260 O   0  0  0  0  0
  -19.5090  -10.3470   44.9490 C   0  0  0  0  0
  -19.7960  -11.5110   44.0250 C   0  0  0  0  0
  -19.1760  -11.3540   42.6640 C   0  0  0  0  0
  -19.7620  -10.0900   41.6200 S   0  0  0  0  0
  -18.1890  -12.0940   42.1080 C   0  0  0  0  0
  -17.5310  -13.2960   42.6950 C   0  0  0  0  0
  -17.8800  -11.6280   40.8270 N   0  0  0  0  0
  -18.6440  -10.5600   40.3910 C   0  0  0  0  0
  -18.7970  -10.1010   38.9450 C   0  0  0  0  0
  -17.5340  -10.0150   38.2870 O   0  0  0  0  0
  -19.4340   -8.7110   39.0140 C   0  0  0  0  0
  -19.8030  -11.2070   37.8730 P   0  0  0  0  0
  -21.3160  -10.9650   38.2190 O   0  0  0  0  0
  -19.5440  -10.7010   36.4060 O   0  0  0  0  0
  -20.3710   -9.7240   35.7500 C   0  0  0  0  0
  -19.4980  -12.6610   38.0850 O   0  0  0  0  0
  -16.7940  -12.2600   40.0620 C   0  0  0  0  0
  -15.4040  -11.8570   40.4820 C   0  0  0  0  0
  -14.4550  -12.8010   40.8020 C   0  0  0  0  0
  -13.1920  -12.5150   41.1430 N   0  0  0  0  0
  -12.8700  -11.2140   41.1710 C   0  0  0  0  0
  -11.4660  -10.8630   41.5450 C   0  0  0  0  0
  -13.6980  -10.2040   40.8900 N   0  0  0  0  0
  -14.9630  -10.5010   40.5410 C   0  0  0  0  0
  -15.7680   -9.4730   40.2450 N   0  0  0  0  0
  -23.5317   -6.8061   46.3437 H   0  0  0  0  0
  -23.3376   -8.4041   44.6124 H   0  0  0  0  0
  -18.9920   -8.2092   46.4719 H   0  0  0  0  0
  -18.4333  -10.2302   45.0805 H   0  0  0  0  0
  -19.9034   -9.4247   44.5224 H   0  0  0  0  0
  -20.8763  -11.5679   43.8912 H   0  0  0  0  0
  -19.3718  -12.4061   44.4799 H   0  0  0  0  0
  -17.0607  -13.0258   43.6405 H   0  0  0  0  0
  -18.2788  -14.0700   42.8678 H   0  0  0  0  0
  -16.7741  -13.6679   42.0044 H   0  0  0  0  0
  -17.9078   -9.8126   40.0953 H   0  0  0  0  0
  -17.6653   -9.7243   37.3815 H   0  0  0  0  0
  -20.4011   -8.7803   39.5119 H   0  0  0  0  0
  -18.7821   -8.0415   39.5751 H   0  0  0  0  0
  -19.5708   -8.3249   38.0039 H   0  0  0  0  0
  -21.5286  -10.0380   38.0886 H   0  0  0  0  0
  -21.3931  -10.0976   35.6882 H   0  0  0  0  0
  -20.3561   -8.7953   36.3205 H   0  0  0  0  0
  -19.9883   -9.5412   34.7459 H   0  0  0  0  0
  -16.9139  -11.9455   39.0253 H   0  0  0  0  0
  -16.8748  -13.3342   40.2281 H   0  0  0  0  0
  -14.7507  -13.8498   40.7762 H   0  0  0  0  0
  -11.2540  -11.2366   42.5468 H   0  0  0  0  0
  -10.7772  -11.3177   40.8330 H   0  0  0  0  0
  -11.3466   -9.7797   41.5270 H   0  0  0  0  0
  -16.7337   -9.6455   39.9655 H   0  0  0  0  0
  -15.4156   -8.5173   40.2990 H   0  0  0  0  0
  1  2  1  0  0  0
  2  3  1  0  0  0
  2  4  2  0  0  0
  2  5  1  0  0  0
  5  6  1  0  0  0
  6  7  2  0  0  0
  6  8  1  0  0  0
  6  9  1  0  0  0
  9 10  1  0  0  0
 10 11  1  0  0  0
 11 12  1  0  0  0
 12 13  1  0  0  0
 12 14  2  0  0  0
 13 17  1  0  0  0
 14 15  1  0  0  0
 14 16  1  0  0  0
 16 17  1  0  0  0
 16 26  1  0  0  0
 17 18  1  0  0  0
 18 19  1  0  0  0
 18 20  1  0  0  0
 18 21  1  0  0  0
 21 22  1  0  0  0
 21 23  1  0  0  0
 21 25  2  0  0  0
 23 24  1  0  0  0
 26 27  1  0  0  0
 27 28  4  0  0  0
 27 33  4  0  0  0
 28 29  4  0  0  0
 29 30  4  0  0  0
 30 31  1  0  0  0
 30 32  4  0  0  0
 32 33  4  0  0  0
 33 34  1  0  0  0
  1 35  1  0  0  0
  3 36  1  0  0  0
  8 37  1  0  0  0
 10 38  1  0  0  0
 10 39  1  0  0  0
 11 40  1  0  0  0
 11 41  1  0  0  0
 15 42  1  0  0  0
 15 43  1  0  0  0
 15 44  1  0  0  0
 17 45  1  0  0  0
 19 46  1  0  0  0
 20 47  1  0  0  0
 20 48  1  0  0  0
 20 49  1  0  0  0
 22 50  1  0  0  0
 24 51  1  0  0  0
 24 52  1  0  0  0
 24 53  1  0  0  0
 26 54  1  0  0  0
 26 55  1  0  0  0
 28 56  1  0  0  0
 31 57  1  0  0  0
 31 58  1  0  0  0
 31 59  1  0  0  0
 34 60  1  0  0  0
 34 61  1  0  0  0
M  END
$$$$
