4o7d_ligand
  -I-interpret- 

 22 21  0  0  0  0  0  0  0  0999 V2000
   20.9380   -8.5420   64.5200 N   0  3  0  0  0
   20.0680   -7.4010   64.8690 C   0  0  0  0  0
   18.9540   -7.9190   65.8330 C   0  0  0  0  0
   18.4710   -7.1450   66.7100 O   0  0  0  0  0
   18.6250   -9.1200   65.6710 O   0  0  0  0  0
   19.4960   -6.7460   63.5950 C   0  0  0  0  0
   18.6550   -5.4680   63.7700 C   0  0  0  0  0
   18.1860   -5.1520   62.3590 C   0  0  0  0  0
   18.9740   -5.0170   61.4330 O   0  0  0  0  0
   16.6900   -5.3960   62.0850 C   0  0  0  0  0
   21.3059   -8.9611   65.3740 H   0  0  0  0  0
   20.3962   -9.2362   64.0052 H   0  0  0  0  0
   21.7107   -8.2141   63.9405 H   0  0  0  0  0
   20.6352   -6.6222   65.3788 H   0  0  0  0  0
   18.8816   -6.2806   66.6334 H   0  0  0  0  0
   18.8212   -7.4847   63.1626 H   0  0  0  0  0
   20.3619   -6.4490   63.0033 H   0  0  0  0  0
   19.2254   -4.6512   64.2122 H   0  0  0  0  0
   17.8256   -5.6068   64.4635 H   0  0  0  0  0
   16.2838   -4.5570   61.5201 H   0  0  0  0  0
   16.5724   -6.3141   61.5094 H   0  0  0  0  0
   16.1589   -5.4889   63.0323 H   0  0  0  0  0
  1  2  1  0  0  0
  2  3  1  0  0  0
  2  6  1  0  0  0
  3  4  1  0  0  0
  3  5  2  0  0  0
  6  7  1  0  0  0
  7  8  1  0  0  0
  8  9  2  0  0  0
  8 10  1  0  0  0
  1 11  1  0  0  0
  1 12  1  0  0  0
  1 13  1  0  0  0
  2 14  1  0  0  0
  4 15  1  0  0  0
  6 16  1  0  0  0
  6 17  1  0  0  0
  7 18  1  0  0  0
  7 19  1  0  0  0
 10 20  1  0  0  0
 10 21  1  0  0  0
 10 22  1  0  0  0
M  END
$$$$
