5o3q_ligand
  -I-interpret- 

 34 37  0  0  0  0  0  0  0  0999 V2000
   -6.6130   24.1900  -14.3060 P   0  0  0  0  0
   -6.9590   23.2220  -15.4450 O   0  0  0  0  0
   -6.7470   25.6170  -14.6310 O   0  0  0  0  0
   -5.0920   23.8460  -13.8960 O   0  0  0  0  0
   -4.6020   24.3610  -12.6190 C   0  0  0  0  0
   -5.5780   23.8210  -11.6440 C   0  0  0  0  0
   -5.3620   24.2580  -10.2920 O   0  0  0  0  0
   -7.0090   24.2000  -11.8800 C   0  0  0  0  0
   -7.4620   23.6250  -13.1070 O   0  0  0  0  0
   -7.6970   23.7450  -10.6630 C   0  0  0  0  0
   -7.8900   22.3300  -10.5560 O   0  0  0  0  0
   -6.5840   24.1050   -9.5840 C   0  0  0  0  0
   -6.8940   25.4230   -8.9910 N   0  0  0  0  0
   -6.7000   26.6190   -9.4530 C   0  0  0  0  0
   -7.1200   27.5420   -8.5490 N   0  0  0  0  0
   -7.5720   26.8580   -7.4660 C   0  0  0  0  0
   -8.1240   27.2090   -6.1340 C   0  0  0  0  0
   -8.2640   28.5370   -5.9030 N   0  0  0  0  0
   -8.4340   26.1830   -5.3030 N   0  0  0  0  0
   -8.2430   24.8580   -5.6270 C   0  0  0  0  0
   -7.7140   24.5140   -6.8610 N   0  0  0  0  0
   -7.3770   25.4510   -7.7240 C   0  0  0  0  0
   -6.8429   22.3185  -15.1420 H   0  0  0  0  0
   -4.5423   25.4492  -12.5978 H   0  0  0  0  0
   -3.5781   24.0542  -12.4052 H   0  0  0  0  0
   -5.4095   22.7539  -11.7890 H   0  0  0  0  0
   -7.1962   25.2647  -12.0195 H   0  0  0  0  0
   -8.6932   24.1814  -10.5906 H   0  0  0  0  0
   -8.3443   22.1314   -9.7339 H   0  0  0  0  0
   -6.5354   23.3361   -8.8130 H   0  0  0  0  0
   -6.2637   26.8500  -10.4248 H   0  0  0  0  0
   -7.9966   29.2105   -6.6209 H   0  0  0  0  0
   -8.6367   28.8630   -5.0113 H   0  0  0  0  0
   -8.5082   24.0791   -4.9121 H   0  0  0  0  0
  1  2  1  0  0  0
  1  3  2  0  0  0
  1  4  1  0  0  0
  1  9  1  0  0  0
  4  5  1  0  0  0
  5  6  1  0  0  0
  6  7  1  0  0  0
  6  8  1  0  0  0
  7 12  1  0  0  0
  8  9  1  0  0  0
  8 10  1  0  0  0
 10 11  1  0  0  0
 10 12  1  0  0  0
 12 13  1  0  0  0
 13 14  4  0  0  0
 13 22  4  0  0  0
 14 15  4  0  0  0
 15 16  4  0  0  0
 16 17  4  0  0  0
 16 22  4  0  0  0
 17 18  1  0  0  0
 17 19  4  0  0  0
 19 20  4  0  0  0
 20 21  4  0  0  0
 21 22  4  0  0  0
  2 23  1  0  0  0
  5 24  1  0  0  0
  5 25  1  0  0  0
  6 26  1  0  0  0
  8 27  1  0  0  0
 10 28  1  0  0  0
 11 29  1  0  0  0
 12 30  1  0  0  0
 14 31  1  0  0  0
 18 32  1  0  0  0
 18 33  1  0  0  0
 20 34  1  0  0  0
M  END
$$$$
