### 
### Created by X-TOOL on Wed Jan  1 15:39:35 2020
### 

@<TRIPOS>MOLECULE
5o3q_ligand
   33    36     1     0     0
SMALL
GAST_HUCK


@<TRIPOS>ATOM
      1 P          -6.6130   24.1900  -14.3060 P.3       1 CMP         0.2557
      2 O1P        -6.9590   23.2220  -15.4450 O.co2     1 CMP        -0.6177
      3 O2P        -6.7470   25.6170  -14.6310 O.co2     1 CMP        -0.6177
      4 O5'        -5.0920   23.8460  -13.8960 O.3       1 CMP        -0.2514
      5 C5'        -4.6020   24.3610  -12.6190 C.3       1 CMP         0.1128
      6 C4'        -5.5780   23.8210  -11.6440 C.3       1 CMP         0.1242
      7 O4'        -5.3620   24.2580  -10.2920 O.3       1 CMP        -0.3360
      8 C3'        -7.0090   24.2000  -11.8800 C.3       1 CMP         0.1540
      9 O3'        -7.4620   23.6250  -13.1070 O.3       1 CMP        -0.2453
     10 C2'        -7.6970   23.7450  -10.6630 C.3       1 CMP         0.1439
     11 O2'        -7.8900   22.3300  -10.5560 O.3       1 CMP        -0.3832
     12 C1'        -6.5840   24.1050   -9.5840 C.3       1 CMP         0.2014
     13 N9         -6.8940   25.4230   -8.9910 N.pl3     1 CMP        -0.1919
     14 C8         -6.7000   26.6190   -9.4530 C.2       1 CMP         0.1123
     15 N7         -7.1200   27.5420   -8.5490 N.2       1 CMP        -0.2958
     16 C5         -7.5720   26.8580   -7.4660 C.ar      1 CMP         0.1045
     17 C6         -8.1240   27.2090   -6.1340 C.ar      1 CMP         0.1298
     18 N6         -8.2640   28.5370   -5.9030 N.pl3     1 CMP        -0.3152
     19 N1         -8.4340   26.1830   -5.3030 N.ar      1 CMP        -0.2698
     20 C2         -8.2430   24.8580   -5.6270 C.ar      1 CMP         0.0533
     21 N3         -7.7140   24.5140   -6.8610 N.ar      1 CMP        -0.2714
     22 C4         -7.3770   25.4510   -7.7240 C.ar      1 CMP         0.1613
     23 H1         -4.6021   25.4610  -12.6103 H         1 CMP         0.0647
     24 H2         -3.5873   23.9927  -12.4076 H         1 CMP         0.0647
     25 H3         -5.4900   22.7254  -11.6867 H         1 CMP         0.0655
     26 H4         -7.1075   25.2926  -11.9611 H         1 CMP         0.0712
     27 H5         -8.6488   24.2757  -10.5129 H         1 CMP         0.0680
     28 H6         -8.3396   22.1334   -9.7424 H         1 CMP         0.2101
     29 H7         -6.5124   23.3262   -8.8105 H         1 CMP         0.0996
     30 H8         -6.2641   26.8498  -10.4239 H         1 CMP         0.1349
     31 H9         -8.6404   28.8662   -5.0025 H         1 CMP         0.1820
     32 H10        -7.9940   29.2171   -6.6279 H         1 CMP         0.1820
     33 H11        -8.5067   24.0834   -4.9160 H         1 CMP         0.0996
@<TRIPOS>BOND
     1    1    2 ar 
     2    1    3 ar 
     3    1    4 1  
     4    1    9 1  
     5    4    5 1  
     6    5    6 1  
     7    6    7 1  
     8    6    8 1  
     9    7   12 1  
    10    8    9 1  
    11    8   10 1  
    12   10   11 1  
    13   10   12 1  
    14   12   13 1  
    15   13   14 1  
    16   13   22 1  
    17   14   15 2  
    18   15   16 1  
    19   16   17 ar 
    20   16   22 ar 
    21   17   18 1  
    22   17   19 ar 
    23   19   20 ar 
    24   20   21 ar 
    25   21   22 ar 
    26    5   23 1  
    27    5   24 1  
    28    6   25 1  
    29    8   26 1  
    30   10   27 1  
    31   11   28 1  
    32   12   29 1  
    33   14   30 1  
    34   18   31 1  
    35   18   32 1  
    36   20   33 1  
@<TRIPOS>SUBSTRUCTURE
     1 CMP         1

