1n7j_ligand
  -I-interpret- 

 22 23  0  0  0  0  0  0  0  0999 V2000
   27.2250   42.7080   14.7090 I   0  0  0  0  0
   28.6850   46.0030   17.0170 C   0  0  0  0  0
   28.0930   45.2320   16.0220 C   0  0  0  0  0
   28.0810   43.8470   16.1260 C   0  0  0  0  0
   28.6550   43.2510   17.2440 C   0  0  0  0  0
   29.2410   44.0130   18.2380 C   0  0  0  0  0
   29.2610   45.3980   18.1250 C   0  0  0  0  0
   29.8120   43.3320   19.4510 C   0  0  0  0  0
   29.7740   45.5420   20.5440 C   0  0  0  0  0
   29.9300   46.2150   19.1920 C   0  0  0  0  0
   30.4600   44.2360   20.4170 N   0  3  0  0  0
   28.6965   47.0891   16.9258 H   0  0  0  0  0
   27.6372   45.7161   15.1583 H   0  0  0  0  0
   28.6427   42.1651   17.3382 H   0  0  0  0  0
   30.5794   42.6438   19.0966 H   0  0  0  0  0
   28.9791   42.8577   19.9700 H   0  0  0  0  0
   28.7242   45.4177   20.8096 H   0  0  0  0  0
   30.2068   46.1446   21.3425 H   0  0  0  0  0
   29.4668   47.2010   19.2290 H   0  0  0  0  0
   30.9910   46.3054   18.9591 H   0  0  0  0  0
   31.4076   44.4155   20.0850 H   0  0  0  0  0
   30.4336   43.7828   21.3304 H   0  0  0  0  0
  4  1  1  0  0  0
  3  2  4  0  0  0
  2  7  4  0  0  0
  3  4  4  0  0  0
  4  5  4  0  0  0
  5  6  4  0  0  0
  6  7  4  0  0  0
  6  8  1  0  0  0
  7 10  1  0  0  0
  8 11  1  0  0  0
 10  9  1  0  0  0
  9 11  1  0  0  0
  2 12  1  0  0  0
  3 13  1  0  0  0
  5 14  1  0  0  0
  8 15  1  0  0  0
  8 16  1  0  0  0
  9 17  1  0  0  0
  9 18  1  0  0  0
 10 19  1  0  0  0
 10 20  1  0  0  0
 11 21  1  0  0  0
 11 22  1  0  0  0
M  END
$$$$
