1m13_ligand
  -I-interpret- 

 91 92  0  0  0  0  0  0  0  0999 V2000
    9.5070   71.9840   -4.1800 C   0  0  0  0  0
   13.6650   77.9120   -5.8650 C   0  0  0  0  0
   15.1880   79.1870   -4.2550 C   0  0  0  0  0
    5.0030   74.6870   -1.2500 C   0  0  0  0  0
    6.2350   74.6680   -0.3330 C   0  0  0  0  0
    5.8040   74.2810    1.0940 C   0  0  0  0  0
    7.0020   76.0620   -0.3760 C   0  0  0  0  0
    6.2840   77.0480   -0.1880 O   0  0  0  0  0
   13.3150   77.8590   -3.3460 C   0  0  0  0  0
   13.9980   78.2770   -4.4340 C   0  0  0  0  0
   12.0810   76.9660   -3.2950 C   0  0  0  0  0
    8.4820   77.4650   -3.1420 C   0  0  0  0  0
   13.6170   80.8910   -0.1630 C   0  0  0  0  0
   11.7280   82.6660   -0.4250 C   0  0  0  0  0
   12.1300   81.2800    0.0420 C   0  0  0  0  0
   11.1890   80.4850    0.6070 C   0  0  0  0  0
   11.3950   79.0610    1.1560 C   0  0  0  0  0
    9.2020   77.7360    0.0590 C   0  0  0  0  0
    8.4850   78.7260    0.2600 O   0  0  0  0  0
   11.4100   76.5640    2.5800 O   0  0  0  0  0
    8.9400   73.7130   -0.4720 O   0  0  0  0  0
   13.8920   73.3240   -0.3130 C   0  0  0  0  0
   12.6770   71.1600   -1.0270 C   0  0  0  0  0
   12.6530   72.4240   -0.1930 C   0  0  0  0  0
   11.5570   72.6370    0.5940 C   0  0  0  0  0
   11.1320   73.7480    1.5960 C   0  0  0  0  0
    8.6440   76.2870   -0.6350 C   0  0  0  0  0
    9.3820   74.9580   -0.0020 C   0  0  0  0  0
   10.4180   74.9830    0.9740 C   0  0  0  0  0
   10.9160   76.4320    1.4580 C   0  0  0  0  0
   10.7900   77.7140    0.4640 C   0  0  0  0  0
   11.6690   77.3300   -0.8830 C   0  0  0  0  0
   10.9400   77.4360   -2.3010 C   0  0  0  0  0
    9.3900   76.5270   -2.2530 C   0  0  0  0  0
    9.6030   75.2470   -3.1780 C   0  0  0  0  0
    8.4640   74.3130   -3.6750 C   0  0  0  0  0
    9.0340   73.1930   -4.5490 C   0  0  0  0  0
    9.5590   71.4920   -2.7470 C   0  0  0  0  0
   10.0210   71.0400   -5.2370 C   0  0  0  0  0
   13.7178   76.8298   -5.9843 H   0  0  0  0  0
   12.6582   78.2562   -6.1015 H   0  0  0  0  0
   14.3801   78.3881   -6.5359 H   0  0  0  0  0
   14.8697   80.1072   -3.7651 H   0  0  0  0  0
   15.9369   78.6871   -3.6407 H   0  0  0  0  0
   15.6142   79.4218   -5.2304 H   0  0  0  0  0
    4.3206   75.4716   -0.9233 H   0  0  0  0  0
    5.3178   74.8812   -2.2753 H   0  0  0  0  0
    4.4994   73.7216   -1.1999 H   0  0  0  0  0
    6.9415   73.9182   -0.6891 H   0  0  0  0  0
    6.6860   74.2012    1.7295 H   0  0  0  0  0
    5.1368   75.0462    1.4907 H   0  0  0  0  0
    5.2853   73.3227    1.0682 H   0  0  0  0  0
   13.6940   78.2036   -2.3839 H   0  0  0  0  0
   11.6467   76.9790   -4.2947 H   0  0  0  0  0
   12.4176   75.9910   -2.9426 H   0  0  0  0  0
    8.4270   78.4535   -2.6861 H   0  0  0  0  0
    8.9136   77.5470   -4.1395 H   0  0  0  0  0
    7.4809   77.0395   -3.2118 H   0  0  0  0  0
   14.0718   80.6765    0.8041 H   0  0  0  0  0
   13.6757   80.0068   -0.7977 H   0  0  0  0  0
   14.1451   81.7172   -0.6390 H   0  0  0  0  0
   10.9471   82.5811   -1.1807 H   0  0  0  0  0
   11.3539   83.2395    0.4231 H   0  0  0  0  0
   12.5952   83.1699   -0.8518 H   0  0  0  0  0
   10.1821   80.8960    0.6804 H   0  0  0  0  0
   10.8694   79.0952    2.1103 H   0  0  0  0  0
   12.4708   78.9192    1.0528 H   0  0  0  0  0
    8.2447   73.8455   -1.1205 H   0  0  0  0  0
   13.5902   74.3106   -0.6647 H   0  0  0  0  0
   14.3693   73.4150    0.6627 H   0  0  0  0  0
   14.5927   72.8828   -1.0219 H   0  0  0  0  0
   12.6185   70.2919   -0.3705 H   0  0  0  0  0
   11.8263   71.1597   -1.7085 H   0  0  0  0  0
   13.6034   71.1219   -1.6001 H   0  0  0  0  0
   10.8102   71.8488    0.4979 H   0  0  0  0  0
   12.0499   74.1198    2.0513 H   0  0  0  0  0
   10.4163   73.2898    2.2786 H   0  0  0  0  0
   11.9333   76.2787   -0.7688 H   0  0  0  0  0
   12.4814   78.0559   -0.9178 H   0  0  0  0  0
   10.5861   78.4150   -2.6242 H   0  0  0  0  0
   10.1833   74.5864   -2.5338 H   0  0  0  0  0
    9.9670   75.6869   -4.1065 H   0  0  0  0  0
    7.7575   74.8978   -4.2640 H   0  0  0  0  0
    7.9660   73.8709   -2.8121 H   0  0  0  0  0
    9.0618   73.4009   -5.6186 H   0  0  0  0  0
   10.1811   72.1640   -2.1558 H   0  0  0  0  0
    8.5503   71.4715   -2.3344 H   0  0  0  0  0
    9.9828   70.4880   -2.7241 H   0  0  0  0  0
    9.2204   70.8149   -5.9416 H   0  0  0  0  0
   10.8519   71.5067   -5.7661 H   0  0  0  0  0
   10.3611   70.1183   -4.7648 H   0  0  0  0  0
 37  1  2  0  0  0
  1 38  1  0  0  0
  1 39  1  0  0  0
 10  2  1  0  0  0
  5  4  1  0  0  0
  5  6  1  0  0  0
  7  5  1  0  0  0
  7  8  2  0  0  0
 11 33  1  0  0  0
 15 13  1  0  0  0
 16 15  2  0  0  0
 17 16  1  0  0  0
 31 17  1  0  0  0
 18 19  2  0  0  0
 27 18  1  0  0  0
 31 18  1  0  0  0
 24 22  1  0  0  0
 25 24  2  0  0  0
 26 25  1  0  0  0
 27  7  1  0  0  0
 27 28  1  0  0  0
 28 29  2  0  0  0
 29 26  1  0  0  0
 30 29  1  0  0  0
 31 30  1  0  0  0
 32 31  1  0  0  0
 33 32  1  0  0  0
 33 34  1  0  0  0
 34 27  1  0  0  0
 34 35  1  0  0  0
 35 36  1  0  0  0
 36 37  1  0  0  0
 34 12  1  0  0  0
 30 20  2  0  0  0
 28 21  1  0  0  0
 24 23  1  0  0  0
 15 14  1  0  0  0
  9 11  1  0  0  0
  9 10  2  0  0  0
 10  3  1  0  0  0
  2 40  1  0  0  0
  2 41  1  0  0  0
  2 42  1  0  0  0
  3 43  1  0  0  0
  3 44  1  0  0  0
  3 45  1  0  0  0
  4 46  1  0  0  0
  4 47  1  0  0  0
  4 48  1  0  0  0
  5 49  1  0  0  0
  6 50  1  0  0  0
  6 51  1  0  0  0
  6 52  1  0  0  0
  9 53  1  0  0  0
 11 54  1  0  0  0
 11 55  1  0  0  0
 12 56  1  0  0  0
 12 57  1  0  0  0
 12 58  1  0  0  0
 13 59  1  0  0  0
 13 60  1  0  0  0
 13 61  1  0  0  0
 14 62  1  0  0  0
 14 63  1  0  0  0
 14 64  1  0  0  0
 16 65  1  0  0  0
 17 66  1  0  0  0
 17 67  1  0  0  0
 21 68  1  0  0  0
 22 69  1  0  0  0
 22 70  1  0  0  0
 22 71  1  0  0  0
 23 72  1  0  0  0
 23 73  1  0  0  0
 23 74  1  0  0  0
 25 75  1  0  0  0
 26 76  1  0  0  0
 26 77  1  0  0  0
 32 78  1  0  0  0
 32 79  1  0  0  0
 33 80  1  0  0  0
 35 81  1  0  0  0
 35 82  1  0  0  0
 36 83  1  0  0  0
 36 84  1  0  0  0
 37 85  1  0  0  0
 38 86  1  0  0  0
 38 87  1  0  0  0
 38 88  1  0  0  0
 39 89  1  0  0  0
 39 90  1  0  0  0
 39 91  1  0  0  0
M  END
$$$$
