5nkh_ligand
  -I-interpret- 

 69 73  0  0  0  0  0  0  0  0999 V2000
  117.0020   13.7570   42.1740 C   0  0  0  0  0
  115.9450   12.9190   41.6050 C   0  0  0  0  0
  115.7580   11.6860   42.3750 N   0  3  0  0  0
  116.9140   10.9170   42.1600 C   0  0  0  0  0
  117.9480   11.6570   42.9320 C   0  0  0  0  0
  118.1940   12.9400   42.2970 C   0  0  0  0  0
  118.9340   13.5190   43.3120 N   0  0  0  0  0
  119.4250   14.6820   43.2840 C   0  0  0  0  0
  119.4560   15.3330   42.2700 O   0  0  0  0  0
  120.2420   14.9110   44.4030 C   0  0  0  0  0
  121.6060   14.6840   44.2900 C   0  0  0  0  0
  119.7620   15.3220   45.6080 C   0  0  0  0  0
  120.6120   15.5150   46.6780 C   0  0  0  0  0
  120.1410   15.9940   47.9310 C   0  0  0  0  0
  120.8580   17.0060   48.5900 C   0  0  0  0  0
  120.4220   17.5070   49.8060 C   0  0  0  0  0
  119.2710   17.0510   50.3930 C   0  0  0  0  0
  118.5760   16.1050   49.7600 C   0  0  0  0  0
  118.9710   15.6010   48.5640 C   0  0  0  0  0
  118.2460   14.7050   47.9860 N   0  0  0  0  0
  121.9670   15.2530   46.5030 C   0  0  0  0  0
  122.5120   14.8490   45.3050 C   0  0  0  0  0
  123.8360   14.5980   45.0290 N   0  0  0  0  0
  124.8840   15.1000   45.7240 C   0  0  0  0  0
  124.8490   15.8910   47.2790 S   0  0  0  0  0
  126.1520   15.1080   45.3000 N   0  0  0  0  0
  127.0760   15.6510   46.1190 C   0  0  0  0  0
  126.6100   16.1590   47.2720 C   0  0  0  0  0
  127.2070   16.7410   48.3140 C   0  0  0  0  0
  126.5460   16.9560   49.2870 O   0  0  0  0  0
  128.5170   17.0490   48.2850 N   0  0  0  0  0
  129.1310   17.6430   49.3680 C   0  0  0  0  0
  129.5160   16.8450   50.4290 C   0  0  0  0  0
  129.2690   15.1360   50.3990 Cl  0  0  0  0  0
  130.1370   17.3910   51.5230 C   0  0  0  0  0
  130.4150   18.7290   51.5200 C   0  0  0  0  0
  130.0110   19.5300   50.4720 C   0  0  0  0  0
  129.3830   19.0130   49.3660 C   0  0  0  0  0
  129.0110   19.9080   48.2440 C   0  0  0  0  0
  116.7005   14.1374   43.1499 H   0  0  0  0  0
  117.1947   14.6145   41.5293 H   0  0  0  0  0
  116.2303   12.6492   40.5882 H   0  0  0  0  0
  115.0118   13.4818   41.6255 H   0  0  0  0  0
  114.9207   11.1865   42.0755 H   0  0  0  0  0
  115.6259   11.8857   43.3665 H   0  0  0  0  0
  117.1651   10.8131   41.1044 H   0  0  0  0  0
  116.8021    9.8820   42.4831 H   0  0  0  0  0
  118.8711   11.0778   42.9542 H   0  0  0  0  0
  117.5980   11.8157   43.9520 H   0  0  0  0  0
  118.6146   12.8491   41.2955 H   0  0  0  0  0
  119.0962   12.9616   44.1507 H   0  0  0  0  0
  121.9845   14.3502   43.3239 H   0  0  0  0  0
  118.6937   15.5009   45.7296 H   0  0  0  0  0
  121.7682   17.4019   48.1395 H   0  0  0  0  0
  121.0065   18.2795   50.3057 H   0  0  0  0  0
  118.9332   17.4498   51.3495 H   0  0  0  0  0
  117.6626   15.7251   50.2176 H   0  0  0  0  0
  118.5396   14.3097   47.0927 H   0  0  0  0  0
  117.3788   14.3915   48.4220 H   0  0  0  0  0
  122.6315   15.3738   47.3585 H   0  0  0  0  0
  124.0444   13.9864   44.2397 H   0  0  0  0  0
  128.1348   15.6760   45.8613 H   0  0  0  0  0
  129.0638   16.8400   47.4497 H   0  0  0  0  0
  130.4036   16.7700   52.3782 H   0  0  0  0  0
  130.9618   19.1680   52.3545 H   0  0  0  0  0
  130.1955   20.6030   50.5235 H   0  0  0  0  0
  129.5162   19.5793   47.3358 H   0  0  0  0  0
  127.9319   19.8718   48.0944 H   0  0  0  0  0
  129.3124   20.9286   48.4798 H   0  0  0  0  0
  1  2  1  0  0  0
  1  6  1  0  0  0
  2  3  1  0  0  0
  3  4  1  0  0  0
  4  5  1  0  0  0
  5  6  1  0  0  0
  6  7  1  0  0  0
  7  8  1  0  0  0
  8  9  2  0  0  0
  8 10  1  0  0  0
 10 11  4  0  0  0
 10 12  4  0  0  0
 11 22  4  0  0  0
 12 13  4  0  0  0
 13 14  1  0  0  0
 13 21  4  0  0  0
 14 15  4  0  0  0
 14 19  4  0  0  0
 15 16  4  0  0  0
 16 17  4  0  0  0
 17 18  4  0  0  0
 18 19  4  0  0  0
 19 20  1  0  0  0
 21 22  4  0  0  0
 22 23  1  0  0  0
 23 24  1  0  0  0
 24 25  4  0  0  0
 24 26  4  0  0  0
 25 28  4  0  0  0
 26 27  4  0  0  0
 27 28  4  0  0  0
 28 29  1  0  0  0
 29 30  2  0  0  0
 29 31  1  0  0  0
 31 32  1  0  0  0
 32 33  4  0  0  0
 32 38  4  0  0  0
 33 34  1  0  0  0
 33 35  4  0  0  0
 35 36  4  0  0  0
 36 37  4  0  0  0
 37 38  4  0  0  0
 38 39  1  0  0  0
  1 40  1  0  0  0
  1 41  1  0  0  0
  2 42  1  0  0  0
  2 43  1  0  0  0
  3 44  1  0  0  0
  3 45  1  0  0  0
  4 46  1  0  0  0
  4 47  1  0  0  0
  5 48  1  0  0  0
  5 49  1  0  0  0
  6 50  1  0  0  0
  7 51  1  0  0  0
 11 52  1  0  0  0
 12 53  1  0  0  0
 15 54  1  0  0  0
 16 55  1  0  0  0
 17 56  1  0  0  0
 18 57  1  0  0  0
 20 58  1  0  0  0
 20 59  1  0  0  0
 21 60  1  0  0  0
 23 61  1  0  0  0
 27 62  1  0  0  0
 31 63  1  0  0  0
 35 64  1  0  0  0
 36 65  1  0  0  0
 37 66  1  0  0  0
 39 67  1  0  0  0
 39 68  1  0  0  0
 39 69  1  0  0  0
M  END
$$$$
