3lgp_ligand
  -I-interpret- 

 67 71  0  0  0  0  0  0  0  0999 V2000
    5.6520   11.7720   21.4920 N   0  0  0  0  0
    6.0790   12.1030   20.1490 C   0  0  0  0  0
    4.8590   11.8620   19.2330 C   0  0  0  0  0
    3.8930   10.9710   20.0510 C   0  0  0  0  0
    4.3410   11.0020   21.5500 C   0  0  0  0  0
    8.8720    5.3210   31.6940 C   0  0  0  0  0
    9.3350    3.9740   31.7980 C   0  0  0  0  0
    8.4160    2.9260   32.1580 C   0  0  0  0  0
    7.0380    3.2680   32.4160 C   0  0  0  0  0
    6.5840    4.6300   32.3500 C   0  0  0  0  0
    7.5040    5.6450   31.9610 C   0  0  0  0  0
   10.0370    6.0480   31.3190 N   0  0  0  0  0
   11.0750    5.1150   31.2070 C   0  0  0  0  0
   10.6650    3.8930   31.5000 N   0  0  0  0  0
    7.6900    8.0880   28.0590 C   0  0  0  0  0
    7.7860    8.2870   29.8030 S   0  0  0  0  0
    9.4610    7.8480   29.7830 C   0  0  0  0  0
    9.8430    7.4240   28.4830 C   0  0  0  0  0
    8.8760    7.7010   27.4600 C   0  0  0  0  0
    6.4500   12.2280   22.5690 C   0  0  0  0  0
    5.9780   11.6570   23.9710 C   0  0  0  0  0
    6.5210   10.2790   23.9900 C   0  0  0  0  0
    6.0230    9.3460   25.0680 C   0  0  0  0  0
    4.9090    8.8250   25.0380 O   0  0  0  0  0
    6.8690    9.1960   26.1520 N   0  0  0  0  0
    6.4670   12.5140   24.9840 O   0  0  0  0  0
    6.4940    8.5770   27.3870 C   0  0  0  0  0
    7.9590   10.4540   23.9400 O   0  0  0  0  0
    7.4260   13.0900   22.4360 O   0  0  0  0  0
   10.1700    7.5030   31.0720 C   0  0  0  0  0
   12.5070    5.4620   30.8310 C   0  0  0  0  0
   13.1710    4.3240   30.5880 F   0  0  0  0  0
   12.6150    6.2450   29.6550 F   0  0  0  0  0
   13.1600    6.0450   31.9310 F   0  0  0  0  0
    7.3180   11.3140   19.7720 C   0  0  0  0  0
    7.4900    9.9540   20.1560 C   0  0  0  0  0
    8.6700    9.2490   19.7710 C   0  0  0  0  0
    9.6780    9.8900   19.0210 C   0  0  0  0  0
    9.4900   11.2600   18.6360 C   0  0  0  0  0
    8.3270   11.9700   19.0060 C   0  0  0  0  0
    8.8280    7.6000   20.2440 Cl  0  0  0  0  0
    6.3871   13.1439   20.0500 H   0  0  0  0  0
    5.1508   11.3806   18.2996 H   0  0  0  0  0
    4.3865   12.8007   18.9439 H   0  0  0  0  0
    3.9205    9.9483   19.6749 H   0  0  0  0  0
    2.8732   11.3447   19.9590 H   0  0  0  0  0
    3.6036   11.4669   22.2044 H   0  0  0  0  0
    4.4512   10.0070   21.9813 H   0  0  0  0  0
    8.7549    1.8928   32.2343 H   0  0  0  0  0
    6.3285    2.4790   32.6655 H   0  0  0  0  0
    5.5519    4.8821   32.5938 H   0  0  0  0  0
    7.1637    6.6761   31.8659 H   0  0  0  0  0
   10.7924    6.9290   28.2790 H   0  0  0  0  0
    9.0474    7.6199   26.3866 H   0  0  0  0  0
    4.9013   11.6188   24.1362 H   0  0  0  0  0
    6.1409    9.7223   23.1334 H   0  0  0  0  0
    7.8219    9.5494   26.0657 H   0  0  0  0  0
    6.1907   12.1837   25.8420 H   0  0  0  0  0
    5.9884    9.3042   28.0224 H   0  0  0  0  0
    5.8189    7.7444   27.1891 H   0  0  0  0  0
    8.3854    9.5939   23.9491 H   0  0  0  0  0
   11.2243    7.7686   30.9949 H   0  0  0  0  0
    9.7249    8.0588   31.8973 H   0  0  0  0  0
    6.7215    9.4516   20.7434 H   0  0  0  0  0
   10.5842    9.3542   18.7386 H   0  0  0  0  0
   10.2587   11.7611   18.0476 H   0  0  0  0  0
    8.2011   13.0111   18.7087 H   0  0  0  0  0
  1  2  1  0  0  0
  1  5  1  0  0  0
 20  1  1  0  0  0
  2  3  1  0  0  0
  2 35  1  0  0  0
  4  3  1  0  0  0
  5  4  1  0  0  0
  6  7  4  0  0  0
  6 11  4  0  0  0
 12  6  4  0  0  0
  7  8  4  0  0  0
 14  7  4  0  0  0
  8  9  4  0  0  0
 10  9  4  0  0  0
 11 10  4  0  0  0
 12 13  4  0  0  0
 30 12  1  0  0  0
 13 14  4  0  0  0
 13 31  1  0  0  0
 15 16  4  0  0  0
 15 19  4  0  0  0
 27 15  1  0  0  0
 16 17  4  0  0  0
 18 17  4  0  0  0
 17 30  1  0  0  0
 19 18  4  0  0  0
 21 20  1  0  0  0
 20 29  2  0  0  0
 22 21  1  0  0  0
 21 26  1  0  0  0
 23 22  1  0  0  0
 22 28  1  0  0  0
 23 24  2  0  0  0
 25 23  1  0  0  0
 25 27  1  0  0  0
 31 32  1  0  0  0
 31 33  1  0  0  0
 31 34  1  0  0  0
 35 36  4  0  0  0
 35 40  4  0  0  0
 36 37  4  0  0  0
 37 38  4  0  0  0
 37 41  1  0  0  0
 38 39  4  0  0  0
 39 40  4  0  0  0
  2 42  1  0  0  0
  3 43  1  0  0  0
  3 44  1  0  0  0
  4 45  1  0  0  0
  4 46  1  0  0  0
  5 47  1  0  0  0
  5 48  1  0  0  0
  8 49  1  0  0  0
  9 50  1  0  0  0
 10 51  1  0  0  0
 11 52  1  0  0  0
 18 53  1  0  0  0
 19 54  1  0  0  0
 21 55  1  0  0  0
 22 56  1  0  0  0
 25 57  1  0  0  0
 26 58  1  0  0  0
 27 59  1  0  0  0
 27 60  1  0  0  0
 28 61  1  0  0  0
 30 62  1  0  0  0
 30 63  1  0  0  0
 36 64  1  0  0  0
 38 65  1  0  0  0
 39 66  1  0  0  0
 40 67  1  0  0  0
M  END
$$$$
