6evn_ligand
  -I-interpret- 

105109  0  0  0  0  0  0  0  0999 V2000
    8.6370  -13.8040  -13.7290 N   0  3  0  0  0
    8.8050  -14.4300  -15.0460 C   0  0  0  0  0
   10.1710  -15.1050  -15.1810 C   0  0  0  0  0
   11.0300  -14.9020  -14.3200 O   0  0  0  0  0
    8.6670  -13.2500  -16.0160 C   0  0  0  0  0
    7.8890  -12.2210  -15.2560 C   0  0  0  0  0
    8.3280  -12.3680  -13.8340 C   0  0  0  0  0
   10.3710  -15.8950  -16.2490 N   0  0  0  0  0
   11.6020  -16.6880  -16.3790 C   0  0  0  0  0
   12.7670  -15.8060  -16.8020 C   0  0  0  0  0
   12.8150  -15.3140  -17.9330 O   0  0  0  0  0
   11.2340  -17.7080  -17.4670 C   0  0  0  0  0
   10.2890  -16.9590  -18.3530 C   0  0  0  0  0
    9.5240  -15.9990  -17.4540 C   0  0  0  0  0
   13.7150  -15.6030  -15.8870 N   0  0  0  0  0
   14.8560  -14.7700  -16.1860 C   0  0  0  0  0
   15.9070  -14.7120  -15.0970 C   0  0  0  0  0
   15.7620  -15.2790  -14.0140 O   0  0  0  0  0
   17.0030  -14.0270  -15.3840 N   0  0  0  0  0
   18.0470  -13.8410  -14.3800 C   0  0  0  0  0
   17.6360  -12.7740  -13.3850 C   0  0  0  0  0
   16.6410  -12.0660  -13.5400 O   0  0  0  0  0
   19.2360  -13.3700  -15.2090 C   0  0  0  0  0
   18.5920  -12.5980  -16.3270 C   0  0  0  0  0
   17.3370  -13.3620  -16.6500 C   0  0  0  0  0
   18.4390  -12.6600  -12.3430 N   0  0  0  0  0
   18.2200  -11.6360  -11.3480 C   0  0  0  0  0
   19.5470  -10.9770  -11.0320 C   0  0  0  0  0
   20.5340  -11.6660  -10.7540 O   0  0  0  0  0
   17.6140  -12.2530  -10.0900 C   0  0  0  0  0
   19.5630   -9.6470  -11.0610 N   0  0  0  0  0
   20.7470   -8.9000  -10.7330 C   0  0  0  0  0
   20.7930   -8.5670   -9.2520 C   0  0  0  0  0
   19.9080   -8.9540   -8.4790 O   0  0  0  0  0
   21.8060   -7.8170   -8.8370 N   0  0  0  0  0
   21.8870   -7.3770   -7.4500 C   0  0  0  0  0
   20.6360   -6.6180   -7.0520 C   0  0  0  0  0
   20.0690   -5.8480   -7.8480 O   0  0  0  0  0
   23.1210   -6.4530   -7.4450 C   0  0  0  0  0
   23.9630   -6.9780   -8.5590 C   0  0  0  0  0
   23.0050   -7.4360   -9.6080 C   0  0  0  0  0
   20.1730   -6.8090   -5.8160 N   0  0  0  0  0
   18.9900   -6.0750   -5.3580 C   0  0  0  0  0
   19.1910   -4.5770   -5.3210 C   0  0  0  0  0
   18.2060   -3.8330   -5.4030 O   0  0  0  0  0
   18.7590   -6.6420   -3.9480 C   0  0  0  0  0
   19.3820   -8.0020   -3.9820 C   0  0  0  0  0
   20.5860   -7.8560   -4.8660 C   0  0  0  0  0
   20.4310   -4.1130   -5.2110 N   0  0  0  0  0
   20.7280   -2.7010   -5.0990 C   0  0  0  0  0
   22.2240   -2.5130   -5.2150 C   0  0  0  0  0
   22.9080   -3.4540   -5.6120 O   0  0  0  0  0
   22.7880   -1.4650   -4.8950 O   0  0  0  0  0
    9.5122  -13.9045  -13.2149 H   0  0  0  0  0
    7.8591  -14.2632  -13.2552 H   0  0  0  0  0
    8.0810  -15.2234  -15.2316 H   0  0  0  0  0
    8.1646  -13.5394  -16.9390 H   0  0  0  0  0
    9.6378  -12.8711  -16.3357 H   0  0  0  0  0
    6.8145  -12.3701  -15.3624 H   0  0  0  0  0
    8.0771  -11.2157  -15.6328 H   0  0  0  0  0
    9.1794  -11.7337  -13.5872 H   0  0  0  0  0
    7.5678  -12.0465  -13.1220 H   0  0  0  0  0
   11.9238  -17.1589  -15.4501 H   0  0  0  0  0
   10.7873  -18.6125  -17.0541 H   0  0  0  0  0
   12.1080  -18.0729  -18.0066 H   0  0  0  0  0
    9.6094  -17.6409  -18.8641 H   0  0  0  0  0
   10.8283  -16.4192  -19.1314 H   0  0  0  0  0
    9.3553  -15.0319  -17.9276 H   0  0  0  0  0
    8.5194  -16.3552  -17.2259 H   0  0  0  0  0
   13.6338  -16.0394  -14.9687 H   0  0  0  0  0
   14.4801  -13.7551  -16.3157 H   0  0  0  0  0
   15.3368  -15.1978  -17.0657 H   0  0  0  0  0
   18.2556  -14.7383  -13.7974 H   0  0  0  0  0
   19.8512  -14.1951  -15.5680 H   0  0  0  0  0
   19.9381  -12.7677  -14.6324 H   0  0  0  0  0
   19.2492  -12.5136  -17.1924 H   0  0  0  0  0
   18.3772  -11.5692  -16.0380 H   0  0  0  0  0
   16.5349  -12.7154  -17.0058 H   0  0  0  0  0
   17.4777  -14.0686  -17.4679 H   0  0  0  0  0
   19.2239  -13.3032  -12.2394 H   0  0  0  0  0
   17.5241  -10.8877  -11.7274 H   0  0  0  0  0
   16.6620  -12.7218  -10.3392 H   0  0  0  0  0
   18.2962  -13.0031   -9.6899 H   0  0  0  0  0
   17.4526  -11.4731   -9.3458 H   0  0  0  0  0
   18.7145   -9.1449  -11.3223 H   0  0  0  0  0
   20.7389   -7.9686  -11.2991 H   0  0  0  0  0
   21.6196   -9.5041  -10.9812 H   0  0  0  0  0
   21.9697   -8.2012   -6.7415 H   0  0  0  0  0
   23.6439   -6.4641   -6.4887 H   0  0  0  0  0
   22.8554   -5.4050   -7.5838 H   0  0  0  0  0
   24.6040   -7.7930   -8.2228 H   0  0  0  0  0
   24.6368   -6.2121   -8.9431 H   0  0  0  0  0
   22.7972   -6.6645  -10.3494 H   0  0  0  0  0
   23.3990   -8.2605  -10.2022 H   0  0  0  0  0
   18.1435   -6.2048   -6.0323 H   0  0  0  0  0
   17.6998   -6.6849   -3.6943 H   0  0  0  0  0
   19.2006   -6.0104   -3.1772 H   0  0  0  0  0
   18.6904   -8.7536   -4.3625 H   0  0  0  0  0
   19.6530   -8.3471   -2.9842 H   0  0  0  0  0
   21.4875   -7.5931   -4.3126 H   0  0  0  0  0
   20.8646   -8.7877   -5.3584 H   0  0  0  0  0
   21.2042   -4.7782   -5.2053 H   0  0  0  0  0
   20.3795   -2.3232   -4.1378 H   0  0  0  0  0
   20.2218   -2.1509   -5.8923 H   0  0  0  0  0
   22.1326   -0.8251   -4.6075 H   0  0  0  0  0
  1  2  1  0  0  0
  1  7  1  0  0  0
  2  3  1  0  0  0
  2  5  1  0  0  0
  3  4  2  0  0  0
  3  8  1  0  0  0
  5  6  1  0  0  0
  6  7  1  0  0  0
  8  9  1  0  0  0
  8 14  1  0  0  0
  9 10  1  0  0  0
  9 12  1  0  0  0
 10 11  2  0  0  0
 10 15  1  0  0  0
 12 13  1  0  0  0
 13 14  1  0  0  0
 15 16  1  0  0  0
 16 17  1  0  0  0
 17 18  2  0  0  0
 17 19  1  0  0  0
 19 20  1  0  0  0
 19 25  1  0  0  0
 20 21  1  0  0  0
 20 23  1  0  0  0
 21 22  2  0  0  0
 21 26  1  0  0  0
 23 24  1  0  0  0
 24 25  1  0  0  0
 26 27  1  0  0  0
 27 28  1  0  0  0
 27 30  1  0  0  0
 28 29  2  0  0  0
 28 31  1  0  0  0
 31 32  1  0  0  0
 32 33  1  0  0  0
 33 34  2  0  0  0
 33 35  1  0  0  0
 35 36  1  0  0  0
 35 41  1  0  0  0
 36 37  1  0  0  0
 36 39  1  0  0  0
 37 38  2  0  0  0
 37 42  1  0  0  0
 39 40  1  0  0  0
 40 41  1  0  0  0
 42 43  1  0  0  0
 42 48  1  0  0  0
 43 44  1  0  0  0
 43 46  1  0  0  0
 44 45  2  0  0  0
 44 49  1  0  0  0
 46 47  1  0  0  0
 47 48  1  0  0  0
 49 50  1  0  0  0
 50 51  1  0  0  0
 51 52  2  0  0  0
 51 53  1  0  0  0
  1 54  1  0  0  0
  1 55  1  0  0  0
  2 56  1  0  0  0
  5 57  1  0  0  0
  5 58  1  0  0  0
  6 59  1  0  0  0
  6 60  1  0  0  0
  7 61  1  0  0  0
  7 62  1  0  0  0
  9 63  1  0  0  0
 12 64  1  0  0  0
 12 65  1  0  0  0
 13 66  1  0  0  0
 13 67  1  0  0  0
 14 68  1  0  0  0
 14 69  1  0  0  0
 15 70  1  0  0  0
 16 71  1  0  0  0
 16 72  1  0  0  0
 20 73  1  0  0  0
 23 74  1  0  0  0
 23 75  1  0  0  0
 24 76  1  0  0  0
 24 77  1  0  0  0
 25 78  1  0  0  0
 25 79  1  0  0  0
 26 80  1  0  0  0
 27 81  1  0  0  0
 30 82  1  0  0  0
 30 83  1  0  0  0
 30 84  1  0  0  0
 31 85  1  0  0  0
 32 86  1  0  0  0
 32 87  1  0  0  0
 36 88  1  0  0  0
 39 89  1  0  0  0
 39 90  1  0  0  0
 40 91  1  0  0  0
 40 92  1  0  0  0
 41 93  1  0  0  0
 41 94  1  0  0  0
 43 95  1  0  0  0
 46 96  1  0  0  0
 46 97  1  0  0  0
 47 98  1  0  0  0
 47 99  1  0  0  0
 48100  1  0  0  0
 48101  1  0  0  0
 49102  1  0  0  0
 50103  1  0  0  0
 50104  1  0  0  0
 53105  1  0  0  0
M  END
$$$$
