4e28_ligand
  -I-interpret- 

 45 47  0  0  0  0  0  0  0  0999 V2000
   41.9450  -24.0440   12.2630 F   0  0  0  0  0
   42.0530  -23.7340   10.9840 C   0  0  0  0  0
   40.9840  -23.0550   10.6100 F   0  0  0  0  0
   42.1500  -24.8360   10.2650 F   0  0  0  0  0
   43.2710  -22.8860   10.7730 C   0  0  0  0  0
   43.8720  -22.2570   11.8560 C   0  0  0  0  0
   43.7940  -22.7210    9.4950 C   0  0  0  0  0
   44.9230  -21.9320    9.3020 C   0  0  0  0  0
   45.5230  -21.3020   10.3840 C   0  0  0  0  0
   45.0020  -21.4750   11.6600 C   0  0  0  0  0
   45.5990  -20.8410   12.7510 N   0  0  0  0  0
   46.4090  -21.5150   13.5610 C   0  0  0  0  0
   46.6870  -22.6940   13.4090 O   0  0  0  0  0
   46.9860  -20.7290   14.7100 C   0  0  0  0  0
   47.3160  -19.3100   14.2640 C   0  0  0  0  0
   47.0130  -18.3490   15.3790 C   0  0  0  0  0
   45.7810  -18.0400   15.7460 O   0  0  0  0  0
   48.0200  -17.8400   15.9590 N   0  0  0  0  0
   49.1810  -18.0830   15.3640 C   0  0  0  0  0
   49.0460  -19.0880   14.0530 S   0  0  0  0  0
   50.2730  -17.6120   15.7560 N   0  0  0  0  0
   51.3940  -17.9730   14.9960 N   0  0  0  0  0
   52.5640  -17.8560   15.4290 C   0  0  0  0  0
   53.6670  -18.2620   14.5340 C   0  0  0  0  0
   53.3170  -18.7340   13.2790 C   0  0  0  0  0
   54.2970  -19.1340   12.3870 C   0  0  0  0  0
   55.6280  -19.0600   12.7510 C   0  0  0  0  0
   55.9780  -18.5880   14.0030 C   0  0  0  0  0
   55.0010  -18.1840   14.9020 C   0  0  0  0  0
   55.3910  -17.7250   16.1280 O   0  0  0  0  0
   43.4574  -22.3772   12.8569 H   0  0  0  0  0
   43.3191  -23.2101    8.6445 H   0  0  0  0  0
   45.3368  -21.8083    8.3012 H   0  0  0  0  0
   46.4005  -20.6734   10.2326 H   0  0  0  0  0
   45.4124  -19.8539   12.9277 H   0  0  0  0  0
   47.8986  -21.2164   15.0530 H   0  0  0  0  0
   46.2546  -20.6882   15.5172 H   0  0  0  0  0
   46.7487  -19.1442   13.3481 H   0  0  0  0  0
   47.9434  -17.2885   16.8136 H   0  0  0  0  0
   52.7606  -17.4690   16.4288 H   0  0  0  0  0
   52.2666  -18.7905   12.9933 H   0  0  0  0  0
   54.0197  -19.5061   11.4007 H   0  0  0  0  0
   56.4024  -19.3738   12.0511 H   0  0  0  0  0
   57.0292  -18.5329   14.2858 H   0  0  0  0  0
   56.3489  -17.7488   16.1875 H   0  0  0  0  0
  1  2  1  0  0  0
  2  3  1  0  0  0
  2  4  1  0  0  0
  2  5  1  0  0  0
  5  6  4  0  0  0
  5  7  4  0  0  0
  6 10  4  0  0  0
  7  8  4  0  0  0
  8  9  4  0  0  0
  9 10  4  0  0  0
 10 11  1  0  0  0
 11 12  1  0  0  0
 12 13  2  0  0  0
 12 14  1  0  0  0
 14 15  1  0  0  0
 15 16  1  0  0  0
 15 20  1  0  0  0
 16 17  2  0  0  0
 16 18  1  0  0  0
 18 19  1  0  0  0
 19 20  1  0  0  0
 19 21  2  0  0  0
 21 22  1  0  0  0
 22 23  2  0  0  0
 23 24  1  0  0  0
 24 25  4  0  0  0
 24 29  4  0  0  0
 25 26  4  0  0  0
 26 27  4  0  0  0
 27 28  4  0  0  0
 28 29  4  0  0  0
 29 30  1  0  0  0
  6 31  1  0  0  0
  7 32  1  0  0  0
  8 33  1  0  0  0
  9 34  1  0  0  0
 11 35  1  0  0  0
 14 36  1  0  0  0
 14 37  1  0  0  0
 15 38  1  0  0  0
 18 39  1  0  0  0
 23 40  1  0  0  0
 25 41  1  0  0  0
 26 42  1  0  0  0
 27 43  1  0  0  0
 28 44  1  0  0  0
 30 45  1  0  0  0
M  END
$$$$
