2gd8_ligand
  -I-interpret- 

 58 61  0  0  0  0  0  0  0  0999 V2000
   -0.0580    8.8890   11.9170 C   0  0  0  0  0
   -0.7450    8.9780   13.1530 C   0  0  0  0  0
    2.5890    9.4290   12.6310 O   0  0  0  0  0
    2.1890   10.2280   11.5220 S   0  0  0  0  0
    2.6440    9.9240   10.2120 O   0  0  0  0  0
    2.5120   11.7420   11.8410 N   0  0  0  0  0
    0.5830   10.0720   11.4240 O   0  0  0  0  0
   -1.3730    7.8210   13.6490 C   0  0  0  0  0
   -1.3520    6.5550   12.9750 C   0  0  0  0  0
   -0.6500    6.4970   11.7250 C   0  0  0  0  0
   -0.0110    7.6490   11.2080 C   0  0  0  0  0
   -0.8580   10.1200   13.9220 O   0  0  0  0  0
   -0.1290   10.2340   15.1330 C   0  0  0  0  0
   -2.0400    5.3220   13.5740 C   0  0  0  0  0
   -2.4130    4.2730   12.4590 C   0  0  0  0  0
   -1.1590    3.9480   11.6180 C   0  0  0  0  0
   -0.5640    5.1970   10.9220 C   0  0  0  0  0
   -3.2820    5.7030   14.4500 C   0  0  0  0  0
   -3.9730    4.4550   15.0820 C   0  0  0  0  0
   -4.3470    3.4060   14.0390 C   0  0  0  0  0
   -3.0710    3.0720   13.1900 C   0  0  0  0  0
   -5.5810    3.9170   13.2430 C   0  0  0  0  0
   -4.5510    1.9600   14.5510 C   0  0  0  0  0
   -4.5030    1.1010   13.2950 C   0  0  0  0  0
   -3.5290    1.8400   12.3610 C   0  0  0  0  0
   -5.8300    1.8250   15.2350 O   0  0  0  0  0
   -5.8960    0.9570   16.5670 S   0  0  0  0  0
   -7.2760    0.9830   16.9230 O   0  0  0  0  0
   -4.9520    1.5590   17.4760 O   0  0  0  0  0
   -5.4350   -0.4940   16.1730 N   0  0  0  0  0
    2.9399   11.9955   12.7315 H   0  0  0  0  0
    2.2925   12.4655   11.1563 H   0  0  0  0  0
   -1.9049    7.8904   14.5979 H   0  0  0  0  0
    0.5225    7.5900   10.2593 H   0  0  0  0  0
   -0.4216    9.4303   15.8087 H   0  0  0  0  0
    0.9379   10.1623   14.9215 H   0  0  0  0  0
   -0.3449   11.1967   15.5963 H   0  0  0  0  0
   -1.3201    4.8494   14.2422 H   0  0  0  0  0
   -3.1334    4.6401   11.7280 H   0  0  0  0  0
   -1.4513    3.2405   10.8420 H   0  0  0  0  0
   -0.4005    3.5470   12.2903 H   0  0  0  0  0
    0.4960    4.9939   10.7698 H   0  0  0  0  0
   -1.1440    5.3532   10.0125 H   0  0  0  0  0
   -4.0081    6.1994   13.8061 H   0  0  0  0  0
   -2.9372    6.3435   15.2617 H   0  0  0  0  0
   -4.8896    4.7878   15.5690 H   0  0  0  0  0
   -3.2720    3.9997   15.7816 H   0  0  0  0  0
   -2.1922    2.8231   13.7848 H   0  0  0  0  0
   -6.4141    4.0739   13.9281 H   0  0  0  0  0
   -5.3309    4.8573   12.7517 H   0  0  0  0  0
   -5.8600    3.1768   12.4931 H   0  0  0  0  0
   -3.7939    1.6660   15.2780 H   0  0  0  0  0
   -5.4883    0.9794   12.8449 H   0  0  0  0  0
   -4.1734    0.0840   13.5075 H   0  0  0  0  0
   -2.6910    1.2119   12.0587 H   0  0  0  0  0
   -3.9982    2.1275   11.4201 H   0  0  0  0  0
   -6.1024   -1.2650   16.1957 H   0  0  0  0  0
   -4.4686   -0.6641   15.8947 H   0  0  0  0  0
  1  2  4  0  0  0
  7  1  1  0  0  0
  1 11  4  0  0  0
  2  8  4  0  0  0
  2 12  1  0  0  0
  4  3  2  0  0  0
  4  5  2  0  0  0
  4  6  1  0  0  0
  4  7  1  0  0  0
  8  9  4  0  0  0
  9 10  4  0  0  0
  9 14  1  0  0  0
 10 11  4  0  0  0
 10 17  1  0  0  0
 12 13  1  0  0  0
 14 15  1  0  0  0
 14 18  1  0  0  0
 15 16  1  0  0  0
 15 21  1  0  0  0
 16 17  1  0  0  0
 18 19  1  0  0  0
 19 20  1  0  0  0
 20 21  1  0  0  0
 20 22  1  0  0  0
 20 23  1  0  0  0
 21 25  1  0  0  0
 23 24  1  0  0  0
 23 26  1  0  0  0
 24 25  1  0  0  0
 26 27  1  0  0  0
 27 28  2  0  0  0
 27 29  2  0  0  0
 27 30  1  0  0  0
  6 31  1  0  0  0
  6 32  1  0  0  0
  8 33  1  0  0  0
 11 34  1  0  0  0
 13 35  1  0  0  0
 13 36  1  0  0  0
 13 37  1  0  0  0
 14 38  1  0  0  0
 15 39  1  0  0  0
 16 40  1  0  0  0
 16 41  1  0  0  0
 17 42  1  0  0  0
 17 43  1  0  0  0
 18 44  1  0  0  0
 18 45  1  0  0  0
 19 46  1  0  0  0
 19 47  1  0  0  0
 21 48  1  0  0  0
 22 49  1  0  0  0
 22 50  1  0  0  0
 22 51  1  0  0  0
 23 52  1  0  0  0
 24 53  1  0  0  0
 24 54  1  0  0  0
 25 55  1  0  0  0
 25 56  1  0  0  0
 30 57  1  0  0  0
 30 58  1  0  0  0
M  END
$$$$
