### 
### Created by X-TOOL on Mon Sep 10 21:12:49 2018
### 

@<TRIPOS>MOLECULE
1h7a_ligand
   42    44     1     0     0
SMALL
GAST_HUCK


@<TRIPOS>ATOM
      1 PG         44.0960   39.5060   62.3610 P.3       1 DTP         0.1879
      2 O1G        42.8480   39.0640   63.0020 O.co2     1 DTP        -0.6091
      3 O2G        45.2740   39.4090   63.2330 O.co2     1 DTP        -0.6091
      4 O3G        44.2540   38.9760   60.9710 O.co2     1 DTP        -0.6091
      5 PB         43.0210   42.1250   61.4110 P.3       1 DTP         0.3553
      6 O1B        43.9250   43.1950   60.8060 O.co2     1 DTP        -0.5652
      7 O2B        42.1760   41.2940   60.5320 O.co2     1 DTP        -0.5652
      8 O3B        44.0050   41.1170   62.2600 O.3       1 DTP        -0.1546
      9 PA         42.1320   42.6180   64.1780 P.3       1 DTP         0.3266
     10 O1A        41.8160   41.1970   64.4040 O.co2     1 DTP        -0.5692
     11 O2A        43.3500   43.2100   64.8100 O.co2     1 DTP        -0.5692
     12 O3A        42.1930   42.8100   62.5950 O.3       1 DTP        -0.1171
     13 O5         40.8830   43.3720   64.6240 O.3       1 DTP        -0.2441
     14 C5         39.7120   43.1210   63.9290 C.3       1 DTP         0.1130
     15 C4         38.5000   43.7840   64.4870 C.3       1 DTP         0.1164
     16 O4         38.7020   45.2140   64.4180 O.3       1 DTP        -0.3389
     17 C3         37.3280   43.4950   63.6230 C.3       1 DTP         0.0890
     18 O3         36.1240   43.7560   64.3870 O.3       1 DTP        -0.3889
     19 C2         37.6510   44.4330   62.4650 C.3       1 DTP         0.0315
     20 C1         38.2050   45.7160   63.1570 C.3       1 DTP         0.1751
     21 N9         39.3700   46.4140   62.5080 N.pl3     1 DTP        -0.1945
     22 C8         40.4790   45.9000   61.9030 C.2       1 DTP         0.1122
     23 N7         41.3250   46.7780   61.4560 N.2       1 DTP        -0.2958
     24 C5         40.7280   47.9810   61.7860 C.ar      1 DTP         0.1045
     25 C6         41.1120   49.3610   61.5930 C.ar      1 DTP         0.1298
     26 N6         42.2460   49.6900   61.0070 N.pl3     1 DTP        -0.3152
     27 N1         40.2990   50.3380   62.0350 N.ar      1 DTP        -0.2698
     28 C2         39.1530   50.0060   62.6350 C.ar      1 DTP         0.0533
     29 N3         38.6700   48.7600   62.8820 N.ar      1 DTP        -0.2714
     30 C4         39.5300   47.7760   62.4170 C.ar      1 DTP         0.1612
     31 H1         39.5392   42.0347   63.9307 H         1 DTP         0.0648
     32 H2         39.8468   43.4692   62.8943 H         1 DTP         0.0648
     33 H3         38.3191   43.4539   65.5206 H         1 DTP         0.0650
     34 H4         37.3070   42.4509   63.2775 H         1 DTP         0.0622
     35 H5         35.3629   43.5757   63.8479 H         1 DTP         0.2099
     36 H6         36.7454   44.6628   61.8844 H         1 DTP         0.0345
     37 H7         38.4085   43.9889   61.8025 H         1 DTP         0.0345
     38 H8         37.3879   46.4394   63.2953 H         1 DTP         0.0969
     39 H9         40.6436   44.8283   61.8018 H         1 DTP         0.1349
     40 H10        42.4929   50.6823   60.8834 H         1 DTP         0.1820
     41 H11        42.8852   48.9548   60.6727 H         1 DTP         0.1820
     42 H12        38.5323   50.8311   62.9653 H         1 DTP         0.0996
@<TRIPOS>BOND
     1    1    2 ar 
     2    1    3 ar 
     3    1    4 ar 
     4    8    1 1  
     5    5    6 ar 
     6    5    7 ar 
     7    5    8 1  
     8   12    5 1  
     9    9   10 ar 
    10    9   11 ar 
    11    9   12 1  
    12    9   13 1  
    13   13   14 1  
    14   14   15 1  
    15   15   16 1  
    16   15   17 1  
    17   16   20 1  
    18   17   18 1  
    19   17   19 1  
    20   19   20 1  
    21   20   21 1  
    22   21   22 1  
    23   21   30 1  
    24   22   23 2  
    25   23   24 1  
    26   24   25 ar 
    27   24   30 ar 
    28   25   26 1  
    29   25   27 ar 
    30   27   28 ar 
    31   28   29 ar 
    32   29   30 ar 
    33   14   31 1  
    34   14   32 1  
    35   15   33 1  
    36   17   34 1  
    37   18   35 1  
    38   19   36 1  
    39   19   37 1  
    40   20   38 1  
    41   22   39 1  
    42   26   40 1  
    43   26   41 1  
    44   28   42 1  
@<TRIPOS>SUBSTRUCTURE
     1 DTP         1

