5t54_ligand
  -I-interpret- 

 71 73  0  0  0  0  0  0  0  0999 V2000
  -11.9890   44.4310   14.3690 O   0  0  0  0  0
  -11.2540   45.5890   14.7400 C   0  0  0  0  0
  -11.0700   46.4910   13.6840 O   0  0  0  0  0
   -9.8810   45.2600   15.3240 C   0  0  0  0  0
   -9.2180   46.4940   15.6330 N   0  0  0  0  0
   -9.1420   44.3500   14.3860 C   0  0  0  0  0
   -7.9240   43.9860   15.0580 O   0  0  0  0  0
  -10.0340   43.1450   14.0690 C   0  0  0  0  0
  -10.3610   42.3060   15.1990 O   0  0  0  0  0
  -11.3100   43.6390   13.4020 C   0  0  0  0  0
  -12.2270   42.4880   13.0140 C   0  0  0  0  0
  -13.3910   43.0560   12.3370 O   0  0  0  0  0
   -8.5110   46.6390   16.7290 C   0  0  0  0  0
   -8.4510   45.7560   17.6040 O   0  0  0  0  0
   -7.7150   47.9220   16.8710 C   0  0  0  0  0
  -12.9480   48.4090   11.0590 C   0  0  0  0  0
  -11.7740   47.9780   11.8850 C   0  0  0  0  0
  -12.1700   46.8510   12.7910 C   0  0  0  0  0
  -13.4360   47.1750   13.5280 C   0  0  0  0  0
  -14.5780   47.6240   12.6510 C   0  0  0  0  0
  -15.7700   48.1080   13.5010 C   0  0  0  0  0
  -13.2580   47.3270   10.1990 O   0  0  0  0  0
  -10.7010   47.4900   11.0600 O   0  0  0  0  0
  -13.0870   48.2350   14.3760 O   0  0  0  0  0
  -14.0990   48.7290   11.8700 O   0  0  0  0  0
  -16.8080   48.2890   12.5120 O   0  0  0  0  0
   -9.7570   48.5600   10.8690 C   0  0  0  0  0
   -8.3930   48.0490   10.4410 C   0  0  0  0  0
   -8.4020   47.4980    9.0160 C   0  0  0  0  0
   -9.0410   48.4950    8.0250 C   0  0  0  0  0
  -10.3770   48.8610    8.6230 C   0  0  0  0  0
  -11.1990   49.7580    7.6670 C   0  0  0  0  0
   -7.9270   47.0980   11.4410 O   0  0  0  0  0
   -7.0430   47.3200    8.6500 O   0  0  0  0  0
   -8.1370   49.5840    7.8780 O   0  0  0  0  0
  -10.1810   49.5130    9.8740 O   0  0  0  0  0
  -11.8740   46.0564   15.5051 H   0  0  0  0  0
   -9.9469   44.7050   16.2598 H   0  0  0  0  0
   -9.2980   47.2777   14.9851 H   0  0  0  0  0
   -8.8971   44.8170   13.4321 H   0  0  0  0  0
   -7.4068   44.7761   15.2309 H   0  0  0  0  0
   -9.4523   42.5057   13.4049 H   0  0  0  0  0
   -9.5512   41.9992   15.6133 H   0  0  0  0  0
  -11.0563   44.1892   12.4959 H   0  0  0  0  0
  -12.5365   41.9343   13.9004 H   0  0  0  0  0
  -11.7061   41.7937   12.3547 H   0  0  0  0  0
  -13.9875   42.3488   12.0808 H   0  0  0  0  0
   -8.0206   48.4389   17.7807 H   0  0  0  0  0
   -6.6526   47.6847   16.9258 H   0  0  0  0  0
   -7.9017   48.5613   16.0082 H   0  0  0  0  0
  -12.6942   49.3142   10.5074 H   0  0  0  0  0
  -11.4463   48.8506   12.4501 H   0  0  0  0  0
  -12.3808   45.9708   12.1836 H   0  0  0  0  0
  -13.7959   46.2766   14.0294 H   0  0  0  0  0
  -14.9136   46.7939   12.0294 H   0  0  0  0  0
  -15.5525   49.0167   14.0623 H   0  0  0  0  0
  -16.0471   47.4049   14.2865 H   0  0  0  0  0
  -14.0088   47.5619    9.6489 H   0  0  0  0  0
  -13.8551   48.5010   14.8867 H   0  0  0  0  0
  -17.6094   48.5949   12.9431 H   0  0  0  0  0
   -9.6974   49.0458   11.8429 H   0  0  0  0  0
   -7.6813   48.8734   10.3974 H   0  0  0  0  0
   -8.9790   46.5739    8.9815 H   0  0  0  0  0
   -9.2166   48.1063    7.0219 H   0  0  0  0  0
  -10.9446   47.9437    8.7797 H   0  0  0  0  0
  -10.6464   50.6761    7.4672 H   0  0  0  0  0
  -11.3729   49.2262    6.7315 H   0  0  0  0  0
  -12.1547   50.0014    8.1311 H   0  0  0  0  0
   -7.0639   46.7641   11.1857 H   0  0  0  0  0
   -6.9963   46.9730    7.7561 H   0  0  0  0  0
   -8.5062   50.2244    7.2655 H   0  0  0  0  0
  2  1  1  0  0  0
  1 10  1  0  0  0
  3  2  1  0  0  0
  2  4  1  0  0  0
 18  3  1  0  0  0
  4  5  1  0  0  0
  4  6  1  0  0  0
  5 13  1  0  0  0
  6  7  1  0  0  0
  6  8  1  0  0  0
  8  9  1  0  0  0
 10  8  1  0  0  0
 10 11  1  0  0  0
 11 12  1  0  0  0
 13 14  2  0  0  0
 13 15  1  0  0  0
 17 16  1  0  0  0
 16 22  1  0  0  0
 16 25  1  0  0  0
 17 18  1  0  0  0
 17 23  1  0  0  0
 18 19  1  0  0  0
 19 20  1  0  0  0
 19 24  1  0  0  0
 20 21  1  0  0  0
 20 25  1  0  0  0
 21 26  1  0  0  0
 23 27  1  0  0  0
 27 28  1  0  0  0
 27 36  1  0  0  0
 28 29  1  0  0  0
 28 33  1  0  0  0
 29 30  1  0  0  0
 29 34  1  0  0  0
 30 31  1  0  0  0
 30 35  1  0  0  0
 31 32  1  0  0  0
 31 36  1  0  0  0
  2 37  1  0  0  0
  4 38  1  0  0  0
  5 39  1  0  0  0
  6 40  1  0  0  0
  7 41  1  0  0  0
  8 42  1  0  0  0
  9 43  1  0  0  0
 10 44  1  0  0  0
 11 45  1  0  0  0
 11 46  1  0  0  0
 12 47  1  0  0  0
 15 48  1  0  0  0
 15 49  1  0  0  0
 15 50  1  0  0  0
 16 51  1  0  0  0
 17 52  1  0  0  0
 18 53  1  0  0  0
 19 54  1  0  0  0
 20 55  1  0  0  0
 21 56  1  0  0  0
 21 57  1  0  0  0
 22 58  1  0  0  0
 24 59  1  0  0  0
 26 60  1  0  0  0
 27 61  1  0  0  0
 28 62  1  0  0  0
 29 63  1  0  0  0
 30 64  1  0  0  0
 31 65  1  0  0  0
 32 66  1  0  0  0
 32 67  1  0  0  0
 32 68  1  0  0  0
 33 69  1  0  0  0
 34 70  1  0  0  0
 35 71  1  0  0  0
M  END
$$$$
