2wi4_ligand
  -I-interpret- 

 34 36  0  0  0  0  0  0  0  0999 V2000
    6.3250   11.0900   22.6650 Cl  0  0  0  0  0
    4.6490   11.0350   23.3060 C   0  0  0  0  0
    4.0200    9.8040   23.4780 C   0  0  0  0  0
    2.7220    9.7200   23.9730 C   0  0  0  0  0
    3.9970   12.2220   23.6250 C   0  0  0  0  0
    2.7010   12.1900   24.1220 C   0  0  0  0  0
    1.8470   13.7130   24.5380 Cl  0  0  0  0  0
    2.0320   10.8780   24.3050 C   0  0  0  0  0
    0.6450   10.8050   24.8340 C   0  0  0  0  0
   -0.3910   11.3010   24.1270 N   0  0  0  0  0
    0.3680   10.1870   26.1520 C   0  0  0  0  0
   -0.9470   10.1490   26.5920 C   0  0  0  0  0
   -1.9140   10.6660   25.8230 N   0  0  0  0  0
   -1.6500   11.2290   24.6190 C   0  0  0  0  0
   -2.6740   11.7350   23.8880 N   0  0  0  0  0
    1.4030    9.6560   26.9300 N   0  0  0  0  0
    1.2450    8.5780   27.5220 N   0  0  0  0  0
    2.2810    8.0480   28.3000 C   0  0  0  0  0
    3.5650    8.5690   28.1940 C   0  0  0  0  0
    4.5940    8.0430   28.9670 C   0  0  0  0  0
    4.3390    6.9950   29.8440 C   0  0  0  0  0
    3.0550    6.4740   29.9490 C   0  0  0  0  0
    2.0260    7.0000   29.1770 C   0  0  0  0  0
    4.5543    8.8896   23.2201 H   0  0  0  0  0
    2.2480    8.7467   24.0998 H   0  0  0  0  0
    4.5036   13.1769   23.4847 H   0  0  0  0  0
   -1.1913    9.7021   27.5557 H   0  0  0  0  0
   -2.4902   12.1626   22.9804 H   0  0  0  0  0
   -3.6280   11.6880   24.2458 H   0  0  0  0  0
    3.7653    9.3897   27.5051 H   0  0  0  0  0
    5.6009    8.4524   28.8853 H   0  0  0  0  0
    5.1460    6.5820   30.4492 H   0  0  0  0  0
    2.8549    5.6526   30.6370 H   0  0  0  0  0
    1.0191    6.5908   29.2592 H   0  0  0  0  0
  1  2  1  0  0  0
  2  3  4  0  0  0
  2  5  4  0  0  0
  3  4  4  0  0  0
  4  8  4  0  0  0
  5  6  4  0  0  0
  6  7  1  0  0  0
  6  8  4  0  0  0
  8  9  1  0  0  0
  9 10  4  0  0  0
  9 11  4  0  0  0
 10 14  4  0  0  0
 11 12  4  0  0  0
 11 16  1  0  0  0
 12 13  4  0  0  0
 13 14  4  0  0  0
 14 15  1  0  0  0
 16 17  2  0  0  0
 17 18  1  0  0  0
 18 19  4  0  0  0
 18 23  4  0  0  0
 19 20  4  0  0  0
 20 21  4  0  0  0
 21 22  4  0  0  0
 22 23  4  0  0  0
  3 24  1  0  0  0
  4 25  1  0  0  0
  5 26  1  0  0  0
 12 27  1  0  0  0
 15 28  1  0  0  0
 15 29  1  0  0  0
 19 30  1  0  0  0
 20 31  1  0  0  0
 21 32  1  0  0  0
 22 33  1  0  0  0
 23 34  1  0  0  0
M  END
$$$$
