6cn6_ligand
  -I-interpret- 

 67 71  0  0  0  0  0  0  0  0999 V2000
    1.5120   28.6110   11.8850 N   0  0  0  0  0
    0.6840   29.7850    9.9370 C   0  0  0  0  0
   -3.7480   33.4080   15.6770 N   0  0  0  0  0
   -1.3850   30.8940   11.4840 C   0  0  0  0  0
   -1.2560   31.1260   10.0870 C   0  0  0  0  0
   -3.0630   32.2860   10.8160 C   0  0  0  0  0
   -2.4010   32.8120   15.5690 C   0  0  0  0  0
   -6.4030   37.4050   16.4150 C   0  0  0  0  0
   -5.5360   36.5110   15.5370 C   0  0  0  0  0
   -2.5170   31.6700   11.9260 C   0  0  0  0  0
   -5.4850   35.6510   17.8460 C   0  0  0  0  0
   -3.9110   34.7130   16.1490 C   0  0  0  0  0
   -5.9720   37.1010   17.8480 C   0  0  0  0  0
    5.5530   26.3280   13.9120 C   0  0  0  0  0
   -0.6470   29.6160   13.5210 C   0  0  0  0  0
   -0.4800   30.0100   12.0980 C   0  0  0  0  0
    0.5440   29.4920   11.3160 C   0  0  0  0  0
   -0.2290   30.5870    9.3010 C   0  0  0  0  0
   -2.3100   31.9400    9.6810 N   0  0  0  0  0
   -2.4730   32.4680    8.3330 C   0  0  0  0  0
   -2.9850   31.8540   13.3220 C   0  0  0  0  0
   -1.9510   32.6690   14.1090 C   0  0  0  0  0
   -4.7700   32.7280   14.8680 C   0  0  0  0  0
   -4.3300   32.5930   13.4000 C   0  0  0  0  0
   -2.9310   35.3810   16.4660 O   0  0  0  0  0
   -5.3150   35.2440   16.3710 C   0  0  0  0  0
    2.8180   29.0320   12.0700 C   0  0  0  0  0
    3.1990   30.1440   11.7150 O   0  0  0  0  0
    3.7330   28.0530   12.7100 C   0  0  0  0  0
    3.3140   27.2080   13.7330 C   0  0  0  0  0
    4.2230   26.3310   14.3130 C   0  0  0  0  0
    5.9650   27.2010   12.9070 C   0  0  0  0  0
    5.0580   28.0540   12.2860 C   0  0  0  0  0
    7.3340   27.2540   12.5220 C   0  0  0  0  0
    8.4440   27.3160   12.2040 N   0  0  0  0  0
    1.2403   27.6662   12.1568 H   0  0  0  0  0
    1.5227   29.3704    9.3778 H   0  0  0  0  0
   -3.9378   32.9362   10.8201 H   0  0  0  0  0
   -2.4314   31.8180   16.0152 H   0  0  0  0  0
   -1.6962   33.4677   16.0802 H   0  0  0  0  0
   -7.4644   37.2077   16.2646 H   0  0  0  0  0
   -6.2695   38.4588   16.1706 H   0  0  0  0  0
   -4.5949   36.9920   15.2705 H   0  0  0  0  0
   -6.0141   36.2914   14.5824 H   0  0  0  0  0
   -6.2004   35.0001   18.3487 H   0  0  0  0  0
   -4.5430   35.5567   18.3862 H   0  0  0  0  0
   -6.7985   37.2379   18.5453 H   0  0  0  0  0
   -5.1849   37.7804   18.1750 H   0  0  0  0  0
    6.2672   25.6496   14.3788 H   0  0  0  0  0
   -0.6033   30.5049   14.1503 H   0  0  0  0  0
   -1.6116   29.1251   13.6499 H   0  0  0  0  0
    0.1518   28.9300   13.8029 H   0  0  0  0  0
   -0.1588   30.7954    8.2334 H   0  0  0  0  0
   -1.6105   33.0841    8.0787 H   0  0  0  0  0
   -2.5511   31.6410    7.6272 H   0  0  0  0  0
   -3.3789   33.0725    8.2880 H   0  0  0  0  0
   -3.1131   30.8576   13.7449 H   0  0  0  0  0
   -0.9895   32.1565   14.0775 H   0  0  0  0  0
   -1.8581   33.6591   13.6626 H   0  0  0  0  0
   -5.6855   33.3187   14.9009 H   0  0  0  0  0
   -4.9240   31.7288   15.2754 H   0  0  0  0  0
   -5.0826   32.0281   12.8500 H   0  0  0  0  0
   -4.2197   33.5865   12.9653 H   0  0  0  0  0
   -6.0216   34.4634   16.0890 H   0  0  0  0  0
    2.2801   27.2337   14.0771 H   0  0  0  0  0
    3.8899   25.6407   15.0880 H   0  0  0  0  0
    5.3806   28.7128   11.4798 H   0  0  0  0  0
  1 17  1  0  0  0
 27  1  1  0  0  0
 17  2  4  0  0  0
  2 18  4  0  0  0
  7  3  1  0  0  0
  3 12  1  0  0  0
 23  3  1  0  0  0
  4  5  4  0  0  0
  4 10  4  0  0  0
 16  4  4  0  0  0
 18  5  4  0  0  0
  5 19  4  0  0  0
 10  6  4  0  0  0
  6 19  4  0  0  0
 22  7  1  0  0  0
  9  8  1  0  0  0
 13  8  1  0  0  0
 26  9  1  0  0  0
 10 21  1  0  0  0
 11 13  1  0  0  0
 26 11  1  0  0  0
 12 25  2  0  0  0
 12 26  1  0  0  0
 31 14  4  0  0  0
 14 32  4  0  0  0
 16 15  1  0  0  0
 17 16  4  0  0  0
 19 20  1  0  0  0
 21 22  1  0  0  0
 21 24  1  0  0  0
 24 23  1  0  0  0
 27 28  2  0  0  0
 29 27  1  0  0  0
 30 29  4  0  0  0
 29 33  4  0  0  0
 30 31  4  0  0  0
 32 33  4  0  0  0
 32 34  1  0  0  0
 34 35  3  0  0  0
  1 36  1  0  0  0
  2 37  1  0  0  0
  6 38  1  0  0  0
  7 39  1  0  0  0
  7 40  1  0  0  0
  8 41  1  0  0  0
  8 42  1  0  0  0
  9 43  1  0  0  0
  9 44  1  0  0  0
 11 45  1  0  0  0
 11 46  1  0  0  0
 13 47  1  0  0  0
 13 48  1  0  0  0
 14 49  1  0  0  0
 15 50  1  0  0  0
 15 51  1  0  0  0
 15 52  1  0  0  0
 18 53  1  0  0  0
 20 54  1  0  0  0
 20 55  1  0  0  0
 20 56  1  0  0  0
 21 57  1  0  0  0
 22 58  1  0  0  0
 22 59  1  0  0  0
 23 60  1  0  0  0
 23 61  1  0  0  0
 24 62  1  0  0  0
 24 63  1  0  0  0
 26 64  1  0  0  0
 30 65  1  0  0  0
 31 66  1  0  0  0
 33 67  1  0  0  0
M  END
$$$$
