5oh4_ligand
  -I-interpret- 

 15 15  0  0  0  0  0  0  0  0999 V2000
   21.3260   15.8530   -7.4900 O   0  0  0  0  0
   22.3820   16.4900   -7.4660 C   0  0  0  0  0
   23.3780   16.0840   -8.2120 N   0  0  0  0  0
   22.5980   17.7140   -6.5940 C   0  0  0  0  0
   23.7110   18.6190   -7.1340 C   0  0  0  0  0
   24.9440   17.8610   -7.5800 C   0  0  0  0  0
   24.5990   16.5700   -8.2650 C   0  0  0  0  0
   25.4470   15.9540   -8.8880 O   0  0  0  0  0
   23.1834   15.2942   -8.8274 H   0  0  0  0  0
   22.8882   17.3754   -5.5994 H   0  0  0  0  0
   21.6713   18.2877   -6.5786 H   0  0  0  0  0
   24.0113   19.2861   -6.3260 H   0  0  0  0  0
   23.3148   19.1410   -8.0050 H   0  0  0  0  0
   25.5372   17.6279   -6.6958 H   0  0  0  0  0
   25.4886   18.4857   -8.2880 H   0  0  0  0  0
  1  2  2  0  0  0
  2  3  1  0  0  0
  2  4  1  0  0  0
  3  7  1  0  0  0
  4  5  1  0  0  0
  5  6  1  0  0  0
  6  7  1  0  0  0
  7  8  2  0  0  0
  3  9  1  0  0  0
  4 10  1  0  0  0
  4 11  1  0  0  0
  5 12  1  0  0  0
  5 13  1  0  0  0
  6 14  1  0  0  0
  6 15  1  0  0  0
M  END
$$$$
