4yzc_ligand
  -I-interpret- 

 65 72  0  0  0  0  0  0  0  0999 V2000
  -20.0840   35.7080  -53.7190 O   0  0  0  0  0
  -21.1110   34.6560  -53.5710 C   0  0  0  0  0
  -21.3570   34.3920  -52.0680 C   0  0  0  0  0
  -20.4600   35.2690  -51.2390 C   0  0  0  0  0
  -19.0480   35.1280  -51.6700 C   0  0  0  0  0
  -18.8770   35.7480  -53.0240 C   0  0  0  0  0
  -18.5400   37.1870  -52.8960 C   0  0  0  0  0
  -17.8440   35.0410  -53.7670 N   0  0  0  0  0
  -18.1370   33.8880  -54.5310 C   0  0  0  0  0
  -19.3030   33.2340  -54.7310 C   0  0  0  0  0
  -19.3970   32.0670  -55.5440 C   0  0  0  0  0
  -18.2090   31.6060  -56.1510 C   0  0  0  0  0
  -17.0400   32.2680  -55.9470 C   0  0  0  0  0
  -16.9770   33.4160  -55.1370 C   0  0  0  0  0
  -15.9080   34.2830  -54.7620 C   0  0  0  0  0
  -16.4300   35.2780  -53.9240 C   0  0  0  0  0
  -15.5970   36.2630  -53.4120 C   0  0  0  0  0
  -14.2280   36.2680  -53.7270 C   0  0  0  0  0
  -13.6970   35.2710  -54.5670 C   0  0  0  0  0
  -14.5500   34.2800  -55.0830 C   0  0  0  0  0
  -15.8720   31.5890  -56.7100 C   0  0  0  0  0
  -16.5590   30.4170  -57.3000 N   0  3  0  0  0
  -17.9540   30.5300  -56.9890 C   0  0  0  0  0
  -18.8780   29.6180  -57.5260 O   0  0  0  0  0
  -20.7610   31.6280  -55.5410 C   0  0  0  0  0
  -21.5060   32.4880  -54.7530 C   0  0  0  0  0
  -22.8610   32.3370  -54.5410 C   0  0  0  0  0
  -23.5440   31.2830  -55.1410 C   0  0  0  0  0
  -22.8350   30.3860  -55.9540 C   0  0  0  0  0
  -21.4440   30.5570  -56.1540 C   0  0  0  0  0
  -20.6630   33.5280  -54.1820 N   0  0  0  0  0
  -18.7030   33.7370  -51.7040 O   0  0  0  0  0
  -17.3810   33.4220  -51.2370 C   0  0  0  0  0
  -20.5630   34.8870  -49.8390 N   0  3  0  0  0
  -20.2220   36.0080  -48.9880 C   0  0  0  0  0
  -22.0492   34.9692  -54.0290 H   0  0  0  0  0
  -21.1407   33.3467  -51.8471 H   0  0  0  0  0
  -22.3970   34.6153  -51.8299 H   0  0  0  0  0
  -20.7734   36.3045  -51.3715 H   0  0  0  0  0
  -18.3886   35.6376  -50.9675 H   0  0  0  0  0
  -17.5921   37.2913  -52.3682 H   0  0  0  0  0
  -18.4550   37.6286  -53.8889 H   0  0  0  0  0
  -19.3262   37.6947  -52.3372 H   0  0  0  0  0
  -16.0070   37.0363  -52.7624 H   0  0  0  0  0
  -13.5776   37.0430  -53.3214 H   0  0  0  0  0
  -12.6355   35.2675  -54.8147 H   0  0  0  0  0
  -14.1488   33.5057  -55.7369 H   0  0  0  0  0
  -15.0246   31.3288  -56.0757 H   0  0  0  0  0
  -15.3932   32.2347  -57.4461 H   0  0  0  0  0
  -16.1782   29.5516  -56.9173 H   0  0  0  0  0
  -16.4205   30.3949  -58.3103 H   0  0  0  0  0
  -18.9784   30.1595  -57.0267 H   0  0  0  0  0
  -18.4145   28.9784  -58.0716 H   0  0  0  0  0
  -23.3958   33.0421  -53.9046 H   0  0  0  0  0
  -24.6148   31.1563  -54.9814 H   0  0  0  0  0
  -23.3558   29.5564  -56.4322 H   0  0  0  0  0
  -20.8975   29.8567  -56.7856 H   0  0  0  0  0
  -16.6462   33.9394  -51.8539 H   0  0  0  0  0
  -17.2773   33.7425  -50.2004 H   0  0  0  0  0
  -17.2202   32.3460  -51.3038 H   0  0  0  0  0
  -19.9175   34.1192  -49.6542 H   0  0  0  0  0
  -21.5209   34.5974  -49.6417 H   0  0  0  0  0
  -19.2002   36.3242  -49.1978 H   0  0  0  0  0
  -20.9066   36.8331  -49.1845 H   0  0  0  0  0
  -20.3035   35.7075  -47.9434 H   0  0  0  0  0
  1  2  1  0  0  0
  1  6  1  0  0  0
  2  3  1  0  0  0
  2 31  1  0  0  0
  3  4  1  0  0  0
  4  5  1  0  0  0
  4 34  1  0  0  0
  5  6  1  0  0  0
  5 32  1  0  0  0
  6  7  1  0  0  0
  6  8  1  0  0  0
  8  9  4  0  0  0
  8 16  4  0  0  0
  9 10  4  0  0  0
  9 14  4  0  0  0
 10 11  4  0  0  0
 10 31  4  0  0  0
 11 12  4  0  0  0
 11 25  4  0  0  0
 12 13  4  0  0  0
 12 23  1  0  0  0
 13 14  4  0  0  0
 13 21  1  0  0  0
 14 15  4  0  0  0
 15 16  4  0  0  0
 15 20  4  0  0  0
 16 17  4  0  0  0
 17 18  4  0  0  0
 18 19  4  0  0  0
 19 20  4  0  0  0
 21 22  1  0  0  0
 22 23  1  0  0  0
 23 24  1  0  0  0
 25 26  4  0  0  0
 25 30  4  0  0  0
 26 27  4  0  0  0
 26 31  4  0  0  0
 27 28  4  0  0  0
 28 29  4  0  0  0
 29 30  4  0  0  0
 32 33  1  0  0  0
 34 35  1  0  0  0
  2 36  1  0  0  0
  3 37  1  0  0  0
  3 38  1  0  0  0
  4 39  1  0  0  0
  5 40  1  0  0  0
  7 41  1  0  0  0
  7 42  1  0  0  0
  7 43  1  0  0  0
 17 44  1  0  0  0
 18 45  1  0  0  0
 19 46  1  0  0  0
 20 47  1  0  0  0
 21 48  1  0  0  0
 21 49  1  0  0  0
 22 50  1  0  0  0
 22 51  1  0  0  0
 23 52  1  0  0  0
 24 53  1  0  0  0
 27 54  1  0  0  0
 28 55  1  0  0  0
 29 56  1  0  0  0
 30 57  1  0  0  0
 33 58  1  0  0  0
 33 59  1  0  0  0
 33 60  1  0  0  0
 34 61  1  0  0  0
 34 62  1  0  0  0
 35 63  1  0  0  0
 35 64  1  0  0  0
 35 65  1  0  0  0
M  END
$$$$
