6ibk_ligand
  -I-interpret- 

 29 30  0  0  0  0  0  0  0  0999 V2000
  -28.4620   15.6160   -6.5790 O   0  0  0  0  0
  -27.9500   15.1750   -5.3430 S   0  0  0  0  0
  -27.6840   13.7990   -5.1690 O   0  0  0  0  0
  -28.8340   15.7720   -4.1060 N   0  0  0  0  0
  -27.9400   16.4210   -3.1460 C   0  0  0  0  0
  -26.7850   16.9540   -4.0230 C   0  0  0  0  0
  -26.6040   15.9420   -5.0210 O   0  0  0  0  0
  -27.0110   18.2810   -4.7300 C   0  0  0  0  0
  -25.6690   18.9100   -5.0800 C   0  0  0  0  0
  -24.7770   17.9540   -5.6430 O   0  0  0  0  0
  -27.9260   19.2790   -4.0120 C   0  0  0  0  0
  -27.2230   19.9600   -2.9740 O   0  0  0  0  0
  -29.1340   18.6080   -3.3940 C   0  0  0  0  0
  -29.9060   19.5860   -2.6960 O   0  0  0  0  0
  -28.6700   17.5350   -2.4110 C   0  0  0  0  0
  -29.7700   16.9710   -1.6980 O   0  0  0  0  0
  -29.8478   15.7034   -4.0168 H   0  0  0  0  0
  -27.5780   15.7524   -2.3650 H   0  0  0  0  0
  -25.9362   17.1508   -3.3682 H   0  0  0  0  0
  -27.5673   18.0349   -5.6344 H   0  0  0  0  0
  -25.2228   19.3032   -4.1666 H   0  0  0  0  0
  -25.8377   19.6990   -5.8129 H   0  0  0  0  0
  -23.9428   18.3806   -5.8520 H   0  0  0  0  0
  -28.2591   19.9837   -4.7740 H   0  0  0  0  0
  -27.8155   20.5781   -2.5400 H   0  0  0  0  0
  -29.7396   18.1488   -4.1753 H   0  0  0  0  0
  -30.6735   19.1648   -2.3022 H   0  0  0  0  0
  -27.9969   18.0160   -1.7013 H   0  0  0  0  0
  -29.4467   16.3020   -1.0901 H   0  0  0  0  0
  1  2  2  0  0  0
  2  3  2  0  0  0
  2  4  1  0  0  0
  2  7  1  0  0  0
  4  5  1  0  0  0
  5  6  1  0  0  0
  5 15  1  0  0  0
  6  7  1  0  0  0
  6  8  1  0  0  0
  8  9  1  0  0  0
  8 11  1  0  0  0
  9 10  1  0  0  0
 11 12  1  0  0  0
 11 13  1  0  0  0
 13 14  1  0  0  0
 13 15  1  0  0  0
 15 16  1  0  0  0
  4 17  1  0  0  0
  5 18  1  0  0  0
  6 19  1  0  0  0
  8 20  1  0  0  0
  9 21  1  0  0  0
  9 22  1  0  0  0
 10 23  1  0  0  0
 11 24  1  0  0  0
 12 25  1  0  0  0
 13 26  1  0  0  0
 14 27  1  0  0  0
 15 28  1  0  0  0
 16 29  1  0  0  0
M  END
$$$$
