2vd0_ligand
  -I-interpret- 

 41 42  0  0  0  0  0  0  0  0999 V2000
  127.6440   17.1120   -4.1000 C   0  0  0  0  0
  128.4440   15.9430   -4.1890 C   0  0  0  0  0
  126.7620   17.3720   -2.9450 C   0  0  0  0  0
  128.5030   15.0220   -3.1240 N   0  0  0  0  0
  129.1950   13.8360   -3.1030 C   0  0  0  0  0
  129.2280   13.0100   -1.8970 C   0  0  0  0  0
  128.3330   12.8030    2.8950 C   0  0  0  0  0
  128.5960   13.4150   -0.7750 C   0  0  0  0  0
  128.5360   11.4150    3.0060 C   0  0  0  0  0
  128.3710   13.4130    1.6550 C   0  0  0  0  0
  126.6760   16.5770   -2.0340 O   0  0  0  0  0
  129.8130   13.4120   -4.0640 O   0  0  0  0  0
  128.5980   12.6640    0.4930 C   0  0  0  0  0
  128.7790   10.6580    1.8410 C   0  0  0  0  0
  126.0130   18.4920   -2.9050 O   0  0  0  0  0
  128.8080   11.2670    0.5900 C   0  0  0  0  0
  128.1150   13.5690    4.0050 O   0  0  0  0  0
  127.6500   18.0400   -5.1450 C   0  0  0  0  0
  128.5230   10.8450    4.2600 O   0  0  0  0  0
  129.2380   15.7860   -5.3330 C   0  0  0  0  0
  126.7770   14.0940    3.9840 C   0  0  0  0  0
  127.5950    9.7480    4.3480 C   0  0  0  0  0
  128.4370   17.8440   -6.2680 C   0  0  0  0  0
  129.2330   16.7130   -6.3680 C   0  0  0  0  0
  127.9780   15.2607   -2.2827 H   0  0  0  0  0
  129.7659   12.0620   -1.9039 H   0  0  0  0  0
  128.0494   14.3574   -0.8091 H   0  0  0  0  0
  128.2225   14.4903    1.5804 H   0  0  0  0  0
  128.9460    9.5839    1.9214 H   0  0  0  0  0
  126.1869   19.0200   -3.6877 H   0  0  0  0  0
  128.9906   10.6744   -0.3064 H   0  0  0  0  0
  127.0262   18.9311   -5.0753 H   0  0  0  0  0
  129.8799   14.9088   -5.4134 H   0  0  0  0  0
  126.6423   14.7064    3.0924 H   0  0  0  0  0
  126.0646   13.2691    3.9708 H   0  0  0  0  0
  126.6131   14.7031    4.8729 H   0  0  0  0  0
  126.5894   10.1059    4.1272 H   0  0  0  0  0
  127.8745    8.9787    3.6282 H   0  0  0  0  0
  127.6209    9.3317    5.3550 H   0  0  0  0  0
  128.4305   18.5788   -7.0730 H   0  0  0  0  0
  129.8502   16.5524   -7.2520 H   0  0  0  0  0
  2  1  4  0  0  0
  1  3  1  0  0  0
  1 18  4  0  0  0
  4  2  1  0  0  0
  2 20  4  0  0  0
  3 11  2  0  0  0
  3 15  1  0  0  0
  5  4  1  0  0  0
  6  5  1  0  0  0
  5 12  2  0  0  0
  8  6  2  0  0  0
  7  9  4  0  0  0
 10  7  4  0  0  0
  7 17  1  0  0  0
 13  8  1  0  0  0
  9 14  4  0  0  0
  9 19  1  0  0  0
 10 13  4  0  0  0
 13 16  4  0  0  0
 14 16  4  0  0  0
 17 21  1  0  0  0
 18 23  4  0  0  0
 19 22  1  0  0  0
 20 24  4  0  0  0
 23 24  4  0  0  0
  4 25  1  0  0  0
  6 26  1  0  0  0
  8 27  1  0  0  0
 10 28  1  0  0  0
 14 29  1  0  0  0
 15 30  1  0  0  0
 16 31  1  0  0  0
 18 32  1  0  0  0
 20 33  1  0  0  0
 21 34  1  0  0  0
 21 35  1  0  0  0
 21 36  1  0  0  0
 22 37  1  0  0  0
 22 38  1  0  0  0
 22 39  1  0  0  0
 23 40  1  0  0  0
 24 41  1  0  0  0
M  END
$$$$
