6b98_ligand
  -I-interpret- 

 21 22  0  0  0  0  0  0  0  0999 V2000
   31.5180   -6.3170    8.8160 C   0  0  0  0  0
   30.4750   -4.6360   11.7680 C   0  0  0  0  0
   31.8990   -4.9380   14.6970 N   0  0  0  0  0
   32.2410   -5.5210   13.5360 C   0  0  0  0  0
   35.0110   -8.0830   12.5200 Cl  0  0  0  0  0
   33.6690   -6.9810   12.4850 C   0  0  0  0  0
   33.1090   -6.8930   11.2670 N   0  0  0  0  0
   32.0610   -6.0460   11.2460 C   0  0  0  0  0
   33.3200   -6.3490   13.6360 N   0  0  0  0  0
   30.8060   -3.9770   14.8940 C   0  0  0  0  0
   31.5400   -5.3320   12.3280 C   0  0  0  0  0
   30.3540   -4.9170   10.4560 N   0  0  0  0  0
   31.3230   -5.7730   10.1500 N   0  0  0  0  0
   32.5111   -6.0474    8.4567 H   0  0  0  0  0
   31.4250   -7.4025    8.8505 H   0  0  0  0  0
   30.7636   -5.9076    8.1442 H   0  0  0  0  0
   29.8251   -3.9544   12.3167 H   0  0  0  0  0
   32.4501   -5.1860   15.5187 H   0  0  0  0  0
   30.9785   -3.0997   14.2706 H   0  0  0  0  0
   29.8604   -4.4420   14.6153 H   0  0  0  0  0
   30.7707   -3.6786   15.9418 H   0  0  0  0  0
 13  1  1  0  0  0
 11  2  4  0  0  0
  2 12  4  0  0  0
  4  3  1  0  0  0
  3 10  1  0  0  0
  4  9  4  0  0  0
 11  4  4  0  0  0
  6  5  1  0  0  0
  7  6  4  0  0  0
  6  9  4  0  0  0
  8  7  4  0  0  0
  8 11  4  0  0  0
  8 13  4  0  0  0
 12 13  4  0  0  0
  1 14  1  0  0  0
  1 15  1  0  0  0
  1 16  1  0  0  0
  2 17  1  0  0  0
  3 18  1  0  0  0
 10 19  1  0  0  0
 10 20  1  0  0  0
 10 21  1  0  0  0
M  END
$$$$
