4bek_ligand
  -I-interpret- 

 32 33  0  0  0  0  0  0  0  0999 V2000
  -15.0030   40.8780   89.1020 N   0  0  0  0  0
  -15.5800   40.8470   90.3180 C   0  0  0  0  0
  -15.9300   39.7050   90.7490 N   0  0  0  0  0
  -15.8200   42.2990   91.1650 S   0  0  0  0  0
  -16.7780   41.8750   92.5850 C   0  0  0  0  0
  -16.4580   40.4490   93.0220 C   0  0  0  0  0
  -16.8060   39.4870   91.8940 C   0  0  0  0  0
  -16.6520   38.0420   92.3580 C   0  0  0  0  0
  -18.2420   39.7020   91.5100 C   0  0  0  0  0
  -19.2490   39.4070   92.4340 C   0  0  0  0  0
  -20.5840   39.5960   92.0680 C   0  0  0  0  0
  -20.9190   40.0780   90.8010 C   0  0  0  0  0
  -22.2480   40.2490   90.4940 O   0  0  0  0  0
  -22.7040   41.0580   89.3760 C   0  0  0  0  0
  -19.9130   40.3750   89.8790 C   0  0  0  0  0
  -18.5790   40.1820   90.2400 C   0  0  0  0  0
  -14.7142   41.7685   88.6971 H   0  0  0  0  0
  -15.5738   38.8835   90.2605 H   0  0  0  0  0
  -17.8372   41.9455   92.3376 H   0  0  0  0  0
  -16.5392   42.5615   93.3972 H   0  0  0  0  0
  -17.0418   40.1991   93.9079 H   0  0  0  0  0
  -15.3964   40.3685   93.2558 H   0  0  0  0  0
  -17.3015   37.8659   93.2155 H   0  0  0  0  0
  -16.9295   37.3696   91.5462 H   0  0  0  0  0
  -15.6154   37.8617   92.6427 H   0  0  0  0  0
  -18.9959   39.0345   93.4266 H   0  0  0  0  0
  -21.3749   39.3640   92.7813 H   0  0  0  0  0
  -22.3602   42.0840   89.5075 H   0  0  0  0  0
  -22.2994   40.6540   88.4480 H   0  0  0  0  0
  -23.7932   41.0406   89.3370 H   0  0  0  0  0
  -20.1669   40.7532   88.8888 H   0  0  0  0  0
  -17.7895   40.4081   89.5233 H   0  0  0  0  0
  1  2  2  0  0  0
  2  3  1  0  0  0
  2  4  1  0  0  0
  3  7  1  0  0  0
  4  5  1  0  0  0
  5  6  1  0  0  0
  6  7  1  0  0  0
  7  8  1  0  0  0
  7  9  1  0  0  0
  9 10  4  0  0  0
  9 16  4  0  0  0
 10 11  4  0  0  0
 11 12  4  0  0  0
 12 13  1  0  0  0
 12 15  4  0  0  0
 13 14  1  0  0  0
 15 16  4  0  0  0
  1 17  1  0  0  0
  3 18  1  0  0  0
  5 19  1  0  0  0
  5 20  1  0  0  0
  6 21  1  0  0  0
  6 22  1  0  0  0
  8 23  1  0  0  0
  8 24  1  0  0  0
  8 25  1  0  0  0
 10 26  1  0  0  0
 11 27  1  0  0  0
 14 28  1  0  0  0
 14 29  1  0  0  0
 14 30  1  0  0  0
 15 31  1  0  0  0
 16 32  1  0  0  0
M  END
$$$$
