### 
### Created by X-TOOL on Mon Sep 10 21:12:59 2018
### 

@<TRIPOS>MOLECULE
2k4i_ligand
   67    67     1     0     0
SMALL
GAST_HUCK


@<TRIPOS>ATOM
      1 P1          9.3890  -12.6880    3.3390 P.3       1 PBU         0.2557
      2 P4          4.1790  -15.4640   -2.3540 P.3       1 PBU         0.2013
      3 P5          7.9910  -14.3370   -3.7880 P.3       1 PBU         0.2013
      4 C3'         9.6810  -10.2290    2.9270 C.3       1 PBU         0.1167
      5 C2'        10.2150  -10.0500    1.4840 C.3       1 PBU         0.1433
      6 O2'         9.2050  -10.4560    0.5750 O.3       1 PBU        -0.2681
      7 C1'        11.4900  -10.8920    1.2300 C.3       1 PBU         0.1098
      8 O1'        12.4290  -10.6350    2.2530 O.3       1 PBU        -0.2738
      9 C1          7.6820  -13.3730    1.0530 C.3       1 PBU         0.1512
     10 O1          8.9040  -12.7480    1.7410 O.3       1 PBU        -0.2454
     11 C2          6.9420  -14.4810    1.8770 C.3       1 PBU         0.1175
     12 O2          7.7990  -15.5470    2.2760 O.3       1 PBU        -0.3861
     13 C3          5.7610  -15.0620    1.0670 C.3       1 PBU         0.1172
     14 O3          5.1320  -16.0700    1.8710 O.3       1 PBU        -0.3861
     15 C4          6.2430  -15.6310   -0.3230 C.3       1 PBU         0.1503
     16 O4          5.0450  -16.1440   -1.1020 O.3       1 PBU        -0.2672
     17 C5          6.9760  -14.4770   -1.1160 C.3       1 PBU         0.1507
     18 O5          7.4760  -15.0230   -2.3800 O.3       1 PBU        -0.2672
     19 C6          8.1610  -13.8710   -0.3230 C.3       1 PBU         0.1222
     20 O6          8.7490  -12.7480   -0.9960 O.3       1 PBU        -0.3857
     21 C7          8.1010   -9.5870    0.3950 C.2       1 PBU         0.2341
     22 O7          6.9980   -9.9100    0.7770 O.2       1 PBU        -0.3704
     23 C8          8.3090   -8.2180   -0.2740 C.3       1 PBU         0.0485
     24 C9          7.0790   -7.8480   -1.1230 C.3       1 PBU        -0.0376
     25 C10         6.7710   -8.9930   -2.1050 C.3       1 PBU        -0.0631
     26 C11        13.7950  -10.4220    1.9770 C.2       1 PBU         0.2338
     27 O11        14.2170   -9.6340    1.1520 O.2       1 PBU        -0.3704
     28 C12        14.7830  -11.3220    2.7700 C.3       1 PBU         0.0485
     29 C13        16.2450  -11.1680    2.3200 C.3       1 PBU        -0.0376
     30 C14        17.0280  -10.2540    3.2790 C.3       1 PBU        -0.0631
     31 O41         3.0570  -16.4950   -2.4450 O.co2     1 PBU        -0.5537
     32 O42         3.7470  -14.1110   -1.8570 O.co2     1 PBU        -0.5537
     33 O43         5.0610  -15.3430   -3.5860 O.co2     1 PBU        -0.5537
     34 O51         8.0600  -15.5610   -4.6780 O.co2     1 PBU        -0.5537
     35 O52         6.9140  -13.3070   -4.0910 O.co2     1 PBU        -0.5537
     36 O53         9.3380  -13.7590   -3.4190 O.co2     1 PBU        -0.5537
     37 OP1        10.1660  -11.4180    3.5160 O.3       1 PBU        -0.2511
     38 OP2         8.0650  -12.7140    4.1070 O.co2     1 PBU        -0.6177
     39 OP3        10.2940  -13.8830    3.4870 O.co2     1 PBU        -0.6177
     40 H1          8.5820  -10.2667    2.8991 H         1 PBU         0.0651
     41 H2         10.0031   -9.3715    3.5361 H         1 PBU         0.0651
     42 H3         10.4518   -8.9884    1.3202 H         1 PBU         0.0704
     43 H4         11.9231  -10.6190    0.2564 H         1 PBU         0.0644
     44 H5         11.2306  -11.9610    1.2291 H         1 PBU         0.0644
     45 H6          6.9487  -12.5699    0.8877 H         1 PBU         0.0711
     46 H7          6.5419  -14.0090    2.7864 H         1 PBU         0.0651
     47 H8          8.4988  -15.2031    2.8188 H         1 PBU         0.2100
     48 H9          5.0338  -14.2598    0.8730 H         1 PBU         0.0650
     49 H10         5.7620  -16.7521    2.0718 H         1 PBU         0.2100
     50 H11         6.9464  -16.4603   -0.1569 H         1 PBU         0.0706
     51 H12         6.2498  -13.6779   -1.3258 H         1 PBU         0.0706
     52 H13         8.9252  -14.6504   -0.1869 H         1 PBU         0.0654
     53 H14         9.0729  -13.0234   -1.8455 H         1 PBU         0.2100
     54 H15         9.1974   -8.2612   -0.9212 H         1 PBU         0.0518
     55 H16         8.4578   -7.4531    0.5024 H         1 PBU         0.0518
     56 H17         7.2864   -6.9268   -1.6872 H         1 PBU         0.0288
     57 H18         6.2132   -7.6873   -0.4638 H         1 PBU         0.0288
     58 H19         5.8923   -8.7292   -2.7118 H         1 PBU         0.0231
     59 H20         6.5637   -9.9142   -1.5408 H         1 PBU         0.0231
     60 H21         7.6369   -9.1537   -2.7641 H         1 PBU         0.0231
     61 H22        14.4849  -12.3719    2.6331 H         1 PBU         0.0518
     62 H23        14.7166  -11.0579    3.8357 H         1 PBU         0.0518
     63 H24        16.2659  -10.7312    1.3107 H         1 PBU         0.0288
     64 H25        16.7209  -12.1595    2.3004 H         1 PBU         0.0288
     65 H26        18.0678  -10.1632    2.9318 H         1 PBU         0.0231
     66 H27        17.0155  -10.6869    4.2902 H         1 PBU         0.0231
     67 H28        16.5604   -9.2586    3.3004 H         1 PBU         0.0231
@<TRIPOS>BOND
     1   10    1 1  
     2    1   37 1  
     3    1   38 ar 
     4    1   39 ar 
     5   16    2 1  
     6    2   31 ar 
     7    2   32 ar 
     8    2   33 ar 
     9   18    3 1  
    10    3   34 ar 
    11    3   35 ar 
    12    3   36 ar 
    13    4    5 1  
    14   37    4 1  
    15    5    6 1  
    16    5    7 1  
    17    6   21 1  
    18    7    8 1  
    19    8   26 1  
    20    9   10 1  
    21   11    9 1  
    22    9   19 1  
    23   11   12 1  
    24   13   11 1  
    25   13   14 1  
    26   15   13 1  
    27   15   16 1  
    28   17   15 1  
    29   17   18 1  
    30   17   19 1  
    31   19   20 1  
    32   21   22 2  
    33   21   23 1  
    34   23   24 1  
    35   24   25 1  
    36   26   27 2  
    37   26   28 1  
    38   28   29 1  
    39   29   30 1  
    40    4   40 1  
    41    4   41 1  
    42    5   42 1  
    43    7   43 1  
    44    7   44 1  
    45    9   45 1  
    46   11   46 1  
    47   12   47 1  
    48   13   48 1  
    49   14   49 1  
    50   15   50 1  
    51   17   51 1  
    52   19   52 1  
    53   20   53 1  
    54   23   54 1  
    55   23   55 1  
    56   24   56 1  
    57   24   57 1  
    58   25   58 1  
    59   25   59 1  
    60   25   60 1  
    61   28   61 1  
    62   28   62 1  
    63   29   63 1  
    64   29   64 1  
    65   30   65 1  
    66   30   66 1  
    67   30   67 1  
@<TRIPOS>SUBSTRUCTURE
     1 PBU         1

