2k4i_ligand
  -I-interpret- 

 72 72  0  0  0  0  0  0  0  0999 V2000
    9.3890  -12.6880    3.3390 P   0  0  0  0  0
    4.1790  -15.4640   -2.3540 P   0  0  0  0  0
    7.9910  -14.3370   -3.7880 P   0  0  0  0  0
    9.6810  -10.2290    2.9270 C   0  0  0  0  0
   10.2150  -10.0500    1.4840 C   0  0  0  0  0
    9.2050  -10.4560    0.5750 O   0  0  0  0  0
   11.4900  -10.8920    1.2300 C   0  0  0  0  0
   12.4290  -10.6350    2.2530 O   0  0  0  0  0
    7.6820  -13.3730    1.0530 C   0  0  0  0  0
    8.9040  -12.7480    1.7410 O   0  0  0  0  0
    6.9420  -14.4810    1.8770 C   0  0  0  0  0
    7.7990  -15.5470    2.2760 O   0  0  0  0  0
    5.7610  -15.0620    1.0670 C   0  0  0  0  0
    5.1320  -16.0700    1.8710 O   0  0  0  0  0
    6.2430  -15.6310   -0.3230 C   0  0  0  0  0
    5.0450  -16.1440   -1.1020 O   0  0  0  0  0
    6.9760  -14.4770   -1.1160 C   0  0  0  0  0
    7.4760  -15.0230   -2.3800 O   0  0  0  0  0
    8.1610  -13.8710   -0.3230 C   0  0  0  0  0
    8.7490  -12.7480   -0.9960 O   0  0  0  0  0
    8.1010   -9.5870    0.3950 C   0  0  0  0  0
    6.9980   -9.9100    0.7770 O   0  0  0  0  0
    8.3090   -8.2180   -0.2740 C   0  0  0  0  0
    7.0790   -7.8480   -1.1230 C   0  0  0  0  0
    6.7710   -8.9930   -2.1050 C   0  0  0  0  0
   13.7950  -10.4220    1.9770 C   0  0  0  0  0
   14.2170   -9.6340    1.1520 O   0  0  0  0  0
   14.7830  -11.3220    2.7700 C   0  0  0  0  0
   16.2450  -11.1680    2.3200 C   0  0  0  0  0
   17.0280  -10.2540    3.2790 C   0  0  0  0  0
    3.0570  -16.4950   -2.4450 O   0  0  0  0  0
    3.7470  -14.1110   -1.8570 O   0  0  0  0  0
    5.0610  -15.3430   -3.5860 O   0  0  0  0  0
    8.0600  -15.5610   -4.6780 O   0  0  0  0  0
    6.9140  -13.3070   -4.0910 O   0  0  0  0  0
    9.3380  -13.7590   -3.4190 O   0  0  0  0  0
   10.1660  -11.4180    3.5160 O   0  0  0  0  0
    8.0650  -12.7140    4.1070 O   0  0  0  0  0
   10.2940  -13.8830    3.4870 O   0  0  0  0  0
    8.5930  -10.2824    2.8879 H   0  0  0  0  0
   10.0190   -9.3841    3.5271 H   0  0  0  0  0
   10.4744   -9.0007    1.3435 H   0  0  0  0  0
   11.9188  -10.6235    0.2646 H   0  0  0  0  0
   11.2336  -11.9514    1.2271 H   0  0  0  0  0
    6.9077  -12.6121    0.9549 H   0  0  0  0  0
    6.5786  -13.9918    2.7807 H   0  0  0  0  0
    7.2935  -16.1929    2.7749 H   0  0  0  0  0
    5.0406  -14.2776    0.8350 H   0  0  0  0  0
    4.3929  -16.4475    1.3885 H   0  0  0  0  0
    6.9366  -16.4589   -0.1761 H   0  0  0  0  0
    6.2545  -13.6777   -1.2853 H   0  0  0  0  0
    8.9013  -14.6652   -0.2262 H   0  0  0  0  0
    9.0604  -13.0223   -1.8617 H   0  0  0  0  0
    9.1862   -8.2660   -0.9192 H   0  0  0  0  0
    8.4500   -7.4616    0.4981 H   0  0  0  0  0
    7.2843   -6.9350   -1.6819 H   0  0  0  0  0
    6.2210   -7.6884   -0.4699 H   0  0  0  0  0
    7.6297   -9.1512   -2.7574 H   0  0  0  0  0
    6.5658   -9.9052   -1.5447 H   0  0  0  0  0
    5.9002   -8.7304   -2.7057 H   0  0  0  0  0
   14.4937  -12.3587    2.5977 H   0  0  0  0  0
   14.7288  -11.0258    3.8176 H   0  0  0  0  0
   16.2582  -10.7222    1.3254 H   0  0  0  0  0
   16.7138  -12.1520    2.3163 H   0  0  0  0  0
   16.5637   -9.2680    3.2994 H   0  0  0  0  0
   17.0148  -10.6840    4.2805 H   0  0  0  0  0
   18.0581  -10.1649    2.9340 H   0  0  0  0  0
    3.4129  -17.3259   -2.7682 H   0  0  0  0  0
    5.3205  -16.2194   -3.8797 H   0  0  0  0  0
    7.1704  -15.8680   -4.8675 H   0  0  0  0  0
    6.0961  -13.7572   -4.3145 H   0  0  0  0  0
    7.5798  -11.9040    3.9336 H   0  0  0  0  0
 10  1  1  0  0  0
  1 37  1  0  0  0
  1 38  1  0  0  0
  1 39  2  0  0  0
 16  2  1  0  0  0
  2 31  1  0  0  0
  2 32  2  0  0  0
  2 33  1  0  0  0
 18  3  1  0  0  0
  3 34  1  0  0  0
  3 35  1  0  0  0
  3 36  2  0  0  0
  4  5  1  0  0  0
 37  4  1  0  0  0
  5  6  1  0  0  0
  5  7  1  0  0  0
  6 21  1  0  0  0
  7  8  1  0  0  0
  8 26  1  0  0  0
  9 10  1  0  0  0
 11  9  1  0  0  0
  9 19  1  0  0  0
 11 12  1  0  0  0
 13 11  1  0  0  0
 13 14  1  0  0  0
 15 13  1  0  0  0
 15 16  1  0  0  0
 17 15  1  0  0  0
 17 18  1  0  0  0
 17 19  1  0  0  0
 19 20  1  0  0  0
 21 22  2  0  0  0
 21 23  1  0  0  0
 23 24  1  0  0  0
 24 25  1  0  0  0
 26 27  2  0  0  0
 26 28  1  0  0  0
 28 29  1  0  0  0
 29 30  1  0  0  0
  4 40  1  0  0  0
  4 41  1  0  0  0
  5 42  1  0  0  0
  7 43  1  0  0  0
  7 44  1  0  0  0
  9 45  1  0  0  0
 11 46  1  0  0  0
 12 47  1  0  0  0
 13 48  1  0  0  0
 14 49  1  0  0  0
 15 50  1  0  0  0
 17 51  1  0  0  0
 19 52  1  0  0  0
 20 53  1  0  0  0
 23 54  1  0  0  0
 23 55  1  0  0  0
 24 56  1  0  0  0
 24 57  1  0  0  0
 25 58  1  0  0  0
 25 59  1  0  0  0
 25 60  1  0  0  0
 28 61  1  0  0  0
 28 62  1  0  0  0
 29 63  1  0  0  0
 29 64  1  0  0  0
 30 65  1  0  0  0
 30 66  1  0  0  0
 30 67  1  0  0  0
 31 68  1  0  0  0
 33 69  1  0  0  0
 34 70  1  0  0  0
 35 71  1  0  0  0
 38 72  1  0  0  0
M  END
$$$$
