1det_ligand
  -I-interpret- 

 38 40  0  0  0  0  0  0  0  0999 V2000
   22.7350  -47.6960   -0.0090 P   0  0  0  0  0
   23.9020  -47.3570   -0.7320 O   0  0  0  0  0
   21.5810  -47.3360   -0.7480 O   0  0  0  0  0
   22.7660  -49.1440   -0.1880 O   0  0  0  0  0
   19.6270  -47.8520    3.9310 O   0  0  0  0  0
   19.5520  -46.4330    4.1580 C   0  0  0  0  0
   20.8460  -45.7400    3.7100 C   0  0  0  0  0
   21.8990  -46.4050    4.4610 O   0  0  0  0  0
   21.2500  -45.8080    2.2670 C   0  0  0  0  0
   21.5680  -44.5100    1.7080 O   0  0  0  0  0
   22.6520  -46.4380    2.2270 C   0  0  0  0  0
   22.6900  -47.5800    1.4800 O   0  0  0  0  0
   23.0550  -46.5180    3.6710 C   0  0  0  0  0
   23.8290  -47.7260    4.1120 N   0  0  0  0  0
   23.4390  -48.9790    4.5070 C   0  0  0  0  0
   24.4330  -49.7590    4.7810 N   0  0  0  0  0
   25.5670  -48.9470    4.5580 C   0  0  0  0  0
   26.9630  -49.2380    4.6790 C   0  0  0  0  0
   27.4420  -50.3000    5.0250 O   0  0  0  0  0
   27.7440  -48.1120    4.4130 N   0  0  0  0  0
   27.2890  -46.8680    4.0140 C   0  0  0  0  0
   28.2310  -45.9750    3.7670 N   0  0  0  0  0
   25.9910  -46.6070    3.8680 N   0  0  0  0  0
   25.2100  -47.6780    4.1580 C   0  0  0  0  0
   20.7960  -47.5707   -0.2478 H   0  0  0  0  0
   22.0129  -49.5368    0.2595 H   0  0  0  0  0
   18.8089  -48.2645    4.2178 H   0  0  0  0  0
   19.4088  -46.2547    5.2237 H   0  0  0  0  0
   18.7194  -46.0286    3.5824 H   0  0  0  0  0
   20.6786  -44.6766    3.8813 H   0  0  0  0  0
   20.4347  -46.3108    1.7468 H   0  0  0  0  0
   21.8187  -44.6122    0.7870 H   0  0  0  0  0
   23.4005  -45.8542    1.6912 H   0  0  0  0  0
   23.7597  -45.6965    3.8003 H   0  0  0  0  0
   22.3961  -49.2869    4.5825 H   0  0  0  0  0
   28.7525  -48.2171    4.5241 H   0  0  0  0  0
   27.9764  -45.0395    3.4500 H   0  0  0  0  0
   29.2128  -46.2211    3.8933 H   0  0  0  0  0
  1  2  2  0  0  0
  1  3  1  0  0  0
  1  4  1  0  0  0
 12  1  1  0  0  0
  6  5  1  0  0  0
  7  6  1  0  0  0
  7  8  1  0  0  0
  9  7  1  0  0  0
  8 13  1  0  0  0
  9 10  1  0  0  0
 11  9  1  0  0  0
 11 12  1  0  0  0
 11 13  1  0  0  0
 13 14  1  0  0  0
 14 15  4  0  0  0
 14 24  4  0  0  0
 15 16  4  0  0  0
 16 17  4  0  0  0
 17 18  1  0  0  0
 17 24  4  0  0  0
 18 19  2  0  0  0
 18 20  1  0  0  0
 20 21  1  0  0  0
 21 22  1  0  0  0
 21 23  2  0  0  0
 23 24  1  0  0  0
  3 25  1  0  0  0
  4 26  1  0  0  0
  5 27  1  0  0  0
  6 28  1  0  0  0
  6 29  1  0  0  0
  7 30  1  0  0  0
  9 31  1  0  0  0
 10 32  1  0  0  0
 11 33  1  0  0  0
 13 34  1  0  0  0
 15 35  1  0  0  0
 20 36  1  0  0  0
 22 37  1  0  0  0
 22 38  1  0  0  0
M  END
$$$$
