6fc6_ligand
  -I-interpret- 

 48 48  0  0  0  0  0  0  0  0999 V2000
  -16.0520   22.7110   -1.5870 N   0  3  0  0  0
  -17.1940   22.2090   -2.4180 C   0  0  0  0  0
  -17.2770   20.6620   -2.3720 C   0  0  0  0  0
  -16.5820   19.9520   -3.1100 O   0  0  0  0  0
  -17.0920   22.7280   -3.8700 C   0  0  0  0  0
  -18.1120   20.1720   -1.4640 N   0  0  0  0  0
  -18.5090   18.7730   -1.4250 C   0  0  0  0  0
  -19.9720   18.6910   -1.8150 C   0  0  0  0  0
  -20.7330   19.6490   -1.6540 O   0  0  0  0  0
  -18.3230   18.1480   -0.0270 C   0  0  0  0  0
  -19.0600   18.8840    0.9660 O   0  0  0  0  0
  -16.8650   18.0810    0.3560 C   0  0  0  0  0
  -20.3750   17.5350   -2.3330 N   0  0  0  0  0
  -21.7910   17.3160   -2.7470 C   0  0  0  0  0
  -22.2230   15.8160   -2.6620 C   0  0  0  0  0
  -21.3390   15.0340   -2.2170 O   0  0  0  0  0
  -22.0260   17.9000   -4.1380 C   0  0  0  0  0
  -21.0940   17.3460   -5.1500 C   0  0  0  0  0
  -19.8430   17.9190   -5.3600 C   0  0  0  0  0
  -21.4470   16.2020   -5.8570 C   0  0  0  0  0
  -18.9820   17.3860   -6.2980 C   0  0  0  0  0
  -20.5930   15.6610   -6.7890 C   0  0  0  0  0
  -19.3490   16.2480   -7.0020 C   0  0  0  0  0
  -23.4030   15.4010   -2.9680 O   0  0  0  0  0
  -16.1431   22.3548   -0.6356 H   0  0  0  0  0
  -15.1723   22.3878   -1.9896 H   0  0  0  0  0
  -16.0663   23.7308   -1.5723 H   0  0  0  0  0
  -18.1187   22.5999   -1.9935 H   0  0  0  0  0
  -16.1963   22.3199   -4.3383 H   0  0  0  0  0
  -17.9723   22.4124   -4.4300 H   0  0  0  0  0
  -17.0357   23.8165   -3.8623 H   0  0  0  0  0
  -18.4929   20.8056   -0.7612 H   0  0  0  0  0
  -17.8754   18.2158   -2.1150 H   0  0  0  0  0
  -18.7120   17.1307   -0.0708 H   0  0  0  0  0
  -18.9296   18.4778    1.8260 H   0  0  0  0  0
  -16.4623   19.0914    0.4262 H   0  0  0  0  0
  -16.7664   17.5814    1.3197 H   0  0  0  0  0
  -16.3168   17.5219   -0.4023 H   0  0  0  0  0
  -19.6996   16.7796   -2.4501 H   0  0  0  0  0
  -22.4277   17.8436   -2.0368 H   0  0  0  0  0
  -21.8628   18.9763   -4.0833 H   0  0  0  0  0
  -23.0419   17.6477   -4.4419 H   0  0  0  0  0
  -19.5420   18.7923   -4.7813 H   0  0  0  0  0
  -22.4111   15.7289   -5.6704 H   0  0  0  0  0
  -18.0172   17.8574   -6.4850 H   0  0  0  0  0
  -20.8881   14.7787   -7.3570 H   0  0  0  0  0
  -18.6600   15.8117   -7.7252 H   0  0  0  0  0
  -23.9280   16.1390   -3.2863 H   0  0  0  0  0
  1  2  1  0  0  0
  2  3  1  0  0  0
  2  5  1  0  0  0
  3  4  2  0  0  0
  3  6  1  0  0  0
  6  7  1  0  0  0
  7  8  1  0  0  0
  7 10  1  0  0  0
  8  9  2  0  0  0
  8 13  1  0  0  0
 10 11  1  0  0  0
 10 12  1  0  0  0
 13 14  1  0  0  0
 14 15  1  0  0  0
 14 17  1  0  0  0
 15 16  2  0  0  0
 15 24  1  0  0  0
 17 18  1  0  0  0
 18 19  4  0  0  0
 18 20  4  0  0  0
 19 21  4  0  0  0
 20 22  4  0  0  0
 21 23  4  0  0  0
 22 23  4  0  0  0
  1 25  1  0  0  0
  1 26  1  0  0  0
  1 27  1  0  0  0
  2 28  1  0  0  0
  5 29  1  0  0  0
  5 30  1  0  0  0
  5 31  1  0  0  0
  6 32  1  0  0  0
  7 33  1  0  0  0
 10 34  1  0  0  0
 11 35  1  0  0  0
 12 36  1  0  0  0
 12 37  1  0  0  0
 12 38  1  0  0  0
 13 39  1  0  0  0
 14 40  1  0  0  0
 17 41  1  0  0  0
 17 42  1  0  0  0
 19 43  1  0  0  0
 20 44  1  0  0  0
 21 45  1  0  0  0
 22 46  1  0  0  0
 23 47  1  0  0  0
 24 48  1  0  0  0
M  END
$$$$
