1py2_ligand
  -I-interpret- 

 82 85  0  0  0  0  0  0  0  0999 V2000
   32.9680    9.6610   -1.9130 O   0  0  0  0  0
   31.8850    9.9750   -1.4400 C   0  0  0  0  0
   30.6210    9.7410   -2.2190 C   0  0  0  0  0
   30.5590   10.6210   -3.4650 C   0  0  0  0  0
   29.8830   11.9670   -3.2190 C   0  0  0  0  0
   28.3680   11.8410   -3.1050 C   0  0  0  0  0
   30.2460   12.9520   -4.3230 C   0  0  0  0  0
   30.5140    8.3500   -2.6090 N   0  0  0  0  0
   29.3820    7.6640   -2.5070 C   0  0  0  0  0
   28.6530    7.7260   -1.3930 N   0  0  0  0  0
   28.9840    6.9080   -3.5280 N   0  0  0  0  0
   31.7320   10.5240   -0.2330 N   0  0  0  0  0
   32.7470   10.4860    0.8080 C   0  0  0  0  0
   32.6950   11.7260    1.6750 C   0  0  0  0  0
   31.6500   12.3560    1.7400 O   0  0  0  0  0
   33.8020   12.0990    2.3360 N   0  0  0  0  0
   33.8440   13.3520    3.0990 C   0  0  0  0  0
   34.1670   12.9970    4.5520 C   0  0  0  0  0
   35.4970   12.2480    4.6220 C   0  0  0  0  0
   35.3770   10.9760    3.7830 C   0  0  0  0  0
   35.0410   11.3140    2.3300 C   0  0  0  0  0
   35.9030   11.9190    6.0400 C   0  0  0  0  0
   35.2610   11.8040    7.1290 C   0  0  0  0  0
   36.0200   11.4880    8.1020 C   0  0  0  0  0
   37.2340   11.2320    7.6190 N   0  0  0  0  0
   37.1570   11.6680    6.3950 N   0  0  0  0  0
   38.3830   11.8280    5.6230 C   0  0  0  0  0
   35.7840   11.3790    9.5850 C   0  0  0  0  0
   36.7530   11.8850   10.4520 C   0  0  0  0  0
   34.6400   10.7810   10.1100 C   0  0  0  0  0
   33.3630   10.1100    9.0430 Cl  0  0  0  0  0
   34.4690   10.6990   11.4850 C   0  0  0  0  0
   32.9910    9.9310   12.1570 Cl  0  0  0  0  0
   35.4320   11.2010   12.3490 C   0  0  0  0  0
   36.5800   11.8010   11.8310 C   0  0  0  0  0
   35.2310   11.1050   13.7040 O   0  0  0  0  0
   36.2900   10.8010   14.6130 C   0  0  0  0  0
   36.3560   11.9000   15.6460 C   0  0  0  0  0
   36.7620   11.7960   16.8380 C   0  0  0  0  0
   35.9500   13.2720   15.4550 O   0  0  0  0  0
   35.8680   13.7580   16.8070 C   0  0  0  0  0
   36.3860   12.7720   17.5610 C   0  0  0  0  0
   35.3220   15.0400   17.2490 C   0  0  0  0  0
   34.6100   15.6920   16.4540 O   0  0  0  0  0
   35.5770   15.4550   18.4020 O   0  0  0  0  0
   29.7870   10.0029   -1.5679 H   0  0  0  0  0
   29.9731   10.0898   -4.2151 H   0  0  0  0  0
   31.5835   10.8191   -3.7802 H   0  0  0  0  0
   30.2511   12.3415   -2.2638 H   0  0  0  0  0
   27.9403   12.8156   -2.8699 H   0  0  0  0  0
   27.9622   11.4834   -4.0513 H   0  0  0  0  0
   28.1221   11.1342   -2.3125 H   0  0  0  0  0
   29.8440   12.5967   -5.2718 H   0  0  0  0  0
   29.8221   13.9289   -4.0904 H   0  0  0  0  0
   31.3307   13.0327   -4.3939 H   0  0  0  0  0
   31.3409    7.8791   -2.9764 H   0  0  0  0  0
   27.7864    7.1930   -1.3203 H   0  0  0  0  0
   28.9617    8.3065   -0.6132 H   0  0  0  0  0
   29.5471    6.8603   -4.3772 H   0  0  0  0  0
   30.8521   10.9977   -0.0288 H   0  0  0  0  0
   33.7273   10.4356    0.3342 H   0  0  0  0  0
   32.5648    9.6152    1.4378 H   0  0  0  0  0
   32.8856   13.8676    3.0372 H   0  0  0  0  0
   34.6035   14.0199    2.6925 H   0  0  0  0  0
   33.3759   12.3622    4.9511 H   0  0  0  0  0
   34.2395   13.9132    5.1380 H   0  0  0  0  0
   36.2812   12.8932    4.2259 H   0  0  0  0  0
   34.5787   10.3578    4.1938 H   0  0  0  0  0
   36.3292   10.4461    3.8096 H   0  0  0  0  0
   35.8509   11.8830    1.8736 H   0  0  0  0  0
   34.9123   10.4025    1.7462 H   0  0  0  0  0
   34.1858   11.9577    7.2208 H   0  0  0  0  0
   38.3321   11.2056    4.7296 H   0  0  0  0  0
   38.4948   12.8729    5.3336 H   0  0  0  0  0
   39.2356   11.5247    6.2306 H   0  0  0  0  0
   37.6520   12.3495   10.0468 H   0  0  0  0  0
   37.3385   12.2024   12.5031 H   0  0  0  0  0
   37.2364   10.7341   14.0764 H   0  0  0  0  0
   36.1041    9.8424   15.0974 H   0  0  0  0  0
   37.3651   10.9652   17.2043 H   0  0  0  0  0
   36.4720   12.8052   18.6471 H   0  0  0  0  0
   36.1344   14.8176   18.8543 H   0  0  0  0  0
  1  2  2  0  0  0
  2  3  1  0  0  0
  2 12  1  0  0  0
  3  4  1  0  0  0
  3  8  1  0  0  0
  4  5  1  0  0  0
  5  6  1  0  0  0
  5  7  1  0  0  0
  8  9  1  0  0  0
  9 10  1  0  0  0
  9 11  2  0  0  0
 12 13  1  0  0  0
 13 14  1  0  0  0
 14 15  2  0  0  0
 14 16  1  0  0  0
 16 17  1  0  0  0
 16 21  1  0  0  0
 17 18  1  0  0  0
 18 19  1  0  0  0
 19 20  1  0  0  0
 19 22  1  0  0  0
 20 21  1  0  0  0
 22 23  4  0  0  0
 22 26  4  0  0  0
 23 24  4  0  0  0
 24 25  4  0  0  0
 24 28  1  0  0  0
 25 26  4  0  0  0
 26 27  1  0  0  0
 28 29  4  0  0  0
 28 30  4  0  0  0
 29 35  4  0  0  0
 30 31  1  0  0  0
 30 32  4  0  0  0
 32 33  1  0  0  0
 32 34  4  0  0  0
 34 35  4  0  0  0
 34 36  1  0  0  0
 36 37  1  0  0  0
 37 38  1  0  0  0
 38 39  4  0  0  0
 38 40  4  0  0  0
 39 42  4  0  0  0
 40 41  4  0  0  0
 41 42  4  0  0  0
 41 43  1  0  0  0
 43 44  2  0  0  0
 43 45  1  0  0  0
  3 46  1  0  0  0
  4 47  1  0  0  0
  4 48  1  0  0  0
  5 49  1  0  0  0
  6 50  1  0  0  0
  6 51  1  0  0  0
  6 52  1  0  0  0
  7 53  1  0  0  0
  7 54  1  0  0  0
  7 55  1  0  0  0
  8 56  1  0  0  0
 10 57  1  0  0  0
 10 58  1  0  0  0
 11 59  1  0  0  0
 12 60  1  0  0  0
 13 61  1  0  0  0
 13 62  1  0  0  0
 17 63  1  0  0  0
 17 64  1  0  0  0
 18 65  1  0  0  0
 18 66  1  0  0  0
 19 67  1  0  0  0
 20 68  1  0  0  0
 20 69  1  0  0  0
 21 70  1  0  0  0
 21 71  1  0  0  0
 23 72  1  0  0  0
 27 73  1  0  0  0
 27 74  1  0  0  0
 27 75  1  0  0  0
 29 76  1  0  0  0
 35 77  1  0  0  0
 37 78  1  0  0  0
 37 79  1  0  0  0
 39 80  1  0  0  0
 42 81  1  0  0  0
 45 82  1  0  0  0
M  END
$$$$
