3s3m_ligand
  -I-interpret- 

 49 52  0  0  0  0  0  0  0  0999 V2000
  -36.2970   25.8820  -19.4050 C   0  0  0  0  0
  -38.0710   34.0460  -22.7880 O   0  0  0  0  0
  -36.4440   29.3970  -17.4480 O   0  0  0  0  0
  -37.0250   34.2060  -18.8970 O   0  0  0  0  0
  -36.5870   31.9920  -17.3810 O   0  0  0  0  0
  -42.5300   39.3240  -20.9210 F   0  0  0  0  0
  -38.4720   37.6160  -19.4090 F   0  0  0  0  0
  -41.1360   38.1950  -22.5070 C   0  0  0  0  0
  -39.9290   37.5220  -22.7650 C   0  0  0  0  0
  -40.5150   38.4550  -20.1720 C   0  0  0  0  0
  -37.4540   31.7980  -21.4200 C   0  0  0  0  0
  -39.3220   26.7420  -20.0760 C   0  0  0  0  0
  -38.6640   26.4310  -18.7080 C   0  0  0  0  0
  -37.7550   36.5760  -22.0470 C   0  0  0  0  0
  -37.2920   29.3670  -21.5130 C   0  0  0  0  0
  -37.4770   35.4600  -21.1520 N   0  0  0  0  0
  -39.0750   28.0700  -20.6060 O   0  0  0  0  0
  -37.6420   34.2370  -21.6590 C   0  0  0  0  0
  -36.7650   29.4270  -18.6460 C   0  0  0  0  0
  -41.4050   38.6520  -21.2100 C   0  0  0  0  0
  -39.3340   37.7890  -20.4310 C   0  0  0  0  0
  -39.0350   37.2990  -21.7210 C   0  0  0  0  0
  -36.8710   31.9030  -18.7040 C   0  0  0  0  0
  -37.3830   33.0190  -20.7920 C   0  0  0  0  0
  -36.9290   30.6470  -19.3340 C   0  0  0  0  0
  -37.0850   33.0910  -19.4330 C   0  0  0  0  0
  -37.1930   26.8990  -18.6710 C   0  0  0  0  0
  -37.6350   28.1810  -20.7140 C   0  0  0  0  0
  -37.1670   28.2170  -19.3090 N   0  0  0  0  0
  -37.2340   30.6170  -20.7180 N   0  0  0  0  0
  -36.3771   24.9106  -18.9171 H   0  0  0  0  0
  -36.6207   25.7968  -20.4423 H   0  0  0  0  0
  -35.2619   26.2220  -19.3728 H   0  0  0  0  0
  -36.5877   32.9147  -17.1161 H   0  0  0  0  0
  -41.8560   38.3598  -23.3086 H   0  0  0  0  0
  -39.6952   37.1781  -23.7726 H   0  0  0  0  0
  -40.7406   38.8179  -19.1693 H   0  0  0  0  0
  -37.6862   31.7545  -22.4841 H   0  0  0  0  0
  -40.3988   26.6654  -19.9250 H   0  0  0  0  0
  -38.8936   26.0398  -20.7912 H   0  0  0  0  0
  -38.6883   25.3529  -18.5493 H   0  0  0  0  0
  -39.2152   26.9600  -17.9305 H   0  0  0  0  0
  -37.8529   36.1726  -23.0549 H   0  0  0  0  0
  -36.9385   37.2908  -21.9445 H   0  0  0  0  0
  -38.0707   29.4923  -22.2653 H   0  0  0  0  0
  -36.3017   29.2017  -21.9374 H   0  0  0  0  0
  -37.1726   35.6061  -20.1895 H   0  0  0  0  0
  -36.8085   26.9674  -17.6534 H   0  0  0  0  0
  -37.1491   27.3577  -21.2377 H   0  0  0  0  0
 27  1  1  0  0  0
 18  2  2  0  0  0
 19  3  2  0  0  0
 26  4  2  0  0  0
 23  5  1  0  0  0
 20  6  1  0  0  0
 21  7  1  0  0  0
  9  8  4  0  0  0
  8 20  4  0  0  0
 22  9  4  0  0  0
 10 20  4  0  0  0
 21 10  4  0  0  0
 24 11  2  0  0  0
 11 30  1  0  0  0
 12 13  1  0  0  0
 17 12  1  0  0  0
 13 27  1  0  0  0
 16 14  1  0  0  0
 14 22  1  0  0  0
 15 28  1  0  0  0
 30 15  1  0  0  0
 18 16  1  0  0  0
 28 17  1  0  0  0
 24 18  1  0  0  0
 25 19  1  0  0  0
 19 29  1  0  0  0
 22 21  4  0  0  0
 23 25  2  0  0  0
 26 23  1  0  0  0
 24 26  1  0  0  0
 25 30  1  0  0  0
 27 29  1  0  0  0
 28 29  1  0  0  0
  1 31  1  0  0  0
  1 32  1  0  0  0
  1 33  1  0  0  0
  5 34  1  0  0  0
  8 35  1  0  0  0
  9 36  1  0  0  0
 10 37  1  0  0  0
 11 38  1  0  0  0
 12 39  1  0  0  0
 12 40  1  0  0  0
 13 41  1  0  0  0
 13 42  1  0  0  0
 14 43  1  0  0  0
 14 44  1  0  0  0
 15 45  1  0  0  0
 15 46  1  0  0  0
 16 47  1  0  0  0
 27 48  1  0  0  0
 28 49  1  0  0  0
M  END
$$$$
