5khm_ligand
  -I-interpret- 

 69 73  0  0  0  0  0  0  0  0999 V2000
   61.8980   50.8730  126.2360 C   0  0  0  0  0
   62.9320   49.0800  126.8020 C   0  0  0  0  0
   63.6120   48.2470  127.7220 C   0  0  0  0  0
   62.3040   50.7080  142.5890 N   0  0  0  0  0
   61.9660   51.2460  132.3270 C   0  0  0  0  0
   62.8820   50.7530  133.4320 C   0  0  0  0  0
   63.7520   49.6240  132.8860 C   0  0  0  0  0
   64.5250   50.0710  131.6410 C   0  0  0  0  0
   62.1640   50.4430  134.7270 C   0  0  0  0  0
   61.8590   51.4610  135.6200 C   0  0  0  0  0
   61.2100   51.2000  136.8100 C   0  0  0  0  0
   60.8800   49.9020  137.1380 C   0  0  0  0  0
   59.8340   48.5750  138.8490 C   0  0  0  0  0
   59.2770   48.8550  140.2110 C   0  0  0  0  0
   63.4330   51.4120  143.1950 C   0  0  0  0  0
   62.1830   49.3820  142.7440 C   0  0  0  0  0
   61.0040   48.6680  142.1150 C   0  0  0  0  0
   60.0450   48.2260  143.2120 C   0  0  0  0  0
   61.8220   49.1410  135.0760 C   0  0  0  0  0
   62.9390   48.7290  143.4340 O   0  0  0  0  0
   61.3490   51.5460  141.8620 C   0  0  0  0  0
   60.0880   50.8260  141.4110 C   0  0  0  0  0
   60.3640   49.4310  141.0280 N   0  3  0  0  0
   60.2480   49.8460  138.3470 O   0  0  0  0  0
   61.1560   48.8720  136.2540 C   0  0  0  0  0
   62.7770   51.6940  131.1190 C   0  0  0  0  0
   63.6320   50.6110  130.6050 N   0  0  0  0  0
   63.4390   50.0410  129.3340 C   0  0  0  0  0
   63.8670   48.7290  128.9670 C   0  0  0  0  0
   62.8290   50.8670  128.5360 N   0  0  0  0  0
   62.5860   50.3420  127.2560 N   0  0  0  0  0
   62.5080   48.9180  125.5620 N   0  0  0  0  0
   61.8400   50.0980  125.1900 N   0  0  0  0  0
   61.4000   52.1000  126.3700 O   0  0  0  0  0
   60.4090   52.4990  125.3910 C   0  0  0  0  0
   63.9241   47.2418  127.4387 H   0  0  0  0  0
   61.3884   52.0925  132.6983 H   0  0  0  0  0
   61.3051   50.4328  132.0269 H   0  0  0  0  0
   63.5464   51.5632  133.7325 H   0  0  0  0  0
   63.1067   48.7890  132.6131 H   0  0  0  0  0
   64.4686   49.3348  133.6547 H   0  0  0  0  0
   65.0405   49.2034  131.2292 H   0  0  0  0  0
   65.2213   50.8564  131.9350 H   0  0  0  0  0
   62.1374   52.4864  135.3768 H   0  0  0  0  0
   60.9595   52.0164  137.4874 H   0  0  0  0  0
   59.0940   48.1072  138.1997 H   0  0  0  0  0
   60.6633   47.8688  138.8904 H   0  0  0  0  0
   58.9050   47.9369  140.6658 H   0  0  0  0  0
   58.4414   49.5517  140.1443 H   0  0  0  0  0
   63.4089   51.2722  144.2757 H   0  0  0  0  0
   64.3653   51.0120  142.7963 H   0  0  0  0  0
   63.3636   52.4748  142.9632 H   0  0  0  0  0
   61.3690   47.7758  141.6063 H   0  0  0  0  0
   60.5616   47.5507  143.8941 H   0  0  0  0  0
   59.6945   49.1004  143.7604 H   0  0  0  0  0
   59.1948   47.7116  142.7640 H   0  0  0  0  0
   62.0842   48.3202  134.4085 H   0  0  0  0  0
   61.8543   51.8956  140.9617 H   0  0  0  0  0
   61.0365   52.3366  142.5443 H   0  0  0  0  0
   59.6872   51.3476  140.5419 H   0  0  0  0  0
   59.3806   50.8207  142.2403 H   0  0  0  0  0
   61.1179   49.3699  140.3437 H   0  0  0  0  0
   60.8482   47.8529  136.4881 H   0  0  0  0  0
   63.4173   52.5220  131.4231 H   0  0  0  0  0
   62.0845   51.9884  130.3305 H   0  0  0  0  0
   64.4009   48.1110  129.6889 H   0  0  0  0  0
   60.8483   52.4594  124.3942 H   0  0  0  0  0
   59.5570   51.8209  125.4412 H   0  0  0  0  0
   60.0788   53.5158  125.6038 H   0  0  0  0  0
 31  1  4  0  0  0
  1 33  4  0  0  0
  1 34  1  0  0  0
  3  2  4  0  0  0
  2 31  4  0  0  0
  2 32  4  0  0  0
 29  3  4  0  0  0
  4 15  1  0  0  0
 16  4  1  0  0  0
 21  4  1  0  0  0
  5  6  1  0  0  0
 26  5  1  0  0  0
  7  6  1  0  0  0
  6  9  1  0  0  0
  8  7  1  0  0  0
 27  8  1  0  0  0
  9 10  4  0  0  0
  9 19  4  0  0  0
 10 11  4  0  0  0
 11 12  4  0  0  0
 12 24  1  0  0  0
 25 12  4  0  0  0
 13 14  1  0  0  0
 24 13  1  0  0  0
 14 23  1  0  0  0
 17 16  1  0  0  0
 16 20  2  0  0  0
 17 18  1  0  0  0
 23 17  1  0  0  0
 19 25  4  0  0  0
 22 21  1  0  0  0
 23 22  1  0  0  0
 27 26  1  0  0  0
 28 27  1  0  0  0
 28 29  4  0  0  0
 28 30  4  0  0  0
 30 31  4  0  0  0
 32 33  4  0  0  0
 34 35  1  0  0  0
  3 36  1  0  0  0
  5 37  1  0  0  0
  5 38  1  0  0  0
  6 39  1  0  0  0
  7 40  1  0  0  0
  7 41  1  0  0  0
  8 42  1  0  0  0
  8 43  1  0  0  0
 10 44  1  0  0  0
 11 45  1  0  0  0
 13 46  1  0  0  0
 13 47  1  0  0  0
 14 48  1  0  0  0
 14 49  1  0  0  0
 15 50  1  0  0  0
 15 51  1  0  0  0
 15 52  1  0  0  0
 17 53  1  0  0  0
 18 54  1  0  0  0
 18 55  1  0  0  0
 18 56  1  0  0  0
 19 57  1  0  0  0
 21 58  1  0  0  0
 21 59  1  0  0  0
 22 60  1  0  0  0
 22 61  1  0  0  0
 23 62  1  0  0  0
 25 63  1  0  0  0
 26 64  1  0  0  0
 26 65  1  0  0  0
 29 66  1  0  0  0
 35 67  1  0  0  0
 35 68  1  0  0  0
 35 69  1  0  0  0
M  END
$$$$
