5kls_ligand
  -I-interpret- 

 60 61  0  0  0  0  0  0  0  0999 V2000
  165.4290   40.7510   18.9220 C   0  0  0  0  0
  164.9770   41.3270   17.5210 C   0  0  0  0  0
  165.6100   40.5660   16.4830 O   0  0  0  0  0
  164.8630   40.0410   15.3810 C   0  0  0  0  0
  164.0350   40.7180   14.8310 O   0  0  0  0  0
  165.0280   38.5800   14.8700 C   0  0  0  0  0
  164.3830   37.5560   15.5270 C   0  0  0  0  0
  164.8540   36.1280   15.1100 N   0  0  0  0  0
  166.3050   36.2570   15.2910 C   0  0  0  0  0
  166.9300   37.0390   14.4260 C   0  0  0  0  0
  166.0780   38.1790   13.8210 C   0  0  0  0  0
  165.1820   38.0930   12.4090 C   0  0  0  0  0
  163.8840   38.6790   12.4850 C   0  0  0  0  0
  162.9620   38.7460   11.4370 C   0  0  0  0  0
  163.2990   38.2370   10.2030 C   0  0  0  0  0
  164.5520   37.6800   10.0560 C   0  0  0  0  0
  165.4630   37.6150   11.1090 C   0  0  0  0  0
  167.0440   36.7820   10.4640 Br  0  0  0  0  0
  168.5700   37.0900   14.8070 C   0  0  0  0  0
  169.3660   37.3470   13.9910 O   0  0  0  0  0
  169.0040   36.9370   16.1690 O   0  0  0  0  0
  170.1700   36.2110   16.5700 C   0  0  0  0  0
  167.0400   35.0740   15.9620 C   0  0  0  0  0
  163.6550   37.8350   16.7710 C   0  0  0  0  0
  164.6710   38.1250   17.7920 O   0  0  0  0  0
  164.9930   37.0550   18.6700 C   0  0  0  0  0
  166.3700   37.2940   19.3380 C   0  0  0  0  0
  166.9540   36.0730   19.9880 N   0  3  0  0  0
  166.1360   34.8510   19.9250 C   0  0  0  0  0
  168.3390   35.8080   19.5220 C   0  0  0  0  0
  165.1319   39.7049   18.9963 H   0  0  0  0  0
  166.5123   40.8298   19.0134 H   0  0  0  0  0
  164.9533   41.3226   19.7190 H   0  0  0  0  0
  165.2676   42.3745   17.4409 H   0  0  0  0  0
  163.8937   41.2550   17.4239 H   0  0  0  0  0
  164.3054   35.3267   14.7980 H   0  0  0  0  0
  166.9032   38.8317   13.5361 H   0  0  0  0  0
  163.5862   39.1108   13.4405 H   0  0  0  0  0
  161.9829   39.1981   11.5954 H   0  0  0  0  0
  162.5980   38.2731    9.3691 H   0  0  0  0  0
  164.8393   37.2774    9.0847 H   0  0  0  0  0
  170.0774   35.1727   16.2515 H   0  0  0  0  0
  171.0508   36.6569   16.1080 H   0  0  0  0  0
  170.2669   36.2523   17.6549 H   0  0  0  0  0
  167.3876   34.3819   15.1951 H   0  0  0  0  0
  167.8928   35.4509   16.5266 H   0  0  0  0  0
  166.3560   34.5580   16.6358 H   0  0  0  0  0
  163.0399   36.9838   17.0628 H   0  0  0  0  0
  162.9758   38.6782   16.6453 H   0  0  0  0  0
  165.0341   36.1283   18.0975 H   0  0  0  0  0
  164.2299   36.9928   19.4459 H   0  0  0  0  0
  166.2247   38.0386   20.1207 H   0  0  0  0  0
  167.0603   37.6040   18.5535 H   0  0  0  0  0
  166.9692   36.3181   20.9780 H   0  0  0  0  0
  165.1809   35.0288   20.4193 H   0  0  0  0  0
  165.9629   34.5846   18.8823 H   0  0  0  0  0
  166.6605   34.0379   20.4269 H   0  0  0  0  0
  168.3345   35.6527   18.4431 H   0  0  0  0  0
  168.9722   36.6613   19.7649 H   0  0  0  0  0
  168.7232   34.9162   20.0172 H   0  0  0  0  0
  1  2  1  0  0  0
  2  3  1  0  0  0
  3  4  1  0  0  0
  4  5  2  0  0  0
  4  6  1  0  0  0
  6  7  2  0  0  0
  6 11  1  0  0  0
  7  8  1  0  0  0
  7 24  1  0  0  0
  8  9  1  0  0  0
  9 10  2  0  0  0
  9 23  1  0  0  0
 10 11  1  0  0  0
 10 19  1  0  0  0
 11 12  1  0  0  0
 12 13  4  0  0  0
 12 17  4  0  0  0
 13 14  4  0  0  0
 14 15  4  0  0  0
 15 16  4  0  0  0
 16 17  4  0  0  0
 17 18  1  0  0  0
 19 20  2  0  0  0
 19 21  1  0  0  0
 21 22  1  0  0  0
 24 25  1  0  0  0
 25 26  1  0  0  0
 26 27  1  0  0  0
 27 28  1  0  0  0
 28 29  1  0  0  0
 28 30  1  0  0  0
  1 31  1  0  0  0
  1 32  1  0  0  0
  1 33  1  0  0  0
  2 34  1  0  0  0
  2 35  1  0  0  0
  8 36  1  0  0  0
 11 37  1  0  0  0
 13 38  1  0  0  0
 14 39  1  0  0  0
 15 40  1  0  0  0
 16 41  1  0  0  0
 22 42  1  0  0  0
 22 43  1  0  0  0
 22 44  1  0  0  0
 23 45  1  0  0  0
 23 46  1  0  0  0
 23 47  1  0  0  0
 24 48  1  0  0  0
 24 49  1  0  0  0
 26 50  1  0  0  0
 26 51  1  0  0  0
 27 52  1  0  0  0
 27 53  1  0  0  0
 28 54  1  0  0  0
 29 55  1  0  0  0
 29 56  1  0  0  0
 29 57  1  0  0  0
 30 58  1  0  0  0
 30 59  1  0  0  0
 30 60  1  0  0  0
M  END
$$$$
