1ft4_ligand
  -I-interpret- 

 52 56  0  0  0  0  0  0  0  0999 V2000
   15.9110    4.4620   26.2520 C   0  0  0  0  0
   16.4940    4.3510   27.5480 C   0  0  0  0  0
   17.5280    3.4170   27.8080 C   0  0  0  0  0
   17.9070    2.5220   26.8280 C   0  0  0  0  0
   17.3630    2.4970   25.5550 C   0  0  0  0  0
   16.3630    3.5050   25.2490 C   0  0  0  0  0
   18.4450    3.4530   28.9740 N   0  0  0  0  0
   19.0430    2.3870   29.2990 O   0  0  0  0  0
   18.5880    4.5810   29.4900 O   0  0  0  0  0
   18.0520    1.3430   24.8240 C   0  0  0  0  0
   19.7770    1.3170   24.8020 S   0  0  0  0  0
   20.0020   -0.3130   24.3040 C   0  0  0  0  0
   18.6510   -0.8760   24.1170 C   0  0  0  0  0
   17.5570    0.0550   24.4040 C   0  0  0  0  0
   19.0420   -2.1080   23.6580 N   0  0  0  0  0
   20.3080   -2.3690   23.5360 C   0  0  0  0  0
   21.0570   -1.2600   23.9610 C   0  0  0  0  0
   18.4240   -3.1990   23.1440 C   0  0  0  0  0
   19.2960   -4.1850   22.6500 N   0  0  0  0  0
   20.5700   -3.6360   22.9160 C   0  0  0  0  0
   16.6770   -3.3340   23.1530 S   0  0  0  0  0
   21.7380   -4.1580   22.5560 O   0  0  0  0  0
   18.9430   -5.4250   21.8940 C   0  0  0  0  0
   20.0630   -6.4630   21.7510 C   0  0  0  0  0
   20.4050   -6.7410   20.2760 C   0  0  0  0  0
   21.2220   -7.9830   20.1020 N   0  3  0  0  0
   20.4410   -9.1740   19.6480 C   0  0  0  0  0
   21.2690  -10.4700   19.6500 C   0  0  0  0  0
   22.4730  -10.3220   18.8560 O   0  0  0  0  0
   23.2550   -9.1800   19.3050 C   0  0  0  0  0
   22.4540   -7.8640   19.2800 C   0  0  0  0  0
   15.1655    5.2233   26.0225 H   0  0  0  0  0
   16.1388    4.9950   28.3524 H   0  0  0  0  0
   18.6796    1.7923   27.0704 H   0  0  0  0  0
   15.9402    3.5471   24.2452 H   0  0  0  0  0
   16.5000   -0.1947   24.3116 H   0  0  0  0  0
   22.1387   -1.1390   24.0191 H   0  0  0  0  0
   18.6883   -5.1066   20.8832 H   0  0  0  0  0
   18.1443   -5.9101   22.4551 H   0  0  0  0  0
   19.7247   -7.3947   22.2044 H   0  0  0  0  0
   20.9551   -6.0721   22.2404 H   0  0  0  0  0
   20.9878   -5.8996   19.9013 H   0  0  0  0  0
   19.4694   -6.8748   19.7330 H   0  0  0  0  0
   21.5321   -8.1297   21.0626 H   0  0  0  0  0
   20.1164   -8.9883   18.6242 H   0  0  0  0  0
   19.6093   -9.3096   20.3394 H   0  0  0  0  0
   20.6652  -11.2701   19.2218 H   0  0  0  0  0
   21.5545  -10.6997   20.6766 H   0  0  0  0  0
   24.1030   -9.0686   18.6292 H   0  0  0  0  0
   23.5595   -9.3670   20.3348 H   0  0  0  0  0
   23.0743   -7.0662   19.6885 H   0  0  0  0  0
   22.1708   -7.6435   18.2508 H   0  0  0  0  0
  1  2  4  0  0  0
  1  6  4  0  0  0
  2  3  4  0  0  0
  3  4  4  0  0  0
  3  7  1  0  0  0
  4  5  4  0  0  0
  5  6  4  0  0  0
  5 10  1  0  0  0
  7  8  2  0  0  0
  7  9  2  0  0  0
 10 11  4  0  0  0
 10 14  4  0  0  0
 11 12  4  0  0  0
 12 13  4  0  0  0
 12 17  4  0  0  0
 13 14  4  0  0  0
 13 15  4  0  0  0
 15 16  4  0  0  0
 15 18  1  0  0  0
 16 17  4  0  0  0
 16 20  1  0  0  0
 18 19  1  0  0  0
 18 21  2  0  0  0
 19 20  1  0  0  0
 19 23  1  0  0  0
 20 22  2  0  0  0
 23 24  1  0  0  0
 24 25  1  0  0  0
 25 26  1  0  0  0
 26 27  1  0  0  0
 26 31  1  0  0  0
 27 28  1  0  0  0
 28 29  1  0  0  0
 29 30  1  0  0  0
 30 31  1  0  0  0
  1 32  1  0  0  0
  2 33  1  0  0  0
  4 34  1  0  0  0
  6 35  1  0  0  0
 14 36  1  0  0  0
 17 37  1  0  0  0
 23 38  1  0  0  0
 23 39  1  0  0  0
 24 40  1  0  0  0
 24 41  1  0  0  0
 25 42  1  0  0  0
 25 43  1  0  0  0
 26 44  1  0  0  0
 27 45  1  0  0  0
 27 46  1  0  0  0
 28 47  1  0  0  0
 28 48  1  0  0  0
 30 49  1  0  0  0
 30 50  1  0  0  0
 31 51  1  0  0  0
 31 52  1  0  0  0
M  END
$$$$
