### 
### Created by X-TOOL on Mon Sep 10 21:12:54 2018
### 

@<TRIPOS>MOLECULE
2isv_ligand
   14    13     1     0     0
SMALL
GAST_HUCK


@<TRIPOS>ATOM
      1 C1        -40.5440  -10.1780  -22.1320 C.2       1 PGH         0.2297
      2 C2        -41.6040  -11.0830  -23.1130 C.3       1 PGH         0.1686
      3 N2        -40.0640  -11.0780  -21.2760 N.am      1 PGH        -0.1620
      4 O2        -39.1200  -10.4910  -20.3370 O.3       1 PGH        -0.2717
      5 O1        -40.3550   -8.9740  -22.2910 O.2       1 PGH        -0.3940
      6 O1P       -42.9370  -10.6160  -22.5740 O.3       1 PGH        -0.2560
      7 O2P       -45.2430  -10.9390  -22.1370 O.co2     1 PGH        -0.5536
      8 O3P       -44.0530  -12.6960  -23.2750 O.co2     1 PGH        -0.5536
      9 O4P       -44.4950  -10.6200  -24.5270 O.co2     1 PGH        -0.5536
     10 P         -44.2480  -11.2270  -23.1600 P.3       1 PGH         0.2041
     11 H1        -41.4648  -12.1650  -22.9722 H         1 PGH         0.0857
     12 H2        -41.4858  -10.8336  -24.1778 H         1 PGH         0.0857
     13 H3        -40.3220  -12.0441  -21.2782 H         1 PGH         0.2217
     14 H4        -38.8026  -11.1640  -19.7464 H         1 PGH         0.2490
@<TRIPOS>BOND
     1    1    2 1  
     2    1    3 am 
     3    1    5 2  
     4    2    6 1  
     5    3    4 1  
     6    6   10 1  
     7   10    7 ar 
     8   10    8 ar 
     9   10    9 ar 
    10    2   11 1  
    11    2   12 1  
    12    3   13 1  
    13    4   14 1  
@<TRIPOS>SUBSTRUCTURE
     1 PGH         1

