4zg6_ligand
  -I-interpret- 

 47 50  0  0  0  0  0  0  0  0999 V2000
   65.6300   24.1450   30.3890 C   0  0  0  0  0
   64.4040   20.0590   25.7220 C   0  0  0  0  0
   60.4240   17.4520   19.6610 C   0  0  0  0  0
   62.9480   22.9510   21.4170 C   0  0  0  0  0
   62.8450   21.6740   21.9740 C   0  0  0  0  0
   62.0540   18.0810   21.4660 C   0  0  0  0  0
   60.6560   18.1050   20.8710 C   0  0  0  0  0
   59.6000   18.7540   21.5140 C   0  0  0  0  0
   58.3310   18.7510   20.9460 C   0  0  0  0  0
   58.0990   18.0950   19.7340 C   0  0  0  0  0
   59.1540   17.4360   19.0890 C   0  0  0  0  0
   65.9880   25.3100   30.3950 O   0  0  0  0  0
   65.5260   23.4720   31.5360 O   0  0  0  0  0
   65.2840   23.4730   29.0970 C   0  0  0  0  0
   64.8270   22.1640   29.1660 C   0  0  0  0  0
   64.5010   21.5050   27.9900 C   0  0  0  0  0
   64.6280   22.1310   26.7370 C   0  0  0  0  0
   65.0650   23.4600   26.6640 C   0  0  0  0  0
   65.4060   24.1270   27.8520 C   0  0  0  0  0
   64.1820   21.2870   25.5750 C   0  0  0  0  0
   64.6620   18.9350   25.8390 N   0  0  0  0  0
   63.5010   21.8260   24.5330 C   0  0  0  0  0
   63.0320   21.0700   23.3190 C   0  0  0  0  0
   62.6960   23.1040   20.0490 C   0  0  0  0  0
   62.3120   22.0110   19.2600 C   0  0  0  0  0
   62.0150   22.2120   17.5060 Cl  0  0  0  0  0
   62.2010   20.7300   19.7990 C   0  0  0  0  0
   62.4540   20.5060   21.1570 C   0  0  0  0  0
   62.4130   19.4070   21.9590 N   0  0  0  0  0
   62.7430   19.7030   23.2520 C   0  0  0  0  0
   56.8670   18.0860   19.1900 F   0  0  0  0  0
   61.2475   16.9473   19.1559 H   0  0  0  0  0
   63.2184   23.8082   22.0336 H   0  0  0  0  0
   62.7650   17.7814   20.6961 H   0  0  0  0  0
   62.0777   17.3731   22.2945 H   0  0  0  0  0
   59.7708   19.2635   22.4623 H   0  0  0  0  0
   57.5114   19.2638   21.4494 H   0  0  0  0  0
   58.9823   16.9150   18.1471 H   0  0  0  0  0
   65.2347   22.5755   31.3544 H   0  0  0  0  0
   64.7261   21.6624   30.1285 H   0  0  0  0  0
   64.1380   20.4783   28.0380 H   0  0  0  0  0
   65.1391   23.9674   25.7022 H   0  0  0  0  0
   65.7667   25.1548   27.8125 H   0  0  0  0  0
   63.2755   22.8914   24.5785 H   0  0  0  0  0
   62.7998   24.0874   19.5904 H   0  0  0  0  0
   61.9149   19.8964   19.1576 H   0  0  0  0  0
   62.7752   18.9988   24.0834 H   0  0  0  0  0
  1 12  2  0  0  0
  1 13  1  0  0  0
 14  1  1  0  0  0
 20  2  1  0  0  0
  2 21  3  0  0  0
  7  3  4  0  0  0
  3 11  4  0  0  0
  5  4  4  0  0  0
  4 24  4  0  0  0
  5 23  4  0  0  0
 28  5  4  0  0  0
  6  7  1  0  0  0
 29  6  1  0  0  0
  7  8  4  0  0  0
  8  9  4  0  0  0
  9 10  4  0  0  0
 11 10  4  0  0  0
 10 31  1  0  0  0
 15 14  4  0  0  0
 19 14  4  0  0  0
 16 15  4  0  0  0
 17 16  4  0  0  0
 17 18  4  0  0  0
 20 17  1  0  0  0
 18 19  4  0  0  0
 22 20  2  0  0  0
 23 22  1  0  0  0
 23 30  4  0  0  0
 25 24  4  0  0  0
 25 26  1  0  0  0
 27 25  4  0  0  0
 28 27  4  0  0  0
 28 29  4  0  0  0
 29 30  4  0  0  0
  3 32  1  0  0  0
  4 33  1  0  0  0
  6 34  1  0  0  0
  6 35  1  0  0  0
  8 36  1  0  0  0
  9 37  1  0  0  0
 11 38  1  0  0  0
 13 39  1  0  0  0
 15 40  1  0  0  0
 16 41  1  0  0  0
 18 42  1  0  0  0
 19 43  1  0  0  0
 22 44  1  0  0  0
 24 45  1  0  0  0
 27 46  1  0  0  0
 30 47  1  0  0  0
M  END
$$$$
