2xo8_ligand
  -I-interpret- 

 20 21  0  0  0  0  0  0  0  0999 V2000
   66.8890   48.1560  -49.9410 C   0  0  0  0  0
   67.4570   47.3830  -47.6330 C   0  0  0  0  0
   68.4000   47.0320  -46.5790 C   0  0  0  0  0
   66.0720   47.2670  -47.3460 C   0  0  0  0  0
   65.1070   47.5820  -48.3120 C   0  0  0  0  0
   67.8900   47.8320  -48.9380 C   0  0  0  0  0
   69.2220   47.9650  -49.2820 O   0  0  0  0  0
   65.4980   48.0290  -49.6200 C   0  0  0  0  0
   69.0620   46.4840  -44.4840 C   0  0  0  0  0
   70.2240   46.5150  -45.2920 C   0  0  0  0  0
   69.8020   46.8640  -46.6350 C   0  0  0  0  0
   67.9790   46.7980  -45.2750 N   0  0  0  0  0
   70.8890   47.0480  -48.1220 Br  0  0  0  0  0
   71.9260   46.1720  -44.7200 Br  0  0  0  0  0
   63.4730   47.4120  -47.8910 Cl  0  0  0  0  0
   68.9130   46.1000  -42.6780 Br  0  0  0  0  0
   67.3210   48.6850  -51.4950 Cl  0  0  0  0  0
   65.7543   46.9280  -46.3600 H   0  0  0  0  0
   69.7707   47.7205  -48.5332 H   0  0  0  0  0
   64.7400   48.2705  -50.3652 H   0  0  0  0  0
  6  1  4  0  0  0
  1  8  4  0  0  0
  1 17  1  0  0  0
  3  2  1  0  0  0
  2  4  4  0  0  0
  2  6  4  0  0  0
  3 11  4  0  0  0
 12  3  4  0  0  0
  4  5  4  0  0  0
  5  8  4  0  0  0
  5 15  1  0  0  0
  6  7  1  0  0  0
  9 10  4  0  0  0
 12  9  4  0  0  0
  9 16  1  0  0  0
 11 10  4  0  0  0
 10 14  1  0  0  0
 11 13  1  0  0  0
  4 18  1  0  0  0
  7 19  1  0  0  0
  8 20  1  0  0  0
M  END
$$$$
