3qzq_ligand
  -I-interpret- 

 84 86  0  0  0  0  0  0  0  0999 V2000
   36.3760   15.3040    7.1090 C   0  0  0  0  0
   36.4750   16.0010    5.7470 C   0  0  0  0  0
   37.3510   14.7080    7.5520 O   0  0  0  0  0
   37.7570   16.8590    5.6370 C   0  0  0  0  0
   37.9380   17.7590    4.4210 C   0  0  0  0  0
   37.3330   17.1230    3.1760 C   0  0  0  0  0
   37.9690   16.0490    2.5710 C   0  0  0  0  0
   37.4330   15.4930    1.4010 C   0  0  0  0  0
   36.2630   16.0250    0.8520 C   0  0  0  0  0
   35.6250   17.1040    1.4530 C   0  0  0  0  0
   36.1630   17.6650    2.6220 C   0  0  0  0  0
   39.9660   16.7210    6.9490 N   0  0  0  0  0
   40.9980   17.2270    7.8950 C   0  0  0  0  0
   41.2570   16.5000    9.2180 C   0  0  0  0  0
   39.9930   15.9540    9.8350 C   0  0  0  0  0
   40.3310   14.9910   10.9210 C   0  0  0  0  0
   39.4560   15.2300   12.0110 N   0  0  0  0  0
   41.2340   14.1690   10.9270 O   0  0  0  0  0
   42.1460   18.1120    7.3800 C   0  0  0  0  0
   41.7220   19.1080    6.3250 C   0  0  0  0  0
   41.1620   20.3240    7.0480 C   0  0  0  0  0
   40.2870   21.0650    6.4830 O   0  0  0  0  0
   41.5270   20.5720    8.2190 O   0  0  0  0  0
   38.6090   17.2630    6.8440 C   0  0  0  0  0
   38.2500   18.2090    7.5130 O   0  0  0  0  0
   39.6360   22.0550    7.2180 C   0  0  0  0  0
   38.6270   22.7280    6.3240 C   0  0  0  0  0
   34.9560   14.8700    7.5630 C   0  0  0  0  0
   35.0210   13.5470    8.1840 N   0  0  0  0  0
   34.2280   12.4470    7.6590 C   0  0  0  0  0
   33.4720   12.5990    6.7210 O   0  0  0  0  0
   34.2720   15.8860    8.4780 C   0  0  0  0  0
   32.9110   15.3810    8.8780 C   0  0  0  0  0
   35.7740   15.4970   -0.2720 F   0  0  0  0  0
   35.1110   16.1080    9.6910 C   0  0  0  0  0
   38.5220   16.2650   11.6190 C   0  0  0  0  0
   39.1780   17.0240   10.4860 C   0  0  0  0  0
   34.4140   11.0770    8.2640 C   0  0  0  0  0
   33.7060    9.8510    7.8800 C   0  0  0  0  0
   34.2570    8.8540    8.7610 C   0  0  0  0  0
   35.1600    9.4660    9.5190 O   0  0  0  0  0
   35.2610   10.7520    9.2370 N   0  0  0  0  0
   33.8850    7.3980    8.7970 C   0  0  0  0  0
   35.6116   16.6564    5.6325 H   0  0  0  0  0
   36.5052   15.2364    4.9707 H   0  0  0  0  0
   38.2469   15.9049    5.4426 H   0  0  0  0  0
   39.0044   17.9100    4.2534 H   0  0  0  0  0
   37.4340   18.7069    4.6095 H   0  0  0  0  0
   38.8817   15.6390    3.0035 H   0  0  0  0  0
   37.9272   14.6484    0.9209 H   0  0  0  0  0
   34.7122   17.5121    1.0190 H   0  0  0  0  0
   35.6750   18.5164    3.0965 H   0  0  0  0  0
   40.2199   15.9474    6.3346 H   0  0  0  0  0
   40.2930   17.9864    8.2330 H   0  0  0  0  0
   41.6894   17.2166    9.9162 H   0  0  0  0  0
   41.9220   15.6604    9.0156 H   0  0  0  0  0
   39.4345   15.4895    9.0223 H   0  0  0  0  0
   39.4802   14.7557   12.9137 H   0  0  0  0  0
   42.8862   17.4530    6.9262 H   0  0  0  0  0
   42.5250   18.6799    8.2297 H   0  0  0  0  0
   40.9684   18.6726    5.6688 H   0  0  0  0  0
   42.5710   19.3905    5.7025 H   0  0  0  0  0
   40.3590   22.7861    7.5797 H   0  0  0  0  0
   39.1340   21.6109    8.0776 H   0  0  0  0  0
   39.1391   23.1731    5.4709 H   0  0  0  0  0
   37.9060   21.9902    5.9721 H   0  0  0  0  0
   38.1086   23.5059    6.8845 H   0  0  0  0  0
   34.3314   14.8215    6.6710 H   0  0  0  0  0
   35.6266   13.3952    8.9906 H   0  0  0  0  0
   34.1544   16.8297    7.9453 H   0  0  0  0  0
   32.3029   15.2335    7.9855 H   0  0  0  0  0
   33.0173   14.4341    9.4073 H   0  0  0  0  0
   32.4311   16.1111    9.5297 H   0  0  0  0  0
   35.2347   15.1648   10.2232 H   0  0  0  0  0
   36.0875   16.4883    9.3912 H   0  0  0  0  0
   34.6217   16.8325   10.3420 H   0  0  0  0  0
   38.2974   16.9269   12.4554 H   0  0  0  0  0
   37.5712   15.8354   11.3037 H   0  0  0  0  0
   38.4653   17.4980    9.8111 H   0  0  0  0  0
   39.7687   17.8771   10.8197 H   0  0  0  0  0
   32.9441    9.7247    7.1108 H   0  0  0  0  0
   32.8231    7.3011    9.0229 H   0  0  0  0  0
   34.0941    6.9468    7.8270 H   0  0  0  0  0
   34.4691    6.8940    9.5671 H   0  0  0  0  0
  2  1  1  0  0  0
  1  3  2  0  0  0
  1 28  1  0  0  0
  4  2  1  0  0  0
  4  5  1  0  0  0
 24  4  1  0  0  0
  5  6  1  0  0  0
  6  7  4  0  0  0
  6 11  4  0  0  0
  7  8  4  0  0  0
  8  9  4  0  0  0
 10  9  4  0  0  0
  9 34  1  0  0  0
 11 10  4  0  0  0
 12 13  1  0  0  0
 12 24  1  0  0  0
 13 14  1  0  0  0
 13 19  1  0  0  0
 14 15  1  0  0  0
 15 16  1  0  0  0
 15 37  1  0  0  0
 16 17  1  0  0  0
 16 18  2  0  0  0
 17 36  1  0  0  0
 19 20  1  0  0  0
 20 21  1  0  0  0
 21 22  1  0  0  0
 21 23  2  0  0  0
 22 26  1  0  0  0
 24 25  2  0  0  0
 26 27  1  0  0  0
 28 29  1  0  0  0
 28 32  1  0  0  0
 29 30  1  0  0  0
 30 31  2  0  0  0
 30 38  1  0  0  0
 32 33  1  0  0  0
 32 35  1  0  0  0
 36 37  1  0  0  0
 38 39  4  0  0  0
 38 42  4  0  0  0
 39 40  4  0  0  0
 40 41  4  0  0  0
 40 43  1  0  0  0
 41 42  4  0  0  0
  2 44  1  0  0  0
  2 45  1  0  0  0
  4 46  1  0  0  0
  5 47  1  0  0  0
  5 48  1  0  0  0
  7 49  1  0  0  0
  8 50  1  0  0  0
 10 51  1  0  0  0
 11 52  1  0  0  0
 12 53  1  0  0  0
 13 54  1  0  0  0
 14 55  1  0  0  0
 14 56  1  0  0  0
 15 57  1  0  0  0
 17 58  1  0  0  0
 19 59  1  0  0  0
 19 60  1  0  0  0
 20 61  1  0  0  0
 20 62  1  0  0  0
 26 63  1  0  0  0
 26 64  1  0  0  0
 27 65  1  0  0  0
 27 66  1  0  0  0
 27 67  1  0  0  0
 28 68  1  0  0  0
 29 69  1  0  0  0
 32 70  1  0  0  0
 33 71  1  0  0  0
 33 72  1  0  0  0
 33 73  1  0  0  0
 35 74  1  0  0  0
 35 75  1  0  0  0
 35 76  1  0  0  0
 36 77  1  0  0  0
 36 78  1  0  0  0
 37 79  1  0  0  0
 37 80  1  0  0  0
 39 81  1  0  0  0
 43 82  1  0  0  0
 43 83  1  0  0  0
 43 84  1  0  0  0
M  END
$$$$
