4yqm_ligand
  -I-interpret- 

 30 30  0  0  0  0  0  0  0  0999 V2000
    8.3140  -22.2230   24.9510 Cl  0  0  0  0  0
    8.4000  -21.0390   26.2110 C   0  0  0  0  0
    7.3100  -20.2200   26.5350 C   0  0  0  0  0
    5.7470  -20.3630   25.6990 S   0  0  0  0  0
    5.9520  -21.0000   24.4360 O   0  0  0  0  0
    5.0760  -19.1030   25.7550 O   0  0  0  0  0
    4.9050  -21.3970   26.6250 N   0  0  0  0  0
    5.3780  -22.7830   26.6800 C   0  0  0  0  0
    4.4130  -20.8940   27.9140 C   0  0  0  0  0
    9.5920  -20.9210   26.9110 C   0  0  0  0  0
    9.7180  -19.9910   27.9260 C   0  0  0  0  0
    8.6530  -19.1650   28.2520 C   0  0  0  0  0
    7.4530  -19.2930   27.5590 C   0  0  0  0  0
    8.8370  -18.1580   29.2290 N   0  0  0  0  0
    7.9350  -17.7000   30.1240 C   0  0  0  0  0
    6.9080  -18.2990   30.4330 O   0  0  0  0  0
    8.2490  -16.3430   30.7160 C   0  0  0  0  0
    6.1978  -22.8577   27.3944 H   0  0  0  0  0
    4.5607  -23.4323   26.9938 H   0  0  0  0  0
    5.7261  -23.0862   25.6926 H   0  0  0  0  0
    3.5791  -21.5109   28.2489 H   0  0  0  0  0
    5.2163  -20.9363   28.6496 H   0  0  0  0  0
    4.0797  -19.8628   27.7969 H   0  0  0  0  0
   10.4342  -21.5655   26.6591 H   0  0  0  0  0
   10.6577  -19.9067   28.4719 H   0  0  0  0  0
    6.6105  -18.6544   27.8246 H   0  0  0  0  0
    9.7607  -17.7267   29.2612 H   0  0  0  0  0
    7.4557  -15.6422   30.4559 H   0  0  0  0  0
    8.3189  -16.4285   31.8004 H   0  0  0  0  0
    9.1977  -15.9845   30.3166 H   0  0  0  0  0
  1  2  1  0  0  0
  2  3  4  0  0  0
  2 10  4  0  0  0
  3  4  1  0  0  0
  3 13  4  0  0  0
  4  5  2  0  0  0
  4  6  2  0  0  0
  4  7  1  0  0  0
  7  8  1  0  0  0
  7  9  1  0  0  0
 10 11  4  0  0  0
 11 12  4  0  0  0
 12 13  4  0  0  0
 12 14  1  0  0  0
 14 15  1  0  0  0
 15 16  2  0  0  0
 15 17  1  0  0  0
  8 18  1  0  0  0
  8 19  1  0  0  0
  8 20  1  0  0  0
  9 21  1  0  0  0
  9 22  1  0  0  0
  9 23  1  0  0  0
 10 24  1  0  0  0
 11 25  1  0  0  0
 13 26  1  0  0  0
 14 27  1  0  0  0
 17 28  1  0  0  0
 17 29  1  0  0  0
 17 30  1  0  0  0
M  END
$$$$
