5iz8_ligand
  -I-interpret- 

 94 93  0  0  0  0  0  0  0  0999 V2000
   17.0620   72.3340  317.7240 C   0  0  0  0  0
   17.4660   71.9460  316.6380 O   0  0  0  0  0
   17.2490   71.4880  318.9610 C   0  0  0  0  0
   16.5360   73.5530  317.9160 N   0  0  0  0  0
   16.6150   74.6200  316.9180 C   0  0  0  0  0
   18.0340   75.2370  316.6850 C   0  0  0  0  0
   18.2110   76.0050  315.7720 O   0  0  0  0  0
   15.6490   75.7230  317.2950 C   0  0  0  0  0
   19.0200   74.9360  317.5260 N   0  0  0  0  0
   20.2990   75.6280  317.4650 C   0  0  0  0  0
   20.2210   77.1030  317.8650 C   0  0  0  0  0
   19.1580   77.6280  318.2490 O   0  0  0  0  0
   21.3590   77.7830  317.7270 N   0  0  0  0  0
   21.4680   79.2360  318.0080 C   0  0  0  0  0
   21.5130   80.0100  316.7150 C   0  0  0  0  0
   21.8550   79.4600  315.6910 O   0  0  0  0  0
   22.7080   79.5580  318.8620 C   0  0  0  0  0
   24.0300   79.1410  318.2460 C   0  0  0  0  0
   25.1950   79.2820  319.1880 C   0  0  0  0  0
   26.2610   78.7070  318.8890 O   0  0  0  0  0
   25.0800   79.9690  320.2270 O   0  0  0  0  0
   21.2020   81.2980  316.7810 N   0  0  0  0  0
   21.1670   82.1530  315.5940 C   0  0  0  0  0
   21.4420   83.6150  315.9270 C   0  0  0  0  0
   21.3010   84.0190  317.0840 O   0  0  0  0  0
   19.8040   82.0180  314.9400 C   0  0  0  0  0
   21.8320   84.3960  314.9160 N   0  0  0  0  0
   21.8470   85.8670  315.0220 C   0  0  0  0  0
   20.4370   86.4140  314.9620 C   0  0  0  0  0
   19.4960   85.7000  314.5920 O   0  0  0  0  0
   22.6870   86.4940  313.9140 C   0  0  0  0  0
   24.1740   86.1250  313.9600 C   0  0  0  0  0
   24.9340   86.6260  312.7400 C   0  0  0  0  0
   24.8150   86.6640  315.2350 C   0  0  0  0  0
   20.2900   87.6750  315.3480 N   0  0  0  0  0
   18.9980   88.3480  315.3140 C   0  0  0  0  0
   18.5430   88.5920  313.8790 C   0  0  0  0  0
   19.3670   88.8190  313.0150 O   0  0  0  0  0
   19.0810   89.6540  316.0540 C   0  0  0  0  0
   17.2350   88.5190  313.6250 N   0  0  0  0  0
   16.6900   88.7440  312.2730 C   0  0  0  0  0
   16.6260   90.2290  312.0890 C   0  0  0  0  0
   16.0270   90.8990  312.9050 O   0  0  0  0  0
   15.2770   88.1760  312.1000 C   0  0  0  0  0
   15.2110   86.6640  312.3080 C   0  0  0  0  0
   15.9720   85.9270  311.6320 O   0  0  0  0  0
   14.3870   86.2160  313.1440 O   0  0  0  0  0
   17.2910   90.8070  310.9720 N   0  0  0  0  0
   16.7449   70.5312  318.8249 H   0  0  0  0  0
   18.3130   71.3192  319.1267 H   0  0  0  0  0
   16.8236   72.0052  319.8210 H   0  0  0  0  0
   16.0596   73.7446  318.7973 H   0  0  0  0  0
   16.3554   74.1441  315.9724 H   0  0  0  0  0
   15.9923   76.2083  318.2086 H   0  0  0  0  0
   15.6026   76.4549  316.4886 H   0  0  0  0  0
   14.6590   75.2971  317.4582 H   0  0  0  0  0
   18.8771   74.2077  318.2256 H   0  0  0  0  0
   20.6415   75.5887  316.4310 H   0  0  0  0  0
   20.9699   75.1349  318.1684 H   0  0  0  0  0
   22.1913   77.2828  317.4146 H   0  0  0  0  0
   20.5871   79.5328  318.5773 H   0  0  0  0  0
   22.6036   79.0022  319.7938 H   0  0  0  0  0
   22.7403   80.6414  318.9774 H   0  0  0  0  0
   24.2158   79.7921  317.3918 H   0  0  0  0  0
   23.9503   78.0882  317.9753 H   0  0  0  0  0
   24.1899   80.3251  320.2769 H   0  0  0  0  0
   20.9799   81.7058  317.6892 H   0  0  0  0  0
   21.9547   81.8285  314.9141 H   0  0  0  0  0
   19.6408   80.9788  314.6545 H   0  0  0  0  0
   19.0321   82.3282  315.6444 H   0  0  0  0  0
   19.7637   82.6504  314.0531 H   0  0  0  0  0
   22.1290   83.9611  314.0425 H   0  0  0  0  0
   22.2949   86.1246  315.9818 H   0  0  0  0  0
   22.6220   87.5751  314.0365 H   0  0  0  0  0
   22.2948   86.1233  312.9669 H   0  0  0  0  0
   24.2337   85.0366  313.9549 H   0  0  0  0  0
   24.5049   86.1855  311.8400 H   0  0  0  0  0
   24.8575   87.7120  312.6866 H   0  0  0  0  0
   25.9820   86.3380  312.8228 H   0  0  0  0  0
   24.7165   87.7493  315.2589 H   0  0  0  0  0
   24.3142   86.2333  316.1020 H   0  0  0  0  0
   25.8707   86.3933  315.2519 H   0  0  0  0  0
   21.1066   88.1891  315.6787 H   0  0  0  0  0
   18.2653   87.7026  315.7984 H   0  0  0  0  0
   19.3616   89.4658  317.0903 H   0  0  0  0  0
   19.8306   90.2900  315.5831 H   0  0  0  0  0
   18.1108   90.1498  316.0233 H   0  0  0  0  0
   16.5937   88.3014  314.3877 H   0  0  0  0  0
   17.3270   88.2427  311.5442 H   0  0  0  0  0
   14.9583   88.3846  311.0787 H   0  0  0  0  0
   14.6379   88.6423  312.8498 H   0  0  0  0  0
   16.5166   86.4714  311.0587 H   0  0  0  0  0
   17.2747   91.8177  310.8357 H   0  0  0  0  0
   17.7841   90.2107  310.3074 H   0  0  0  0  0
  1  2  2  0  0  0
  1  3  1  0  0  0
  1  4  1  0  0  0
  4  5  1  0  0  0
  5  6  1  0  0  0
  5  8  1  0  0  0
  6  7  2  0  0  0
  6  9  1  0  0  0
  9 10  1  0  0  0
 10 11  1  0  0  0
 11 12  2  0  0  0
 11 13  1  0  0  0
 13 14  1  0  0  0
 14 15  1  0  0  0
 14 17  1  0  0  0
 15 16  2  0  0  0
 15 22  1  0  0  0
 17 18  1  0  0  0
 18 19  1  0  0  0
 19 20  2  0  0  0
 19 21  1  0  0  0
 22 23  1  0  0  0
 23 24  1  0  0  0
 23 26  1  0  0  0
 24 25  2  0  0  0
 24 27  1  0  0  0
 27 28  1  0  0  0
 28 29  1  0  0  0
 28 31  1  0  0  0
 29 30  2  0  0  0
 29 35  1  0  0  0
 31 32  1  0  0  0
 32 33  1  0  0  0
 32 34  1  0  0  0
 35 36  1  0  0  0
 36 37  1  0  0  0
 36 39  1  0  0  0
 37 38  2  0  0  0
 37 40  1  0  0  0
 40 41  1  0  0  0
 41 42  1  0  0  0
 41 44  1  0  0  0
 42 43  2  0  0  0
 42 48  1  0  0  0
 44 45  1  0  0  0
 45 46  1  0  0  0
 45 47  2  0  0  0
  3 49  1  0  0  0
  3 50  1  0  0  0
  3 51  1  0  0  0
  4 52  1  0  0  0
  5 53  1  0  0  0
  8 54  1  0  0  0
  8 55  1  0  0  0
  8 56  1  0  0  0
  9 57  1  0  0  0
 10 58  1  0  0  0
 10 59  1  0  0  0
 13 60  1  0  0  0
 14 61  1  0  0  0
 17 62  1  0  0  0
 17 63  1  0  0  0
 18 64  1  0  0  0
 18 65  1  0  0  0
 21 66  1  0  0  0
 22 67  1  0  0  0
 23 68  1  0  0  0
 26 69  1  0  0  0
 26 70  1  0  0  0
 26 71  1  0  0  0
 27 72  1  0  0  0
 28 73  1  0  0  0
 31 74  1  0  0  0
 31 75  1  0  0  0
 32 76  1  0  0  0
 33 77  1  0  0  0
 33 78  1  0  0  0
 33 79  1  0  0  0
 34 80  1  0  0  0
 34 81  1  0  0  0
 34 82  1  0  0  0
 35 83  1  0  0  0
 36 84  1  0  0  0
 39 85  1  0  0  0
 39 86  1  0  0  0
 39 87  1  0  0  0
 40 88  1  0  0  0
 41 89  1  0  0  0
 44 90  1  0  0  0
 44 91  1  0  0  0
 46 92  1  0  0  0
 48 93  1  0  0  0
 48 94  1  0  0  0
M  END
$$$$
