### 
### Created by X-TOOL on Fri Nov  2 10:54:42 2018
### 

@<TRIPOS>MOLECULE
5iz8_ligand
   92    91     1     0     0
SMALL
GAST_HUCK


@<TRIPOS>ATOM
      1 C          17.0620   72.3340  317.7240 C.2       1 ACE         0.1751
      2 O          17.4660   71.9460  316.6380 O.2       1 ACE        -0.3972
      3 CH3        17.2490   71.4880  318.9610 C.3       1 ACE         0.0258
      4 N          16.5360   73.5530  317.9160 N.am      1 ACE        -0.2661
      5 CA         16.6150   74.6200  316.9180 C.3       1 ACE         0.1281
      6 C          18.0340   75.2370  316.6850 C.2       1 ACE         0.2034
      7 O          18.2110   76.0050  315.7720 O.2       1 ACE        -0.3944
      8 CB         15.6490   75.7230  317.2950 C.3       1 ACE        -0.0244
      9 N          19.0200   74.9360  317.5260 N.am      1 ACE        -0.2664
     10 CA         20.2990   75.6280  317.4650 C.3       1 ACE         0.1201
     11 C          20.2210   77.1030  317.8650 C.2       1 ACE         0.2007
     12 O          19.1580   77.6280  318.2490 O.2       1 ACE        -0.3947
     13 N          21.3590   77.7830  317.7270 N.am      1 ACE        -0.2639
     14 CA         21.4680   79.2360  318.0080 C.3       1 ACE         0.1324
     15 C          21.5130   80.0100  316.7150 C.2       1 ACE         0.2040
     16 O          21.8550   79.4600  315.6910 O.2       1 ACE        -0.3944
     17 CB         22.7080   79.5580  318.8620 C.3       1 ACE        -0.0008
     18 CG         24.0300   79.1410  318.2460 C.3       1 ACE         0.0044
     19 CD         25.1950   79.2820  319.1880 C.2       1 ACE         0.0350
     20 OE1        26.2610   78.7070  318.8890 O.co2     1 ACE        -0.5690
     21 OE2        25.0800   79.9690  320.2270 O.co2     1 ACE        -0.5690
     22 N          21.2020   81.2980  316.7810 N.am      1 ACE        -0.2640
     23 CA         21.1670   82.1530  315.5940 C.3       1 ACE         0.1282
     24 C          21.4420   83.6150  315.9270 C.2       1 ACE         0.2036
     25 O          21.3010   84.0190  317.0840 O.2       1 ACE        -0.3944
     26 CB         19.8040   82.0180  314.9400 C.3       1 ACE        -0.0244
     27 N          21.8320   84.3960  314.9160 N.am      1 ACE        -0.2637
     28 CA         21.8470   85.8670  315.0220 C.3       1 ACE         0.1312
     29 C          20.4370   86.4140  314.9620 C.2       1 ACE         0.2039
     30 O          19.4960   85.7000  314.5920 O.2       1 ACE        -0.3944
     31 CB         22.6870   86.4940  313.9140 C.3       1 ACE        -0.0101
     32 CG         24.1740   86.1250  313.9600 C.3       1 ACE        -0.0425
     33 CD1        24.9340   86.6260  312.7400 C.3       1 ACE        -0.0625
     34 CD2        24.8150   86.6640  315.2350 C.3       1 ACE        -0.0625
     35 N          20.2900   87.6750  315.3480 N.am      1 ACE        -0.2640
     36 CA         18.9980   88.3480  315.3140 C.3       1 ACE         0.1282
     37 C          18.5430   88.5920  313.8790 C.2       1 ACE         0.2037
     38 O          19.3670   88.8190  313.0150 O.2       1 ACE        -0.3944
     39 CB         19.0810   89.6540  316.0540 C.3       1 ACE        -0.0244
     40 N          17.2350   88.5190  313.6250 N.am      1 ACE        -0.2622
     41 CA         16.6900   88.7440  312.2730 C.3       1 ACE         0.1420
     42 C          16.6260   90.2290  312.0890 C.2       1 ACE         0.2009
     43 O          16.0270   90.8990  312.9050 O.2       1 ACE        -0.3946
     44 CB         15.2770   88.1760  312.1000 C.3       1 ACE         0.0406
     45 CG         15.2110   86.6640  312.3080 C.2       1 ACE         0.0393
     46 OD1        15.9720   85.9270  311.6320 O.co2     1 ACE        -0.5688
     47 OD2        14.3870   86.2160  313.1440 O.co2     1 ACE        -0.5688
     48 N          17.2910   90.8070  310.9720 N.am      1 ACE        -0.2989
     49 H1         16.8200   72.0089  319.8297 H         1 ACE         0.0467
     50 H2         18.3225   71.3169  319.1294 H         1 ACE         0.0467
     51 H3         16.7406   70.5221  318.8249 H         1 ACE         0.0467
     52 H4         16.0689   73.7409  318.7800 H         1 ACE         0.1882
     53 H5         16.2910   74.1884  315.9595 H         1 ACE         0.0797
     54 H6         15.7033   76.5290  316.5484 H         1 ACE         0.0277
     55 H7         15.9158   76.1216  318.2849 H         1 ACE         0.0277
     56 H8         14.6260   75.3199  317.3256 H         1 ACE         0.0277
     57 H9         18.8799   74.2219  318.2119 H         1 ACE         0.1881
     58 H10        20.6776   75.5675  316.4340 H         1 ACE         0.0763
     59 H11        21.0007   75.1210  318.1436 H         1 ACE         0.0763
     60 H12        22.1749   77.2926  317.4207 H         1 ACE         0.1883
     61 H13        20.5743   79.5457  318.5697 H         1 ACE         0.0801
     62 H14        22.6023   79.0415  319.8274 H         1 ACE         0.0330
     63 H15        22.7359   80.6449  319.0288 H         1 ACE         0.0330
     64 H16        24.2172   79.7689  317.3624 H         1 ACE         0.0433
     65 H17        23.9552   78.0876  317.9382 H         1 ACE         0.0433
     66 H18        20.9843   81.6978  317.6714 H         1 ACE         0.1883
     67 H19        21.9386   81.8076  314.8902 H         1 ACE         0.0797
     68 H20        19.7621   82.6558  314.0448 H         1 ACE         0.0277
     69 H21        19.0241   82.3308  315.6498 H         1 ACE         0.0277
     70 H22        19.6380   80.9696  314.6513 H         1 ACE         0.0277
     71 H23        22.1232   83.9696  314.0596 H         1 ACE         0.1883
     72 H24        22.2894   86.1395  315.9915 H         1 ACE         0.0800
     73 H25        22.6015   87.5877  313.9946 H         1 ACE         0.0315
     74 H26        22.2808   86.1647  312.9463 H         1 ACE         0.0315
     75 H27        24.2475   85.0276  313.9752 H         1 ACE         0.0298
     76 H28        25.9919   86.3359  312.8224 H         1 ACE         0.0232
     77 H29        24.8576   87.7219  312.6849 H         1 ACE         0.0232
     78 H30        24.5019   86.1821  311.8310 H         1 ACE         0.0232
     79 H31        24.2581   86.2959  316.1093 H         1 ACE         0.0232
     80 H32        24.7906   87.7636  315.2212 H         1 ACE         0.0232
     81 H33        25.8585   86.3211  315.2941 H         1 ACE         0.0232
     82 H34        21.0905   88.1790  315.6722 H         1 ACE         0.1883
     83 H35        18.2562   87.7059  315.8115 H         1 ACE         0.0797
     84 H36        18.1024   90.1554  316.0237 H         1 ACE         0.0277
     85 H37        19.8372   90.2968  315.5797 H         1 ACE         0.0277
     86 H38        19.3641   89.4654  317.1001 H         1 ACE         0.0277
     87 H39        16.6062   88.3056  314.3728 H         1 ACE         0.1884
     88 H40        17.3570   88.2904  311.5252 H         1 ACE         0.0819
     89 H41        14.9295   88.4051  311.0818 H         1 ACE         0.0478
     90 H42        14.6130   88.6596  312.8316 H         1 ACE         0.0478
     91 H43        17.2615   91.7964  310.8295 H         1 ACE         0.1815
     92 H44        17.7880   90.2239  310.3293 H         1 ACE         0.1815
@<TRIPOS>BOND
     1    1    2 2  
     2    1    3 1  
     3    1    4 am 
     4    4    5 1  
     5    5    6 1  
     6    5    8 1  
     7    6    7 2  
     8    6    9 am 
     9    9   10 1  
    10   10   11 1  
    11   11   12 2  
    12   11   13 am 
    13   13   14 1  
    14   14   15 1  
    15   14   17 1  
    16   15   16 2  
    17   15   22 am 
    18   17   18 1  
    19   18   19 1  
    20   19   20 ar 
    21   19   21 ar 
    22   22   23 1  
    23   23   24 1  
    24   23   26 1  
    25   24   25 2  
    26   24   27 am 
    27   27   28 1  
    28   28   29 1  
    29   28   31 1  
    30   29   30 2  
    31   29   35 am 
    32   31   32 1  
    33   32   33 1  
    34   32   34 1  
    35   35   36 1  
    36   36   37 1  
    37   36   39 1  
    38   37   38 2  
    39   37   40 am 
    40   40   41 1  
    41   41   42 1  
    42   41   44 1  
    43   42   43 2  
    44   42   48 am 
    45   44   45 1  
    46   45   46 ar 
    47   45   47 ar 
    48    3   49 1  
    49    3   50 1  
    50    3   51 1  
    51    4   52 1  
    52    5   53 1  
    53    8   54 1  
    54    8   55 1  
    55    8   56 1  
    56    9   57 1  
    57   10   58 1  
    58   10   59 1  
    59   13   60 1  
    60   14   61 1  
    61   17   62 1  
    62   17   63 1  
    63   18   64 1  
    64   18   65 1  
    65   22   66 1  
    66   23   67 1  
    67   26   68 1  
    68   26   69 1  
    69   26   70 1  
    70   27   71 1  
    71   28   72 1  
    72   31   73 1  
    73   31   74 1  
    74   32   75 1  
    75   33   76 1  
    76   33   77 1  
    77   33   78 1  
    78   34   79 1  
    79   34   80 1  
    80   34   81 1  
    81   35   82 1  
    82   36   83 1  
    83   39   84 1  
    84   39   85 1  
    85   39   86 1  
    86   40   87 1  
    87   41   88 1  
    88   44   89 1  
    89   44   90 1  
    90   48   91 1  
    91   48   92 1  
@<TRIPOS>SUBSTRUCTURE
     1 ACE         1

