4qhc_ligand
  -I-interpret- 

 47 49  0  0  0  0  0  0  0  0999 V2000
  -10.6880   13.5610   -1.1730 S   0  0  0  0  0
   -9.4370   14.7630   -1.5740 C   0  0  0  0  0
   -9.3050   15.2270   -3.0340 C   0  0  0  0  0
   -9.4250   14.2800   -4.1150 N   0  3  0  0  0
  -10.6410   13.5600   -4.1770 C   0  0  0  0  0
  -10.4960   12.1810   -3.5530 C   0  0  0  0  0
  -11.6840   11.3960   -4.0820 C   0  0  0  0  0
  -12.3480   10.4250   -3.3590 O   0  0  0  0  0
   -7.9310   15.9390   -3.1590 C   0  0  0  0  0
   -7.3590   15.9340   -4.2790 O   0  0  0  0  0
   -7.4370   16.5020   -2.1420 O   0  0  0  0  0
  -10.2920   12.0440   -2.0360 C   0  0  0  0  0
   -8.8100   11.6630   -1.8210 C   0  0  0  0  0
   -8.2620   10.4940   -2.7930 N   0  3  0  0  0
   -7.1850   10.4510   -2.1830 N   0  3  0  0  0
   -7.6860   10.1090   -0.7670 C   0  0  0  0  0
   -8.5470   11.2780   -0.5670 C   0  0  0  0  0
   -6.5980    9.2500   -2.8390 C   0  0  0  0  0
   -5.1500    9.0810   -2.0700 S   0  0  0  0  0
   -5.2170    9.2560   -0.4680 C   0  0  0  0  0
   -6.4220    9.8520    0.2050 C   0  0  0  0  0
   -8.4897   14.2755   -1.3436 H   0  0  0  0  0
   -9.7121   15.6574   -1.0149 H   0  0  0  0  0
  -10.1905   15.8452   -3.1817 H   0  0  0  0  0
   -8.6894   13.5879   -3.9723 H   0  0  0  0  0
   -9.3686   14.8215   -4.9776 H   0  0  0  0  0
  -10.9216   13.4406   -5.2235 H   0  0  0  0  0
  -11.4013   14.1132   -3.6256 H   0  0  0  0  0
   -9.5240   11.7881   -3.8512 H   0  0  0  0  0
  -11.2511   10.8293   -4.9064 H   0  0  0  0  0
  -12.4452   12.1659   -4.2080 H   0  0  0  0  0
  -13.0620   10.0645   -3.8899 H   0  0  0  0  0
   -8.0298   16.3888   -1.3954 H   0  0  0  0  0
  -10.9595   11.2826   -1.6325 H   0  0  0  0  0
   -8.2948   12.5933   -2.0603 H   0  0  0  0  0
   -8.2572   10.6465   -3.8015 H   0  0  0  0  0
   -8.8079    9.6391   -2.9004 H   0  0  0  0  0
   -6.5451   11.2453   -2.1719 H   0  0  0  0  0
   -8.2411    9.1910   -0.5740 H   0  0  0  0  0
   -9.4455   11.0528    0.0075 H   0  0  0  0  0
   -8.0746   12.0589    0.0289 H   0  0  0  0  0
   -6.4933    9.3657   -3.9178 H   0  0  0  0  0
   -7.2306    8.3669   -2.7490 H   0  0  0  0  0
   -4.4184    9.9649   -0.2492 H   0  0  0  0  0
   -5.1872    8.2333   -0.0922 H   0  0  0  0  0
   -6.7461    9.1379    0.9620 H   0  0  0  0  0
   -6.1185   10.8248    0.5919 H   0  0  0  0  0
  1  2  1  0  0  0
  1 12  1  0  0  0
  2  3  1  0  0  0
  3  4  1  0  0  0
  3  9  1  0  0  0
  4  5  1  0  0  0
  5  6  1  0  0  0
  6  7  1  0  0  0
  6 12  1  0  0  0
  7  8  1  0  0  0
  9 10  2  0  0  0
  9 11  1  0  0  0
 12 13  1  0  0  0
 13 14  1  0  0  0
 13 17  1  0  0  0
 14 15  1  0  0  0
 15 16  1  0  0  0
 15 18  1  0  0  0
 16 17  1  0  0  0
 16 21  1  0  0  0
 18 19  1  0  0  0
 19 20  1  0  0  0
 20 21  1  0  0  0
  2 22  1  0  0  0
  2 23  1  0  0  0
  3 24  1  0  0  0
  4 25  1  0  0  0
  4 26  1  0  0  0
  5 27  1  0  0  0
  5 28  1  0  0  0
  6 29  1  0  0  0
  7 30  1  0  0  0
  7 31  1  0  0  0
  8 32  1  0  0  0
 11 33  1  0  0  0
 12 34  1  0  0  0
 13 35  1  0  0  0
 14 36  1  0  0  0
 14 37  1  0  0  0
 15 38  1  0  0  0
 16 39  1  0  0  0
 17 40  1  0  0  0
 17 41  1  0  0  0
 18 42  1  0  0  0
 18 43  1  0  0  0
 20 44  1  0  0  0
 20 45  1  0  0  0
 21 46  1  0  0  0
 21 47  1  0  0  0
M  END
$$$$
