2pv1_ligand
  -I-interpret- 

127130  0  0  0  0  0  0  0  0999 V2000
   23.1870  -20.1590   -7.9520 N   0  3  0  0  0
   22.2630  -19.1060   -7.4390 C   0  0  0  0  0
   22.3760  -18.9880   -5.9340 C   0  0  0  0  0
   22.5280  -19.9990   -5.2240 O   0  0  0  0  0
   20.8100  -19.4410   -7.8070 C   0  0  0  0  0
   20.5780  -19.4830   -9.2670 C   0  0  0  0  0
   20.4200  -20.5990  -10.0490 C   0  0  0  0  0
   20.5720  -18.3620  -10.1570 C   0  0  0  0  0
   20.3260  -20.2360  -11.3720 N   0  0  0  0  0
   20.4150  -18.8670  -11.4640 C   0  0  0  0  0
   20.6880  -16.9720   -9.9720 C   0  0  0  0  0
   20.3760  -18.0390  -12.5860 C   0  0  0  0  0
   20.6480  -16.1450  -11.0840 C   0  0  0  0  0
   20.4950  -16.6800  -12.3780 C   0  0  0  0  0
   22.2920  -17.7640   -5.4320 N   0  0  0  0  0
   22.3630  -17.5420   -3.9960 C   0  0  0  0  0
   20.9750  -17.7540   -3.4100 C   0  0  0  0  0
   20.8230  -18.1800   -2.2670 O   0  0  0  0  0
   22.8540  -16.1250   -3.7130 C   0  0  0  0  0
   22.9780  -15.7890   -2.2430 C   0  0  0  0  0
   23.8210  -16.7980   -1.4950 C   0  0  0  0  0
   24.9070  -17.1570   -2.0050 O   0  0  0  0  0
   23.3990  -17.2240   -0.3980 O   0  0  0  0  0
   19.9580  -17.4590   -4.2120 N   0  0  0  0  0
   18.5750  -17.6150   -3.7970 C   0  0  0  0  0
   17.6860  -17.8620   -5.0150 C   0  0  0  0  0
   17.8200  -17.1670   -6.0300 O   0  0  0  0  0
   18.1150  -16.3630   -3.0480 C   0  0  0  0  0
   16.6190  -16.2250   -3.0000 C   0  0  0  0  0
   15.8270  -17.1880   -2.3740 C   0  0  0  0  0
   15.9880  -15.1750   -3.6580 C   0  0  0  0  0
   14.4400  -17.1090   -2.4230 C   0  0  0  0  0
   14.6130  -15.0840   -3.7110 C   0  0  0  0  0
   13.8470  -16.0540   -3.1000 C   0  0  0  0  0
   12.4840  -15.9850   -3.2270 O   0  0  0  0  0
   16.7890  -18.8450   -4.9250 N   0  0  0  0  0
   15.8540  -19.1590   -6.0130 C   0  0  0  0  0
   14.4440  -19.1370   -5.4240 C   0  0  0  0  0
   14.1140  -19.9320   -4.5510 O   0  0  0  0  0
   16.1100  -20.5620   -6.6450 C   0  0  0  0  0
   17.5350  -20.6350   -7.2130 C   0  0  0  0  0
   15.1000  -20.8260   -7.7640 C   0  0  0  0  0
   17.8830  -21.9710   -7.8220 C   0  0  0  0  0
   13.5980  -18.2020   -5.8730 N   0  0  0  0  0
   12.2430  -18.1500   -5.3230 C   0  0  0  0  0
   11.3900  -19.3420   -5.7090 C   0  0  0  0  0
   11.6190  -20.0160   -6.7180 O   0  0  0  0  0
   11.6880  -16.8210   -5.8600 C   0  0  0  0  0
   12.4350  -16.6200   -7.1170 C   0  0  0  0  0
   13.8420  -17.0900   -6.8040 C   0  0  0  0  0
   10.4010  -19.6030   -4.8680 N   0  0  0  0  0
    9.4700  -20.6810   -5.1060 C   0  0  0  0  0
    8.4840  -20.2180   -6.1710 C   0  0  0  0  0
    8.2110  -19.0090   -6.3020 O   0  0  0  0  0
    8.7060  -21.0080   -3.8220 C   0  0  0  0  0
    9.5630  -21.7240   -2.8030 C   0  0  0  0  0
    9.6050  -21.3360   -1.6390 O   0  0  0  0  0
   10.2510  -22.7770   -3.2360 N   0  0  0  0  0
    7.9660  -21.1570   -6.9520 N   0  0  0  0  0
    6.9690  -20.8180   -7.9600 C   0  0  0  0  0
    5.8030  -21.7840   -7.7940 C   0  0  0  0  0
    5.9880  -22.8170   -7.1030 O   0  0  0  0  0
    7.5390  -20.9010   -9.4170 C   0  0  0  0  0
    8.6780  -19.9130   -9.5800 C   0  0  0  0  0
    8.0070  -22.3140   -9.7420 C   0  0  0  0  0
    4.7240  -21.5070   -8.3500 O   0  0  0  0  0
   24.1460  -19.9208   -7.6990 H   0  0  0  0  0
   22.9386  -21.0581   -7.5393 H   0  0  0  0  0
   23.1060  -20.2155   -8.9672 H   0  0  0  0  0
   22.5452  -18.1589   -7.8988 H   0  0  0  0  0
   20.1739  -18.6590   -7.3923 H   0  0  0  0  0
   20.5859  -20.4298   -7.4068 H   0  0  0  0  0
   20.3755  -21.6224   -9.6766 H   0  0  0  0  0
   20.8071  -16.5531   -8.9728 H   0  0  0  0  0
   20.2561  -18.4497  -13.5885 H   0  0  0  0  0
   20.7361  -15.0662  -10.9552 H   0  0  0  0  0
   20.4700  -16.0056  -13.2340 H   0  0  0  0  0
   22.1762  -16.9685   -6.0599 H   0  0  0  0  0
   23.0643  -18.2402   -3.5391 H   0  0  0  0  0
   22.1188  -15.4409   -4.1368 H   0  0  0  0  0
   23.8506  -16.0391   -4.1461 H   0  0  0  0  0
   21.9783  -15.7940   -1.8086 H   0  0  0  0  0
   23.4596  -14.8149   -2.1573 H   0  0  0  0  0
   25.0299  -16.7063   -2.8437 H   0  0  0  0  0
   20.1549  -17.1114   -5.1505 H   0  0  0  0  0
   18.4966  -18.4738   -3.1303 H   0  0  0  0  0
   18.5121  -15.4955   -3.5752 H   0  0  0  0  0
   18.4750  -16.4384   -2.0219 H   0  0  0  0  0
   16.3012  -18.0117   -1.8404 H   0  0  0  0  0
   16.5927  -14.4080   -4.1419 H   0  0  0  0  0
   13.8264  -17.8666   -1.9355 H   0  0  0  0  0
   14.1363  -14.2531   -4.2310 H   0  0  0  0  0
   12.2493  -15.1957   -3.7205 H   0  0  0  0  0
   16.7511  -19.3988   -4.0693 H   0  0  0  0  0
   15.9878  -18.4220   -6.8049 H   0  0  0  0  0
   15.9943  -21.3191   -5.8694 H   0  0  0  0  0
   18.2231  -20.4674   -6.3844 H   0  0  0  0  0
   17.6069  -19.8893   -8.0048 H   0  0  0  0  0
   14.0902  -20.7958   -7.3548 H   0  0  0  0  0
   15.2045  -20.0614   -8.5338 H   0  0  0  0  0
   15.2885  -21.8081   -8.1976 H   0  0  0  0  0
   17.7976  -22.7483   -7.0627 H   0  0  0  0  0
   17.1970  -22.1850   -8.6416 H   0  0  0  0  0
   18.9049  -21.9414   -8.2001 H   0  0  0  0  0
   12.2406  -18.1974   -4.2340 H   0  0  0  0  0
   11.8214  -15.9979   -5.1580 H   0  0  0  0  0
   10.6094  -16.8501   -6.0145 H   0  0  0  0  0
   12.4152  -15.5795   -7.4413 H   0  0  0  0  0
   11.9949  -17.1741   -7.9461 H   0  0  0  0  0
   14.4034  -17.3864   -7.6901 H   0  0  0  0  0
   14.4730  -16.3073   -6.3829 H   0  0  0  0  0
   10.2942  -19.0287   -4.0318 H   0  0  0  0  0
   10.0053  -21.5730   -5.4314 H   0  0  0  0  0
    7.8759  -21.6644   -4.0832 H   0  0  0  0  0
    8.3737  -20.0684   -3.3805 H   0  0  0  0  0
   10.8446  -23.2986   -2.5911 H   0  0  0  0  0
   10.1849  -23.0628   -4.2129 H   0  0  0  0  0
    8.2682  -22.1254   -6.8461 H   0  0  0  0  0
    6.6520  -19.7853   -7.8146 H   0  0  0  0  0
    6.8899  -22.8235   -6.7743 H   0  0  0  0  0
    6.7425  -20.6452  -10.1158 H   0  0  0  0  0
    8.3114  -18.9037   -9.3927 H   0  0  0  0  0
    9.4688  -20.1516   -8.8688 H   0  0  0  0  0
    9.0695  -19.9761  -10.5953 H   0  0  0  0  0
    8.7907  -22.6056   -9.0428 H   0  0  0  0  0
    7.1665  -23.0026   -9.6556 H   0  0  0  0  0
    8.3974  -22.3411  -10.7593 H   0  0  0  0  0
  1  2  1  0  0  0
  2  3  1  0  0  0
  2  5  1  0  0  0
  3  4  2  0  0  0
  3 15  1  0  0  0
  5  6  1  0  0  0
  6  7  4  0  0  0
  6  8  4  0  0  0
  7  9  4  0  0  0
  8 10  4  0  0  0
  8 11  4  0  0  0
  9 10  4  0  0  0
 10 12  4  0  0  0
 11 13  4  0  0  0
 12 14  4  0  0  0
 13 14  4  0  0  0
 15 16  1  0  0  0
 16 17  1  0  0  0
 16 19  1  0  0  0
 17 18  2  0  0  0
 17 24  1  0  0  0
 19 20  1  0  0  0
 20 21  1  0  0  0
 21 22  1  0  0  0
 21 23  2  0  0  0
 24 25  1  0  0  0
 25 26  1  0  0  0
 25 28  1  0  0  0
 26 27  2  0  0  0
 26 36  1  0  0  0
 28 29  1  0  0  0
 29 30  4  0  0  0
 29 31  4  0  0  0
 30 32  4  0  0  0
 31 33  4  0  0  0
 32 34  4  0  0  0
 33 34  4  0  0  0
 34 35  1  0  0  0
 36 37  1  0  0  0
 37 38  1  0  0  0
 37 40  1  0  0  0
 38 39  2  0  0  0
 38 44  1  0  0  0
 40 41  1  0  0  0
 40 42  1  0  0  0
 41 43  1  0  0  0
 44 45  1  0  0  0
 44 50  1  0  0  0
 45 46  1  0  0  0
 45 48  1  0  0  0
 46 47  2  0  0  0
 46 51  1  0  0  0
 48 49  1  0  0  0
 49 50  1  0  0  0
 51 52  1  0  0  0
 52 53  1  0  0  0
 52 55  1  0  0  0
 53 54  2  0  0  0
 53 59  1  0  0  0
 55 56  1  0  0  0
 56 57  2  0  0  0
 56 58  1  0  0  0
 59 60  1  0  0  0
 60 61  1  0  0  0
 60 63  1  0  0  0
 61 62  1  0  0  0
 61 66  2  0  0  0
 63 64  1  0  0  0
 63 65  1  0  0  0
  1 67  1  0  0  0
  1 68  1  0  0  0
  1 69  1  0  0  0
  2 70  1  0  0  0
  5 71  1  0  0  0
  5 72  1  0  0  0
  7 73  1  0  0  0
 11 74  1  0  0  0
 12 75  1  0  0  0
 13 76  1  0  0  0
 14 77  1  0  0  0
 15 78  1  0  0  0
 16 79  1  0  0  0
 19 80  1  0  0  0
 19 81  1  0  0  0
 20 82  1  0  0  0
 20 83  1  0  0  0
 22 84  1  0  0  0
 24 85  1  0  0  0
 25 86  1  0  0  0
 28 87  1  0  0  0
 28 88  1  0  0  0
 30 89  1  0  0  0
 31 90  1  0  0  0
 32 91  1  0  0  0
 33 92  1  0  0  0
 35 93  1  0  0  0
 36 94  1  0  0  0
 37 95  1  0  0  0
 40 96  1  0  0  0
 41 97  1  0  0  0
 41 98  1  0  0  0
 42 99  1  0  0  0
 42100  1  0  0  0
 42101  1  0  0  0
 43102  1  0  0  0
 43103  1  0  0  0
 43104  1  0  0  0
 45105  1  0  0  0
 48106  1  0  0  0
 48107  1  0  0  0
 49108  1  0  0  0
 49109  1  0  0  0
 50110  1  0  0  0
 50111  1  0  0  0
 51112  1  0  0  0
 52113  1  0  0  0
 55114  1  0  0  0
 55115  1  0  0  0
 58116  1  0  0  0
 58117  1  0  0  0
 59118  1  0  0  0
 60119  1  0  0  0
 62120  1  0  0  0
 63121  1  0  0  0
 64122  1  0  0  0
 64123  1  0  0  0
 64124  1  0  0  0
 65125  1  0  0  0
 65126  1  0  0  0
 65127  1  0  0  0
M  END
$$$$
