3i0r_ligand
  -I-interpret- 

 49 51  0  0  0  0  0  0  0  0999 V2000
    8.2530    4.7270   14.0780 O   0  0  0  0  0
    6.8620    4.9410   13.7840 S   0  0  0  0  0
    6.0660    4.2760   14.7800 O   0  0  0  0  0
    6.5360    4.3900   12.3100 N   0  0  0  0  0
    6.6060    6.5250   13.8310 C   0  0  0  0  0
    6.4210    7.1350   15.0630 C   0  0  0  0  0
    6.2070    8.4990   15.1400 C   0  0  0  0  0
    5.9710    9.2100   16.7590 Cl  0  0  0  0  0
    6.5820    7.2970   12.6630 C   0  0  0  0  0
    6.3690    8.6770   12.6920 C   0  0  0  0  0
    6.1780    9.3280   13.9050 C   0  0  0  0  0
    5.9700   10.6740   13.9580 N   0  0  0  0  0
    6.5300   11.5190   13.0840 C   0  0  0  0  0
    5.9060   12.1290   12.2340 O   0  0  0  0  0
    8.0190   11.7290   13.1630 C   0  0  0  0  0
    8.3700   13.1350   14.1740 S   0  0  0  0  0
    9.3080   12.6630   15.4720 C   0  0  0  0  0
    8.8640   11.8220   16.2320 O   0  0  0  0  0
   10.4570   13.2820   15.6930 N   0  0  0  0  0
   11.4260   13.6800   14.6800 C   0  0  0  0  0
   10.6450   13.6160   17.0300 C   0  0  0  0  0
    9.6870   13.2440   17.9570 C   0  0  0  0  0
   11.8230   14.3560   17.4820 C   0  0  0  0  0
   12.8510   14.7580   16.4590 C   0  0  0  0  0
   12.7920   13.7110   15.3570 C   0  0  0  0  0
   11.9320   14.6460   18.8350 C   0  0  0  0  0
   10.9430   14.2490   19.7280 C   0  0  0  0  0
   11.0550   14.5570   21.1910 C   0  0  0  0  0
    9.8360   13.5550   19.2960 C   0  0  0  0  0
    7.2756    3.9688   11.7478 H   0  0  0  0  0
    5.5895    4.4614   11.9366 H   0  0  0  0  0
    6.4444    6.5369   15.9739 H   0  0  0  0  0
    6.7342    6.8059   11.7019 H   0  0  0  0  0
    6.3525    9.2445   11.7616 H   0  0  0  0  0
    5.3666   11.0504   14.6892 H   0  0  0  0  0
    8.4136   11.8972   12.1610 H   0  0  0  0  0
    8.4857   10.8455   13.5986 H   0  0  0  0  0
   11.1761   14.6590   14.2710 H   0  0  0  0  0
   11.4243   12.9766   13.8474 H   0  0  0  0  0
    8.8030   12.6984   17.6270 H   0  0  0  0  0
   13.8460   14.8046   16.9016 H   0  0  0  0  0
   12.6428   15.7528   16.0651 H   0  0  0  0  0
   13.5416   13.9606   14.6060 H   0  0  0  0  0
   12.9766   12.7334   15.8023 H   0  0  0  0  0
   12.8022   15.1907   19.2013 H   0  0  0  0  0
   11.9581   14.0953   21.5901 H   0  0  0  0  0
   11.1052   15.6368   21.3309 H   0  0  0  0  0
   10.1828   14.1621   21.7119 H   0  0  0  0  0
    9.0735   13.2492   20.0123 H   0  0  0  0  0
  1  2  2  0  0  0
  2  3  2  0  0  0
  2  4  1  0  0  0
  2  5  1  0  0  0
  5  6  4  0  0  0
  5  9  4  0  0  0
  6  7  4  0  0  0
  7  8  1  0  0  0
  7 11  4  0  0  0
  9 10  4  0  0  0
 10 11  4  0  0  0
 11 12  1  0  0  0
 12 13  1  0  0  0
 13 14  2  0  0  0
 13 15  1  0  0  0
 15 16  1  0  0  0
 16 17  1  0  0  0
 17 18  2  0  0  0
 17 19  1  0  0  0
 19 20  1  0  0  0
 19 21  1  0  0  0
 20 25  1  0  0  0
 21 22  4  0  0  0
 21 23  4  0  0  0
 22 29  4  0  0  0
 23 24  1  0  0  0
 23 26  4  0  0  0
 24 25  1  0  0  0
 26 27  4  0  0  0
 27 28  1  0  0  0
 27 29  4  0  0  0
  4 30  1  0  0  0
  4 31  1  0  0  0
  6 32  1  0  0  0
  9 33  1  0  0  0
 10 34  1  0  0  0
 12 35  1  0  0  0
 15 36  1  0  0  0
 15 37  1  0  0  0
 20 38  1  0  0  0
 20 39  1  0  0  0
 22 40  1  0  0  0
 24 41  1  0  0  0
 24 42  1  0  0  0
 25 43  1  0  0  0
 25 44  1  0  0  0
 26 45  1  0  0  0
 28 46  1  0  0  0
 28 47  1  0  0  0
 28 48  1  0  0  0
 29 49  1  0  0  0
M  END
$$$$
