4el5_ligand
  -I-interpret- 

 34 35  0  0  0  0  0  0  0  0999 V2000
   34.0970   23.5080   28.8070 N   0  0  0  0  0
   33.4940   24.3630   29.7650 C   0  0  0  0  0
   32.2810   24.5700   29.7880 O   0  0  0  0  0
   34.3190   25.0370   30.6860 N   0  0  0  0  0
   35.6730   24.8070   30.7000 C   0  0  0  0  0
   36.3040   25.4480   31.5220 O   0  0  0  0  0
   36.2930   23.9010   29.8070 C   0  0  0  0  0
   35.5090   23.2790   28.8380 C   0  0  0  0  0
   37.7090   23.6930   29.9160 C   0  0  0  0  0
   38.8770   23.5610   30.0590 C   0  0  0  0  0
   33.2130   22.8510   27.8510 C   0  0  0  0  0
   33.6980   23.1810   26.3430 C   0  0  0  0  0
   33.8760   24.5750   26.1550 O   0  0  0  0  0
   32.6530   22.5760   25.4220 C   0  0  0  0  0
   33.0970   22.6460   24.0540 O   0  0  0  0  0
   32.4640   21.0920   25.8560 C   0  0  0  0  0
   31.3330   20.5960   25.1590 O   0  0  0  0  0
   32.2310   20.8620   27.4180 C   0  0  0  0  0
   33.2810   21.4310   28.1410 O   0  0  0  0  0
   32.1090   19.2830   27.7460 C   0  0  0  0  0
   33.3190   18.6990   27.2360 O   0  0  0  0  0
   33.9093   25.6987   31.3454 H   0  0  0  0  0
   35.9708   22.6185   28.1041 H   0  0  0  0  0
   32.1841   23.2012   27.9337 H   0  0  0  0  0
   34.6748   22.7496   26.1245 H   0  0  0  0  0
   34.1630   24.7412   25.2541 H   0  0  0  0  0
   31.7112   23.1203   25.4919 H   0  0  0  0  0
   32.4291   22.2611   23.4819 H   0  0  0  0  0
   33.3933   20.5734   25.6202 H   0  0  0  0  0
   31.1851   19.6793   25.4026 H   0  0  0  0  0
   31.2980   21.3436   27.7107 H   0  0  0  0  0
   31.2244   18.8433   27.2853 H   0  0  0  0  0
   31.9936   19.1015   28.8146 H   0  0  0  0  0
   33.3104   17.7532   27.4001 H   0  0  0  0  0
  1  2  1  0  0  0
  1  8  1  0  0  0
  1 11  1  0  0  0
  2  3  2  0  0  0
  2  4  1  0  0  0
  4  5  1  0  0  0
  5  6  2  0  0  0
  5  7  1  0  0  0
  7  8  2  0  0  0
  7  9  1  0  0  0
  9 10  3  0  0  0
 11 12  1  0  0  0
 11 19  1  0  0  0
 12 13  1  0  0  0
 12 14  1  0  0  0
 14 15  1  0  0  0
 14 16  1  0  0  0
 16 17  1  0  0  0
 16 18  1  0  0  0
 18 19  1  0  0  0
 18 20  1  0  0  0
 20 21  1  0  0  0
  4 22  1  0  0  0
  8 23  1  0  0  0
 11 24  1  0  0  0
 12 25  1  0  0  0
 13 26  1  0  0  0
 14 27  1  0  0  0
 15 28  1  0  0  0
 16 29  1  0  0  0
 17 30  1  0  0  0
 18 31  1  0  0  0
 20 32  1  0  0  0
 20 33  1  0  0  0
 21 34  1  0  0  0
M  END
$$$$
