#	Name:			2eep_ligand
#	Creating user name:	wangrx
#	Creation time:		Wed Aug  4 16:25:46 2021

#	Modifying user name:	wangrx
#	Modification time:	Wed Aug  4 16:26:20 2021

@<TRIPOS>MOLECULE
2eep_ligand
   50    50     1     0     0
SMALL
GAST_HUCK


@<TRIPOS>ATOM
      1 O2         -7.2690   43.5860   67.0440 O.2       1 AIO        -0.3969 
      2 C9         -7.4960   43.4970   65.8620 C.2       1 AIO         0.1760 
      3 C4         -7.0760   44.6040   64.9320 C.3       1 AIO         0.1312 
      4 C5         -5.5370   44.5690   64.9420 C.3       1 AIO        -0.0038 
      5 C7         -4.8600   45.6980   64.1670 C.3       1 AIO        -0.0491 
      6 C8         -5.1740   45.6940   62.7070 C.3       1 AIO        -0.0648 
      7 C6         -4.9800   43.2060   64.5100 C.3       1 AIO        -0.0582 
      8 N2         -7.4780   45.8550   65.5150 N.am      1 AIO        -0.2608 
      9 C3         -8.6960   46.3900   65.3370 C.2       1 AIO         0.2264 
     10 O1         -9.6350   45.7640   64.8660 O.2       1 AIO        -0.3907 
     11 C1         -8.8930   47.8280   65.7670 C.3       1 AIO         0.0621 
     12 C2         -9.3030   47.7630   67.2480 C.3       1 AIO        -0.0040 
     13 N1         -9.9680   48.4590   64.9700 N.4       1 AIO         0.2377 
     14 N3         -8.1170   42.4260   65.4310 N.am      1 AIO        -0.4230 
     15 C13        -8.4860   42.0360   64.0710 C.3       1 AIO         0.0013 
     16 C12        -9.2600   40.7240   64.2730 C.3       1 AIO        -0.0604 
     17 C11        -9.5930   40.6500   65.7550 C.3       1 AIO        -0.1589 
     18 C10        -8.5390   41.4710   66.4720 C.3       1 AIO        -0.2232 
     19 B          -7.2270   40.6280   66.9520 B         1 AIO         3.0000 
     20 O4         -6.2740   41.1110   68.0600 O.3       1 AIO        -0.4105 
     21 O3         -6.5120   39.7740   65.9190 O.3       1 AIO        -0.4105 
     22 H1         -7.4901   44.4755   63.9211 H         1 AIO         0.0802 
     23 H2         -5.2445   44.7063   65.9935 H         1 AIO         0.0345 
     24 H3         -3.7712   45.5990   64.2886 H         1 AIO         0.0267 
     25 H4         -5.1906   46.6576   64.5910 H         1 AIO         0.0267 
     26 H5         -4.6540   46.5309   62.2179 H         1 AIO         0.0230 
     27 H6         -6.2593   45.8035   62.5650 H         1 AIO         0.0230 
     28 H7         -4.8399   44.7448   62.2627 H         1 AIO         0.0230 
     29 H8         -5.4800   42.4085   65.0792 H         1 AIO         0.0235 
     30 H9         -3.8981   43.1732   64.7060 H         1 AIO         0.0235 
     31 H10        -5.1626   43.0592   63.4353 H         1 AIO         0.0235 
     32 H11        -6.8185   46.3504   66.0803 H         1 AIO         0.1885 
     33 H12        -7.9601   48.3985   65.6479 H         1 AIO         0.1095 
     34 H13        -9.4639   48.7823   67.6290 H         1 AIO         0.0310 
     35 H14        -8.5052   47.2764   67.8283 H         1 AIO         0.0310 
     36 H15       -10.2331   47.1839   67.3459 H         1 AIO         0.0310 
     37 H16        -9.6902   48.4970   64.0018 H         1 AIO         0.2015 
     38 H17       -10.1332   49.3938   65.3091 H         1 AIO         0.2015 
     39 H18       -10.8129   47.9161   65.0560 H         1 AIO         0.2015 
     40 H19        -7.5914   41.8736   63.4519 H         1 AIO         0.0495 
     41 H20        -9.1230   42.8002   63.6017 H         1 AIO         0.0495 
     42 H21        -8.6382   39.8656   63.9789 H         1 AIO         0.0260 
     43 H22       -10.1832   40.7302   63.6749 H         1 AIO         0.0260 
     44 H23        -9.5620   39.6061   66.1003 H         1 AIO        -0.0065 
     45 H24       -10.5931   41.0684   65.9416 H         1 AIO        -0.0065 
     46 H25        -8.9651   41.9930   67.3414 H         1 AIO        -0.1820 
     47 H27        -5.8992   40.3592   68.5038 H         1 AIO         0.2052 
     48 H28        -5.8992   40.3592   68.5038 H         1 AIO         0.2052 
     49 H29        -5.8190   40.2824   65.5143 H         1 AIO         0.2052 
     50 H30        -5.8191   40.2824   65.5143 H         1 AIO         0.2052 
@<TRIPOS>BOND
     1    1    2 2    
     2    2    3 1    
     3    2   14 am   
     4    3    4 1    
     5    3    8 1    
     6    4    5 1    
     7    4    7 1    
     8    5    6 1    
     9    8    9 am   
    10    9   10 2    
    11    9   11 1    
    12   11   12 1    
    13   11   13 1    
    14   14   15 1    
    15   14   18 1    
    16   15   16 1    
    17   16   17 1    
    18   17   18 1    
    19   18   19 1    
    20   19   20 1    
    21   19   21 1    
    22    3   22 1    
    23    4   23 1    
    24    5   24 1    
    25    5   25 1    
    26    6   26 1    
    27    6   27 1    
    28    6   28 1    
    29    7   29 1    
    30    7   30 1    
    31    7   31 1    
    32    8   32 1    
    33   11   33 1    
    34   12   34 1    
    35   12   35 1    
    36   12   36 1    
    37   13   37 1    
    38   13   38 1    
    39   13   39 1    
    40   15   40 1    
    41   15   41 1    
    42   16   42 1    
    43   16   43 1    
    44   17   44 1    
    45   17   45 1    
    46   18   46 1    
    47   20   47 1    
    48   20   48 1    
    49   21   49 1    
    50   21   50 1    
@<TRIPOS>SUBSTRUCTURE
     1 AIO         1 PERM              0 ****  ****    0 ROOT 
