2eep_ligand

Created by X-TOOL on Fri Nov 18 15:10:27 2016
 51 51  0  0  0  0  0  0  0  0999 V2000
   -7.2690   43.5860   67.0440  O 0  0  0  1  0  1
   -7.4960   43.4970   65.8620  C 0  0  0  1  0  3
   -7.0760   44.6040   64.9320  C 0  0  0  2  0  4
   -5.5370   44.5690   64.9420  C 0  0  0  2  0  4
   -4.8600   45.6980   64.1670  C 0  0  0  3  0  4
   -5.1740   45.6940   62.7070  C 0  0  0  4  0  4
   -4.9800   43.2060   64.5100  C 0  0  0  4  0  4
   -7.4780   45.8550   65.5150  N 0  0  0  2  0  3
   -8.6960   46.3900   65.3370  C 0  0  0  1  0  3
   -9.6350   45.7640   64.8660  O 0  0  0  1  0  1
   -8.8930   47.8280   65.7670  C 0  0  0  2  0  4
   -9.3030   47.7630   67.2480  C 0  0  0  4  0  4
   -9.9680   48.4590   64.9700  N 0  3  0  4  0  4
   -8.1170   42.4260   65.4310  N 0  0  0  1  0  3
   -8.4860   42.0360   64.0710  C 0  0  0  3  0  4
   -9.2600   40.7240   64.2730  C 0  0  0  3  0  4
   -9.5930   40.6500   65.7550  C 0  0  0  3  0  4
   -8.5390   41.4710   66.4720  C 0  0  0  3  0  5
   -7.2270   40.6280   66.9520  B 0  0  0  1  0  3
   -6.2740   41.1110   68.0600  O 0  0  0  3  0  3
   -6.5120   39.7740   65.9190  O 0  0  0  3  0  3
   -7.4901   44.4755   63.9211  H 0  0  0  1  0  1
   -5.2445   44.7063   65.9935  H 0  0  0  1  0  1
   -3.7712   45.5990   64.2886  H 0  0  0  1  0  1
   -5.1906   46.6576   64.5910  H 0  0  0  1  0  1
   -4.6540   46.5309   62.2179  H 0  0  0  1  0  1
   -6.2593   45.8035   62.5650  H 0  0  0  1  0  1
   -4.8399   44.7448   62.2627  H 0  0  0  1  0  1
   -5.4800   42.4085   65.0792  H 0  0  0  1  0  1
   -3.8981   43.1732   64.7060  H 0  0  0  1  0  1
   -5.1626   43.0592   63.4353  H 0  0  0  1  0  1
   -6.8185   46.3504   66.0803  H 0  0  0  1  0  1
   -7.9601   48.3985   65.6479  H 0  0  0  1  0  1
   -9.4639   48.7823   67.6290  H 0  0  0  1  0  1
   -8.5052   47.2764   67.8283  H 0  0  0  1  0  1
  -10.2331   47.1839   67.3459  H 0  0  0  1  0  1
   -9.6902   48.4970   64.0018  H 0  0  0  1  0  1
  -10.1332   49.3938   65.3091  H 0  0  0  1  0  1
  -10.8129   47.9161   65.0560  H 0  0  0  1  0  1
   -7.5914   41.8736   63.4519  H 0  0  0  1  0  1
   -9.1230   42.8002   63.6017  H 0  0  0  1  0  1
   -8.6382   39.8656   63.9789  H 0  0  0  1  0  1
  -10.1832   40.7302   63.6749  H 0  0  0  1  0  1
   -9.5620   39.6061   66.1003  H 0  0  0  1  0  1
  -10.5931   41.0684   65.9416  H 0  0  0  1  0  1
   -8.9651   41.9930   67.3414  H 0  0  0  1  0  1
   -7.6983   40.8411   66.7982  H 0  0  0  1  0  1
   -5.8992   40.3592   68.5038  H 0  0  0  1  0  1
   -5.8992   40.3592   68.5038  H 0  0  0  1  0  1
   -5.8190   40.2824   65.5143  H 0  0  0  1  0  1
   -5.8191   40.2824   65.5143  H 0  0  0  1  0  1
  1  2  2  0  0  2
  2  3  1  0  0  2
  2 14  1  0  0  2
  3  4  1  0  0  2
  3  8  1  0  0  2
  4  5  1  0  0  2
  4  7  1  0  0  2
  5  6  1  0  0  2
  8  9  1  0  0  2
  9 10  2  0  0  2
  9 11  1  0  0  2
 11 12  1  0  0  2
 11 13  1  0  0  2
 14 15  1  0  0  1
 14 18  1  0  0  1
 15 16  1  0  0  1
 16 17  1  0  0  1
 17 18  1  0  0  1
 18 19  1  0  0  2
 19 20  1  0  0  2
 19 21  1  0  0  2
  3 22  1  0  0  2
  4 23  1  0  0  2
  5 24  1  0  0  2
  5 25  1  0  0  2
  6 26  1  0  0  2
  6 27  1  0  0  2
  6 28  1  0  0  2
  7 29  1  0  0  2
  7 30  1  0  0  2
  7 31  1  0  0  2
  8 32  1  0  0  2
 11 33  1  0  0  2
 12 34  1  0  0  2
 12 35  1  0  0  2
 12 36  1  0  0  2
 13 37  1  0  0  2
 13 38  1  0  0  2
 13 39  1  0  0  2
 15 40  1  0  0  2
 15 41  1  0  0  2
 16 42  1  0  0  2
 16 43  1  0  0  2
 17 44  1  0  0  2
 17 45  1  0  0  2
 18 46  1  0  0  2
 18 47  1  0  0  2
 20 48  1  0  0  2
 20 49  1  0  0  2
 21 50  1  0  0  2
 21 51  1  0  0  2
M  END
> <MOLECULAR_FORMULA>
C13H30N3O4B

> <MOLECULAR_WEIGHT>
303.0

> <NUM_HB_ATOMS>
6  

> <NUM_ROTOR>
6  

> <XLOGP2>
-0.59

$$$$
