4efu_ligand
  -I-interpret- 

 51 54  0  0  0  0  0  0  0  0999 V2000
   -0.8670   11.0920   25.7270 C   0  0  0  0  0
   -2.0350   11.4780   25.0190 C   0  0  0  0  0
   -1.9520   12.1840   23.8320 C   0  0  0  0  0
    0.4070   11.3700   25.1900 C   0  0  0  0  0
   -3.2590   11.2620   25.5550 O   0  0  0  0  0
   -0.9670   10.3650   27.0270 C   0  0  0  0  0
   -0.6750    9.0290   27.1470 N   0  0  0  0  0
   -1.2970   11.0130   28.0170 O   0  0  0  0  0
    0.4920   12.0110   23.9430 C   0  0  0  0  0
   -0.6930   12.4380   23.2730 C   0  0  0  0  0
   -0.3000   13.0240   22.1060 N   0  0  0  0  0
    1.0920   12.9610   22.0130 N   0  0  0  0  0
    1.6040   12.4290   23.0900 C   0  0  0  0  0
    3.0700   12.1190   23.2900 C   0  0  0  0  0
    3.7460   12.7600   24.4760 C   0  0  0  0  0
    4.1470   11.9790   25.5600 C   0  0  0  0  0
    5.1760   13.9040   26.6000 C   0  0  0  0  0
    4.7870   14.6690   25.5020 C   0  0  0  0  0
    4.8740   12.5480   26.6140 C   0  0  0  0  0
    4.0760   14.1130   24.4390 C   0  0  0  0  0
   -0.7630    8.3780   28.4660 C   0  0  0  0  0
   -0.3610    8.1380   26.0060 C   0  0  0  0  0
    1.0610    8.1090   25.5040 C   0  0  0  0  0
    1.2560    7.8480   24.1460 C   0  0  0  0  0
    3.6370    8.0370   24.4320 C   0  0  0  0  0
    3.4430    8.3040   25.7870 C   0  0  0  0  0
    2.5390    7.8170   23.6040 C   0  0  0  0  0
    2.1600    8.3360   26.3330 C   0  0  0  0  0
    5.1260   16.1190   25.4630 C   0  0  0  0  0
   -2.8563   12.5386   23.3374 H   0  0  0  0  0
    1.3102   11.0922   25.7333 H   0  0  0  0  0
   -3.9328   11.5802   24.9498 H   0  0  0  0  0
    3.5806   12.5076   22.4089 H   0  0  0  0  0
    3.1279   11.0436   23.4582 H   0  0  0  0  0
    3.8932   10.9193   25.5873 H   0  0  0  0  0
    5.7082   14.3618   27.4338 H   0  0  0  0  0
    5.2031   11.9258   27.4462 H   0  0  0  0  0
    3.7820   14.7295   23.5895 H   0  0  0  0  0
   -1.5479    7.6220   28.4450 H   0  0  0  0  0
    0.1911    7.9065   28.7014 H   0  0  0  0  0
   -0.9971    9.1256   29.2239 H   0  0  0  0  0
   -0.9551    8.5133   25.1728 H   0  0  0  0  0
   -0.5634    7.1280   26.3624 H   0  0  0  0  0
    0.3948    7.6665   23.5030 H   0  0  0  0  0
    4.6462    8.0006   24.0217 H   0  0  0  0  0
    4.3051    8.4901   26.4275 H   0  0  0  0  0
    2.6822    7.6223   22.5411 H   0  0  0  0  0
    2.0176    8.5360   27.3950 H   0  0  0  0  0
    4.6698   16.6206   26.3165 H   0  0  0  0  0
    6.2085   16.2390   25.5055 H   0  0  0  0  0
    4.7469   16.5547   24.5386 H   0  0  0  0  0
  1  2  4  0  0  0
  1  4  4  0  0  0
  6  1  1  0  0  0
  2  3  4  0  0  0
  2  5  1  0  0  0
  3 10  4  0  0  0
  4  9  4  0  0  0
  7  6  1  0  0  0
  6  8  2  0  0  0
  7 21  1  0  0  0
 22  7  1  0  0  0
  9 10  4  0  0  0
  9 13  4  0  0  0
 10 11  4  0  0  0
 12 11  4  0  0  0
 13 12  4  0  0  0
 13 14  1  0  0  0
 14 15  1  0  0  0
 15 16  4  0  0  0
 15 20  4  0  0  0
 16 19  4  0  0  0
 18 17  4  0  0  0
 19 17  4  0  0  0
 20 18  4  0  0  0
 18 29  1  0  0  0
 23 22  1  0  0  0
 24 23  4  0  0  0
 23 28  4  0  0  0
 27 24  4  0  0  0
 25 26  4  0  0  0
 25 27  4  0  0  0
 26 28  4  0  0  0
  3 30  1  0  0  0
  4 31  1  0  0  0
  5 32  1  0  0  0
 14 33  1  0  0  0
 14 34  1  0  0  0
 16 35  1  0  0  0
 17 36  1  0  0  0
 19 37  1  0  0  0
 20 38  1  0  0  0
 21 39  1  0  0  0
 21 40  1  0  0  0
 21 41  1  0  0  0
 22 42  1  0  0  0
 22 43  1  0  0  0
 24 44  1  0  0  0
 25 45  1  0  0  0
 26 46  1  0  0  0
 27 47  1  0  0  0
 28 48  1  0  0  0
 29 49  1  0  0  0
 29 50  1  0  0  0
 29 51  1  0  0  0
M  END
$$$$
