5nzp_ligand
  -I-interpret- 

 15 16  0  0  0  0  0  0  0  0999 V2000
  -26.3660   12.5280    6.0380 C   0  0  0  0  0
  -26.6240   13.8830    6.1030 C   0  0  0  0  0
  -26.1380   14.6650    7.1250 C   0  0  0  0  0
  -26.5940   16.0000    6.8980 C   0  0  0  0  0
  -27.2880   16.0350    5.7770 N   0  0  0  0  0
  -25.5640   11.9810    7.0500 C   0  0  0  0  0
  -25.3740   14.1230    8.1500 C   0  0  0  0  0
  -25.0770   12.7680    8.0880 C   0  0  0  0  0
  -27.3600   14.6690    5.2730 O   0  0  0  0  0
  -26.3300   17.0150    7.7270 O   0  0  0  0  0
  -26.7683   11.9104    5.2350 H   0  0  0  0  0
  -27.6976   16.8627    5.3439 H   0  0  0  0  0
  -25.3178   10.9195    7.0225 H   0  0  0  0  0
  -25.0194   14.7403    8.9754 H   0  0  0  0  0
  -24.4555   12.3163    8.8612 H   0  0  0  0  0
  1  2  4  0  0  0
  1  6  4  0  0  0
  2  3  4  0  0  0
  2  9  1  0  0  0
  3  4  1  0  0  0
  3  7  4  0  0  0
  4  5  1  0  0  0
  4 10  2  0  0  0
  5  9  1  0  0  0
  6  8  4  0  0  0
  7  8  4  0  0  0
  1 11  1  0  0  0
  5 12  1  0  0  0
  6 13  1  0  0  0
  7 14  1  0  0  0
  8 15  1  0  0  0
M  END
$$$$
