4urm_ligand
  -I-interpret- 

123128  0  0  0  0  0  0  0  0999 V2000
   38.0370   -3.1510   21.4030 C   0  0  0  0  0
   37.6370   -1.6960   21.1580 C   0  0  0  0  0
   37.1570   -1.4100   19.7510 C   0  0  0  0  0
   39.4470   -3.4410   20.8990 C   0  0  0  0  0
   38.0940    1.2280   34.1380 Cl  0  0  0  0  0
   37.9040    1.5720   35.8150 C   0  0  0  0  0
   36.6500    1.8840   36.4010 C   0  0  0  0  0
   35.2070    2.0290   35.4740 Cl  0  0  0  0  0
   36.8980    2.0430   37.7730 C   0  0  0  0  0
   35.9670    2.2790   38.9180 C   0  0  0  0  0
   38.2320    1.8730   37.9860 N   0  0  0  0  0
   38.8660    1.5720   36.8100 C   0  0  0  0  0
   40.3250    1.3480   36.8210 C   0  0  0  0  0
   40.9610    1.5220   37.8550 O   0  0  0  0  0
   40.8930    0.9980   35.6590 N   0  0  0  0  0
   42.2540    0.3620   35.4990 C   0  0  0  0  0
   42.0700   -1.1570   35.3140 C   0  0  0  0  0
   43.0570    1.1030   34.3250 C   0  0  0  0  0
   42.3580    0.9410   32.9410 C   0  0  0  0  0
   43.0160    2.4910   34.6970 O   0  0  0  0  0
   44.5870    0.6500   34.1770 C   0  0  0  0  0
   45.2070    1.1300   35.3580 O   0  0  0  0  0
   45.2200    1.3180   32.9620 C   0  0  0  0  0
   46.6630    0.9190   32.7580 C   0  0  0  0  0
   44.5020    0.9460   31.7670 O   0  0  0  0  0
   43.1440    1.3750   31.7200 C   0  0  0  0  0
   42.4760    0.9390   30.5390 O   0  0  0  0  0
   42.9370    1.5520   29.3040 C   0  0  0  0  0
   42.4210    2.9870   29.2900 C   0  0  0  0  0
   42.6300    3.6580   27.9260 C   0  0  0  0  0
   42.1430    2.7530   26.8270 C   0  0  0  0  0
   41.0920    3.0400   26.0790 C   0  0  0  0  0
   42.9460    1.4630   26.7740 C   0  0  0  0  0
   42.5650    0.6460   28.0440 C   0  0  0  0  0
   43.3390   -0.6430   28.0560 C   0  0  0  0  0
   43.8300   -1.2560   26.9810 C   0  0  0  0  0
   43.7160   -0.7640   25.5630 C   0  0  0  0  0
   45.0890   -0.6860   24.8930 C   0  0  0  0  0
   42.8860    0.5390   25.5240 C   0  0  0  0  0
   43.1600    1.3000   24.1790 C   0  0  0  0  0
   44.1530    2.2220   24.0920 O   0  0  0  0  0
   42.4360    1.0580   23.0360 C   0  0  0  0  0
   41.4110    0.0440   22.9450 C   0  0  0  0  0
   41.0040   -0.7320   23.8000 O   0  0  0  0  0
   42.5390    1.7060   21.7290 C   0  0  0  0  0
   43.4130    2.4480   21.3100 O   0  0  0  0  0
   41.3700    1.1810   20.8300 C   0  0  0  0  0
   40.2300    2.2250   20.6730 C   0  0  0  0  0
   40.7530    3.6490   20.4960 C   0  0  0  0  0
   39.2640    1.8620   19.5390 C   0  0  0  0  0
   40.8920    0.0570   21.6390 N   0  0  0  0  0
   40.0690   -1.0750   21.0980 C   0  0  0  0  0
   40.4350   -2.4850   21.5460 C   0  0  0  0  0
   41.7960   -2.9010   21.3690 O   0  0  0  0  0
   42.5260   -2.3260   20.2770 C   0  0  0  0  0
   38.7230   -0.7910   21.4590 O   0  0  0  0  0
   37.0990   -4.0310   20.7480 O   0  0  0  0  0
   36.7470   -5.2980   21.2620 C   0  0  0  0  0
   35.6310   -5.7350   21.0910 O   0  0  0  0  0
   37.7320   -5.9330   21.8920 N   0  0  0  0  0
   39.5020   -3.2560   19.4650 O   0  0  0  0  0
   39.8300   -4.3140   18.6890 C   0  0  0  0  0
   39.7930   -5.4560   19.0670 O   0  0  0  0  0
   40.2400   -3.8610   17.3300 C   0  0  0  0  0
   38.0223   -3.3241   22.4791 H   0  0  0  0  0
   36.7981   -1.5312   21.8341 H   0  0  0  0  0
   36.8126   -0.3777   19.6888 H   0  0  0  0  0
   37.9777   -1.5634   19.0503 H   0  0  0  0  0
   36.3363   -2.0836   19.5045 H   0  0  0  0  0
   39.7034   -4.4693   21.1539 H   0  0  0  0  0
   35.4218    3.2088   38.7556 H   0  0  0  0  0
   35.2622    1.4505   38.9882 H   0  0  0  0  0
   36.5404    2.3492   39.8423 H   0  0  0  0  0
   40.3598    1.1766   34.8080 H   0  0  0  0  0
   42.8729    0.4842   36.3879 H   0  0  0  0  0
   41.5678   -1.5701   36.1888 H   0  0  0  0  0
   41.4666   -1.3431   34.4255 H   0  0  0  0  0
   43.0459   -1.6284   35.1973 H   0  0  0  0  0
   41.4788    1.5845   32.9739 H   0  0  0  0  0
   42.1831   -0.1279   32.8186 H   0  0  0  0  0
   43.4807    3.0117   34.0378 H   0  0  0  0  0
   44.6908   -0.4272   34.0466 H   0  0  0  0  0
   46.1381    0.8965   35.3468 H   0  0  0  0  0
   45.1730    2.3911   33.1476 H   0  0  0  0  0
   47.2446    1.2031   33.6350 H   0  0  0  0  0
   46.7235   -0.1598   32.6142 H   0  0  0  0  0
   47.0582    1.4269   31.8782 H   0  0  0  0  0
   43.1858    2.4641   31.7079 H   0  0  0  0  0
   44.0236    1.6112   29.2419 H   0  0  0  0  0
   42.9730    3.5556   30.0384 H   0  0  0  0  0
   41.3517    2.9674   29.5006 H   0  0  0  0  0
   43.6922    3.8562   27.7829 H   0  0  0  0  0
   42.0690    4.5921   27.8962 H   0  0  0  0  0
   40.5397    3.9646   26.2469 H   0  0  0  0  0
   40.7774    2.3521   25.2942 H   0  0  0  0  0
   43.9786    1.8068   26.7145 H   0  0  0  0  0
   41.5045    0.3949   28.0632 H   0  0  0  0  0
   43.5122   -1.1139   29.0236 H   0  0  0  0  0
   44.3601   -2.1948   27.1415 H   0  0  0  0  0
   43.1638   -1.4822   24.9568 H   0  0  0  0  0
   45.7253    0.0014   25.4503 H   0  0  0  0  0
   45.5436   -1.6766   24.8827 H   0  0  0  0  0
   44.9729   -0.3275   23.8702 H   0  0  0  0  0
   41.8468    0.2125   25.5631 H   0  0  0  0  0
   44.5857    2.3061   24.9448 H   0  0  0  0  0
   41.6807    0.9428   19.8127 H   0  0  0  0  0
   39.6754    2.1955   21.6109 H   0  0  0  0  0
   41.3441    3.9286   21.3681 H   0  0  0  0  0
   41.3757    3.6976   19.6027 H   0  0  0  0  0
   39.9112    4.3335   20.3914 H   0  0  0  0  0
   39.8120    1.8142   18.5980 H   0  0  0  0  0
   38.8102    0.8929   19.7463 H   0  0  0  0  0
   38.4855    2.6218   19.4694 H   0  0  0  0  0
   40.2554   -1.1092   20.0246 H   0  0  0  0  0
   40.3594   -2.4926   22.6333 H   0  0  0  0  0
   42.0252   -2.5678   19.3395 H   0  0  0  0  0
   42.5678   -1.2437   20.3994 H   0  0  0  0  0
   43.5379   -2.7309   20.2649 H   0  0  0  0  0
   37.5746   -6.8647   22.2762 H   0  0  0  0  0
   38.6445   -5.4881   21.9907 H   0  0  0  0  0
   41.2659   -4.1753   17.1378 H   0  0  0  0  0
   39.5777   -4.3033   16.5858 H   0  0  0  0  0
   40.1753   -2.7743   17.2758 H   0  0  0  0  0
  1  2  1  0  0  0
  4  1  1  0  0  0
  1 57  1  0  0  0
  2  3  1  0  0  0
  2 56  1  0  0  0
 53  4  1  0  0  0
  4 61  1  0  0  0
  6  5  1  0  0  0
  6  7  4  0  0  0
 12  6  4  0  0  0
  7  8  1  0  0  0
  9  7  4  0  0  0
  9 10  1  0  0  0
 11  9  4  0  0  0
 12 11  4  0  0  0
 13 12  1  0  0  0
 13 14  2  0  0  0
 15 13  1  0  0  0
 16 15  1  0  0  0
 16 17  1  0  0  0
 18 16  1  0  0  0
 19 18  1  0  0  0
 18 20  1  0  0  0
 18 21  1  0  0  0
 26 19  1  0  0  0
 21 22  1  0  0  0
 23 21  1  0  0  0
 23 24  1  0  0  0
 25 23  1  0  0  0
 26 25  1  0  0  0
 27 26  1  0  0  0
 28 27  1  0  0  0
 28 29  1  0  0  0
 34 28  1  0  0  0
 30 29  1  0  0  0
 31 30  1  0  0  0
 31 32  2  0  0  0
 33 31  1  0  0  0
 33 34  1  0  0  0
 39 33  1  0  0  0
 34 35  1  0  0  0
 36 35  2  0  0  0
 37 36  1  0  0  0
 37 38  1  0  0  0
 39 37  1  0  0  0
 40 39  1  0  0  0
 40 41  1  0  0  0
 42 40  2  0  0  0
 43 42  1  0  0  0
 45 42  1  0  0  0
 43 44  2  0  0  0
 51 43  1  0  0  0
 45 46  2  0  0  0
 47 45  1  0  0  0
 47 48  1  0  0  0
 51 47  1  0  0  0
 48 49  1  0  0  0
 48 50  1  0  0  0
 52 51  1  0  0  0
 52 53  1  0  0  0
 52 56  1  0  0  0
 53 54  1  0  0  0
 54 55  1  0  0  0
 57 58  1  0  0  0
 58 59  2  0  0  0
 58 60  1  0  0  0
 61 62  1  0  0  0
 62 63  2  0  0  0
 62 64  1  0  0  0
  1 65  1  0  0  0
  2 66  1  0  0  0
  3 67  1  0  0  0
  3 68  1  0  0  0
  3 69  1  0  0  0
  4 70  1  0  0  0
 10 71  1  0  0  0
 10 72  1  0  0  0
 10 73  1  0  0  0
 15 74  1  0  0  0
 16 75  1  0  0  0
 17 76  1  0  0  0
 17 77  1  0  0  0
 17 78  1  0  0  0
 19 79  1  0  0  0
 19 80  1  0  0  0
 20 81  1  0  0  0
 21 82  1  0  0  0
 22 83  1  0  0  0
 23 84  1  0  0  0
 24 85  1  0  0  0
 24 86  1  0  0  0
 24 87  1  0  0  0
 26 88  1  0  0  0
 28 89  1  0  0  0
 29 90  1  0  0  0
 29 91  1  0  0  0
 30 92  1  0  0  0
 30 93  1  0  0  0
 32 94  1  0  0  0
 32 95  1  0  0  0
 33 96  1  0  0  0
 34 97  1  0  0  0
 35 98  1  0  0  0
 36 99  1  0  0  0
 37100  1  0  0  0
 38101  1  0  0  0
 38102  1  0  0  0
 38103  1  0  0  0
 39104  1  0  0  0
 41105  1  0  0  0
 47106  1  0  0  0
 48107  1  0  0  0
 49108  1  0  0  0
 49109  1  0  0  0
 49110  1  0  0  0
 50111  1  0  0  0
 50112  1  0  0  0
 50113  1  0  0  0
 52114  1  0  0  0
 53115  1  0  0  0
 55116  1  0  0  0
 55117  1  0  0  0
 55118  1  0  0  0
 60119  1  0  0  0
 60120  1  0  0  0
 64121  1  0  0  0
 64122  1  0  0  0
 64123  1  0  0  0
M  END
$$$$
