5fi7_ligand
  -I-interpret- 

 59 63  0  0  0  0  0  0  0  0999 V2000
   28.9420  -47.0620   -0.4480 C   0  0  0  0  0
   33.7730  -43.3680    0.5870 C   0  0  0  0  0
   36.5250  -40.7220    1.2180 C   0  0  0  0  0
   37.5740  -41.2700    0.2550 C   0  0  0  0  0
   37.9410  -42.6140    0.2910 C   0  0  0  0  0
   39.4990  -42.2830   -1.5000 C   0  0  0  0  0
   38.1780  -40.4370   -0.6780 C   0  0  0  0  0
   21.4850  -41.6060   -3.5240 C   0  0  0  0  0
   22.8710  -42.1020   -3.1650 C   0  0  0  0  0
   23.1490  -43.4940   -3.2760 N   0  0  0  0  0
   24.4170  -44.0710   -2.9620 C   0  0  0  0  0
   25.2500  -44.7200   -3.7990 N   0  0  0  0  0
   26.3960  -45.1800   -3.2580 N   0  0  0  0  0
   26.5820  -44.9460   -1.9480 C   0  0  0  0  0
   27.6870  -45.3330   -1.1430 N   0  0  0  0  0
   27.6330  -46.2870   -0.2570 C   0  0  0  0  0
   29.9440  -45.9360   -0.7780 C   0  0  0  0  0
   29.2520  -45.1240   -1.5180 C   0  0  0  0  0
   30.3600  -45.3180    0.5140 O   0  0  0  0  0
   31.5820  -44.6330    0.3820 C   0  0  0  0  0
   32.1740  -44.2760   -0.7660 N   0  0  0  0  0
   33.3330  -43.6140   -0.6550 N   0  0  0  0  0
   34.9900  -42.6980    0.8850 N   0  0  0  0  0
   35.1480  -41.2840    0.9210 C   0  0  0  0  0
   38.8920  -43.1240   -0.5810 C   0  0  0  0  0
   39.1370  -40.9430   -1.5520 C   0  0  0  0  0
   34.2070  -40.5420    0.7270 O   0  0  0  0  0
   32.6010  -44.0550    1.6480 S   0  0  0  0  0
   25.1880  -44.0920   -1.4240 S   0  0  0  0  0
   23.7310  -41.3350   -2.7910 O   0  0  0  0  0
   21.2340  -40.1220   -3.3320 C   0  0  0  0  0
   20.2940  -39.7120   -2.3950 C   0  0  0  0  0
   20.0380  -38.3600   -2.2090 C   0  0  0  0  0
   20.7160  -37.4160   -2.9640 C   0  0  0  0  0
   21.6510  -37.8190   -3.9050 C   0  0  0  0  0
   21.9080  -39.1710   -4.0910 C   0  0  0  0  0
   28.8806  -47.8235   -1.2254 H   0  0  0  0  0
   29.2262  -47.6469    0.4268 H   0  0  0  0  0
   36.4866  -39.6385    1.1058 H   0  0  0  0  0
   36.8036  -41.0101    2.2316 H   0  0  0  0  0
   37.4720  -43.2770    1.0180 H   0  0  0  0  0
   40.2576  -42.6715   -2.1794 H   0  0  0  0  0
   37.9006  -39.3840   -0.7263 H   0  0  0  0  0
   20.7949  -42.1204   -2.8552 H   0  0  0  0  0
   21.3584  -41.8008   -4.5889 H   0  0  0  0  0
   22.4032  -44.1116   -3.5967 H   0  0  0  0  0
   27.5322  -45.8985    0.7564 H   0  0  0  0  0
   26.7580  -46.9226   -0.3935 H   0  0  0  0  0
   30.8534  -46.2480   -1.2916 H   0  0  0  0  0
   29.5527  -44.0924   -1.3350 H   0  0  0  0  0
   29.4215  -45.3335   -2.5742 H   0  0  0  0  0
   35.8089  -43.2713    1.0876 H   0  0  0  0  0
   39.1601  -44.1799   -0.5434 H   0  0  0  0  0
   39.6065  -40.2832   -2.2816 H   0  0  0  0  0
   19.7560  -40.4535   -1.8043 H   0  0  0  0  0
   19.3038  -38.0411   -1.4692 H   0  0  0  0  0
   20.5138  -36.3550   -2.8177 H   0  0  0  0  0
   22.1837  -37.0756   -4.4981 H   0  0  0  0  0
   22.6400  -39.4879   -4.8339 H   0  0  0  0  0
  1 16  1  0  0  0
 17  1  1  0  0  0
  2 22  4  0  0  0
 23  2  1  0  0  0
  2 28  4  0  0  0
  3  4  1  0  0  0
 24  3  1  0  0  0
  4  5  4  0  0  0
  4  7  4  0  0  0
  5 25  4  0  0  0
 25  6  4  0  0  0
 26  6  4  0  0  0
  7 26  4  0  0  0
  9  8  1  0  0  0
  8 31  1  0  0  0
 10  9  1  0  0  0
  9 30  2  0  0  0
 11 10  1  0  0  0
 11 12  4  0  0  0
 29 11  4  0  0  0
 13 12  4  0  0  0
 14 13  4  0  0  0
 15 14  1  0  0  0
 14 29  4  0  0  0
 15 16  1  0  0  0
 18 15  1  0  0  0
 17 18  1  0  0  0
 19 17  1  0  0  0
 20 19  1  0  0  0
 20 21  4  0  0  0
 28 20  4  0  0  0
 22 21  4  0  0  0
 23 24  1  0  0  0
 24 27  2  0  0  0
 31 32  4  0  0  0
 31 36  4  0  0  0
 32 33  4  0  0  0
 33 34  4  0  0  0
 34 35  4  0  0  0
 35 36  4  0  0  0
  1 37  1  0  0  0
  1 38  1  0  0  0
  3 39  1  0  0  0
  3 40  1  0  0  0
  5 41  1  0  0  0
  6 42  1  0  0  0
  7 43  1  0  0  0
  8 44  1  0  0  0
  8 45  1  0  0  0
 10 46  1  0  0  0
 16 47  1  0  0  0
 16 48  1  0  0  0
 17 49  1  0  0  0
 18 50  1  0  0  0
 18 51  1  0  0  0
 23 52  1  0  0  0
 25 53  1  0  0  0
 26 54  1  0  0  0
 32 55  1  0  0  0
 33 56  1  0  0  0
 34 57  1  0  0  0
 35 58  1  0  0  0
 36 59  1  0  0  0
M  END
$$$$
