4zyi_ligand
  -I-interpret- 

 74 78  0  0  0  0  0  0  0  0999 V2000
    5.0520   14.6800   -1.1380 C   0  0  0  0  0
    5.9910   14.2940   -0.1920 C   0  0  0  0  0
    3.0550   10.8000    3.1040 C   0  0  0  0  0
    5.9590    9.4720   -4.0750 C   0  0  0  0  0
    5.2430    9.0730   -2.7750 C   0  0  0  0  0
    5.5650    9.6450   -1.5140 C   0  0  0  0  0
    4.9280    9.3100   -0.3190 C   0  0  0  0  0
    3.9070    8.3430   -0.3730 C   0  0  0  0  0
    3.5700    7.7640   -1.6080 C   0  0  0  0  0
    4.2270    8.1140   -2.8170 C   0  0  0  0  0
    1.9770    6.2290   -2.7170 C   0  0  0  0  0
    3.2850    8.5240    2.0890 C   0  0  0  0  0
    2.4740    9.8510    2.0880 C   0  0  0  0  0
    8.8740   11.1250   -2.2000 C   0  0  0  0  0
    9.7940   10.3860   -1.4440 C   0  0  0  0  0
   11.0420   10.9270   -1.0940 C   0  0  0  0  0
   11.3890   12.2260   -1.5270 C   0  0  0  0  0
   10.4330   12.9500   -2.2900 C   0  0  0  0  0
    9.1790   12.4350   -2.6400 C   0  0  0  0  0
    4.4130   16.2880   -1.0610 Cl  0  0  0  0  0
    6.4830   12.9790   -0.3070 C   0  0  0  0  0
    6.0440   12.1040   -1.3180 C   0  0  0  0  0
    5.1010   12.5320   -2.2690 C   0  0  0  0  0
    4.6010   13.8470   -2.1590 C   0  0  0  0  0
    6.6370   10.6790   -1.3930 C   0  0  0  0  0
    7.6100   10.5720   -2.5270 N   0  0  0  0  0
    7.3170   10.0490   -3.7540 C   0  0  0  0  0
    2.5470    6.8160   -1.5500 O   0  0  0  0  0
    3.2120    7.9330    0.7800 O   0  0  0  0  0
    8.1560   10.0120   -4.6270 O   0  0  0  0  0
    2.6510    7.5410    3.0560 C   0  0  0  0  0
   12.6390   12.8260   -1.1860 N   0  0  0  0  0
   12.8680   14.1880   -1.5710 C   0  0  0  0  0
   13.6390   12.0940   -0.4530 C   0  0  0  0  0
   16.5750   10.0480   -2.7990 N   0  0  0  0  0
   15.6310   10.5990   -0.6760 C   0  0  0  0  0
   16.5950    9.9220   -1.4440 C   0  0  0  0  0
   15.6550   10.7970   -3.4560 C   0  0  0  0  0
   14.6690   11.4810   -2.7130 C   0  0  0  0  0
   14.6570   11.3820   -1.3210 C   0  0  0  0  0
    6.3283   14.9691    0.5945 H   0  0  0  0  0
    3.0056   10.3457    4.0936 H   0  0  0  0  0
    4.0941   11.0100    2.8506 H   0  0  0  0  0
    2.4840   11.7285    3.1002 H   0  0  0  0  0
    5.3642   10.2199   -4.5993 H   0  0  0  0  0
    6.0814    8.5905   -4.7044 H   0  0  0  0  0
    5.2109    9.7803    0.6227 H   0  0  0  0  0
    3.9447    7.6442   -3.7592 H   0  0  0  0  0
    1.5421    7.0106   -3.3399 H   0  0  0  0  0
    2.7537    5.7071   -3.2760 H   0  0  0  0  0
    1.2008    5.5219   -2.4244 H   0  0  0  0  0
    4.3152    8.7377    2.3738 H   0  0  0  0  0
    2.5242   10.3051    1.0984 H   0  0  0  0  0
    1.4351    9.6405    2.3420 H   0  0  0  0  0
    9.5372    9.3765   -1.1229 H   0  0  0  0  0
   11.7401   10.3467   -0.4906 H   0  0  0  0  0
   10.6891   13.9570   -2.6193 H   0  0  0  0  0
    8.4684   13.0178   -3.2260 H   0  0  0  0  0
    7.2264   12.6285    0.4090 H   0  0  0  0  0
    4.7665   11.8686   -3.0666 H   0  0  0  0  0
    3.8620   14.2107   -2.8729 H   0  0  0  0  0
    7.1702   10.4915   -0.4610 H   0  0  0  0  0
    2.6522    7.9679    4.0589 H   0  0  0  0  0
    1.6254    7.3393    2.7468 H   0  0  0  0  0
    3.2216    6.6123    3.0543 H   0  0  0  0  0
   12.8025   14.2736   -2.6557 H   0  0  0  0  0
   12.1151   14.8264   -1.1087 H   0  0  0  0  0
   13.8599   14.4958   -1.2403 H   0  0  0  0  0
   13.1175   11.3283    0.1213 H   0  0  0  0  0
   14.1853   12.8177    0.1519 H   0  0  0  0  0
   15.6386   10.5175    0.4109 H   0  0  0  0  0
   17.3501    9.3030   -0.9594 H   0  0  0  0  0
   15.6767   10.8698   -4.5433 H   0  0  0  0  0
   13.9194   12.0846   -3.2247 H   0  0  0  0  0
  2  1  4  0  0  0
  1 20  1  0  0  0
 24  1  4  0  0  0
 21  2  4  0  0  0
 13  3  1  0  0  0
  4  5  1  0  0  0
 27  4  1  0  0  0
  6  5  4  0  0  0
  5 10  4  0  0  0
  6  7  4  0  0  0
 25  6  1  0  0  0
  7  8  4  0  0  0
  8  9  4  0  0  0
  8 29  1  0  0  0
 10  9  4  0  0  0
  9 28  1  0  0  0
 28 11  1  0  0  0
 12 13  1  0  0  0
 29 12  1  0  0  0
 12 31  1  0  0  0
 15 14  4  0  0  0
 19 14  4  0  0  0
 14 26  1  0  0  0
 16 15  4  0  0  0
 17 16  4  0  0  0
 17 18  4  0  0  0
 32 17  1  0  0  0
 18 19  4  0  0  0
 22 21  4  0  0  0
 22 23  4  0  0  0
 25 22  1  0  0  0
 23 24  4  0  0  0
 26 25  1  0  0  0
 26 27  1  0  0  0
 27 30  2  0  0  0
 32 33  1  0  0  0
 34 32  1  0  0  0
 40 34  1  0  0  0
 37 35  4  0  0  0
 35 38  4  0  0  0
 36 37  4  0  0  0
 36 40  4  0  0  0
 38 39  4  0  0  0
 39 40  4  0  0  0
  2 41  1  0  0  0
  3 42  1  0  0  0
  3 43  1  0  0  0
  3 44  1  0  0  0
  4 45  1  0  0  0
  4 46  1  0  0  0
  7 47  1  0  0  0
 10 48  1  0  0  0
 11 49  1  0  0  0
 11 50  1  0  0  0
 11 51  1  0  0  0
 12 52  1  0  0  0
 13 53  1  0  0  0
 13 54  1  0  0  0
 15 55  1  0  0  0
 16 56  1  0  0  0
 18 57  1  0  0  0
 19 58  1  0  0  0
 21 59  1  0  0  0
 23 60  1  0  0  0
 24 61  1  0  0  0
 25 62  1  0  0  0
 31 63  1  0  0  0
 31 64  1  0  0  0
 31 65  1  0  0  0
 33 66  1  0  0  0
 33 67  1  0  0  0
 33 68  1  0  0  0
 34 69  1  0  0  0
 34 70  1  0  0  0
 36 71  1  0  0  0
 37 72  1  0  0  0
 38 73  1  0  0  0
 39 74  1  0  0  0
M  END
$$$$
