6bmx_ligand
  -I-interpret- 

 65 70  0  0  0  0  0  0  0  0999 V2000
   15.0820   46.2700   28.9580 C   0  0  0  0  0
   14.2040   45.1890   28.7090 C   0  0  0  0  0
   14.6160   43.8540   29.0030 C   0  0  0  0  0
   15.9320   43.6400   29.5500 C   0  0  0  0  0
   16.7710   44.7410   29.8370 C   0  0  0  0  0
   16.4240   42.2430   29.8510 C   0  0  0  0  0
   14.2330   41.4760   29.0530 C   0  0  0  0  0
   10.6140   44.0380   28.6640 C   0  0  0  0  0
    9.7640   45.0770   28.2280 C   0  0  0  0  0
    9.9090   45.6360   26.9370 C   0  0  0  0  0
   10.9080   45.1540   26.0380 C   0  0  0  0  0
   15.9100   39.8320   29.8400 C   0  0  0  0  0
   15.7860   39.3050   31.2570 C   0  0  0  0  0
   15.2780   40.1250   32.2970 C   0  0  0  0  0
   15.1870   39.6040   33.6020 C   0  0  0  0  0
   15.6020   38.2730   33.8990 C   0  0  0  0  0
   16.1280   37.4710   32.8470 C   0  0  0  0  0
   16.1970   37.9800   31.5300 C   0  0  0  0  0
   13.8010   38.7420   36.9360 C   0  0  0  0  0
   14.1130   38.5080   38.4220 C   0  0  0  0  0
   15.5730   38.9610   38.5810 C   0  0  0  0  0
   16.0580   39.3330   37.1650 C   0  0  0  0  0
   16.3570   46.0540   29.5290 C   0  0  0  0  0
   15.5250   41.2340   29.6170 N   0  0  0  0  0
   13.8290   42.6950   28.7100 N   0  0  0  0  0
   12.5620   42.5220   28.2500 C   0  0  0  0  0
   12.2420   41.2270   28.2430 N   0  0  0  0  0
   13.3390   40.5410   28.7490 N   0  0  0  0  0
   11.6220   43.5440   27.7830 C   0  0  0  0  0
   11.1760   45.6650   24.7710 O   0  0  0  0  0
   10.1380   45.9850   23.8530 C   0  0  0  0  0
   11.7810   44.1330   26.4980 C   0  0  0  0  0
   12.7610   43.6900   25.6620 O   0  0  0  0  0
   16.8570   37.0100   30.2540 Cl  0  0  0  0  0
   15.4280   37.7210   35.3020 C   0  0  0  0  0
   15.5330   36.5080   35.5150 O   0  0  0  0  0
   15.1250   38.5490   36.3320 N   0  0  0  0  0
   17.5660   39.0550   36.9730 C   0  0  0  0  0
   17.9870   38.0230   36.4550 O   0  0  0  0  0
   18.4450   40.0000   37.4070 O   0  0  0  0  0
   17.5540   42.0870   30.3590 O   0  0  0  0  0
   14.7709   47.2838   28.7060 H   0  0  0  0  0
   13.2138   45.3752   28.2931 H   0  0  0  0  0
   17.7440   44.5744   30.2992 H   0  0  0  0  0
   10.5016   43.6173   29.6633 H   0  0  0  0  0
    8.9871   45.4528   28.8938 H   0  0  0  0  0
    9.2494   46.4454   26.6242 H   0  0  0  0  0
   15.2255   39.2346   29.2378 H   0  0  0  0  0
   16.9689   39.7692   29.5892 H   0  0  0  0  0
   14.9616   41.1470   32.0883 H   0  0  0  0  0
   14.7913   40.2310   34.4010 H   0  0  0  0  0
   16.4788   36.4608   33.0578 H   0  0  0  0  0
   13.3618   39.7177   36.7281 H   0  0  0  0  0
   13.0357   38.0756   36.5380 H   0  0  0  0  0
   13.9734   37.4663   38.7110 H   0  0  0  0  0
   13.4385   39.0624   39.0746 H   0  0  0  0  0
   16.1869   38.1713   39.0143 H   0  0  0  0  0
   15.6518   39.8090   39.2612 H   0  0  0  0  0
   16.0254   40.3922   36.9096 H   0  0  0  0  0
   17.0170   46.8978   29.7303 H   0  0  0  0  0
    9.5566   45.0886   23.6370 H   0  0  0  0  0
    9.4891   46.7438   24.2903 H   0  0  0  0  0
   10.5755   46.3669   22.9306 H   0  0  0  0  0
   13.2701   43.0053   26.1020 H   0  0  0  0  0
   17.9598   40.7380   37.7833 H   0  0  0  0  0
  2  1  4  0  0  0
 23  1  4  0  0  0
  3  2  4  0  0  0
  4  3  4  0  0  0
 25  3  1  0  0  0
  4  5  4  0  0  0
  6  4  1  0  0  0
  5 23  4  0  0  0
 24  6  1  0  0  0
  6 41  2  0  0  0
 24  7  1  0  0  0
  7 25  4  0  0  0
  7 28  4  0  0  0
  8  9  4  0  0  0
 29  8  4  0  0  0
  9 10  4  0  0  0
 11 10  4  0  0  0
 11 30  1  0  0  0
 32 11  4  0  0  0
 13 12  1  0  0  0
 12 24  1  0  0  0
 14 13  4  0  0  0
 18 13  4  0  0  0
 15 14  4  0  0  0
 16 15  4  0  0  0
 16 17  4  0  0  0
 35 16  1  0  0  0
 17 18  4  0  0  0
 18 34  1  0  0  0
 19 20  1  0  0  0
 37 19  1  0  0  0
 21 20  1  0  0  0
 22 21  1  0  0  0
 37 22  1  0  0  0
 22 38  1  0  0  0
 25 26  4  0  0  0
 27 26  4  0  0  0
 26 29  1  0  0  0
 28 27  4  0  0  0
 29 32  4  0  0  0
 30 31  1  0  0  0
 32 33  1  0  0  0
 35 36  2  0  0  0
 35 37  1  0  0  0
 38 39  2  0  0  0
 38 40  1  0  0  0
  1 42  1  0  0  0
  2 43  1  0  0  0
  5 44  1  0  0  0
  8 45  1  0  0  0
  9 46  1  0  0  0
 10 47  1  0  0  0
 12 48  1  0  0  0
 12 49  1  0  0  0
 14 50  1  0  0  0
 15 51  1  0  0  0
 17 52  1  0  0  0
 19 53  1  0  0  0
 19 54  1  0  0  0
 20 55  1  0  0  0
 20 56  1  0  0  0
 21 57  1  0  0  0
 21 58  1  0  0  0
 22 59  1  0  0  0
 23 60  1  0  0  0
 31 61  1  0  0  0
 31 62  1  0  0  0
 31 63  1  0  0  0
 33 64  1  0  0  0
 40 65  1  0  0  0
M  END
$$$$
