5eud_ligand
  -I-interpret- 

 63 65  0  0  0  0  0  0  0  0999 V2000
    1.5420   -7.2840   10.0950 C   0  0  0  0  0
    0.4970   -7.6480    9.6400 C   0  0  0  0  0
    3.0380   -6.6320   11.9040 C   0  0  0  0  0
    3.7250   -6.4970    9.6080 C   0  0  0  0  0
    4.2660   -6.1290   12.2940 C   0  0  0  0  0
    4.9440   -6.0100   10.0140 C   0  0  0  0  0
   10.4380   -4.5680   15.5350 C   0  0  0  0  0
   10.3570   -1.8540   15.0560 C   0  0  0  0  0
    7.8010   -2.1570    8.1030 C   0  0  0  0  0
    2.7830   -6.8040   10.5590 C   0  0  0  0  0
    5.2240   -5.8170   11.3510 C   0  0  0  0  0
    9.9540   -4.0890   14.3330 C   0  0  0  0  0
   10.8940   -3.7010   16.5060 C   0  0  0  0  0
    9.9180   -2.7250   14.0840 C   0  0  0  0  0
   10.8480   -2.3340   16.2590 C   0  0  0  0  0
    8.0470   -3.0670    9.1600 C   0  0  0  0  0
    8.9050   -2.2650    7.2930 C   0  0  0  0  0
    7.2060   -3.3640   10.2820 C   0  0  0  0  0
   11.4100   -4.2820   17.7820 C   0  0  0  0  0
    9.4160   -2.1280   12.8160 C   0  0  0  0  0
    9.3120   -1.6290    6.0290 C   0  0  0  0  0
   12.4970   -0.8870   16.7060 C   0  0  0  0  0
   -0.7460   -8.0670    9.0310 C   0  0  0  0  0
    9.4870   -5.0900   13.3400 C   0  0  0  0  0
    7.4380   -6.2020   12.5370 C   0  0  0  0  0
    6.5560   -5.2480   11.7510 C   0  0  0  0  0
    9.2180   -3.6900    9.0030 N   0  0  0  0  0
    7.2950   -4.6860   10.6420 N   0  0  0  0  0
    8.0610   -5.3750   13.5920 N   0  3  0  0  0
    6.5070   -2.5130   10.8100 O   0  0  0  0  0
    9.7560   -3.1770    7.8310 O   0  0  0  0  0
   -0.9390   -7.2510    7.8970 O   0  0  0  0  0
   11.2730   -1.4070   17.2100 O   0  0  0  0  0
    2.2835   -6.8885   12.6476 H   0  0  0  0  0
    3.5093   -6.6373    8.5488 H   0  0  0  0  0
    4.4783   -5.9782   13.3524 H   0  0  0  0  0
    5.7020   -5.7723    9.2677 H   0  0  0  0  0
   10.4597   -5.6423   15.7180 H   0  0  0  0  0
   10.3179   -0.7794   14.8775 H   0  0  0  0  0
    6.9311   -1.5152    7.9636 H   0  0  0  0  0
   10.6190   -4.8563   18.2643 H   0  0  0  0  0
   12.2554   -4.9354   17.5665 H   0  0  0  0  0
   11.7308   -3.4767   18.4429 H   0  0  0  0  0
    8.5676   -1.4788   13.0325 H   0  0  0  0  0
   10.2111   -1.5458   12.3502 H   0  0  0  0  0
    9.1030   -2.9238   12.1401 H   0  0  0  0  0
    8.5762   -1.8543    5.2570 H   0  0  0  0  0
    9.3737   -0.5499    6.1701 H   0  0  0  0  0
   10.2863   -2.0136    5.7274 H   0  0  0  0  0
   13.2148   -1.6990   16.5897 H   0  0  0  0  0
   12.3195   -0.4160   15.7392 H   0  0  0  0  0
   12.8916   -0.1488   17.4042 H   0  0  0  0  0
   -1.5754   -7.9614    9.7304 H   0  0  0  0  0
   -0.7043   -9.1191    8.7491 H   0  0  0  0  0
   10.0704   -6.0059   13.4344 H   0  0  0  0  0
    9.6140   -4.6982   12.3308 H   0  0  0  0  0
    8.1873   -6.6730   11.9008 H   0  0  0  0  0
    6.8624   -7.0256   12.9595 H   0  0  0  0  0
    6.2865   -4.4367   12.4272 H   0  0  0  0  0
    7.9087   -5.2981   10.1042 H   0  0  0  0  0
    7.5671   -4.4829   13.6179 H   0  0  0  0  0
    7.9993   -5.8934   14.4683 H   0  0  0  0  0
   -1.7581   -7.4984    7.4618 H   0  0  0  0  0
  1  2  3  0  0  0
 10  1  1  0  0  0
  2 23  1  0  0  0
  5  3  4  0  0  0
  3 10  4  0  0  0
  6  4  4  0  0  0
  4 10  4  0  0  0
 11  5  4  0  0  0
 11  6  4  0  0  0
 12  7  4  0  0  0
  7 13  4  0  0  0
 14  8  4  0  0  0
  8 15  4  0  0  0
 16  9  4  0  0  0
  9 17  4  0  0  0
 26 11  1  0  0  0
 12 14  4  0  0  0
 24 12  1  0  0  0
 13 15  4  0  0  0
 13 19  1  0  0  0
 14 20  1  0  0  0
 15 33  1  0  0  0
 18 16  1  0  0  0
 16 27  4  0  0  0
 17 21  1  0  0  0
 17 31  4  0  0  0
 28 18  1  0  0  0
 18 30  2  0  0  0
 33 22  1  0  0  0
 23 32  1  0  0  0
 29 24  1  0  0  0
 26 25  1  0  0  0
 25 29  1  0  0  0
 26 28  1  0  0  0
 27 31  4  0  0  0
  3 34  1  0  0  0
  4 35  1  0  0  0
  5 36  1  0  0  0
  6 37  1  0  0  0
  7 38  1  0  0  0
  8 39  1  0  0  0
  9 40  1  0  0  0
 19 41  1  0  0  0
 19 42  1  0  0  0
 19 43  1  0  0  0
 20 44  1  0  0  0
 20 45  1  0  0  0
 20 46  1  0  0  0
 21 47  1  0  0  0
 21 48  1  0  0  0
 21 49  1  0  0  0
 22 50  1  0  0  0
 22 51  1  0  0  0
 22 52  1  0  0  0
 23 53  1  0  0  0
 23 54  1  0  0  0
 24 55  1  0  0  0
 24 56  1  0  0  0
 25 57  1  0  0  0
 25 58  1  0  0  0
 26 59  1  0  0  0
 28 60  1  0  0  0
 29 61  1  0  0  0
 29 62  1  0  0  0
 32 63  1  0  0  0
M  END
$$$$
