5l6i_ligand
  -I-interpret- 

 56 60  0  0  0  0  0  0  0  0999 V2000
  -11.8060   26.5070  -14.7120 C   0  0  0  0  0
  -11.4010   26.3500  -16.1620 C   0  0  0  0  0
  -11.8680   27.6170  -16.8360 C   0  0  0  0  0
  -12.0430   27.4560  -18.3380 C   0  0  0  0  0
   -8.8680   27.8580  -12.9600 C   0  0  0  0  0
  -10.2910   26.0500  -12.7830 C   0  0  0  0  0
  -10.2570   24.3600  -11.1850 C   0  0  0  0  0
   -8.5330   26.0260  -10.9580 C   0  0  0  0  0
   -7.2020   28.9630   -9.9320 C   0  0  0  0  0
   -5.2710   27.6190   -9.8350 C   0  0  0  0  0
   -4.9000   28.9650   -9.3690 C   0  0  0  0  0
   -2.7850   28.1390   -8.6060 C   0  0  0  0  0
   -4.3610   26.5760   -9.6700 C   0  0  0  0  0
   -6.0310   29.9280   -9.6270 C   0  0  0  0  0
   -3.6710   29.2090   -8.7540 C   0  0  0  0  0
   -3.1300   26.8540   -9.0580 C   0  0  0  0  0
   -6.6320   27.6230  -10.4570 C   0  0  0  0  0
   -7.4550   26.4310  -10.2110 N   0  0  0  0  0
   -9.1720   24.8900  -10.5660 N   0  0  0  0  0
  -10.8100   24.9090  -12.2680 N   0  0  0  0  0
   -9.1110   26.7010  -12.1690 C   0  0  0  0  0
   -9.8180   27.8800  -13.9670 C   0  0  0  0  0
  -10.6430   26.8160  -13.8350 N   0  0  0  0  0
  -12.8480   27.6350  -14.6630 C   0  0  0  0  0
  -13.1240   28.0520  -16.0870 C   0  0  0  0  0
  -14.3000   27.4050  -16.5770 O   0  0  0  0  0
  -12.4150   28.7730  -18.7000 O   0  0  0  0  0
  -12.6570   29.2950  -20.1110 S   0  0  0  0  0
  -13.8710   28.7750  -20.6800 O   0  0  0  0  0
  -12.7070   30.7290  -19.9920 O   0  0  0  0  0
  -11.4390   28.8450  -21.0390 N   0  0  0  0  0
  -12.2196   25.5714  -14.3356 H   0  0  0  0  0
  -11.8475   25.4638  -16.6129 H   0  0  0  0  0
  -10.3255   26.2081  -16.2684 H   0  0  0  0  0
  -11.1174   28.4051  -16.7761 H   0  0  0  0  0
  -12.7698   26.6949  -18.6218 H   0  0  0  0  0
  -11.1552   27.0876  -18.8520 H   0  0  0  0  0
   -8.0785   28.5927  -12.8023 H   0  0  0  0  0
  -10.6951   23.4476  -10.7805 H   0  0  0  0  0
   -7.8535   29.4045  -10.6862 H   0  0  0  0  0
   -7.7766   28.7855   -9.0229 H   0  0  0  0  0
   -1.8158   28.3027   -8.1349 H   0  0  0  0  0
   -4.6005   25.5680  -10.0087 H   0  0  0  0  0
   -6.2283   30.6001   -8.7918 H   0  0  0  0  0
   -5.8267   30.6318  -10.4339 H   0  0  0  0  0
   -3.4099   30.2060   -8.3993 H   0  0  0  0  0
   -2.4139   26.0426   -8.9281 H   0  0  0  0  0
   -6.6097   27.5620  -11.5451 H   0  0  0  0  0
   -7.2019   25.8508   -9.4112 H   0  0  0  0  0
   -9.8901   28.6384  -14.7466 H   0  0  0  0  0
  -12.4732   28.4780  -14.0826 H   0  0  0  0  0
  -13.7627   27.2911  -14.1802 H   0  0  0  0  0
  -13.3165   29.1186  -16.2023 H   0  0  0  0  0
  -14.4616   27.6803  -17.4824 H   0  0  0  0  0
  -11.6132   28.2831  -21.8723 H   0  0  0  0  0
  -10.4864   29.1193  -20.7988 H   0  0  0  0  0
  1  2  1  0  0  0
 23  1  1  0  0  0
  1 24  1  0  0  0
  2  3  1  0  0  0
  3  4  1  0  0  0
  3 25  1  0  0  0
  4 27  1  0  0  0
 21  5  4  0  0  0
  5 22  4  0  0  0
  6 20  4  0  0  0
 21  6  4  0  0  0
  6 23  4  0  0  0
 19  7  4  0  0  0
  7 20  4  0  0  0
 18  8  1  0  0  0
  8 19  4  0  0  0
  8 21  4  0  0  0
  9 14  1  0  0  0
 17  9  1  0  0  0
 10 11  4  0  0  0
 10 13  4  0  0  0
 17 10  1  0  0  0
 11 14  1  0  0  0
 11 15  4  0  0  0
 15 12  4  0  0  0
 16 12  4  0  0  0
 13 16  4  0  0  0
 17 18  1  0  0  0
 22 23  4  0  0  0
 24 25  1  0  0  0
 25 26  1  0  0  0
 27 28  1  0  0  0
 28 29  2  0  0  0
 28 30  2  0  0  0
 28 31  1  0  0  0
  1 32  1  0  0  0
  2 33  1  0  0  0
  2 34  1  0  0  0
  3 35  1  0  0  0
  4 36  1  0  0  0
  4 37  1  0  0  0
  5 38  1  0  0  0
  7 39  1  0  0  0
  9 40  1  0  0  0
  9 41  1  0  0  0
 12 42  1  0  0  0
 13 43  1  0  0  0
 14 44  1  0  0  0
 14 45  1  0  0  0
 15 46  1  0  0  0
 16 47  1  0  0  0
 17 48  1  0  0  0
 18 49  1  0  0  0
 22 50  1  0  0  0
 24 51  1  0  0  0
 24 52  1  0  0  0
 25 53  1  0  0  0
 26 54  1  0  0  0
 31 55  1  0  0  0
 31 56  1  0  0  0
M  END
$$$$
