5ypp_ligand
  -I-interpret- 

 20 19  0  0  0  0  0  0  0  0999 V2000
   13.7360   39.4980    0.0910 N   0  3  0  0  0
   13.1160   38.7850    1.2030 C   0  0  0  0  0
   12.0370   39.6530    1.8510 C   0  0  0  0  0
   11.7780   40.7740    1.4120 O   0  0  0  0  0
   14.1760   38.3370    2.2380 C   0  0  0  0  0
   15.2370   37.4710    1.5640 C   0  0  0  0  0
   14.8090   39.5380    2.9170 C   0  0  0  0  0
   11.3830   39.2600    2.8180 O   0  0  0  0  0
   13.0159   39.7806   -0.5739 H   0  0  0  0  0
   14.2171   40.3249    0.4448 H   0  0  0  0  0
   14.4068   38.8852   -0.3725 H   0  0  0  0  0
   12.6413   37.8839    0.8147 H   0  0  0  0  0
   13.6811   37.7424    3.0059 H   0  0  0  0  0
   15.7634   38.0614    0.8140 H   0  0  0  0  0
   15.9456   37.1178    2.3132 H   0  0  0  0  0
   14.7571   36.6175    1.0851 H   0  0  0  0  0
   15.5153   39.1957    3.6733 H   0  0  0  0  0
   15.3332   40.1393    2.1742 H   0  0  0  0  0
   14.0315   40.1384    3.3894 H   0  0  0  0  0
   11.6761   38.3798    3.0647 H   0  0  0  0  0
  1  2  1  0  0  0
  2  3  1  0  0  0
  2  5  1  0  0  0
  3  4  2  0  0  0
  3  8  1  0  0  0
  5  6  1  0  0  0
  5  7  1  0  0  0
  1  9  1  0  0  0
  1 10  1  0  0  0
  1 11  1  0  0  0
  2 12  1  0  0  0
  5 13  1  0  0  0
  6 14  1  0  0  0
  6 15  1  0  0  0
  6 16  1  0  0  0
  7 17  1  0  0  0
  7 18  1  0  0  0
  7 19  1  0  0  0
  8 20  1  0  0  0
M  END
$$$$
