1b58_ligand
  -I-interpret- 

 69 69  0  0  0  0  0  0  0  0999 V2000
    6.9150   17.0380   15.3930 N   0  3  0  0  0
    6.4760   18.3740   14.8690 C   0  0  0  0  0
    5.2090   18.8230   15.5770 C   0  0  0  0  0
    4.3540   17.9690   15.9280 O   0  0  0  0  0
    6.2380   18.3740   13.3360 C   0  0  0  0  0
    5.3130   17.2940   12.8190 C   0  0  0  0  0
    5.2260   17.1990   11.3010 C   0  0  0  0  0
    6.4950   16.6350   10.6400 C   0  0  0  0  0
    6.6610   15.2160   11.0780 N   0  3  0  0  0
    5.0340   20.1190   15.7240 N   0  0  0  0  0
    3.8450   20.7030   16.3620 C   0  0  0  0  0
    2.5900   20.6220   15.5040 C   0  0  0  0  0
    2.5840   20.9110   14.2970 O   0  0  0  0  0
    4.0340   22.2090   16.7220 C   0  0  0  0  0
    5.1690   22.3880   17.7110 C   0  0  0  0  0
    5.0000   22.2060   19.0650 C   0  0  0  0  0
    6.4310   22.7480   17.2570 C   0  0  0  0  0
    6.0240   22.3470   19.9870 C   0  0  0  0  0
    7.4550   22.9090   18.1560 C   0  0  0  0  0
    7.2430   22.7030   19.5100 C   0  0  0  0  0
    8.3200   22.8540   20.3430 O   0  0  0  0  0
    1.4820   20.2830   16.1640 N   0  0  0  0  0
    0.2100   20.1790   15.4820 C   0  0  0  0  0
   -0.8450   21.0560   16.1900 C   0  0  0  0  0
   -1.8140   21.4040   15.5080 O   0  0  0  0  0
   -0.3390   18.7550   15.3730 C   0  0  0  0  0
   -1.3620   18.7940   14.1820 C   0  0  0  0  0
   -2.1300   17.5010   14.0680 C   0  0  0  0  0
   -3.3530   17.6770   13.1380 C   0  0  0  0  0
   -2.8580   17.3570   11.7770 N   0  3  0  0  0
   -0.6940   21.4150   17.3600 O   0  0  0  0  0
    7.7655   16.7477   14.9105 H   0  0  0  0  0
    7.0982   17.1101   16.3938 H   0  0  0  0  0
    6.1787   16.3514   15.2295 H   0  0  0  0  0
    7.2897   19.0704   15.0716 H   0  0  0  0  0
    7.2086   18.1991   12.8717 H   0  0  0  0  0
    5.7666   19.3269   13.0956 H   0  0  0  0  0
    4.3128   17.5357   13.1785 H   0  0  0  0  0
    5.7091   16.3423   13.1732 H   0  0  0  0  0
    5.0832   18.2102   10.9199 H   0  0  0  0  0
    4.4071   16.5196   11.0645 H   0  0  0  0  0
    7.3639   17.2221   10.9372 H   0  0  0  0  0
    6.4044   16.6832    9.5548 H   0  0  0  0  0
    7.4994   14.8247   10.6486 H   0  0  0  0  0
    6.7507   15.1832   12.0935 H   0  0  0  0  0
    5.8458   14.6749   10.7898 H   0  0  0  0  0
    5.7582   20.7488   15.3786 H   0  0  0  0  0
    3.7213   20.0991   17.2610 H   0  0  0  0  0
    3.1136   22.5808   17.1723 H   0  0  0  0  0
    4.2704   22.7608   15.8122 H   0  0  0  0  0
    4.0090   21.9370   19.4305 H   0  0  0  0  0
    6.6071   22.9018   16.1924 H   0  0  0  0  0
    5.8574   22.1790   21.0510 H   0  0  0  0  0
    8.4437   23.2014   17.8022 H   0  0  0  0  0
    8.0487   22.6864   21.2485 H   0  0  0  0  0
    1.5319   20.0941   17.1651 H   0  0  0  0  0
    0.4031   20.5231   14.4659 H   0  0  0  0  0
   -1.7423   21.0183   14.6318 H   0  0  0  0  0
   -0.8155   18.4371   16.3004 H   0  0  0  0  0
    0.4564   18.0314   15.1946 H   0  0  0  0  0
   -0.8075   18.9482   13.2563 H   0  0  0  0  0
   -2.0715   19.6014   14.3634 H   0  0  0  0  0
   -2.4778   17.2074   15.0584 H   0  0  0  0  0
   -1.4752   16.7360   13.6507 H   0  0  0  0  0
   -3.7556   18.6885   13.1913 H   0  0  0  0  0
   -4.1762   17.0247   13.4295 H   0  0  0  0  0
   -3.6213   17.4541   11.1074 H   0  0  0  0  0
   -2.1045   17.9989   11.5309 H   0  0  0  0  0
   -2.5090   16.3987   11.7600 H   0  0  0  0  0
  2  1  1  0  0  0
  2  5  1  0  0  0
  3  2  1  0  0  0
  3  4  2  0  0  0
  5  6  1  0  0  0
  6  7  1  0  0  0
  7  8  1  0  0  0
  8  9  1  0  0  0
 11 10  1  0  0  0
 11 14  1  0  0  0
 12 11  1  0  0  0
 12 13  2  0  0  0
 14 15  1  0  0  0
 15 16  4  0  0  0
 15 17  4  0  0  0
 17 19  4  0  0  0
 19 20  4  0  0  0
 20 21  1  0  0  0
 18 20  4  0  0  0
 16 18  4  0  0  0
 10  3  1  0  0  0
 22 23  1  0  0  0
 23 26  1  0  0  0
 23 24  1  0  0  0
 24 25  1  0  0  0
 24 31  2  0  0  0
 26 27  1  0  0  0
 27 28  1  0  0  0
 28 29  1  0  0  0
 29 30  1  0  0  0
 12 22  1  0  0  0
  1 32  1  0  0  0
  1 33  1  0  0  0
  1 34  1  0  0  0
  2 35  1  0  0  0
  5 36  1  0  0  0
  5 37  1  0  0  0
  6 38  1  0  0  0
  6 39  1  0  0  0
  7 40  1  0  0  0
  7 41  1  0  0  0
  8 42  1  0  0  0
  8 43  1  0  0  0
  9 44  1  0  0  0
  9 45  1  0  0  0
  9 46  1  0  0  0
 10 47  1  0  0  0
 11 48  1  0  0  0
 14 49  1  0  0  0
 14 50  1  0  0  0
 16 51  1  0  0  0
 17 52  1  0  0  0
 18 53  1  0  0  0
 19 54  1  0  0  0
 21 55  1  0  0  0
 22 56  1  0  0  0
 23 57  1  0  0  0
 25 58  1  0  0  0
 26 59  1  0  0  0
 26 60  1  0  0  0
 27 61  1  0  0  0
 27 62  1  0  0  0
 28 63  1  0  0  0
 28 64  1  0  0  0
 29 65  1  0  0  0
 29 66  1  0  0  0
 30 67  1  0  0  0
 30 68  1  0  0  0
 30 69  1  0  0  0
M  END
$$$$
