### 
### Created by X-TOOL on Mon Sep 10 21:13:17 2018
### 

@<TRIPOS>MOLECULE
4os1_ligand
  204   206     1     0     0
SMALL
GAST_HUCK


@<TRIPOS>ATOM
      1 N          34.1350   21.8300   -8.4000 N.4       1 GLY         0.2357
      2 CA         32.7530   21.5930   -7.8890 C.3       1 GLY         0.0545
      3 C          32.3530   20.1280   -7.9660 C.2       1 GLY         0.2236
      4 O          33.1040   19.2530   -7.5290 O.2       1 GLY        -0.3910
      5 N          31.1810   19.8700   -8.5410 N.am      1 81S        -0.2612
      6 CA         30.5930   18.5220   -8.6080 C.3       1 81S         0.1321
      7 CB         29.1630   18.5750   -8.8880 C.3       1 81S         0.0010
      8 CG         28.4250   17.2950   -8.9870 C.3       1 81S         0.0294
      9 CD1        28.3610   16.6140   -7.6060 C.3       1 81S         0.0168
     10 SE         27.8810   15.0050   -7.5770 S.3       1 81S        -0.0918
     11 SD2        26.9060   17.5680   -9.6890 S.3       1 81S        -0.0885
     12 C          31.2210   17.9990   -9.7010 C.2       1 81S         0.2039
     13 O          31.4110   18.6680  -10.7200 O.2       1 81S        -0.3944
     14 N          31.6160   16.7300   -9.6060 N.am      1 ALA        -0.2640
     15 CA         32.2010   16.0110  -10.7390 C.3       1 ALA         0.1282
     16 C          31.1320   15.5500  -11.7550 C.2       1 ALA         0.2036
     17 O          29.9190   15.6420  -11.5100 O.2       1 ALA        -0.3944
     18 CB         32.9990   14.8140  -10.2360 C.3       1 ALA        -0.0244
     19 N          31.6060   15.0730  -12.9010 N.am      1 LEU        -0.2637
     20 CA         30.7680   14.4240  -13.8980 C.3       1 LEU         0.1312
     21 C          30.7760   12.9270  -13.6200 C.2       1 LEU         0.2037
     22 O          31.5280   12.4420  -12.7680 O.2       1 LEU        -0.3944
     23 CB         31.3180   14.6650  -15.3090 C.3       1 LEU        -0.0101
     24 CG         31.1540   16.0430  -15.9630 C.3       1 LEU        -0.0425
     25 CD1        31.3280   17.2030  -14.9940 C.3       1 LEU        -0.0625
     26 CD2        32.1330   16.1650  -17.1240 C.3       1 LEU        -0.0625
     27 N          29.9450   12.1880  -14.3400 N.am      1 GLY        -0.2664
     28 CA         29.9990   10.7410  -14.2710 C.3       1 GLY         0.1201
     29 C          29.1950   10.1910  -13.1230 C.2       1 GLY         0.2007
     30 O          28.2980   10.8430  -12.6000 O.2       1 GLY        -0.3947
     31 N          29.5310    8.9720  -12.7440 N.am      1 ARG        -0.2640
     32 CA         28.8200    8.2520  -11.7030 C.3       1 ARG         0.1311
     33 C          28.9280    9.0190  -10.3860 C.2       1 ARG         0.2037
     34 O          30.0300    9.3540   -9.9490 O.2       1 ARG        -0.3944
     35 CB         29.4190    6.8610  -11.5410 C.3       1 ARG        -0.0092
     36 CG         29.3110    5.9850  -12.7790 C.3       1 ARG        -0.0156
     37 CD         30.2770    4.8210  -12.6950 C.3       1 ARG         0.0627
     38 NE         31.6420    5.2530  -12.9740 N.pl3     1 ARG        -0.2723
     39 CZ         32.6800    4.4370  -13.1390 C.cat     1 ARG         0.2882
     40 NH1        32.5390    3.1180  -13.0420 N.pl3     1 ARG        -0.2849
     41 NH2        33.8730    4.9510  -13.4040 N.pl3     1 ARG        -0.2849
     42 N          27.7800    9.2920   -9.7720 N.am      1 GLY        -0.2664
     43 CA         27.7180   10.0190   -8.5110 C.3       1 GLY         0.1201
     44 C          26.9070   11.2830   -8.6350 C.2       1 GLY         0.2008
     45 O          26.3670   11.7750   -7.6540 O.2       1 GLY        -0.3947
     46 N          26.8000   11.8000   -9.8530 N.am      1 CYS        -0.2631
     47 CA         26.2290   13.1110  -10.0780 C.3       1 CYS         0.1406
     48 C          25.0020   13.1210  -11.0250 C.2       1 CYS         0.2047
     49 O          24.5470   14.1770  -11.4530 O.2       1 CYS        -0.3944
     50 CB         27.3720   14.0400  -10.5110 C.3       1 CYS         0.0443
     51 SG         28.6650   14.0690   -9.2180 S.3       1 CYS        -0.0883
     52 N          24.4280   11.9450  -11.2750 N.am      1 GLU        -0.2636
     53 CA         23.1660   11.8310  -12.0160 C.3       1 GLU         0.1325
     54 C          22.0490   12.5560  -11.2560 C.2       1 GLU         0.2041
     55 O          22.0410   12.5560  -10.0130 O.2       1 GLU        -0.3944
     56 CB         22.7550   10.3700  -12.2020 C.3       1 GLU        -0.0008
     57 CG         23.6980    9.5270  -13.0470 C.3       1 GLU         0.0044
     58 CD         24.7450    8.7810  -12.2430 C.2       1 GLU         0.0350
     59 OE1        25.0190    9.1550  -11.0730 O.co2     1 GLU        -0.5690
     60 OE2        25.3090    7.8120  -12.7970 O.co2     1 GLU        -0.5690
     61 N          21.1460   13.1990  -12.0050 N.am      1 ASN        -0.2616
     62 CA         19.9540   13.8280  -11.4400 C.3       1 ASN         0.1476
     63 C          20.3000   14.8920  -10.3690 C.2       1 ASN         0.2063
     64 O          19.6610   14.9740   -9.3110 O.2       1 ASN        -0.3942
     65 CB         19.0310   12.7250  -10.8780 C.3       1 ASN         0.0773
     66 CG         17.5940   13.1850  -10.6750 C.2       1 ASN         0.1780
     67 OD1        17.0730   13.9920  -11.4370 O.2       1 ASN        -0.3970
     68 ND2        16.9430   12.6540   -9.6420 N.am      1 ASN        -0.3007
     69 N          21.3290   15.6890  -10.6610 N.am      1 HIS        -0.2623
     70 CA         21.7940   16.7600   -9.7730 C.3       1 HIS         0.1369
     71 C          21.6620   18.1110  -10.4760 C.2       1 HIS         0.2054
     72 O          21.9360   18.2130  -11.6720 O.2       1 HIS        -0.3942
     73 CB         23.2810   16.5830   -9.4380 C.3       1 HIS         0.0145
     74 CG         23.5630   15.6760   -8.2840 C.2       1 HIS        -0.0027
     75 ND1        23.3230   14.3210   -8.3220 N.2       1 HIS        -0.3252
     76 CD2        24.1250   15.9250   -7.0760 C.2       1 HIS         0.0291
     77 CE1        23.6990   13.7780   -7.1750 C.2       1 HIS         0.0907
     78 NE2        24.1880   14.7300   -6.4020 N.pl3     1 HIS        -0.2752
     79 N          21.3010   19.1470   -9.7270 N.am      1 ARG        -0.2636
     80 CA         21.3490   20.5270  -10.2410 C.3       1 ARG         0.1311
     81 C          22.7350   20.9180  -10.7330 C.2       1 ARG         0.2039
     82 O          22.8690   21.5350  -11.7860 O.2       1 ARG        -0.3944
     83 CB         20.9490   21.5170   -9.1560 C.3       1 ARG        -0.0092
     84 CG         19.4930   21.4300   -8.7790 C.3       1 ARG        -0.0156
     85 CD         19.1550   22.3390   -7.6160 C.3       1 ARG         0.0627
     86 NE         17.7530   22.1370   -7.2830 N.pl3     1 ARG        -0.2723
     87 CZ         17.2830   21.1230   -6.5610 C.cat     1 ARG         0.2882
     88 NH1        15.9770   21.0320   -6.3400 N.pl3     1 ARG        -0.2849
     89 NH2        18.1000   20.2110   -6.0460 N.pl3     1 ARG        -0.2849
     90 N          23.7560   20.5430   -9.9600 N.am      1 CYS        -0.2629
     91 CA         25.1560   20.8670  -10.2620 C.3       1 CYS         0.1406
     92 C          25.7910   20.1160  -11.4430 C.2       1 CYS         0.2047
     93 O          26.9310   20.4190  -11.8020 O.2       1 CYS        -0.3944
     94 CB         26.0320   20.6220   -9.0140 C.3       1 CYS         0.0443
     95 SG         26.0500   18.9050   -8.3890 S.3       1 CYS        -0.0881
     96 N          25.0940   19.1330  -12.0220 N.am      1 LEU        -0.2637
     97 CA         25.6820   18.2530  -13.0550 C.3       1 LEU         0.1309
     98 C          26.0270   18.9890  -14.3620 C.2       1 LEU         0.1992
     99 O          25.3770   19.9770  -14.7360 O.2       1 LEU        -0.3947
    100 CB         24.7490   17.0640  -13.3510 C.3       1 LEU        -0.0101
    101 CG         25.1300   16.0810  -14.4730 C.3       1 LEU        -0.0425
    102 CD1        26.4670   15.4080  -14.2180 C.3       1 LEU        -0.0625
    103 CD2        24.0450   15.0310  -14.6650 C.3       1 LEU        -0.0625
    104 N          27.0920   18.4890  -15.0610 N.am      1 NH2        -0.2990
    105 H          34.3556   22.8111   -8.3296 H         1 GLY         0.2012
    106 H          34.1909   21.5414   -9.3642 H         1 GLY         0.2012
    107 H          34.7920   21.2977   -7.8513 H         1 GLY         0.2012
    108 H          32.0471   22.1845   -8.4904 H         1 GLY         0.1061
    109 H          32.7031   21.9186   -6.8395 H         1 GLY         0.1061
    110 H          30.6742   20.6299   -8.9480 H         1 81S         0.1884
    111 H          30.7872   17.9442   -7.6923 H         1 81S         0.0800
    112 H          29.0368   19.1000   -9.8463 H         1 81S         0.0323
    113 H          28.6940   19.1613   -8.0841 H         1 81S         0.0323
    114 H          28.9838   16.6260   -9.6580 H         1 81S         0.0431
    115 H          27.6528   17.1837   -6.9864 H         1 81S         0.0396
    116 H          29.3652   16.6698   -7.1605 H         1 81S         0.0396
    117 H          31.5095   16.2537   -8.7332 H         1 ALA         0.1883
    118 H          32.8891   16.6948  -11.2575 H         1 ALA         0.0797
    119 H          33.4356   14.2785  -11.0920 H         1 ALA         0.0277
    120 H          32.3334   14.1368   -9.6807 H         1 ALA         0.0277
    121 H          33.8040   15.1627   -9.5724 H         1 ALA         0.0277
    122 H          32.5843   15.1643  -13.0870 H         1 LEU         0.1883
    123 H          29.7421   14.8152  -13.8310 H         1 LEU         0.0800
    124 H          30.8271   13.9370  -15.9715 H         1 LEU         0.0315
    125 H          32.3974   14.4564  -15.2707 H         1 LEU         0.0315
    126 H          30.1321   16.1016  -16.3658 H         1 LEU         0.0298
    127 H          31.1970   18.1533  -15.5324 H         1 LEU         0.0232
    128 H          32.3360   17.1662  -14.5552 H         1 LEU         0.0232
    129 H          30.5768   17.1283  -14.1939 H         1 LEU         0.0232
    130 H          31.9923   15.3189  -17.8127 H         1 LEU         0.0232
    131 H          33.1629   16.1560  -16.7377 H         1 LEU         0.0232
    132 H          31.9506   17.1081  -17.6599 H         1 LEU         0.0232
    133 H          29.2754   12.6317  -14.9356 H         1 GLY         0.1881
    134 H          31.0475   10.4320  -14.1480 H         1 GLY         0.0763
    135 H          29.6026   10.3275  -15.2100 H         1 GLY         0.0763
    136 H          30.3063    8.5267  -13.1919 H         1 ARG         0.1883
    137 H          27.7604    8.1599  -11.9835 H         1 ARG         0.0800
    138 H          28.8976    6.3555  -10.7148 H         1 ARG         0.0313
    139 H          30.4841    6.9717  -11.2893 H         1 ARG         0.0313
    140 H          29.5466    6.5867  -13.6692 H         1 ARG         0.0301
    141 H          28.2846    5.5977  -12.8593 H         1 ARG         0.0301
    142 H          29.9843    4.0569  -13.4301 H         1 ARG         0.0689
    143 H          30.2355    4.3914  -11.6832 H         1 ARG         0.0689
    144 H          31.8154    6.2655  -13.0489 H         1 ARG         0.2642
    145 H          33.3540    2.5019  -13.1728 H         1 ARG         0.2615
    146 H          31.6148    2.7126  -12.8360 H         1 ARG         0.2615
    147 H          33.9886    5.9716  -13.4804 H         1 ARG         0.2615
    148 H          34.6842    4.3297  -13.5335 H         1 ARG         0.2615
    149 H          26.9258    8.9862  -10.1926 H         1 GLY         0.1881
    150 H          28.7401   10.2805   -8.1998 H         1 GLY         0.0763
    151 H          27.2568    9.3730   -7.7495 H         1 GLY         0.0763
    152 H          27.1227   11.2692  -10.6366 H         1 CYS         0.1884
    153 H          25.8623   13.4770   -9.1077 H         1 CYS         0.0808
    154 H          26.9804   15.0571  -10.6595 H         1 CYS         0.0432
    155 H          27.8050   13.6726  -11.4531 H         1 CYS         0.0432
    156 H          24.8721   11.1114  -10.9466 H         1 GLU         0.1883
    157 H          23.2942   12.2953  -13.0049 H         1 GLU         0.0801
    158 H          21.7651   10.3548  -12.6815 H         1 GLU         0.0330
    159 H          22.6873    9.9076  -11.2062 H         1 GLU         0.0330
    160 H          24.2143   10.1908  -13.7560 H         1 GLU         0.0433
    161 H          23.0995    8.7907  -13.6034 H         1 GLU         0.0433
    162 H          21.2928   13.2514  -12.9928 H         1 ASN         0.1885
    163 H          19.4201   14.3404  -12.2539 H         1 ASN         0.0826
    164 H          19.4319   12.3954   -9.9082 H         1 ASN         0.0551
    165 H          19.0303   11.8791  -11.5811 H         1 ASN         0.0551
    166 H          15.9961   12.9181   -9.4585 H         1 ASN         0.1814
    167 H          17.4010   11.9911   -9.0496 H         1 ASN         0.1814
    168 H          21.8071   15.5495  -11.5282 H         1 HIS         0.1885
    169 H          21.1969   16.7527   -8.8492 H         1 HIS         0.0817
    170 H          23.6987   17.5733   -9.2041 H         1 HIS         0.0420
    171 H          23.7847   16.1729  -10.3257 H         1 HIS         0.0420
    172 H          24.4636   16.8925   -6.7083 H         1 HIS         0.0729
    173 H          23.6186   12.7240   -6.9131 H         1 HIS         0.1199
    174 H          24.5565   14.5981   -5.4493 H         1 HIS         0.2361
    175 H          20.9888   18.9862   -8.7907 H         1 ARG         0.1883
    176 H          20.6412   20.6054  -11.0793 H         1 ARG         0.0800
    177 H          21.1558   22.5348   -9.5183 H         1 ARG         0.0313
    178 H          21.5545   21.3166   -8.2598 H         1 ARG         0.0313
    179 H          19.2597   20.3923   -8.4985 H         1 ARG         0.0301
    180 H          18.8830   21.7213   -9.6468 H         1 ARG         0.0301
    181 H          19.3242   23.3881   -7.9002 H         1 ARG         0.0689
    182 H          19.7847   22.0876   -6.7499 H         1 ARG         0.0689
    183 H          17.0749   22.8295   -7.6316 H         1 ARG         0.2642
    184 H          15.6022   20.2512   -5.7825 H         1 ARG         0.2615
    185 H          15.3386   21.7422   -6.7261 H         1 ARG         0.2615
    186 H          19.1143   20.2751   -6.2132 H         1 ARG         0.2615
    187 H          17.7192   19.4397   -5.4794 H         1 ARG         0.2615
    188 H          23.5579   20.0151   -9.1341 H         1 CYS         0.1884
    189 H          25.1885   21.9394  -10.5049 H         1 CYS         0.0808
    190 H          25.6620   21.2721   -8.2075 H         1 CYS         0.0432
    191 H          27.0657   20.9017   -9.2655 H         1 CYS         0.0432
    192 H          24.1434   18.9879  -11.7475 H         1 LEU         0.1883
    193 H          26.6213   17.8525  -12.6459 H         1 LEU         0.0800
    194 H          23.7648   17.4822  -13.6087 H         1 LEU         0.0315
    195 H          24.6673   16.4789  -12.4231 H         1 LEU         0.0315
    196 H          25.2161   16.6572  -15.4060 H         1 LEU         0.0298
    197 H          26.6937   14.7181  -15.0442 H         1 LEU         0.0232
    198 H          26.4205   14.8461  -13.2735 H         1 LEU         0.0232
    199 H          27.2554   16.1722  -14.1517 H         1 LEU         0.0232
    200 H          23.0815   15.5288  -14.8489 H         1 LEU         0.0232
    201 H          23.9704   14.4110  -13.7595 H         1 LEU         0.0232
    202 H          24.2989   14.3944  -15.5254 H         1 LEU         0.0232
    203 H          27.3723   18.9181  -15.9197 H         1 NH2         0.1815
    204 H          27.5899   17.6946  -14.7131 H         1 NH2         0.1815
@<TRIPOS>BOND
     1    1    2 1  
     2    2    3 1  
     3    3    4 2  
     4    3    5 am 
     5    5    6 1  
     6    6    7 1  
     7    6   12 1  
     8    7    8 1  
     9    8    9 1  
    10    8   11 1  
    11    9   10 1  
    12   10   51 1  
    13   11   95 1  
    14   12   13 2  
    15   12   14 am 
    16   14   15 1  
    17   15   16 1  
    18   15   18 1  
    19   16   17 2  
    20   16   19 am 
    21   19   20 1  
    22   20   21 1  
    23   20   23 1  
    24   21   22 2  
    25   21   27 am 
    26   23   24 1  
    27   24   25 1  
    28   24   26 1  
    29   27   28 1  
    30   28   29 1  
    31   29   30 2  
    32   29   31 am 
    33   31   32 1  
    34   32   33 1  
    35   32   35 1  
    36   33   34 2  
    37   33   42 am 
    38   35   36 1  
    39   36   37 1  
    40   37   38 1  
    41   38   39 ar 
    42   39   40 ar 
    43   39   41 ar 
    44   42   43 1  
    45   43   44 1  
    46   44   45 2  
    47   44   46 am 
    48   46   47 1  
    49   47   48 1  
    50   47   50 1  
    51   48   49 2  
    52   48   52 am 
    53   50   51 1  
    54   52   53 1  
    55   53   54 1  
    56   53   56 1  
    57   54   55 2  
    58   54   61 am 
    59   56   57 1  
    60   57   58 1  
    61   58   59 ar 
    62   58   60 ar 
    63   61   62 1  
    64   62   63 1  
    65   62   65 1  
    66   63   64 2  
    67   63   69 am 
    68   65   66 1  
    69   66   67 2  
    70   66   68 am 
    71   69   70 1  
    72   70   71 1  
    73   70   73 1  
    74   71   72 2  
    75   71   79 am 
    76   73   74 1  
    77   74   75 1  
    78   74   76 2  
    79   75   77 2  
    80   76   78 1  
    81   77   78 1  
    82   79   80 1  
    83   80   81 1  
    84   80   83 1  
    85   81   82 2  
    86   81   90 am 
    87   83   84 1  
    88   84   85 1  
    89   85   86 1  
    90   86   87 ar 
    91   87   88 ar 
    92   87   89 ar 
    93   90   91 1  
    94   91   92 1  
    95   91   94 1  
    96   92   93 2  
    97   92   96 am 
    98   94   95 1  
    99   96   97 1  
   100   97   98 1  
   101   97  100 1  
   102   98   99 2  
   103   98  104 am 
   104  100  101 1  
   105  101  102 1  
   106  101  103 1  
   107    1  105 1  
   108    1  106 1  
   109    1  107 1  
   110    2  108 1  
   111    2  109 1  
   112    5  110 1  
   113    6  111 1  
   114    7  112 1  
   115    7  113 1  
   116    8  114 1  
   117    9  115 1  
   118    9  116 1  
   119   14  117 1  
   120   15  118 1  
   121   18  119 1  
   122   18  120 1  
   123   18  121 1  
   124   19  122 1  
   125   20  123 1  
   126   23  124 1  
   127   23  125 1  
   128   24  126 1  
   129   25  127 1  
   130   25  128 1  
   131   25  129 1  
   132   26  130 1  
   133   26  131 1  
   134   26  132 1  
   135   27  133 1  
   136   28  134 1  
   137   28  135 1  
   138   31  136 1  
   139   32  137 1  
   140   35  138 1  
   141   35  139 1  
   142   36  140 1  
   143   36  141 1  
   144   37  142 1  
   145   37  143 1  
   146   38  144 1  
   147   40  145 1  
   148   40  146 1  
   149   41  147 1  
   150   41  148 1  
   151   42  149 1  
   152   43  150 1  
   153   43  151 1  
   154   46  152 1  
   155   47  153 1  
   156   50  154 1  
   157   50  155 1  
   158   52  156 1  
   159   53  157 1  
   160   56  158 1  
   161   56  159 1  
   162   57  160 1  
   163   57  161 1  
   164   61  162 1  
   165   62  163 1  
   166   65  164 1  
   167   65  165 1  
   168   68  166 1  
   169   68  167 1  
   170   69  168 1  
   171   70  169 1  
   172   73  170 1  
   173   73  171 1  
   174   76  172 1  
   175   77  173 1  
   176   78  174 1  
   177   79  175 1  
   178   80  176 1  
   179   83  177 1  
   180   83  178 1  
   181   84  179 1  
   182   84  180 1  
   183   85  181 1  
   184   85  182 1  
   185   86  183 1  
   186   88  184 1  
   187   88  185 1  
   188   89  186 1  
   189   89  187 1  
   190   90  188 1  
   191   91  189 1  
   192   94  190 1  
   193   94  191 1  
   194   96  192 1  
   195   97  193 1  
   196  100  194 1  
   197  100  195 1  
   198  101  196 1  
   199  102  197 1  
   200  102  198 1  
   201  102  199 1  
   202  103  200 1  
   203  103  201 1  
   204  103  202 1  
   205  104  203 1  
   206  104  204 1  
@<TRIPOS>SUBSTRUCTURE
     1 GLY         1

