4os1_ligand
  -I-interpret- 

202204  0  0  0  0  0  0  0  0999 V2000
   34.1350   21.8300   -8.4000 N   0  3  0  0  0
   32.7530   21.5930   -7.8890 C   0  0  0  0  0
   32.3530   20.1280   -7.9660 C   0  0  0  0  0
   33.1040   19.2530   -7.5290 O   0  0  0  0  0
   31.1810   19.8700   -8.5410 N   0  0  0  0  0
   30.5930   18.5220   -8.6080 C   0  0  0  0  0
   29.1630   18.5750   -8.8880 C   0  0  0  0  0
   28.4250   17.2950   -8.9870 C   0  0  0  0  0
   28.3610   16.6140   -7.6060 C   0  0  0  0  0
   27.8810   15.0050   -7.5770 S   0  0  0  0  0
   26.9060   17.5680   -9.6890 S   0  0  0  0  0
   31.2210   17.9990   -9.7010 C   0  0  0  0  0
   31.4110   18.6680  -10.7200 O   0  0  0  0  0
   31.6160   16.7300   -9.6060 N   0  0  0  0  0
   32.2010   16.0110  -10.7390 C   0  0  0  0  0
   31.1320   15.5500  -11.7550 C   0  0  0  0  0
   29.9190   15.6420  -11.5100 O   0  0  0  0  0
   32.9990   14.8140  -10.2360 C   0  0  0  0  0
   31.6060   15.0730  -12.9010 N   0  0  0  0  0
   30.7680   14.4240  -13.8980 C   0  0  0  0  0
   30.7760   12.9270  -13.6200 C   0  0  0  0  0
   31.5280   12.4420  -12.7680 O   0  0  0  0  0
   31.3180   14.6650  -15.3090 C   0  0  0  0  0
   31.1540   16.0430  -15.9630 C   0  0  0  0  0
   31.3280   17.2030  -14.9940 C   0  0  0  0  0
   32.1330   16.1650  -17.1240 C   0  0  0  0  0
   29.9450   12.1880  -14.3400 N   0  0  0  0  0
   29.9990   10.7410  -14.2710 C   0  0  0  0  0
   29.1950   10.1910  -13.1230 C   0  0  0  0  0
   28.2980   10.8430  -12.6000 O   0  0  0  0  0
   29.5310    8.9720  -12.7440 N   0  0  0  0  0
   28.8200    8.2520  -11.7030 C   0  0  0  0  0
   28.9280    9.0190  -10.3860 C   0  0  0  0  0
   30.0300    9.3540   -9.9490 O   0  0  0  0  0
   29.4190    6.8610  -11.5410 C   0  0  0  0  0
   29.3110    5.9850  -12.7790 C   0  0  0  0  0
   30.2770    4.8210  -12.6950 C   0  0  0  0  0
   31.6420    5.2530  -12.9740 N   0  0  0  0  0
   32.6800    4.4370  -13.1390 C   0  0  0  0  0
   32.5390    3.1180  -13.0420 N   0  0  0  0  0
   33.8730    4.9510  -13.4040 N   0  0  0  0  0
   27.7800    9.2920   -9.7720 N   0  0  0  0  0
   27.7180   10.0190   -8.5110 C   0  0  0  0  0
   26.9070   11.2830   -8.6350 C   0  0  0  0  0
   26.3670   11.7750   -7.6540 O   0  0  0  0  0
   26.8000   11.8000   -9.8530 N   0  0  0  0  0
   26.2290   13.1110  -10.0780 C   0  0  0  0  0
   25.0020   13.1210  -11.0250 C   0  0  0  0  0
   24.5470   14.1770  -11.4530 O   0  0  0  0  0
   27.3720   14.0400  -10.5110 C   0  0  0  0  0
   28.6650   14.0690   -9.2180 S   0  0  0  0  0
   24.4280   11.9450  -11.2750 N   0  0  0  0  0
   23.1660   11.8310  -12.0160 C   0  0  0  0  0
   22.0490   12.5560  -11.2560 C   0  0  0  0  0
   22.0410   12.5560  -10.0130 O   0  0  0  0  0
   22.7550   10.3700  -12.2020 C   0  0  0  0  0
   23.6980    9.5270  -13.0470 C   0  0  0  0  0
   24.7450    8.7810  -12.2430 C   0  0  0  0  0
   25.0190    9.1550  -11.0730 O   0  0  0  0  0
   25.3090    7.8120  -12.7970 O   0  0  0  0  0
   21.1460   13.1990  -12.0050 N   0  0  0  0  0
   19.9540   13.8280  -11.4400 C   0  0  0  0  0
   20.3000   14.8920  -10.3690 C   0  0  0  0  0
   19.6610   14.9740   -9.3110 O   0  0  0  0  0
   19.0310   12.7250  -10.8780 C   0  0  0  0  0
   17.5940   13.1850  -10.6750 C   0  0  0  0  0
   17.0730   13.9920  -11.4370 O   0  0  0  0  0
   16.9430   12.6540   -9.6420 N   0  0  0  0  0
   21.3290   15.6890  -10.6610 N   0  0  0  0  0
   21.7940   16.7600   -9.7730 C   0  0  0  0  0
   21.6620   18.1110  -10.4760 C   0  0  0  0  0
   21.9360   18.2130  -11.6720 O   0  0  0  0  0
   23.2810   16.5830   -9.4380 C   0  0  0  0  0
   23.5630   15.6760   -8.2840 C   0  0  0  0  0
   23.3230   14.3210   -8.3220 N   0  0  0  0  0
   24.1250   15.9250   -7.0760 C   0  0  0  0  0
   23.6990   13.7780   -7.1750 C   0  0  0  0  0
   24.1880   14.7300   -6.4020 N   0  0  0  0  0
   21.3010   19.1470   -9.7270 N   0  0  0  0  0
   21.3490   20.5270  -10.2410 C   0  0  0  0  0
   22.7350   20.9180  -10.7330 C   0  0  0  0  0
   22.8690   21.5350  -11.7860 O   0  0  0  0  0
   20.9490   21.5170   -9.1560 C   0  0  0  0  0
   19.4930   21.4300   -8.7790 C   0  0  0  0  0
   19.1550   22.3390   -7.6160 C   0  0  0  0  0
   17.7530   22.1370   -7.2830 N   0  0  0  0  0
   17.2830   21.1230   -6.5610 C   0  0  0  0  0
   15.9770   21.0320   -6.3400 N   0  0  0  0  0
   18.1000   20.2110   -6.0460 N   0  0  0  0  0
   23.7560   20.5430   -9.9600 N   0  0  0  0  0
   25.1560   20.8670  -10.2620 C   0  0  0  0  0
   25.7910   20.1160  -11.4430 C   0  0  0  0  0
   26.9310   20.4190  -11.8020 O   0  0  0  0  0
   26.0320   20.6220   -9.0140 C   0  0  0  0  0
   26.0500   18.9050   -8.3890 S   0  0  0  0  0
   25.0940   19.1330  -12.0220 N   0  0  0  0  0
   25.6820   18.2530  -13.0550 C   0  0  0  0  0
   26.0270   18.9890  -14.3620 C   0  0  0  0  0
   25.3770   19.9770  -14.7360 O   0  0  0  0  0
   24.7490   17.0640  -13.3510 C   0  0  0  0  0
   25.1300   16.0810  -14.4730 C   0  0  0  0  0
   26.4670   15.4080  -14.2180 C   0  0  0  0  0
   24.0450   15.0310  -14.6650 C   0  0  0  0  0
   27.0920   18.4890  -15.0610 N   0  0  0  0  0
   34.3571   22.8229   -8.3283 H   0  0  0  0  0
   34.7989   21.2909   -7.8441 H   0  0  0  0  0
   34.1903   21.5376   -9.3756 H   0  0  0  0  0
   32.0611   22.1655   -8.5067 H   0  0  0  0  0
   32.7223   21.8975   -6.8429 H   0  0  0  0  0
   30.6641   20.6451   -8.9562 H   0  0  0  0  0
   30.7118   17.9643   -7.6790 H   0  0  0  0  0
   29.0785   19.0340   -9.8730 H   0  0  0  0  0
   28.7218   19.0978   -8.0394 H   0  0  0  0  0
   28.9489   16.5988   -9.6419 H   0  0  0  0  0
   27.6092   17.1610   -7.0371 H   0  0  0  0  0
   29.3791   16.6297   -7.2170 H   0  0  0  0  0
   31.5073   16.2442   -8.7157 H   0  0  0  0  0
   32.8634   16.7023  -11.2599 H   0  0  0  0  0
   33.7963   15.1608   -9.5786 H   0  0  0  0  0
   32.3384   14.1438   -9.6859 H   0  0  0  0  0
   33.4310   14.2843  -11.0850 H   0  0  0  0  0
   32.6039   15.1661  -13.0907 H   0  0  0  0  0
   29.7588   14.8321  -13.8417 H   0  0  0  0  0
   30.7479   13.9886  -15.9458 H   0  0  0  0  0
   32.3956   14.5337  -15.2105 H   0  0  0  0  0
   30.1267   16.1093  -16.3212 H   0  0  0  0  0
   30.5832   17.1278  -14.2017 H   0  0  0  0  0
   32.3271   17.1654  -14.5599 H   0  0  0  0  0
   31.1979   18.1440  -15.5286 H   0  0  0  0  0
   33.1515   16.0545  -16.7519 H   0  0  0  0  0
   31.9256   15.3845  -17.8561 H   0  0  0  0  0
   32.0198   17.1430  -17.5918 H   0  0  0  0  0
   29.2620   12.6406  -14.9475 H   0  0  0  0  0
   31.0389   10.4488  -14.1251 H   0  0  0  0  0
   29.5817   10.3434  -15.1961 H   0  0  0  0  0
   30.3218    8.5178  -13.2008 H   0  0  0  0  0
   27.7698    8.1587  -11.9797 H   0  0  0  0  0
   28.8633    6.3631  -10.7464 H   0  0  0  0  0
   30.4808    6.9915  -11.3321 H   0  0  0  0  0
   29.5545    6.5832  -13.6571 H   0  0  0  0  0
   28.2951    5.5963  -12.8489 H   0  0  0  0  0
   29.9889    4.0735  -13.4342 H   0  0  0  0  0
   30.2401    4.4081  -11.6869 H   0  0  0  0  0
   31.8137    6.2557  -13.0482 H   0  0  0  0  0
   33.3462    2.5079  -13.1713 H   0  0  0  0  0
   31.6237    2.7165  -12.8383 H   0  0  0  0  0
   33.9875    5.9617  -13.4793 H   0  0  0  0  0
   26.9088    8.9800  -10.2010 H   0  0  0  0  0
   28.7331   10.2896   -8.2206 H   0  0  0  0  0
   27.2431    9.3780   -7.7683 H   0  0  0  0  0
   27.1292   11.2586  -10.6523 H   0  0  0  0  0
   25.7922   13.4809   -9.1504 H   0  0  0  0  0
   26.9834   15.0479  -10.6564 H   0  0  0  0  0
   27.8015   13.6744  -11.4437 H   0  0  0  0  0
   24.8810   11.0947  -10.9400 H   0  0  0  0  0
   23.3194   12.2826  -12.9961 H   0  0  0  0  0
   21.7974   10.3808  -12.7226 H   0  0  0  0  0
   22.7439    9.9218  -11.2085 H   0  0  0  0  0
   24.2268   10.2055  -13.7164 H   0  0  0  0  0
   23.0923    8.7807  -13.5610 H   0  0  0  0  0
   24.4740    9.9114  -10.8442 H   0  0  0  0  0
   21.2958   13.2525  -13.0125 H   0  0  0  0  0
   19.4328   14.3687  -12.2300 H   0  0  0  0  0
   19.4233   12.4329   -9.9039 H   0  0  0  0  0
   19.0160   11.9092  -11.6007 H   0  0  0  0  0
   15.9739   12.9156   -9.4609 H   0  0  0  0  0
   17.4134   11.9856   -9.0317 H   0  0  0  0  0
   21.8166   15.5467  -11.5455 H   0  0  0  0  0
   21.1890   16.7190   -8.8672 H   0  0  0  0  0
   23.6623   17.5672   -9.1660 H   0  0  0  0  0
   23.7503   16.1345  -10.3136 H   0  0  0  0  0
   24.4639   16.8934   -6.7080 H   0  0  0  0  0
   23.6185   12.7230   -6.9129 H   0  0  0  0  0
   20.9825   18.9830   -8.7720 H   0  0  0  0  0
   20.6514   20.5603  -11.0779 H   0  0  0  0  0
   21.1305   22.5202   -9.5417 H   0  0  0  0  0
   21.5345   21.2856   -8.2662 H   0  0  0  0  0
   19.2774   20.4031   -8.4838 H   0  0  0  0  0
   18.8985   21.7396   -9.6385 H   0  0  0  0  0
   19.3325   23.3799   -7.8865 H   0  0  0  0  0
   19.7844   22.1038   -6.7578 H   0  0  0  0  0
   17.0815   22.8228   -7.6283 H   0  0  0  0  0
   15.3448   21.7353   -6.7223 H   0  0  0  0  0
   17.7229   19.4472   -5.4849 H   0  0  0  0  0
   19.1045   20.2745   -6.2116 H   0  0  0  0  0
   23.5539   20.0046   -9.1176 H   0  0  0  0  0
   25.1234   21.9154  -10.5584 H   0  0  0  0  0
   25.6153   21.2378   -8.2169 H   0  0  0  0  0
   27.0563   20.8575   -9.3030 H   0  0  0  0  0
   24.1244   18.9850  -11.7420 H   0  0  0  0  0
   26.6226   17.8895  -12.6411 H   0  0  0  0  0
   23.8124   17.5155  -13.6780 H   0  0  0  0  0
   24.7556   16.4669  -12.4391 H   0  0  0  0  0
   25.2246   16.6676  -15.3868 H   0  0  0  0  0
   27.2473   16.1662  -14.1525 H   0  0  0  0  0
   26.4196   14.8517  -13.2819 H   0  0  0  0  0
   26.6905   14.7247  -15.0373 H   0  0  0  0  0
   23.9135   14.4726  -13.7382 H   0  0  0  0  0
   23.1089   15.5221  -14.9308 H   0  0  0  0  0
   24.3384   14.3490  -15.4630 H   0  0  0  0  0
   27.3835   18.9321  -15.9323 H   0  0  0  0  0
   27.5943   17.6733  -14.7107 H   0  0  0  0  0
  1  2  1  0  0  0
  2  3  1  0  0  0
  3  4  2  0  0  0
  3  5  1  0  0  0
  5  6  1  0  0  0
  6  7  1  0  0  0
  6 12  1  0  0  0
  7  8  1  0  0  0
  8  9  1  0  0  0
  8 11  1  0  0  0
  9 10  1  0  0  0
 10 51  1  0  0  0
 11 95  1  0  0  0
 12 13  2  0  0  0
 12 14  1  0  0  0
 14 15  1  0  0  0
 15 16  1  0  0  0
 15 18  1  0  0  0
 16 17  2  0  0  0
 16 19  1  0  0  0
 19 20  1  0  0  0
 20 21  1  0  0  0
 20 23  1  0  0  0
 21 22  2  0  0  0
 21 27  1  0  0  0
 23 24  1  0  0  0
 24 25  1  0  0  0
 24 26  1  0  0  0
 27 28  1  0  0  0
 28 29  1  0  0  0
 29 30  2  0  0  0
 29 31  1  0  0  0
 31 32  1  0  0  0
 32 33  1  0  0  0
 32 35  1  0  0  0
 33 34  2  0  0  0
 33 42  1  0  0  0
 35 36  1  0  0  0
 36 37  1  0  0  0
 37 38  1  0  0  0
 38 39  1  0  0  0
 39 40  1  0  0  0
 39 41  2  0  0  0
 42 43  1  0  0  0
 43 44  1  0  0  0
 44 45  2  0  0  0
 44 46  1  0  0  0
 46 47  1  0  0  0
 47 48  1  0  0  0
 47 50  1  0  0  0
 48 49  2  0  0  0
 48 52  1  0  0  0
 50 51  1  0  0  0
 52 53  1  0  0  0
 53 54  1  0  0  0
 53 56  1  0  0  0
 54 55  2  0  0  0
 54 61  1  0  0  0
 56 57  1  0  0  0
 57 58  1  0  0  0
 58 59  1  0  0  0
 58 60  2  0  0  0
 61 62  1  0  0  0
 62 63  1  0  0  0
 62 65  1  0  0  0
 63 64  2  0  0  0
 63 69  1  0  0  0
 65 66  1  0  0  0
 66 67  2  0  0  0
 66 68  1  0  0  0
 69 70  1  0  0  0
 70 71  1  0  0  0
 70 73  1  0  0  0
 71 72  2  0  0  0
 71 79  1  0  0  0
 73 74  1  0  0  0
 74 75  4  0  0  0
 74 76  4  0  0  0
 75 77  4  0  0  0
 76 78  4  0  0  0
 77 78  4  0  0  0
 79 80  1  0  0  0
 80 81  1  0  0  0
 80 83  1  0  0  0
 81 82  2  0  0  0
 81 90  1  0  0  0
 83 84  1  0  0  0
 84 85  1  0  0  0
 85 86  1  0  0  0
 86 87  1  0  0  0
 87 88  2  0  0  0
 87 89  1  0  0  0
 90 91  1  0  0  0
 91 92  1  0  0  0
 91 94  1  0  0  0
 92 93  2  0  0  0
 92 96  1  0  0  0
 94 95  1  0  0  0
 96 97  1  0  0  0
 97 98  1  0  0  0
 97100  1  0  0  0
 98 99  2  0  0  0
 98104  1  0  0  0
100101  1  0  0  0
101102  1  0  0  0
101103  1  0  0  0
  1105  1  0  0  0
  1106  1  0  0  0
  1107  1  0  0  0
  2108  1  0  0  0
  2109  1  0  0  0
  5110  1  0  0  0
  6111  1  0  0  0
  7112  1  0  0  0
  7113  1  0  0  0
  8114  1  0  0  0
  9115  1  0  0  0
  9116  1  0  0  0
 14117  1  0  0  0
 15118  1  0  0  0
 18119  1  0  0  0
 18120  1  0  0  0
 18121  1  0  0  0
 19122  1  0  0  0
 20123  1  0  0  0
 23124  1  0  0  0
 23125  1  0  0  0
 24126  1  0  0  0
 25127  1  0  0  0
 25128  1  0  0  0
 25129  1  0  0  0
 26130  1  0  0  0
 26131  1  0  0  0
 26132  1  0  0  0
 27133  1  0  0  0
 28134  1  0  0  0
 28135  1  0  0  0
 31136  1  0  0  0
 32137  1  0  0  0
 35138  1  0  0  0
 35139  1  0  0  0
 36140  1  0  0  0
 36141  1  0  0  0
 37142  1  0  0  0
 37143  1  0  0  0
 38144  1  0  0  0
 40145  1  0  0  0
 40146  1  0  0  0
 41147  1  0  0  0
 42148  1  0  0  0
 43149  1  0  0  0
 43150  1  0  0  0
 46151  1  0  0  0
 47152  1  0  0  0
 50153  1  0  0  0
 50154  1  0  0  0
 52155  1  0  0  0
 53156  1  0  0  0
 56157  1  0  0  0
 56158  1  0  0  0
 57159  1  0  0  0
 57160  1  0  0  0
 59161  1  0  0  0
 61162  1  0  0  0
 62163  1  0  0  0
 65164  1  0  0  0
 65165  1  0  0  0
 68166  1  0  0  0
 68167  1  0  0  0
 69168  1  0  0  0
 70169  1  0  0  0
 73170  1  0  0  0
 73171  1  0  0  0
 76172  1  0  0  0
 77173  1  0  0  0
 79174  1  0  0  0
 80175  1  0  0  0
 83176  1  0  0  0
 83177  1  0  0  0
 84178  1  0  0  0
 84179  1  0  0  0
 85180  1  0  0  0
 85181  1  0  0  0
 86182  1  0  0  0
 88183  1  0  0  0
 89184  1  0  0  0
 89185  1  0  0  0
 90186  1  0  0  0
 91187  1  0  0  0
 94188  1  0  0  0
 94189  1  0  0  0
 96190  1  0  0  0
 97191  1  0  0  0
100192  1  0  0  0
100193  1  0  0  0
101194  1  0  0  0
102195  1  0  0  0
102196  1  0  0  0
102197  1  0  0  0
103198  1  0  0  0
103199  1  0  0  0
103200  1  0  0  0
104201  1  0  0  0
104202  1  0  0  0
M  END
$$$$
