4ln7_ligand
  -I-interpret- 

 33 35  0  0  0  0  0  0  0  0999 V2000
    9.3570   20.0570   -8.3030 O   0  0  0  0  0
    9.9160   20.8670   -9.2440 C   0  0  0  0  0
   10.3090   22.1210   -8.8160 C   0  0  0  0  0
   10.1010   22.4330   -7.4890 O   0  0  0  0  0
   10.9130   22.9900   -9.7160 C   0  0  0  0  0
   11.0970   22.5480  -11.0160 C   0  0  0  0  0
   11.7560   23.5070  -11.9400 C   0  0  0  0  0
   13.0430   23.2330  -12.3950 C   0  0  0  0  0
   13.6690   24.1450  -13.2430 C   0  0  0  0  0
   13.0180   25.3130  -13.6120 C   0  0  0  0  0
   13.6280   26.1760  -14.4290 F   0  0  0  0  0
   11.7370   25.5780  -13.1340 C   0  0  0  0  0
   11.1000   24.6810  -12.2770 C   0  0  0  0  0
   10.6790   21.2650  -11.3880 C   0  0  0  0  0
   10.8590   20.6860  -12.7510 C   0  0  0  0  0
   11.4430   19.4220  -12.8600 C   0  0  0  0  0
   11.6480   18.8150  -14.1040 C   0  0  0  0  0
   11.2590   19.4960  -15.2450 C   0  0  0  0  0
   11.4270   18.9520  -16.4620 F   0  0  0  0  0
   10.6740   20.7510  -15.1320 C   0  0  0  0  0
   10.4690   21.3630  -13.9070 C   0  0  0  0  0
   10.1180   20.4630  -10.4770 N   0  0  0  0  0
    9.1224   19.2169   -8.7041 H   0  0  0  0  0
   10.4138   23.3244   -7.3182 H   0  0  0  0  0
   11.2315   23.9864   -9.4095 H   0  0  0  0  0
   13.5535   22.3187  -12.0925 H   0  0  0  0  0
   14.6721   23.9400  -13.6170 H   0  0  0  0  0
   11.2279   26.4945  -13.4323 H   0  0  0  0  0
   10.1081   24.8981  -11.8808 H   0  0  0  0  0
   11.7462   18.8960  -11.9548 H   0  0  0  0  0
   12.1041   17.8274  -14.1733 H   0  0  0  0  0
   10.3659   21.2717  -16.0387 H   0  0  0  0  0
   10.0132   22.3513  -13.8471 H   0  0  0  0  0
  1  2  1  0  0  0
  2  3  4  0  0  0
  2 22  4  0  0  0
  3  4  1  0  0  0
  3  5  4  0  0  0
  5  6  4  0  0  0
  6  7  1  0  0  0
  6 14  4  0  0  0
  7  8  4  0  0  0
  7 13  4  0  0  0
  8  9  4  0  0  0
  9 10  4  0  0  0
 10 11  1  0  0  0
 10 12  4  0  0  0
 12 13  4  0  0  0
 14 15  1  0  0  0
 14 22  4  0  0  0
 15 16  4  0  0  0
 15 21  4  0  0  0
 16 17  4  0  0  0
 17 18  4  0  0  0
 18 19  1  0  0  0
 18 20  4  0  0  0
 20 21  4  0  0  0
  1 23  1  0  0  0
  4 24  1  0  0  0
  5 25  1  0  0  0
  8 26  1  0  0  0
  9 27  1  0  0  0
 12 28  1  0  0  0
 13 29  1  0  0  0
 16 30  1  0  0  0
 17 31  1  0  0  0
 20 32  1  0  0  0
 21 33  1  0  0  0
M  END
$$$$
