4i9r_ligand
  -I-interpret- 

 50 50  0  0  0  0  0  0  0  0999 V2000
  -37.5130   19.8770    8.1020 C   0  0  0  0  0
  -37.8570   20.5090    6.8470 C   0  0  0  0  0
  -38.8750   21.5770    7.0980 C   0  0  0  0  0
  -40.1730   20.9040    7.4430 C   0  0  0  0  0
  -39.9350   19.9360    8.5770 C   0  0  0  0  0
  -38.7230   19.4950    8.9080 C   0  0  0  0  0
  -38.6340   18.5680   10.0890 C   0  0  0  0  0
  -37.5280   18.4740   10.7890 C   0  0  0  0  0
  -37.4440   17.6140   11.9810 C   0  0  0  0  0
  -36.3880   17.7620   12.7800 C   0  0  0  0  0
  -36.2030   16.9590   13.9730 C   0  0  0  0  0
  -35.1980   17.2700   14.7780 C   0  0  0  0  0
  -34.9070   16.4890   15.9860 C   0  0  0  0  0
  -33.7780   16.7640   16.6660 C   0  0  0  0  0
  -33.4060   16.0090   17.8570 C   0  0  0  0  0
  -36.6320   18.7490    7.8720 C   0  0  0  0  0
  -36.7430   20.8930    8.9010 C   0  0  0  0  0
  -41.0930   19.5270    9.4330 C   0  0  0  0  0
  -38.5110   16.5780   12.2480 C   0  0  0  0  0
  -35.8570   15.4100   16.4260 C   0  0  0  0  0
  -38.2668   19.7659    6.1630 H   0  0  0  0  0
  -36.9650   20.9505    6.4026 H   0  0  0  0  0
  -38.9960   22.1996    6.2115 H   0  0  0  0  0
  -38.5536   22.2205    7.9169 H   0  0  0  0  0
  -40.5525   20.3672    6.5735 H   0  0  0  0  0
  -40.9071   21.6513    7.7441 H   0  0  0  0  0
  -39.4994   17.9664   10.3671 H   0  0  0  0  0
  -36.6522   19.0452   10.4811 H   0  0  0  0  0
  -35.6381   18.5119   12.5283 H   0  0  0  0  0
  -36.8691   16.1266   14.2000 H   0  0  0  0  0
  -34.5708   18.1283   14.5369 H   0  0  0  0  0
  -33.1285   17.5677   16.3191 H   0  0  0  0  0
  -34.1852   16.1161   18.6116 H   0  0  0  0  0
  -33.2920   14.9565   17.5975 H   0  0  0  0  0
  -32.4638   16.3921   18.2489 H   0  0  0  0  0
  -35.7529   19.0827    7.3207 H   0  0  0  0  0
  -36.3241   18.3290    8.8295 H   0  0  0  0  0
  -37.1589   17.9902    7.2935 H   0  0  0  0  0
  -36.4336   20.4501    9.8477 H   0  0  0  0  0
  -35.8624   21.2039    8.3388 H   0  0  0  0  0
  -37.3771   21.7585    9.0933 H   0  0  0  0  0
  -41.1777   18.4403    9.4323 H   0  0  0  0  0
  -40.9324   19.8796   10.4518 H   0  0  0  0  0
  -42.0090   19.9644    9.0359 H   0  0  0  0  0
  -38.0608   15.5853   12.2441 H   0  0  0  0  0
  -38.9653   16.7685   13.2203 H   0  0  0  0  0
  -39.2738   16.6355   11.4716 H   0  0  0  0  0
  -35.3373   14.4519   16.4356 H   0  0  0  0  0
  -36.2232   15.6363   17.4274 H   0  0  0  0  0
  -36.6968   15.3623   15.7328 H   0  0  0  0  0
  1  2  1  0  0  0
  1  6  1  0  0  0
  1 16  1  0  0  0
  1 17  1  0  0  0
  2  3  1  0  0  0
  3  4  1  0  0  0
  4  5  1  0  0  0
  5  6  2  0  0  0
  5 18  1  0  0  0
  6  7  1  0  0  0
  7  8  2  0  0  0
  8  9  1  0  0  0
  9 10  2  0  0  0
  9 19  1  0  0  0
 10 11  1  0  0  0
 11 12  2  0  0  0
 12 13  1  0  0  0
 13 14  2  0  0  0
 13 20  1  0  0  0
 14 15  1  0  0  0
  2 21  1  0  0  0
  2 22  1  0  0  0
  3 23  1  0  0  0
  3 24  1  0  0  0
  4 25  1  0  0  0
  4 26  1  0  0  0
  7 27  1  0  0  0
  8 28  1  0  0  0
 10 29  1  0  0  0
 11 30  1  0  0  0
 12 31  1  0  0  0
 14 32  1  0  0  0
 15 33  1  0  0  0
 15 34  1  0  0  0
 15 35  1  0  0  0
 16 36  1  0  0  0
 16 37  1  0  0  0
 16 38  1  0  0  0
 17 39  1  0  0  0
 17 40  1  0  0  0
 17 41  1  0  0  0
 18 42  1  0  0  0
 18 43  1  0  0  0
 18 44  1  0  0  0
 19 45  1  0  0  0
 19 46  1  0  0  0
 19 47  1  0  0  0
 20 48  1  0  0  0
 20 49  1  0  0  0
 20 50  1  0  0  0
M  END
$$$$
