5g1n_ligand
  -I-interpret- 

 26 25  0  0  0  0  0  0  0  0999 V2000
  -54.9230  -44.3650   93.8620 P   0  0  0  0  0
  -55.6220  -45.6810   93.8670 O   0  0  0  0  0
  -56.0010  -43.2050   93.7700 O   0  0  0  0  0
  -53.9250  -44.2440   95.1020 O   0  0  0  0  0
  -53.8670  -44.1810   92.3910 C   0  0  0  0  0
  -54.5930  -44.4570   91.1050 C   0  0  0  0  0
  -55.5200  -43.7410   90.7210 O   0  0  0  0  0
  -54.1040  -45.5060   90.4610 N   0  0  0  0  0
  -54.5290  -45.9850   89.1590 C   0  0  0  0  0
  -55.9530  -46.4640   89.1080 C   0  0  0  0  0
  -56.4710  -46.9360   90.1480 O   0  0  0  0  0
  -56.5840  -46.3720   88.0260 O   0  0  0  0  0
  -53.5710  -47.1140   88.7370 C   0  0  0  0  0
  -53.4090  -48.1680   89.8200 C   0  0  0  0  0
  -54.2680  -48.2470   90.7180 O   0  0  0  0  0
  -52.4160  -48.9320   89.8100 O   0  0  0  0  0
  -55.5551  -42.3549   93.7665 H   0  0  0  0  0
  -53.4876  -43.3898   95.0771 H   0  0  0  0  0
  -53.0550  -44.9034   92.4742 H   0  0  0  0  0
  -53.5199  -43.1482   92.3599 H   0  0  0  0  0
  -53.3585  -46.0260   90.9239 H   0  0  0  0  0
  -54.4914  -45.1412   88.4700 H   0  0  0  0  0
  -56.0140  -45.9874   87.3561 H   0  0  0  0  0
  -52.5927  -46.6733   88.5450 H   0  0  0  0  0
  -53.9872  -47.5981   87.8535 H   0  0  0  0  0
  -51.8650  -48.7288   89.0506 H   0  0  0  0  0
  1  2  2  0  0  0
  1  3  1  0  0  0
  1  4  1  0  0  0
  1  5  1  0  0  0
  5  6  1  0  0  0
  6  7  2  0  0  0
  6  8  1  0  0  0
  8  9  1  0  0  0
  9 10  1  0  0  0
  9 13  1  0  0  0
 10 11  2  0  0  0
 10 12  1  0  0  0
 13 14  1  0  0  0
 14 15  2  0  0  0
 14 16  1  0  0  0
  3 17  1  0  0  0
  4 18  1  0  0  0
  5 19  1  0  0  0
  5 20  1  0  0  0
  8 21  1  0  0  0
  9 22  1  0  0  0
 12 23  1  0  0  0
 13 24  1  0  0  0
 13 25  1  0  0  0
 16 26  1  0  0  0
M  END
$$$$
