### 
### Created by X-TOOL on Mon Sep 10 21:13:26 2018
### 

@<TRIPOS>MOLECULE
5g1n_ligand
   22    21     1     0     0
SMALL
GAST_HUCK


@<TRIPOS>ATOM
      1 P         -54.9230  -44.3650   93.8620 P.3       1 PAL         0.0776
      2 O1P       -55.6220  -45.6810   93.8670 O.co2     1 PAL        -0.5606
      3 O2P       -56.0010  -43.2050   93.7700 O.co2     1 PAL        -0.5606
      4 O3P       -53.9250  -44.2440   95.1020 O.co2     1 PAL        -0.5606
      5 C1P       -53.8670  -44.1810   92.3910 C.3       1 PAL         0.1085
      6 C1        -54.5930  -44.4570   91.1050 C.2       1 PAL         0.1943
      7 O1        -55.5200  -43.7410   90.7210 O.2       1 PAL        -0.3954
      8 N2        -54.1040  -45.5060   90.4610 N.am      1 PAL        -0.2687
      9 C2        -54.5290  -45.9850   89.1590 C.3       1 PAL         0.1057
     10 C4        -55.9530  -46.4640   89.1080 C.2       1 PAL         0.0618
     11 O2        -56.4710  -46.9360   90.1480 O.co2     1 PAL        -0.5665
     12 O3        -56.5840  -46.3720   88.0260 O.co2     1 PAL        -0.5665
     13 C3        -53.5710  -47.1140   88.7370 C.3       1 PAL         0.0351
     14 C5        -53.4090  -48.1680   89.8200 C.2       1 PAL         0.0387
     15 O4        -54.2680  -48.2470   90.7180 O.co2     1 PAL        -0.5688
     16 O5        -52.4160  -48.9320   89.8100 O.co2     1 PAL        -0.5688
     17 H1        -53.0246  -44.8834   92.4749 H         1 PAL         0.0692
     18 H2        -53.4837  -43.1504   92.3621 H         1 PAL         0.0692
     19 H3        -53.3731  -46.0158   90.9148 H         1 PAL         0.1876
     20 H4        -54.4341  -45.1542   88.4444 H         1 PAL         0.0745
     21 H5        -52.5853  -46.6780   88.5176 H         1 PAL         0.0471
     22 H6        -53.9688  -47.5955   87.8315 H         1 PAL         0.0471
@<TRIPOS>BOND
     1    1    2 ar 
     2    1    3 ar 
     3    1    4 ar 
     4    1    5 1  
     5    5    6 1  
     6    6    7 2  
     7    6    8 am 
     8    8    9 1  
     9    9   10 1  
    10    9   13 1  
    11   10   11 ar 
    12   10   12 ar 
    13   13   14 1  
    14   14   15 ar 
    15   14   16 ar 
    16    5   17 1  
    17    5   18 1  
    18    8   19 1  
    19    9   20 1  
    20   13   21 1  
    21   13   22 1  
@<TRIPOS>SUBSTRUCTURE
     1 PAL         1

