4os4_ligand
  -I-interpret- 

202204  0  0  0  0  0  0  0  0999 V2000
   22.2680   20.5250  -14.2670 N   0  3  0  0  0
   22.7770   19.1550  -13.9980 C   0  0  0  0  0
   24.2880   19.0650  -14.1070 C   0  0  0  0  0
   24.9910   20.0900  -14.2410 O   0  0  0  0  0
   24.7930   17.8380  -14.0180 N   0  0  0  0  0
   26.2300   17.6060  -14.0510 C   0  0  0  0  0
   26.7260   17.2410  -12.7130 C   0  0  0  0  0
   26.7930   18.3240  -11.6900 C   0  0  0  0  0
   27.7870   17.9090  -10.5710 C   0  0  0  0  0
   27.5080   16.4140   -9.8130 S   0  0  0  0  0
   25.2430   18.7090  -11.1060 S   0  0  0  0  0
   26.3760   16.4700  -14.9030 C   0  0  0  0  0
   25.6620   15.4720  -14.7530 O   0  0  0  0  0
   27.3060   16.5510  -15.8550 N   0  0  0  0  0
   27.6130   15.4210  -16.7370 C   0  0  0  0  0
   29.0280   14.9040  -16.4710 C   0  0  0  0  0
   29.7410   14.5420  -17.3970 O   0  0  0  0  0
   27.4570   15.8340  -18.2000 C   0  0  0  0  0
   29.4130   14.8420  -15.1980 N   0  0  0  0  0
   30.8070   14.6000  -14.8210 C   0  0  0  0  0
   31.1140   13.1600  -14.4080 C   0  0  0  0  0
   32.2690   12.8040  -14.2620 O   0  0  0  0  0
   31.2190   15.5930  -13.7310 C   0  0  0  0  0
   31.0420   17.0570  -14.1840 C   0  0  0  0  0
   31.3430   18.0420  -13.0620 C   0  0  0  0  0
   31.9040   17.3650  -15.4020 C   0  0  0  0  0
   30.0930   12.3250  -14.2600 N   0  0  0  0  0
   30.3100   10.9000  -14.0480 C   0  0  0  0  0
   29.3420   10.3260  -13.0400 C   0  0  0  0  0
   28.3710   10.9770  -12.6280 O   0  0  0  0  0
   29.6310    9.0930  -12.6600 N   0  0  0  0  0
   28.8930    8.3850  -11.6320 C   0  0  0  0  0
   28.9330    9.1910  -10.3310 C   0  0  0  0  0
   30.0110    9.5200   -9.8110 O   0  0  0  0  0
   29.5090    7.0070  -11.4280 C   0  0  0  0  0
   29.4740    6.1150  -12.6710 C   0  0  0  0  0
   30.4350    4.9460  -12.5190 C   0  0  0  0  0
   31.8030    5.3260  -12.8510 N   0  0  0  0  0
   32.7990    4.4650  -13.0330 C   0  0  0  0  0
   32.5860    3.1540  -12.9090 N   0  0  0  0  0
   34.0060    4.9220  -13.3550 N   0  0  0  0  0
   27.7520    9.5060   -9.8170 N   0  0  0  0  0
   27.6110   10.3250   -8.6230 C   0  0  0  0  0
   26.8560   11.6010   -8.9210 C   0  0  0  0  0
   26.3480   12.2530   -8.0060 O   0  0  0  0  0
   26.7700   11.9430  -10.2100 N   0  0  0  0  0
   26.1800   13.1960  -10.6690 C   0  0  0  0  0
   24.7960   13.0690  -11.3210 C   0  0  0  0  0
   24.2240   14.0750  -11.7230 O   0  0  0  0  0
   27.1400   13.8870  -11.6490 C   0  0  0  0  0
   28.4170   14.8650  -10.8270 S   0  0  0  0  0
   24.2660   11.8520  -11.4330 N   0  0  0  0  0
   22.9620   11.6290  -12.0610 C   0  0  0  0  0
   21.8820   12.4380  -11.3460 C   0  0  0  0  0
   21.8690   12.5030  -10.1090 O   0  0  0  0  0
   22.5660   10.1460  -12.0110 C   0  0  0  0  0
   23.4060    9.2300  -12.8960 C   0  0  0  0  0
   24.6160    8.6700  -12.1820 C   0  0  0  0  0
   24.9560    9.1600  -11.0770 O   0  0  0  0  0
   25.2170    7.7160  -12.7100 O   0  0  0  0  0
   20.9920   13.0520  -12.1160 N   0  0  0  0  0
   19.8090   13.6900  -11.5470 C   0  0  0  0  0
   20.1710   14.7270  -10.4630 C   0  0  0  0  0
   19.5480   14.7620   -9.4070 O   0  0  0  0  0
   18.8990   12.5890  -10.9720 C   0  0  0  0  0
   17.4960   13.0740  -10.6630 C   0  0  0  0  0
   16.9300   13.8930  -11.3860 O   0  0  0  0  0
   16.9180   12.5540   -9.5830 N   0  0  0  0  0
   21.1900   15.5540  -10.7240 N   0  0  0  0  0
   21.6110   16.5910   -9.7670 C   0  0  0  0  0
   21.2140   17.9820  -10.2470 C   0  0  0  0  0
   20.9560   18.2100  -11.4340 O   0  0  0  0  0
   23.1230   16.5630   -9.5200 C   0  0  0  0  0
   23.5400   15.6720   -8.3970 C   0  0  0  0  0
   23.2730   14.3210   -8.3860 N   0  0  0  0  0
   24.2210   15.9330   -7.2550 C   0  0  0  0  0
   23.7530   13.7900   -7.2710 C   0  0  0  0  0
   24.3340   14.7450   -6.5700 N   0  0  0  0  0
   21.1650   18.9100   -9.3050 N   0  0  0  0  0
   20.8710   20.3000   -9.6100 C   0  0  0  0  0
   22.1850   21.0640   -9.5260 C   0  0  0  0  0
   22.7740   21.1600   -8.4570 O   0  0  0  0  0
   19.8490   20.8480   -8.6070 C   0  0  0  0  0
   19.6950   22.3630   -8.5860 C   0  0  0  0  0
   18.5270   22.7690   -7.6980 C   0  0  0  0  0
   18.5410   21.9530   -6.4890 N   0  0  0  0  0
   17.6630   21.0010   -6.1730 C   0  0  0  0  0
   16.6100   20.7260   -6.9360 N   0  0  0  0  0
   17.8370   20.3310   -5.0510 N   0  0  0  0  0
   22.6660   21.5800  -10.6470 N   0  0  0  0  0
   23.8110   22.4980  -10.6180 C   0  0  0  0  0
   23.5160   23.7140  -11.4700 C   0  0  0  0  0
   23.6690   23.6630  -12.6940 O   0  0  0  0  0
   25.0820   21.8100  -11.1220 C   0  0  0  0  0
   25.6230   20.4310  -10.0910 S   0  0  0  0  0
   23.0760   24.7990  -10.8350 N   0  0  0  0  0
   22.8230   26.0410  -11.5680 C   0  0  0  0  0
   24.1380   26.7190  -11.9460 C   0  0  0  0  0
   24.1820   27.4920  -12.8940 O   0  0  0  0  0
   21.9240   27.0080  -10.7780 C   0  0  0  0  0
   20.4080   26.8000  -10.9020 C   0  0  0  0  0
   19.9160   26.9860  -12.3360 C   0  0  0  0  0
   20.0020   25.4310  -10.3740 C   0  0  0  0  0
   25.2270   26.4080  -11.1920 N   0  0  0  0  0
   21.2516   20.5317  -14.1814 H   0  0  0  0  0
   22.6715   21.1749  -13.5923 H   0  0  0  0  0
   22.5327   20.8054  -15.2113 H   0  0  0  0  0
   22.3456   18.4839  -14.7407 H   0  0  0  0  0
   22.4965   18.8858  -12.9797 H   0  0  0  0  0
   24.1607   17.0431  -13.9247 H   0  0  0  0  0
   26.7766   18.4881  -14.3844 H   0  0  0  0  0
   27.7539   16.9093  -12.8595 H   0  0  0  0  0
   26.0162   16.5110  -12.3240 H   0  0  0  0  0
   27.1713   19.2410  -12.1418 H   0  0  0  0  0
   27.6897   18.6630   -9.7899 H   0  0  0  0  0
   28.7608   17.8227  -11.0530 H   0  0  0  0  0
   27.8188   17.4248  -15.9731 H   0  0  0  0  0
   26.9096   14.6148  -16.5285 H   0  0  0  0  0
   26.4312   16.1569  -18.3776 H   0  0  0  0  0
   28.1406   16.6541  -18.4196 H   0  0  0  0  0
   27.6883   14.9845  -18.8426 H   0  0  0  0  0
   28.7162   14.9668  -14.4636 H   0  0  0  0  0
   31.4045   14.7584  -15.7188 H   0  0  0  0  0
   32.2730   15.4319  -13.5046 H   0  0  0  0  0
   30.5834   15.4267  -12.8613 H   0  0  0  0  0
   29.9942   17.1765  -14.4595 H   0  0  0  0  0
   30.6655   17.8589  -12.2280 H   0  0  0  0  0
   32.3730   17.9098  -12.7308 H   0  0  0  0  0
   31.2052   19.0598  -13.4271 H   0  0  0  0  0
   32.9528   17.2015  -15.1540 H   0  0  0  0  0
   31.6171   16.7090  -16.2238 H   0  0  0  0  0
   31.7567   18.4041  -15.6964 H   0  0  0  0  0
   29.1401   12.6871  -14.2953 H   0  0  0  0  0
   31.3219   10.7615  -13.6671 H   0  0  0  0  0
   30.1589   10.3865  -14.9975 H   0  0  0  0  0
   30.4113    8.6165  -13.1121 H   0  0  0  0  0
   27.8534    8.2633  -11.9361 H   0  0  0  0  0
   28.9267    6.5053  -10.6552 H   0  0  0  0  0
   30.5571    7.1580  -11.1695 H   0  0  0  0  0
   29.7709    6.7056  -13.5377 H   0  0  0  0  0
   28.4635    5.7269  -12.7986 H   0  0  0  0  0
   30.1234    4.1544  -13.2004 H   0  0  0  0  0
   30.4127    4.6158  -11.4805 H   0  0  0  0  0
   32.0096    6.3199  -12.9503 H   0  0  0  0  0
   33.3507    2.4964  -13.0613 H   0  0  0  0  0
   31.6584    2.8091  -12.6619 H   0  0  0  0  0
   34.1604    5.9248  -13.4600 H   0  0  0  0  0
   26.9095    9.1606  -10.2767 H   0  0  0  0  0
   28.6054   10.5857   -8.2605 H   0  0  0  0  0
   27.0552    9.7583   -7.8760 H   0  0  0  0  0
   27.1353   11.2954  -10.9082 H   0  0  0  0  0
   26.0259   13.7886   -9.7672 H   0  0  0  0  0
   26.5502   14.5659  -12.2649 H   0  0  0  0  0
   27.6405   13.1083  -12.2245 H   0  0  0  0  0
   24.7839   11.0515  -11.0705 H   0  0  0  0  0
   23.0454   11.9461  -13.1005 H   0  0  0  0  0
   21.5393   10.0800  -12.3712 H   0  0  0  0  0
   22.7115    9.8138  -10.9831 H   0  0  0  0  0
   23.7612    9.8184  -13.7420 H   0  0  0  0  0
   22.7788    8.3908  -13.1968 H   0  0  0  0  0
   24.3645    9.8821  -10.8529 H   0  0  0  0  0
   21.1377   13.0785  -13.1252 H   0  0  0  0  0
   19.2894   14.2394  -12.3320 H   0  0  0  0  0
   19.3438   12.2479  -10.0372 H   0  0  0  0  0
   18.8186   11.8021  -11.7219 H   0  0  0  0  0
   15.9703   12.8320   -9.3279 H   0  0  0  0  0
   17.4226   11.8774   -9.0103 H   0  0  0  0  0
   21.6884   15.4637  -11.6094 H   0  0  0  0  0
   21.0981   16.3695   -8.8311 H   0  0  0  0  0
   23.4260   17.5766   -9.2574 H   0  0  0  0  0
   23.5911   16.1800  -10.4268 H   0  0  0  0  0
   24.6068   16.9020   -6.9384 H   0  0  0  0  0
   23.6802   12.7416   -6.9818 H   0  0  0  0  0
   21.3387   18.6418   -8.3363 H   0  0  0  0  0
   20.4391   20.4053  -10.6052 H   0  0  0  0  0
   20.2013   20.5589   -7.6168 H   0  0  0  0  0
   18.8804   20.4424   -8.8991 H   0  0  0  0  0
   19.5064   22.7135   -9.6007 H   0  0  0  0  0
   20.6096   22.8061   -8.1920 H   0  0  0  0  0
   17.5894   22.6166   -8.2326 H   0  0  0  0  0
   18.6178   23.8219   -7.4310 H   0  0  0  0  0
   19.2934   22.1272   -5.8227 H   0  0  0  0  0
   15.9483   20.0040   -6.6510 H   0  0  0  0  0
   16.4636   21.2370   -7.8066 H   0  0  0  0  0
   18.6300   20.5458   -4.4465 H   0  0  0  0  0
   22.2364   21.3370  -11.5396 H   0  0  0  0  0
   23.9747   22.8056   -9.5852 H   0  0  0  0  0
   25.8788   22.5537  -11.1138 H   0  0  0  0  0
   24.8635   21.4092  -12.1118 H   0  0  0  0  0
   22.9138   24.7644   -9.8286 H   0  0  0  0  0
   22.2882   25.7743  -12.4796 H   0  0  0  0  0
   22.1242   28.0005  -11.1816 H   0  0  0  0  0
   22.1633   26.8482   -9.7267 H   0  0  0  0  0
   19.9317   27.5669  -10.2912 H   0  0  0  0  0
   20.1483   27.9972  -12.6702 H   0  0  0  0  0
   20.4118   26.2645  -12.9853 H   0  0  0  0  0
   18.8380   26.8286  -12.3722 H   0  0  0  0  0
   20.5105   24.6562  -10.9478 H   0  0  0  0  0
   20.2825   25.3502   -9.3238 H   0  0  0  0  0
   18.9234   25.3098  -10.4737 H   0  0  0  0  0
   26.1324   26.8255  -11.4072 H   0  0  0  0  0
   25.1380   25.7573  -10.4115 H   0  0  0  0  0
  1  2  1  0  0  0
  2  3  1  0  0  0
  3  4  2  0  0  0
  3  5  1  0  0  0
  5  6  1  0  0  0
  6  7  1  0  0  0
  6 12  1  0  0  0
  7  8  1  0  0  0
  8  9  1  0  0  0
  8 11  1  0  0  0
  9 10  1  0  0  0
 10 51  1  0  0  0
 11 95  1  0  0  0
 12 13  2  0  0  0
 12 14  1  0  0  0
 14 15  1  0  0  0
 15 16  1  0  0  0
 15 18  1  0  0  0
 16 17  2  0  0  0
 16 19  1  0  0  0
 19 20  1  0  0  0
 20 21  1  0  0  0
 20 23  1  0  0  0
 21 22  2  0  0  0
 21 27  1  0  0  0
 23 24  1  0  0  0
 24 25  1  0  0  0
 24 26  1  0  0  0
 27 28  1  0  0  0
 28 29  1  0  0  0
 29 30  2  0  0  0
 29 31  1  0  0  0
 31 32  1  0  0  0
 32 33  1  0  0  0
 32 35  1  0  0  0
 33 34  2  0  0  0
 33 42  1  0  0  0
 35 36  1  0  0  0
 36 37  1  0  0  0
 37 38  1  0  0  0
 38 39  1  0  0  0
 39 40  1  0  0  0
 39 41  2  0  0  0
 42 43  1  0  0  0
 43 44  1  0  0  0
 44 45  2  0  0  0
 44 46  1  0  0  0
 46 47  1  0  0  0
 47 48  1  0  0  0
 47 50  1  0  0  0
 48 49  2  0  0  0
 48 52  1  0  0  0
 50 51  1  0  0  0
 52 53  1  0  0  0
 53 54  1  0  0  0
 53 56  1  0  0  0
 54 55  2  0  0  0
 54 61  1  0  0  0
 56 57  1  0  0  0
 57 58  1  0  0  0
 58 59  1  0  0  0
 58 60  2  0  0  0
 61 62  1  0  0  0
 62 63  1  0  0  0
 62 65  1  0  0  0
 63 64  2  0  0  0
 63 69  1  0  0  0
 65 66  1  0  0  0
 66 67  2  0  0  0
 66 68  1  0  0  0
 69 70  1  0  0  0
 70 71  1  0  0  0
 70 73  1  0  0  0
 71 72  2  0  0  0
 71 79  1  0  0  0
 73 74  1  0  0  0
 74 75  4  0  0  0
 74 76  4  0  0  0
 75 77  4  0  0  0
 76 78  4  0  0  0
 77 78  4  0  0  0
 79 80  1  0  0  0
 80 81  1  0  0  0
 80 83  1  0  0  0
 81 82  2  0  0  0
 81 90  1  0  0  0
 83 84  1  0  0  0
 84 85  1  0  0  0
 85 86  1  0  0  0
 86 87  1  0  0  0
 87 88  1  0  0  0
 87 89  2  0  0  0
 90 91  1  0  0  0
 91 92  1  0  0  0
 91 94  1  0  0  0
 92 93  2  0  0  0
 92 96  1  0  0  0
 94 95  1  0  0  0
 96 97  1  0  0  0
 97 98  1  0  0  0
 97100  1  0  0  0
 98 99  2  0  0  0
 98104  1  0  0  0
100101  1  0  0  0
101102  1  0  0  0
101103  1  0  0  0
  1105  1  0  0  0
  1106  1  0  0  0
  1107  1  0  0  0
  2108  1  0  0  0
  2109  1  0  0  0
  5110  1  0  0  0
  6111  1  0  0  0
  7112  1  0  0  0
  7113  1  0  0  0
  8114  1  0  0  0
  9115  1  0  0  0
  9116  1  0  0  0
 14117  1  0  0  0
 15118  1  0  0  0
 18119  1  0  0  0
 18120  1  0  0  0
 18121  1  0  0  0
 19122  1  0  0  0
 20123  1  0  0  0
 23124  1  0  0  0
 23125  1  0  0  0
 24126  1  0  0  0
 25127  1  0  0  0
 25128  1  0  0  0
 25129  1  0  0  0
 26130  1  0  0  0
 26131  1  0  0  0
 26132  1  0  0  0
 27133  1  0  0  0
 28134  1  0  0  0
 28135  1  0  0  0
 31136  1  0  0  0
 32137  1  0  0  0
 35138  1  0  0  0
 35139  1  0  0  0
 36140  1  0  0  0
 36141  1  0  0  0
 37142  1  0  0  0
 37143  1  0  0  0
 38144  1  0  0  0
 40145  1  0  0  0
 40146  1  0  0  0
 41147  1  0  0  0
 42148  1  0  0  0
 43149  1  0  0  0
 43150  1  0  0  0
 46151  1  0  0  0
 47152  1  0  0  0
 50153  1  0  0  0
 50154  1  0  0  0
 52155  1  0  0  0
 53156  1  0  0  0
 56157  1  0  0  0
 56158  1  0  0  0
 57159  1  0  0  0
 57160  1  0  0  0
 59161  1  0  0  0
 61162  1  0  0  0
 62163  1  0  0  0
 65164  1  0  0  0
 65165  1  0  0  0
 68166  1  0  0  0
 68167  1  0  0  0
 69168  1  0  0  0
 70169  1  0  0  0
 73170  1  0  0  0
 73171  1  0  0  0
 76172  1  0  0  0
 77173  1  0  0  0
 79174  1  0  0  0
 80175  1  0  0  0
 83176  1  0  0  0
 83177  1  0  0  0
 84178  1  0  0  0
 84179  1  0  0  0
 85180  1  0  0  0
 85181  1  0  0  0
 86182  1  0  0  0
 88183  1  0  0  0
 88184  1  0  0  0
 89185  1  0  0  0
 90186  1  0  0  0
 91187  1  0  0  0
 94188  1  0  0  0
 94189  1  0  0  0
 96190  1  0  0  0
 97191  1  0  0  0
100192  1  0  0  0
100193  1  0  0  0
101194  1  0  0  0
102195  1  0  0  0
102196  1  0  0  0
102197  1  0  0  0
103198  1  0  0  0
103199  1  0  0  0
103200  1  0  0  0
104201  1  0  0  0
104202  1  0  0  0
M  END
$$$$
