### 
### Created by X-TOOL on Mon Sep 10 21:13:17 2018
### 

@<TRIPOS>MOLECULE
4os4_ligand
  204   206     1     0     0
SMALL
GAST_HUCK


@<TRIPOS>ATOM
      1 N          22.2680   20.5250  -14.2670 N.4       1 GLY         0.2357
      2 CA         22.7770   19.1550  -13.9980 C.3       1 GLY         0.0545
      3 C          24.2880   19.0650  -14.1070 C.2       1 GLY         0.2236
      4 O          24.9910   20.0900  -14.2410 O.2       1 GLY        -0.3910
      5 N          24.7930   17.8380  -14.0180 N.am      1 81R        -0.2612
      6 CA         26.2300   17.6060  -14.0510 C.3       1 81R         0.1321
      7 CB         26.7260   17.2410  -12.7130 C.3       1 81R         0.0010
      8 CG         26.7930   18.3240  -11.6900 C.3       1 81R         0.0294
      9 CD1        27.7870   17.9090  -10.5710 C.3       1 81R         0.0168
     10 SE         27.5080   16.4140   -9.8130 S.3       1 81R        -0.0918
     11 SD2        25.2430   18.7090  -11.1060 S.3       1 81R        -0.0885
     12 C          26.3760   16.4700  -14.9030 C.2       1 81R         0.2039
     13 O          25.6620   15.4720  -14.7530 O.2       1 81R        -0.3944
     14 N          27.3060   16.5510  -15.8550 N.am      1 ALA        -0.2640
     15 CA         27.6130   15.4210  -16.7370 C.3       1 ALA         0.1282
     16 C          29.0280   14.9040  -16.4710 C.2       1 ALA         0.2036
     17 O          29.7410   14.5420  -17.3970 O.2       1 ALA        -0.3944
     18 CB         27.4570   15.8340  -18.2000 C.3       1 ALA        -0.0244
     19 N          29.4130   14.8420  -15.1980 N.am      1 LEU        -0.2637
     20 CA         30.8070   14.6000  -14.8210 C.3       1 LEU         0.1312
     21 C          31.1140   13.1600  -14.4080 C.2       1 LEU         0.2037
     22 O          32.2690   12.8040  -14.2620 O.2       1 LEU        -0.3944
     23 CB         31.2190   15.5930  -13.7310 C.3       1 LEU        -0.0101
     24 CG         31.0420   17.0570  -14.1840 C.3       1 LEU        -0.0425
     25 CD1        31.3430   18.0420  -13.0620 C.3       1 LEU        -0.0625
     26 CD2        31.9040   17.3650  -15.4020 C.3       1 LEU        -0.0625
     27 N          30.0930   12.3250  -14.2600 N.am      1 GLY        -0.2664
     28 CA         30.3100   10.9000  -14.0480 C.3       1 GLY         0.1201
     29 C          29.3420   10.3260  -13.0400 C.2       1 GLY         0.2007
     30 O          28.3710   10.9770  -12.6280 O.2       1 GLY        -0.3947
     31 N          29.6310    9.0930  -12.6600 N.am      1 ARG        -0.2640
     32 CA         28.8930    8.3850  -11.6320 C.3       1 ARG         0.1311
     33 C          28.9330    9.1910  -10.3310 C.2       1 ARG         0.2037
     34 O          30.0110    9.5200   -9.8110 O.2       1 ARG        -0.3944
     35 CB         29.5090    7.0070  -11.4280 C.3       1 ARG        -0.0092
     36 CG         29.4740    6.1150  -12.6710 C.3       1 ARG        -0.0156
     37 CD         30.4350    4.9460  -12.5190 C.3       1 ARG         0.0627
     38 NE         31.8030    5.3260  -12.8510 N.pl3     1 ARG        -0.2723
     39 CZ         32.7990    4.4650  -13.0330 C.cat     1 ARG         0.2882
     40 NH1        32.5860    3.1540  -12.9090 N.pl3     1 ARG        -0.2849
     41 NH2        34.0060    4.9220  -13.3550 N.pl3     1 ARG        -0.2849
     42 N          27.7520    9.5060   -9.8170 N.am      1 GLY        -0.2664
     43 CA         27.6110   10.3250   -8.6230 C.3       1 GLY         0.1201
     44 C          26.8560   11.6010   -8.9210 C.2       1 GLY         0.2008
     45 O          26.3480   12.2530   -8.0060 O.2       1 GLY        -0.3947
     46 N          26.7700   11.9430  -10.2100 N.am      1 CYS        -0.2631
     47 CA         26.1800   13.1960  -10.6690 C.3       1 CYS         0.1406
     48 C          24.7960   13.0690  -11.3210 C.2       1 CYS         0.2047
     49 O          24.2240   14.0750  -11.7230 O.2       1 CYS        -0.3944
     50 CB         27.1400   13.8870  -11.6490 C.3       1 CYS         0.0443
     51 SG         28.4170   14.8650  -10.8270 S.3       1 CYS        -0.0883
     52 N          24.2660   11.8520  -11.4330 N.am      1 GLU        -0.2636
     53 CA         22.9620   11.6290  -12.0610 C.3       1 GLU         0.1325
     54 C          21.8820   12.4380  -11.3460 C.2       1 GLU         0.2041
     55 O          21.8690   12.5030  -10.1090 O.2       1 GLU        -0.3944
     56 CB         22.5660   10.1460  -12.0110 C.3       1 GLU        -0.0008
     57 CG         23.4060    9.2300  -12.8960 C.3       1 GLU         0.0044
     58 CD         24.6160    8.6700  -12.1820 C.2       1 GLU         0.0350
     59 OE1        24.9560    9.1600  -11.0770 O.co2     1 GLU        -0.5690
     60 OE2        25.2170    7.7160  -12.7100 O.co2     1 GLU        -0.5690
     61 N          20.9920   13.0520  -12.1160 N.am      1 ASN        -0.2616
     62 CA         19.8090   13.6900  -11.5470 C.3       1 ASN         0.1476
     63 C          20.1710   14.7270  -10.4630 C.2       1 ASN         0.2063
     64 O          19.5480   14.7620   -9.4070 O.2       1 ASN        -0.3942
     65 CB         18.8990   12.5890  -10.9720 C.3       1 ASN         0.0773
     66 CG         17.4960   13.0740  -10.6630 C.2       1 ASN         0.1780
     67 OD1        16.9300   13.8930  -11.3860 O.2       1 ASN        -0.3970
     68 ND2        16.9180   12.5540   -9.5830 N.am      1 ASN        -0.3007
     69 N          21.1900   15.5540  -10.7240 N.am      1 HIS        -0.2623
     70 CA         21.6110   16.5910   -9.7670 C.3       1 HIS         0.1369
     71 C          21.2140   17.9820  -10.2470 C.2       1 HIS         0.2054
     72 O          20.9560   18.2100  -11.4340 O.2       1 HIS        -0.3942
     73 CB         23.1230   16.5630   -9.5200 C.3       1 HIS         0.0145
     74 CG         23.5400   15.6720   -8.3970 C.2       1 HIS        -0.0027
     75 ND1        23.2730   14.3210   -8.3860 N.2       1 HIS        -0.3252
     76 CD2        24.2210   15.9330   -7.2550 C.2       1 HIS         0.0291
     77 CE1        23.7530   13.7900   -7.2710 C.2       1 HIS         0.0907
     78 NE2        24.3340   14.7450   -6.5700 N.pl3     1 HIS        -0.2752
     79 N          21.1650   18.9100   -9.3050 N.am      1 ARG        -0.2636
     80 CA         20.8710   20.3000   -9.6100 C.3       1 ARG         0.1311
     81 C          22.1850   21.0640   -9.5260 C.2       1 ARG         0.2039
     82 O          22.7740   21.1600   -8.4570 O.2       1 ARG        -0.3944
     83 CB         19.8490   20.8480   -8.6070 C.3       1 ARG        -0.0092
     84 CG         19.6950   22.3630   -8.5860 C.3       1 ARG        -0.0156
     85 CD         18.5270   22.7690   -7.6980 C.3       1 ARG         0.0627
     86 NE         18.5410   21.9530   -6.4890 N.pl3     1 ARG        -0.2723
     87 CZ         17.6630   21.0010   -6.1730 C.cat     1 ARG         0.2882
     88 NH1        16.6100   20.7260   -6.9360 N.pl3     1 ARG        -0.2849
     89 NH2        17.8370   20.3310   -5.0510 N.pl3     1 ARG        -0.2849
     90 N          22.6660   21.5800  -10.6470 N.am      1 CYS        -0.2629
     91 CA         23.8110   22.4980  -10.6180 C.3       1 CYS         0.1406
     92 C          23.5160   23.7140  -11.4700 C.2       1 CYS         0.2047
     93 O          23.6690   23.6630  -12.6940 O.2       1 CYS        -0.3944
     94 CB         25.0820   21.8100  -11.1220 C.3       1 CYS         0.0443
     95 SG         25.6230   20.4310  -10.0910 S.3       1 CYS        -0.0881
     96 N          23.0760   24.7990  -10.8350 N.am      1 LEU        -0.2637
     97 CA         22.8230   26.0410  -11.5680 C.3       1 LEU         0.1309
     98 C          24.1380   26.7190  -11.9460 C.2       1 LEU         0.1992
     99 O          24.1820   27.4920  -12.8940 O.2       1 LEU        -0.3947
    100 CB         21.9240   27.0080  -10.7780 C.3       1 LEU        -0.0101
    101 CG         20.4080   26.8000  -10.9020 C.3       1 LEU        -0.0425
    102 CD1        19.9160   26.9860  -12.3360 C.3       1 LEU        -0.0625
    103 CD2        20.0020   25.4310  -10.3740 C.3       1 LEU        -0.0625
    104 N          25.2270   26.4080  -11.1920 N.am      1 NH2        -0.2990
    105 H          21.2636   20.5328  -14.1827 H         1 GLY         0.2012
    106 H          22.5290   20.8033  -15.2000 H         1 GLY         0.2012
    107 H          22.6661   21.1682  -13.6008 H         1 GLY         0.2012
    108 H          22.3289   18.4628  -14.7261 H         1 GLY         0.1061
    109 H          22.4785   18.8611  -12.9809 H         1 GLY         0.1061
    110 H          24.1731   17.0587  -13.9265 H         1 81R         0.1884
    111 H          26.7699   18.4826  -14.4384 H         1 81R         0.0800
    112 H          27.7425   16.8389  -12.8356 H         1 81R         0.0323
    113 H          26.0656   16.4545  -12.3189 H         1 81R         0.0323
    114 H          27.1936   19.2270  -12.1738 H         1 81R         0.0431
    115 H          27.7565   18.6868   -9.7938 H         1 81R         0.0396
    116 H          28.7926   17.8740  -11.0155 H         1 81R         0.0396
    117 H          27.8088   17.4076  -15.9707 H         1 ALA         0.1883
    118 H          26.9008   14.6097  -16.5260 H         1 ALA         0.0797
    119 H          27.6902   14.9775  -18.8496 H         1 ALA         0.0277
    120 H          28.1465   16.6616  -18.4229 H         1 ALA         0.0277
    121 H          26.4221   16.1601  -18.3806 H         1 ALA         0.0277
    122 H          28.7299   14.9643  -14.4780 H         1 LEU         0.1883
    123 H          31.4204   14.8088  -15.7099 H         1 LEU         0.0800
    124 H          32.2765   15.4249  -13.4791 H         1 LEU         0.0315
    125 H          30.5978   15.4197  -12.8399 H         1 LEU         0.0315
    126 H          29.9890   17.1898  -14.4729 H         1 LEU         0.0298
    127 H          31.2043   19.0696  -13.4292 H         1 LEU         0.0232
    128 H          32.3823   17.9096  -12.7268 H         1 LEU         0.0232
    129 H          30.6598   17.8583  -12.2197 H         1 LEU         0.0232
    130 H          31.6763   16.6467  -16.2034 H         1 LEU         0.0232
    131 H          32.9666   17.2850  -15.1290 H         1 LEU         0.0232
    132 H          31.6914   18.3856  -15.7531 H         1 LEU         0.0232
    133 H          29.1588   12.6800  -14.2946 H         1 GLY         0.1881
    134 H          31.3361   10.7471  -13.6824 H         1 GLY         0.0763
    135 H          30.1797   10.3742  -15.0054 H         1 GLY         0.0763
    136 H          30.3960    8.6258  -13.1033 H         1 ARG         0.1883
    137 H          27.8466    8.2677  -11.9502 H         1 ARG         0.0800
    138 H          28.9585    6.4986  -10.6228 H         1 ARG         0.0313
    139 H          30.5589    7.1393  -11.1276 H         1 ARG         0.0313
    140 H          29.7637    6.7090  -13.5503 H         1 ARG         0.0301
    141 H          28.4536    5.7283  -12.8097 H         1 ARG         0.0301
    142 H          30.1178    4.1341  -13.1899 H         1 ARG         0.0689
    143 H          30.4058    4.5935  -11.4774 H         1 ARG         0.0689
    144 H          32.0116    6.3297  -12.9513 H         1 ARG         0.2642
    145 H          33.3610    2.4906  -13.0510 H         1 ARG         0.2615
    146 H          31.6465    2.8051  -12.6713 H         1 ARG         0.2615
    147 H          34.1647    5.9353  -13.4494 H         1 ARG         0.2615
    148 H          34.7819    4.2626  -13.5099 H         1 ARG         0.2615
    149 H          26.9260    9.1674  -10.2677 H         1 GLY         0.1881
    150 H          28.6111   10.5804   -8.2429 H         1 GLY         0.0763
    151 H          27.0631    9.7541   -7.8589 H         1 GLY         0.0763
    152 H          27.1281   11.3081  -10.8945 H         1 CYS         0.1884
    153 H          26.0644   13.8415   -9.7859 H         1 CYS         0.0808
    154 H          26.5549   14.5532  -12.3000 H         1 CYS         0.0432
    155 H          27.6306   13.1151  -12.2602 H         1 CYS         0.0432
    156 H          24.7738   11.0672  -11.0776 H         1 GLU         0.1883
    157 H          23.0186   11.9499  -13.1116 H         1 GLU         0.0801
    158 H          21.5164   10.0610  -12.3291 H         1 GLU         0.0330
    159 H          22.6631    9.8006  -10.9712 H         1 GLU         0.0330
    160 H          23.7484    9.8036  -13.7699 H         1 GLU         0.0433
    161 H          22.7770    8.3920  -13.2309 H         1 GLU         0.0433
    162 H          21.1349   13.0779  -13.1054 H         1 ASN         0.1885
    163 H          19.2705   14.2118  -12.3518 H         1 ASN         0.0826
    164 H          19.3510   12.2119  -10.0428 H         1 ASN         0.0551
    165 H          18.8327   11.7719  -11.7054 H         1 ASN         0.0551
    166 H          15.9929   12.8344   -9.3270 H         1 ASN         0.1814
    167 H          17.4088   11.8829   -9.0274 H         1 ASN         0.1814
    168 H          21.6786   15.4655  -11.5920 H         1 HIS         0.1885
    169 H          21.1017   16.3944   -8.8120 H         1 HIS         0.0817
    170 H          23.4547   17.5864   -9.2906 H         1 HIS         0.0420
    171 H          23.6169   16.2148  -10.4391 H         1 HIS         0.0420
    172 H          24.6065   16.9011   -6.9387 H         1 HIS         0.0729
    173 H          23.6803   12.7426   -6.9820 H         1 HIS         0.1199
    174 H          24.7969   14.6213   -5.6582 H         1 HIS         0.2361
    175 H          21.3353   18.6470   -8.3553 H         1 ARG         0.1883
    176 H          20.4587   20.3821  -10.6265 H         1 ARG         0.0800
    177 H          20.1552   20.5250   -7.6011 H         1 ARG         0.0313
    178 H          18.8689   20.4116   -8.8498 H         1 ARG         0.0313
    179 H          19.5132   22.7224   -9.6096 H         1 ARG         0.0301
    180 H          20.6193   22.8153   -8.1972 H         1 ARG         0.0301
    181 H          17.5816   22.6115   -8.2378 H         1 ARG         0.0689
    182 H          18.6220   23.8308   -7.4269 H         1 ARG         0.0689
    183 H          19.3008   22.1289   -5.8162 H         1 ARG         0.2642
    184 H          15.9531   19.9827   -6.6587 H         1 ARG         0.2615
    185 H          16.4509   21.2562   -7.8046 H         1 ARG         0.2615
    186 H          18.6488   20.5341   -4.4505 H         1 ARG         0.2615
    187 H          17.1612   19.6044   -4.7749 H         1 ARG         0.2615
    188 H          22.2448   21.3417  -11.5221 H         1 CYS         0.1884
    189 H          23.9750   22.8220   -9.5797 H         1 CYS         0.0808
    190 H          25.8899   22.5557  -11.1552 H         1 CYS         0.0432
    191 H          24.8915   21.4303  -12.1366 H         1 CYS         0.0432
    192 H          22.9169   24.7650   -9.8483 H         1 LEU         0.1883
    193 H          22.2963   25.7790  -12.4975 H         1 LEU         0.0800
    194 H          22.1493   28.0282  -11.1220 H         1 LEU         0.0315
    195 H          22.1871   26.9132   -9.7141 H         1 LEU         0.0315
    196 H          19.9165   27.5619  -10.2792 H         1 LEU         0.0298
    197 H          18.8281   26.8274  -12.3738 H         1 LEU         0.0232
    198 H          20.4156   26.2583  -12.9924 H         1 LEU         0.0232
    199 H          20.1498   28.0062  -12.6745 H         1 LEU         0.0232
    200 H          20.3638   25.3141   -9.3418 H         1 LEU         0.0232
    201 H          20.4431   24.6478  -11.0080 H         1 LEU         0.0232
    202 H          18.9057   25.3419  -10.3905 H         1 LEU         0.0232
    203 H          26.1127   26.8243  -11.3973 H         1 NH2         0.1815
    204 H          25.1417   25.7631  -10.4325 H         1 NH2         0.1815
@<TRIPOS>BOND
     1    1    2 1  
     2    2    3 1  
     3    3    4 2  
     4    3    5 am 
     5    5    6 1  
     6    6    7 1  
     7    6   12 1  
     8    7    8 1  
     9    8    9 1  
    10    8   11 1  
    11    9   10 1  
    12   10   51 1  
    13   11   95 1  
    14   12   13 2  
    15   12   14 am 
    16   14   15 1  
    17   15   16 1  
    18   15   18 1  
    19   16   17 2  
    20   16   19 am 
    21   19   20 1  
    22   20   21 1  
    23   20   23 1  
    24   21   22 2  
    25   21   27 am 
    26   23   24 1  
    27   24   25 1  
    28   24   26 1  
    29   27   28 1  
    30   28   29 1  
    31   29   30 2  
    32   29   31 am 
    33   31   32 1  
    34   32   33 1  
    35   32   35 1  
    36   33   34 2  
    37   33   42 am 
    38   35   36 1  
    39   36   37 1  
    40   37   38 1  
    41   38   39 ar 
    42   39   40 ar 
    43   39   41 ar 
    44   42   43 1  
    45   43   44 1  
    46   44   45 2  
    47   44   46 am 
    48   46   47 1  
    49   47   48 1  
    50   47   50 1  
    51   48   49 2  
    52   48   52 am 
    53   50   51 1  
    54   52   53 1  
    55   53   54 1  
    56   53   56 1  
    57   54   55 2  
    58   54   61 am 
    59   56   57 1  
    60   57   58 1  
    61   58   59 ar 
    62   58   60 ar 
    63   61   62 1  
    64   62   63 1  
    65   62   65 1  
    66   63   64 2  
    67   63   69 am 
    68   65   66 1  
    69   66   67 2  
    70   66   68 am 
    71   69   70 1  
    72   70   71 1  
    73   70   73 1  
    74   71   72 2  
    75   71   79 am 
    76   73   74 1  
    77   74   75 1  
    78   74   76 2  
    79   75   77 2  
    80   76   78 1  
    81   77   78 1  
    82   79   80 1  
    83   80   81 1  
    84   80   83 1  
    85   81   82 2  
    86   81   90 am 
    87   83   84 1  
    88   84   85 1  
    89   85   86 1  
    90   86   87 ar 
    91   87   88 ar 
    92   87   89 ar 
    93   90   91 1  
    94   91   92 1  
    95   91   94 1  
    96   92   93 2  
    97   92   96 am 
    98   94   95 1  
    99   96   97 1  
   100   97   98 1  
   101   97  100 1  
   102   98   99 2  
   103   98  104 am 
   104  100  101 1  
   105  101  102 1  
   106  101  103 1  
   107    1  105 1  
   108    1  106 1  
   109    1  107 1  
   110    2  108 1  
   111    2  109 1  
   112    5  110 1  
   113    6  111 1  
   114    7  112 1  
   115    7  113 1  
   116    8  114 1  
   117    9  115 1  
   118    9  116 1  
   119   14  117 1  
   120   15  118 1  
   121   18  119 1  
   122   18  120 1  
   123   18  121 1  
   124   19  122 1  
   125   20  123 1  
   126   23  124 1  
   127   23  125 1  
   128   24  126 1  
   129   25  127 1  
   130   25  128 1  
   131   25  129 1  
   132   26  130 1  
   133   26  131 1  
   134   26  132 1  
   135   27  133 1  
   136   28  134 1  
   137   28  135 1  
   138   31  136 1  
   139   32  137 1  
   140   35  138 1  
   141   35  139 1  
   142   36  140 1  
   143   36  141 1  
   144   37  142 1  
   145   37  143 1  
   146   38  144 1  
   147   40  145 1  
   148   40  146 1  
   149   41  147 1  
   150   41  148 1  
   151   42  149 1  
   152   43  150 1  
   153   43  151 1  
   154   46  152 1  
   155   47  153 1  
   156   50  154 1  
   157   50  155 1  
   158   52  156 1  
   159   53  157 1  
   160   56  158 1  
   161   56  159 1  
   162   57  160 1  
   163   57  161 1  
   164   61  162 1  
   165   62  163 1  
   166   65  164 1  
   167   65  165 1  
   168   68  166 1  
   169   68  167 1  
   170   69  168 1  
   171   70  169 1  
   172   73  170 1  
   173   73  171 1  
   174   76  172 1  
   175   77  173 1  
   176   78  174 1  
   177   79  175 1  
   178   80  176 1  
   179   83  177 1  
   180   83  178 1  
   181   84  179 1  
   182   84  180 1  
   183   85  181 1  
   184   85  182 1  
   185   86  183 1  
   186   88  184 1  
   187   88  185 1  
   188   89  186 1  
   189   89  187 1  
   190   90  188 1  
   191   91  189 1  
   192   94  190 1  
   193   94  191 1  
   194   96  192 1  
   195   97  193 1  
   196  100  194 1  
   197  100  195 1  
   198  101  196 1  
   199  102  197 1  
   200  102  198 1  
   201  102  199 1  
   202  103  200 1  
   203  103  201 1  
   204  103  202 1  
   205  104  203 1  
   206  104  204 1  
@<TRIPOS>SUBSTRUCTURE
     1 GLY         1

