5b4w_ligand
  -I-interpret- 

281287  0  0  0  0  0  0  0  0999 V2000
   88.9130  -30.7330   56.9640 C   0  0  0  0  0
   87.7940  -30.6120   57.4520 O   0  0  0  0  0
   89.1960  -31.7150   55.8820 C   0  0  0  0  0
   89.9660  -30.0300   57.3530 N   0  0  0  0  0
   89.9640  -29.0000   58.3800 C   0  0  0  0  0
   90.7320  -27.7970   57.8300 C   0  0  0  0  0
   90.7110  -26.5700   58.6700 C   0  0  0  0  0
   89.7020  -25.6560   58.7740 C   0  0  0  0  0
   90.0690  -24.6490   59.6330 N   0  0  0  0  0
   91.3370  -24.8940   60.0880 C   0  0  0  0  0
   92.1310  -24.1640   60.9680 C   0  0  0  0  0
   93.3780  -24.6530   61.2490 C   0  0  0  0  0
   93.8450  -25.8440   60.6710 C   0  0  0  0  0
   93.0520  -26.5730   59.7960 C   0  0  0  0  0
   91.7720  -26.0960   59.4980 C   0  0  0  0  0
   90.6030  -29.5400   59.6680 C   0  0  0  0  0
   91.5650  -30.3170   59.6050 O   0  0  0  0  0
   90.0610  -29.1510   60.8280 N   0  0  0  0  0
   90.5810  -29.5970   62.1350 C   0  0  0  0  0
   90.1140  -30.9980   62.5420 C   0  0  0  0  0
   88.9520  -31.3740   62.3540 O   0  0  0  0  0
   90.1880  -28.6160   63.2450 C   0  0  0  0  0
   90.8290  -27.2420   63.1630 C   0  0  0  0  0
   90.3550  -26.3690   64.3140 C   0  0  0  0  0
   90.7410  -24.9670   64.1610 N   0  0  0  0  0
   91.9810  -24.5060   64.3180 C   0  0  0  0  0
   92.9740  -25.3330   64.6200 N   0  0  0  0  0
   92.2340  -23.2160   64.1630 N   0  0  0  0  0
   91.0190  -31.7770   63.1150 N   0  0  0  0  0
   90.6470  -33.1260   63.5490 C   0  0  0  0  0
   89.7260  -33.0940   64.7670 C   0  0  0  0  0
   89.7250  -32.1480   65.5610 O   0  0  0  0  0
   91.9980  -33.7720   63.8800 C   0  0  0  0  0
   93.0500  -32.8740   63.2350 C   0  0  0  0  0
   92.4550  -31.5100   63.2990 C   0  0  0  0  0
   88.9100  -34.1360   64.8960 N   0  0  0  0  0
   88.0900  -34.3510   66.0740 C   0  0  0  0  0
   88.2120  -35.8110   66.5040 C   0  0  0  0  0
   88.7760  -36.6480   65.7920 O   0  0  0  0  0
   86.6370  -33.9670   65.8110 C   0  0  0  0  0
   86.4630  -32.5190   65.4120 C   0  0  0  0  0
   86.7830  -31.6190   66.5550 C   0  0  0  0  0
   86.5550  -30.1990   66.2850 N   0  0  0  0  0
   87.5190  -29.2810   66.1930 C   0  0  0  0  0
   88.8020  -29.6220   66.3220 N   0  0  0  0  0
   87.2020  -28.0120   65.9820 N   0  0  0  0  0
   87.7230  -36.1230   67.6990 N   0  0  0  0  0
   87.8810  -37.4590   68.2460 C   0  0  0  0  0
   86.5850  -38.2220   68.0480 C   0  0  0  0  0
   85.5080  -37.7650   68.4490 O   0  0  0  0  0
   88.2850  -37.4250   69.7200 C   0  0  0  0  0
   88.5010  -38.8420   70.2260 C   0  0  0  0  0
   89.5400  -36.5950   69.8860 C   0  0  0  0  0
   86.6900  -39.3800   67.4130 N   0  0  0  0  0
   85.5170  -40.1770   67.1350 C   0  0  0  0  0
   84.9390  -40.7070   68.4380 C   0  0  0  0  0
   85.6650  -41.2290   69.2890 O   0  0  0  0  0
   85.8810  -41.3170   66.1830 C   0  0  0  0  0
   83.6360  -40.5350   68.5990 N   0  0  0  0  0
   82.9420  -41.0960   69.7400 C   0  0  0  0  0
   83.1540  -42.6000   69.8000 C   0  0  0  0  0
   83.1090  -43.2840   68.7750 O   0  0  0  0  0
   81.4470  -40.7680   69.6530 C   0  0  0  0  0
   80.5630  -41.7060   70.4340 C   0  0  0  0  0
   79.6370  -40.9880   71.4180 C   0  0  0  0  0
   78.2470  -41.3840   71.2250 N   0  0  0  0  0
   77.2720  -41.1000   72.0720 C   0  0  0  0  0
   77.5360  -40.4360   73.1820 N   0  0  0  0  0
   76.0360  -41.4930   71.8070 N   0  0  0  0  0
   83.4150  -43.0930   71.0210 N   0  0  0  0  0
   83.6060  -44.4900   71.4270 C   0  0  0  0  0
   84.9460  -45.0910   71.0230 C   0  0  0  0  0
   85.5260  -45.8670   71.7860 O   0  0  0  0  0
   82.4900  -45.3990   70.9090 C   0  0  0  0  0
   81.2660  -45.3250   71.7210 C   0  0  0  0  0
   81.1530  -45.5460   73.0670 C   0  0  0  0  0
   79.9560  -45.0110   71.2550 C   0  0  0  0  0
   79.8470  -45.3760   73.4690 N   0  0  0  0  0
   79.0930  -45.0520   72.3720 C   0  0  0  0  0
   79.4230  -44.7100   69.9970 C   0  0  0  0  0
   77.7340  -44.7910   72.2680 C   0  0  0  0  0
   78.0790  -44.4390   69.8980 C   0  0  0  0  0
   77.2460  -44.4860   71.0230 C   0  0  0  0  0
   85.4430  -44.7810   69.8310 N   0  0  0  0  0
   86.6850  -45.4080   69.4130 C   0  0  0  0  0
   87.9210  -44.6690   69.8950 C   0  0  0  0  0
   89.0000  -45.2650   69.9120 O   0  0  0  0  0
   86.7340  -45.5360   67.8940 C   0  0  0  0  0
   86.1470  -44.3780   67.2970 O   0  0  0  0  0
   85.9960  -46.7810   67.4380 C   0  0  0  0  0
   87.7940  -43.3980   70.2700 N   0  0  0  0  0
   88.9250  -42.5320   70.4600 C   0  0  0  0  0
   89.8160  -42.3580   69.2540 C   0  0  0  0  0
   90.8120  -41.6360   69.3570 O   0  0  0  0  0
   89.5030  -42.9990   68.1260 N   0  0  0  0  0
   90.2310  -42.7760   66.8860 C   0  0  0  0  0
   89.9750  -41.3630   66.3790 C   0  0  0  0  0
   88.9140  -40.7750   66.6080 O   0  0  0  0  0
   89.8160  -43.8130   65.8340 C   0  0  0  0  0
   90.1330  -45.2320   66.2560 C   0  0  0  0  0
   89.6690  -46.2900   65.2780 C   0  0  0  0  0
   90.0230  -46.2780   64.0980 O   0  0  0  0  0
   88.8840  -47.2350   65.7730 N   0  0  0  0  0
   90.9530  -40.8240   65.6770 N   0  0  0  0  0
   90.9310  -39.4180   65.2810 C   0  0  0  0  0
   90.3390  -39.2530   63.8750 C   0  0  0  0  0
   90.7590  -39.9290   62.9280 O   0  0  0  0  0
   92.3460  -38.8280   65.3660 C   0  0  0  0  0
   92.5560  -37.7020   64.3500 C   0  0  0  0  0
   93.3720  -39.9570   65.2470 C   0  0  0  0  0
   93.5790  -36.7070   64.8100 C   0  0  0  0  0
   89.3450  -38.3670   63.7470 N   0  0  0  0  0
   88.6960  -38.0360   62.4740 C   0  0  0  0  0
   89.4140  -36.8300   61.8890 C   0  0  0  0  0
   89.2460  -35.7180   62.3860 O   0  0  0  0  0
   87.2100  -37.7010   62.6540 C   0  0  0  0  0
   86.4830  -38.7420   63.4960 C   0  0  0  0  0
   86.5360  -37.4820   61.3140 C   0  0  0  0  0
   85.4410  -38.0840   64.4040 C   0  0  0  0  0
   90.1460  -37.0290   60.7890 N   0  0  0  0  0
   91.0120  -35.9700   60.2680 C   0  0  0  0  0
   90.2360  -34.8320   59.6060 C   0  0  0  0  0
   90.6680  -33.6730   59.6750 O   0  0  0  0  0
   92.0400  -36.5770   59.3090 C   0  0  0  0  0
   93.0910  -37.4150   60.0310 C   0  0  0  0  0
   92.9020  -38.7820   60.2550 C   0  0  0  0  0
   94.2710  -36.8400   60.4830 C   0  0  0  0  0
   93.8690  -39.5470   60.8950 C   0  0  0  0  0
   95.2330  -37.6020   61.1320 C   0  0  0  0  0
   95.0290  -38.9500   61.3450 C   0  0  0  0  0
   96.0100  -39.6740   62.0040 O   0  0  0  0  0
   89.1080  -35.1280   58.9580 N   0  0  0  0  0
   88.3500  -34.1260   58.2140 C   0  0  0  0  0
   86.8610  -34.2390   58.5260 C   0  0  0  0  0
   86.3090  -35.3400   58.5790 O   0  0  0  0  0
   88.5850  -34.2720   56.7170 C   0  0  0  0  0
   87.9100  -32.9200   55.7150 S   0  0  0  0  0
   86.2110  -33.1010   58.7360 N   0  0  0  0  0
   84.8130  -33.1040   59.1560 C   0  0  0  0  0
   83.8580  -32.7190   58.0250 C   0  0  0  0  0
   84.1920  -31.8980   57.1780 O   0  0  0  0  0
   84.6360  -32.1550   60.3300 C   0  0  0  0  0
   85.1830  -30.8880   60.0090 O   0  0  0  0  0
   82.6650  -33.3040   58.0300 N   0  0  0  0  0
   90.1189  -32.2379   56.1329 H   0  0  0  0  0
   89.2722  -31.1693   54.9415 H   0  0  0  0  0
   90.8546  -30.2279   56.8929 H   0  0  0  0  0
   88.9472  -28.6979   58.6310 H   0  0  0  0  0
   90.2511  -27.5315   56.8886 H   0  0  0  0  0
   91.7756  -28.1046   57.7638 H   0  0  0  0  0
   88.7467  -25.7165   58.2526 H   0  0  0  0  0
   91.7729  -23.2374   61.4166 H   0  0  0  0  0
   94.0227  -24.1057   61.9367 H   0  0  0  0  0
   94.8458  -26.2017   60.9132 H   0  0  0  0  0
   93.4192  -27.4976   59.3506 H   0  0  0  0  0
   89.2580  -28.5224   60.8080 H   0  0  0  0  0
   91.6635  -29.6299   62.0115 H   0  0  0  0  0
   90.5237  -29.0588   64.1827 H   0  0  0  0  0
   89.1127  -28.4618   63.1556 H   0  0  0  0  0
   90.5460  -26.7730   62.2207 H   0  0  0  0  0
   91.9120  -27.3505   63.2213 H   0  0  0  0  0
   90.8162  -26.7435   65.2278 H   0  0  0  0  0
   89.2662  -26.4137   64.3394 H   0  0  0  0  0
   90.0117  -24.2967   63.9176 H   0  0  0  0  0
   93.9219  -24.9729   64.7306 H   0  0  0  0  0
   92.7893  -26.3288   64.7415 H   0  0  0  0  0
   91.4791  -22.5735   63.9230 H   0  0  0  0  0
   90.0861  -33.6750   62.7927 H   0  0  0  0  0
   92.0564  -34.7917   63.4994 H   0  0  0  0  0
   92.1484  -33.8528   64.9565 H   0  0  0  0  0
   93.2776  -33.1759   62.2127 H   0  0  0  0  0
   94.0092  -32.9289   63.7498 H   0  0  0  0  0
   92.6759  -30.9921   64.2323 H   0  0  0  0  0
   92.8619  -30.8320   62.5487 H   0  0  0  0  0
   88.8582  -34.8129   64.1347 H   0  0  0  0  0
   88.4437  -33.7109   66.8822 H   0  0  0  0  0
   86.0828  -34.1222   66.7367 H   0  0  0  0  0
   86.2786  -34.5813   64.9850 H   0  0  0  0  0
   85.4273  -32.3566   65.1134 H   0  0  0  0  0
   87.1391  -32.2961   64.5866 H   0  0  0  0  0
   87.8449  -31.7383   66.7698 H   0  0  0  0  0
   86.1250  -31.8989   67.3777 H   0  0  0  0  0
   85.5915  -29.8892   66.1582 H   0  0  0  0  0
   89.5282  -28.9086   66.2580 H   0  0  0  0  0
   89.0569  -30.5961   66.4847 H   0  0  0  0  0
   86.2234  -27.7392   65.8904 H   0  0  0  0  0
   87.2291  -35.4136   68.2405 H   0  0  0  0  0
   88.6884  -37.9664   67.7180 H   0  0  0  0  0
   87.4889  -36.9676   70.3075 H   0  0  0  0  0
   87.5771  -39.4100   70.1174 H   0  0  0  0  0
   89.2916  -39.3172   69.6453 H   0  0  0  0  0
   88.7887  -38.8113   71.2769 H   0  0  0  0  0
   90.3461  -37.0363   69.2998 H   0  0  0  0  0
   89.3508  -35.5792   69.5390 H   0  0  0  0  0
   89.8236  -36.5740   70.9382 H   0  0  0  0  0
   87.6079  -39.7123   67.1174 H   0  0  0  0  0
   84.7580  -39.5621   66.6514 H   0  0  0  0  0
   86.2653  -40.9019   65.2513 H   0  0  0  0  0
   86.6435  -41.9445   66.6444 H   0  0  0  0  0
   84.9928  -41.9143   65.9771 H   0  0  0  0  0
   83.1120  -39.9983   67.9078 H   0  0  0  0  0
   83.3460  -40.6563   70.6519 H   0  0  0  0  0
   81.1594  -40.8524   68.6050 H   0  0  0  0  0
   81.3110  -39.7719   70.0743 H   0  0  0  0  0
   81.2114  -42.3640   71.0126 H   0  0  0  0  0
   79.9349  -42.2379   69.7193 H   0  0  0  0  0
   79.7179  -39.9142   71.2493 H   0  0  0  0  0
   79.9355  -41.2543   72.4319 H   0  0  0  0  0
   78.0122  -41.9127   70.3849 H   0  0  0  0  0
   78.4914  -40.1425   73.3857 H   0  0  0  0  0
   75.2826  -41.2830   72.4618 H   0  0  0  0  0
   75.8370  -42.0058   70.9480 H   0  0  0  0  0
   83.4908  -42.4027   71.7680 H   0  0  0  0  0
   83.5812  -44.4446   72.5158 H   0  0  0  0  0
   82.8530  -46.4260   70.9479 H   0  0  0  0  0
   82.2390  -45.0745   69.8992 H   0  0  0  0  0
   81.9779  -45.8174   73.7258 H   0  0  0  0  0
   80.0606  -44.6908   69.1132 H   0  0  0  0  0
   77.0811  -44.8269   73.1401 H   0  0  0  0  0
   77.6542  -44.1831   68.9273 H   0  0  0  0  0
   76.1831  -44.2749   70.9061 H   0  0  0  0  0
   84.9634  -44.1175   69.2226 H   0  0  0  0  0
   86.6955  -46.3950   69.8754 H   0  0  0  0  0
   87.7754  -45.6187   67.5828 H   0  0  0  0  0
   86.1791  -44.4610   66.3411 H   0  0  0  0  0
   86.4616  -47.6609   67.8820 H   0  0  0  0  0
   84.9546  -46.7208   67.7542 H   0  0  0  0  0
   86.0436  -46.8525   66.3514 H   0  0  0  0  0
   86.8582  -43.0245   70.4285 H   0  0  0  0  0
   89.5386  -42.9869   71.2376 H   0  0  0  0  0
   88.5259  -41.5459   70.6974 H   0  0  0  0  0
   88.7305  -43.6650   68.1334 H   0  0  0  0  0
   91.2986  -42.8883   67.0752 H   0  0  0  0  0
   90.3717  -43.6035   64.9200 H   0  0  0  0  0
   88.7373  -43.7376   65.6969 H   0  0  0  0  0
   89.6105  -45.4119   67.1955 H   0  0  0  0  0
   91.2179  -45.3118   66.3246 H   0  0  0  0  0
   88.5505  -47.9880   65.1712 H   0  0  0  0  0
   88.6130  -47.2098   66.7560 H   0  0  0  0  0
   91.7459  -41.4044   65.4033 H   0  0  0  0  0
   90.2884  -38.8689   65.9692 H   0  0  0  0  0
   92.4851  -38.3560   66.3386 H   0  0  0  0  0
   91.6080  -37.1793   64.2226 H   0  0  0  0  0
   92.9098  -38.1465   63.4197 H   0  0  0  0  0
   93.2231  -40.6686   66.0591 H   0  0  0  0  0
   93.2438  -40.4634   64.2903 H   0  0  0  0  0
   94.3774  -39.5403   65.3071 H   0  0  0  0  0
   93.2526  -36.2599   65.7490 H   0  0  0  0  0
   94.5336  -37.2117   64.9589 H   0  0  0  0  0
   93.6919  -35.9286   64.0554 H   0  0  0  0  0
   89.0177  -37.8915   64.5879 H   0  0  0  0  0
   88.7555  -38.9008   61.8131 H   0  0  0  0  0
   87.1519  -36.7646   63.2089 H   0  0  0  0  0
   87.2128  -39.2590   64.1191 H   0  0  0  0  0
   85.9751  -39.4383   62.8287 H   0  0  0  0  0
   87.0210  -36.6548   60.7957 H   0  0  0  0  0
   86.6204  -38.3880   60.7139 H   0  0  0  0  0
   85.4836  -37.2462   61.4723 H   0  0  0  0  0
   85.9360  -37.3782   65.0710 H   0  0  0  0  0
   84.7095  -37.5559   63.7923 H   0  0  0  0  0
   84.9381  -38.8510   64.9930 H   0  0  0  0  0
   90.1009  -37.9272   60.3078 H   0  0  0  0  0
   91.5276  -35.5181   61.1154 H   0  0  0  0  0
   92.5523  -35.7583   58.8037 H   0  0  0  0  0
   91.5086  -37.2291   58.6159 H   0  0  0  0  0
   91.9790  -39.2562   59.9214 H   0  0  0  0  0
   94.4446  -35.7754   60.3261 H   0  0  0  0  0
   93.7120  -40.6157   61.0413 H   0  0  0  0  0
   96.1549  -37.1327   61.4753 H   0  0  0  0  0
   96.7350  -39.0896   62.2374 H   0  0  0  0  0
   88.7631  -36.0876   58.9832 H   0  0  0  0  0
   88.6982  -33.1407   58.5239 H   0  0  0  0  0
   88.0801  -35.1853   56.4023 H   0  0  0  0  0
   89.6639  -34.2760   56.5622 H   0  0  0  0  0
   86.6946  -32.2129   58.6022 H   0  0  0  0  0
   84.5614  -34.1226   59.4515 H   0  0  0  0  0
   85.1506  -32.5596   61.2015 H   0  0  0  0  0
   83.5736  -32.0445   60.5474 H   0  0  0  0  0
   85.0683  -30.2932   60.7538 H   0  0  0  0  0
   81.9819  -33.0755   57.3078 H   0  0  0  0  0
   82.4323  -33.9816   58.7560 H   0  0  0  0  0
  1  2  2  0  0  0
  1  3  1  0  0  0
  1  4  1  0  0  0
  3137  1  0  0  0
  4  5  1  0  0  0
  5  6  1  0  0  0
  5 16  1  0  0  0
  6  7  1  0  0  0
  7  8  4  0  0  0
  7 15  4  0  0  0
  8  9  4  0  0  0
  9 10  4  0  0  0
 10 11  4  0  0  0
 10 15  4  0  0  0
 11 12  4  0  0  0
 12 13  4  0  0  0
 13 14  4  0  0  0
 14 15  4  0  0  0
 16 17  2  0  0  0
 16 18  1  0  0  0
 18 19  1  0  0  0
 19 20  1  0  0  0
 19 22  1  0  0  0
 20 21  2  0  0  0
 20 29  1  0  0  0
 22 23  1  0  0  0
 23 24  1  0  0  0
 24 25  1  0  0  0
 25 26  1  0  0  0
 26 27  1  0  0  0
 26 28  2  0  0  0
 29 30  1  0  0  0
 29 35  1  0  0  0
 30 31  1  0  0  0
 30 33  1  0  0  0
 31 32  2  0  0  0
 31 36  1  0  0  0
 33 34  1  0  0  0
 34 35  1  0  0  0
 36 37  1  0  0  0
 37 38  1  0  0  0
 37 40  1  0  0  0
 38 39  2  0  0  0
 38 47  1  0  0  0
 40 41  1  0  0  0
 41 42  1  0  0  0
 42 43  1  0  0  0
 43 44  1  0  0  0
 44 45  1  0  0  0
 44 46  2  0  0  0
 47 48  1  0  0  0
 48 49  1  0  0  0
 48 51  1  0  0  0
 49 50  2  0  0  0
 49 54  1  0  0  0
 51 52  1  0  0  0
 51 53  1  0  0  0
 54 55  1  0  0  0
 55 56  1  0  0  0
 55 58  1  0  0  0
 56 57  2  0  0  0
 56 59  1  0  0  0
 59 60  1  0  0  0
 60 61  1  0  0  0
 60 63  1  0  0  0
 61 62  2  0  0  0
 61 70  1  0  0  0
 63 64  1  0  0  0
 64 65  1  0  0  0
 65 66  1  0  0  0
 66 67  1  0  0  0
 67 68  2  0  0  0
 67 69  1  0  0  0
 70 71  1  0  0  0
 71 72  1  0  0  0
 71 74  1  0  0  0
 72 73  2  0  0  0
 72 84  1  0  0  0
 74 75  1  0  0  0
 75 76  4  0  0  0
 75 77  4  0  0  0
 76 78  4  0  0  0
 77 79  4  0  0  0
 77 80  4  0  0  0
 78 79  4  0  0  0
 79 81  4  0  0  0
 80 82  4  0  0  0
 81 83  4  0  0  0
 82 83  4  0  0  0
 84 85  1  0  0  0
 85 86  1  0  0  0
 85 88  1  0  0  0
 86 87  2  0  0  0
 86 91  1  0  0  0
 88 89  1  0  0  0
 88 90  1  0  0  0
 91 92  1  0  0  0
 92 93  1  0  0  0
 93 94  2  0  0  0
 93 95  1  0  0  0
 95 96  1  0  0  0
 96 97  1  0  0  0
 96 99  1  0  0  0
 97 98  2  0  0  0
 97104  1  0  0  0
 99100  1  0  0  0
100101  1  0  0  0
101102  2  0  0  0
101103  1  0  0  0
104105  1  0  0  0
105106  1  0  0  0
105108  1  0  0  0
106107  2  0  0  0
106112  1  0  0  0
108109  1  0  0  0
108110  1  0  0  0
109111  1  0  0  0
112113  1  0  0  0
113114  1  0  0  0
113116  1  0  0  0
114115  2  0  0  0
114120  1  0  0  0
116117  1  0  0  0
116118  1  0  0  0
117119  1  0  0  0
120121  1  0  0  0
121122  1  0  0  0
121124  1  0  0  0
122123  2  0  0  0
122132  1  0  0  0
124125  1  0  0  0
125126  4  0  0  0
125127  4  0  0  0
126128  4  0  0  0
127129  4  0  0  0
128130  4  0  0  0
129130  4  0  0  0
130131  1  0  0  0
132133  1  0  0  0
133134  1  0  0  0
133136  1  0  0  0
134135  2  0  0  0
134138  1  0  0  0
136137  1  0  0  0
138139  1  0  0  0
139140  1  0  0  0
139142  1  0  0  0
140141  2  0  0  0
140144  1  0  0  0
142143  1  0  0  0
  3145  1  0  0  0
  3146  1  0  0  0
  4147  1  0  0  0
  5148  1  0  0  0
  6149  1  0  0  0
  6150  1  0  0  0
  8151  1  0  0  0
 11152  1  0  0  0
 12153  1  0  0  0
 13154  1  0  0  0
 14155  1  0  0  0
 18156  1  0  0  0
 19157  1  0  0  0
 22158  1  0  0  0
 22159  1  0  0  0
 23160  1  0  0  0
 23161  1  0  0  0
 24162  1  0  0  0
 24163  1  0  0  0
 25164  1  0  0  0
 27165  1  0  0  0
 27166  1  0  0  0
 28167  1  0  0  0
 30168  1  0  0  0
 33169  1  0  0  0
 33170  1  0  0  0
 34171  1  0  0  0
 34172  1  0  0  0
 35173  1  0  0  0
 35174  1  0  0  0
 36175  1  0  0  0
 37176  1  0  0  0
 40177  1  0  0  0
 40178  1  0  0  0
 41179  1  0  0  0
 41180  1  0  0  0
 42181  1  0  0  0
 42182  1  0  0  0
 43183  1  0  0  0
 45184  1  0  0  0
 45185  1  0  0  0
 46186  1  0  0  0
 47187  1  0  0  0
 48188  1  0  0  0
 51189  1  0  0  0
 52190  1  0  0  0
 52191  1  0  0  0
 52192  1  0  0  0
 53193  1  0  0  0
 53194  1  0  0  0
 53195  1  0  0  0
 54196  1  0  0  0
 55197  1  0  0  0
 58198  1  0  0  0
 58199  1  0  0  0
 58200  1  0  0  0
 59201  1  0  0  0
 60202  1  0  0  0
 63203  1  0  0  0
 63204  1  0  0  0
 64205  1  0  0  0
 64206  1  0  0  0
 65207  1  0  0  0
 65208  1  0  0  0
 66209  1  0  0  0
 68210  1  0  0  0
 69211  1  0  0  0
 69212  1  0  0  0
 70213  1  0  0  0
 71214  1  0  0  0
 74215  1  0  0  0
 74216  1  0  0  0
 76217  1  0  0  0
 80218  1  0  0  0
 81219  1  0  0  0
 82220  1  0  0  0
 83221  1  0  0  0
 84222  1  0  0  0
 85223  1  0  0  0
 88224  1  0  0  0
 89225  1  0  0  0
 90226  1  0  0  0
 90227  1  0  0  0
 90228  1  0  0  0
 91229  1  0  0  0
 92230  1  0  0  0
 92231  1  0  0  0
 95232  1  0  0  0
 96233  1  0  0  0
 99234  1  0  0  0
 99235  1  0  0  0
100236  1  0  0  0
100237  1  0  0  0
103238  1  0  0  0
103239  1  0  0  0
104240  1  0  0  0
105241  1  0  0  0
108242  1  0  0  0
109243  1  0  0  0
109244  1  0  0  0
110245  1  0  0  0
110246  1  0  0  0
110247  1  0  0  0
111248  1  0  0  0
111249  1  0  0  0
111250  1  0  0  0
112251  1  0  0  0
113252  1  0  0  0
116253  1  0  0  0
117254  1  0  0  0
117255  1  0  0  0
118256  1  0  0  0
118257  1  0  0  0
118258  1  0  0  0
119259  1  0  0  0
119260  1  0  0  0
119261  1  0  0  0
120262  1  0  0  0
121263  1  0  0  0
124264  1  0  0  0
124265  1  0  0  0
126266  1  0  0  0
127267  1  0  0  0
128268  1  0  0  0
129269  1  0  0  0
131270  1  0  0  0
132271  1  0  0  0
133272  1  0  0  0
136273  1  0  0  0
136274  1  0  0  0
138275  1  0  0  0
139276  1  0  0  0
142277  1  0  0  0
142278  1  0  0  0
143279  1  0  0  0
144280  1  0  0  0
144281  1  0  0  0
M  END
$$$$
