### 
### Created by X-TOOL on Mon Sep 10 21:13:29 2018
### 

@<TRIPOS>MOLECULE
5b4w_ligand
  286   292     1     0     0
SMALL
GAST_HUCK


@<TRIPOS>ATOM
      1 C          88.9130  -30.7330   56.9640 C.2       1 ACE         0.1883
      2 O          87.7940  -30.6120   57.4520 O.2       1 ACE        -0.3960
      3 CH3        89.1960  -31.7150   55.8820 C.3       1 ACE         0.0836
      4 N          89.9660  -30.0300   57.3530 N.am      1 DTR        -0.2639
      5 CA         89.9640  -29.0000   58.3800 C.3       1 DTR         0.1351
      6 CB         90.7320  -27.7970   57.8300 C.3       1 DTR         0.0042
      7 CG         90.7110  -26.5700   58.6700 C.2       1 DTR        -0.0418
      8 CD1        89.7020  -25.6560   58.7740 C.2       1 DTR         0.0167
      9 NE1        90.0690  -24.6490   59.6330 N.pl3     1 DTR        -0.2890
     10 CE2        91.3370  -24.8940   60.0880 C.ar      1 DTR         0.0603
     11 CZ2        92.1310  -24.1640   60.9680 C.ar      1 DTR        -0.0443
     12 CH2        93.3780  -24.6530   61.2490 C.ar      1 DTR        -0.0768
     13 CZ3        93.8450  -25.8440   60.6710 C.ar      1 DTR        -0.0792
     14 CE3        93.0520  -26.5730   59.7960 C.ar      1 DTR        -0.0747
     15 CD2        91.7720  -26.0960   59.4980 C.ar      1 DTR        -0.0214
     16 C          90.6030  -29.5400   59.6680 C.2       1 DTR         0.2052
     17 O          91.5650  -30.3170   59.6050 O.2       1 DTR        -0.3942
     18 N          90.0610  -29.1510   60.8280 N.am      1 ARG        -0.2636
     19 CA         90.5810  -29.5970   62.1350 C.3       1 ARG         0.1313
     20 C          90.1140  -30.9980   62.5420 C.2       1 ARG         0.2064
     21 O          88.9520  -31.3740   62.3540 O.2       1 ARG        -0.3942
     22 CB         90.1880  -28.6160   63.2450 C.3       1 ARG        -0.0092
     23 CG         90.8290  -27.2420   63.1630 C.3       1 ARG        -0.0156
     24 CD         90.3550  -26.3690   64.3140 C.3       1 ARG         0.0627
     25 NE         90.7410  -24.9670   64.1610 N.pl3     1 ARG        -0.2723
     26 CZ         91.9810  -24.5060   64.3180 C.cat     1 ARG         0.2882
     27 NH1        92.9740  -25.3330   64.6200 N.pl3     1 ARG        -0.2849
     28 NH2        92.2340  -23.2160   64.1630 N.pl3     1 ARG        -0.2849
     29 N          91.0190  -31.7770   63.1150 N.am      1 PRO        -0.2498
     30 CA         90.6470  -33.1260   63.5490 C.3       1 PRO         0.1338
     31 C          89.7260  -33.0940   64.7670 C.2       1 PRO         0.2041
     32 O          89.7250  -32.1480   65.5610 O.2       1 PRO        -0.3944
     33 CB         91.9980  -33.7720   63.8800 C.3       1 PRO        -0.0104
     34 CG         93.0500  -32.8740   63.2350 C.3       1 PRO        -0.0281
     35 CD         92.4550  -31.5100   63.2990 C.3       1 PRO         0.0369
     36 N          88.9100  -34.1360   64.8960 N.am      1 ARG        -0.2637
     37 CA         88.0900  -34.3510   66.0740 C.3       1 ARG         0.1311
     38 C          88.2120  -35.8110   66.5040 C.2       1 ARG         0.2039
     39 O          88.7760  -36.6480   65.7920 O.2       1 ARG        -0.3944
     40 CB         86.6370  -33.9670   65.8110 C.3       1 ARG        -0.0092
     41 CG         86.4630  -32.5190   65.4120 C.3       1 ARG        -0.0156
     42 CD         86.7830  -31.6190   66.5550 C.3       1 ARG         0.0627
     43 NE         86.5550  -30.1990   66.2850 N.pl3     1 ARG        -0.2723
     44 CZ         87.5190  -29.2810   66.1930 C.cat     1 ARG         0.2882
     45 NH1        88.8020  -29.6220   66.3220 N.pl3     1 ARG        -0.2849
     46 NH2        87.2020  -28.0120   65.9820 N.pl3     1 ARG        -0.2849
     47 N          87.7230  -36.1230   67.6990 N.am      1 VAL        -0.2635
     48 CA         87.8810  -37.4590   68.2460 C.3       1 VAL         0.1332
     49 C          86.5850  -38.2220   68.0480 C.2       1 VAL         0.2041
     50 O          85.5080  -37.7650   68.4490 O.2       1 VAL        -0.3944
     51 CB         88.2850  -37.4250   69.7200 C.3       1 VAL        -0.0063
     52 CG1        88.5010  -38.8420   70.2260 C.3       1 VAL        -0.0584
     53 CG2        89.5400  -36.5950   69.8860 C.3       1 VAL        -0.0584
     54 N          86.6900  -39.3800   67.4130 N.am      1 ALA        -0.2640
     55 CA         85.5170  -40.1770   67.1350 C.3       1 ALA         0.1282
     56 C          84.9390  -40.7070   68.4380 C.2       1 ALA         0.2036
     57 O          85.6650  -41.2290   69.2890 O.2       1 ALA        -0.3944
     58 CB         85.8810  -41.3170   66.1830 C.3       1 ALA        -0.0244
     59 N          83.6360  -40.5350   68.5990 N.am      1 ARG        -0.2637
     60 CA         82.9420  -41.0960   69.7400 C.3       1 ARG         0.1311
     61 C          83.1540  -42.6000   69.8000 C.2       1 ARG         0.2040
     62 O          83.1090  -43.2840   68.7750 O.2       1 ARG        -0.3944
     63 CB         81.4470  -40.7680   69.6530 C.3       1 ARG        -0.0092
     64 CG         80.5630  -41.7060   70.4340 C.3       1 ARG        -0.0156
     65 CD         79.6370  -40.9880   71.4180 C.3       1 ARG         0.0627
     66 NE         78.2470  -41.3840   71.2250 N.pl3     1 ARG        -0.2723
     67 CZ         77.2720  -41.1000   72.0720 C.cat     1 ARG         0.2882
     68 NH1        77.5360  -40.4360   73.1820 N.pl3     1 ARG        -0.2849
     69 NH2        76.0360  -41.4930   71.8070 N.pl3     1 ARG        -0.2849
     70 N          83.4150  -43.0930   71.0210 N.am      1 TRP        -0.2627
     71 CA         83.6060  -44.4900   71.4270 C.3       1 TRP         0.1352
     72 C          84.9460  -45.0910   71.0230 C.2       1 TRP         0.2052
     73 O          85.5260  -45.8670   71.7860 O.2       1 TRP        -0.3942
     74 CB         82.4900  -45.3990   70.9090 C.3       1 TRP         0.0042
     75 CG         81.2660  -45.3250   71.7210 C.2       1 TRP        -0.0418
     76 CD1        81.1530  -45.5460   73.0670 C.2       1 TRP         0.0167
     77 CD2        79.9560  -45.0110   71.2550 C.ar      1 TRP        -0.0214
     78 NE1        79.8470  -45.3760   73.4690 N.pl3     1 TRP        -0.2890
     79 CE2        79.0930  -45.0520   72.3720 C.ar      1 TRP         0.0603
     80 CE3        79.4230  -44.7100   69.9970 C.ar      1 TRP        -0.0747
     81 CZ2        77.7340  -44.7910   72.2680 C.ar      1 TRP        -0.0443
     82 CZ3        78.0790  -44.4390   69.8980 C.ar      1 TRP        -0.0792
     83 CH2        77.2460  -44.4860   71.0230 C.ar      1 TRP        -0.0768
     84 N          85.4430  -44.7810   69.8310 N.am      1 THR        -0.2612
     85 CA         86.6850  -45.4080   69.4130 C.3       1 THR         0.1565
     86 C          87.9210  -44.6690   69.8950 C.2       1 THR         0.2063
     87 O          89.0000  -45.2650   69.9120 O.2       1 THR        -0.3943
     88 CB         86.7340  -45.5360   67.8940 C.3       1 THR         0.0924
     89 OG1        86.1470  -44.3780   67.2970 O.3       1 THR        -0.3874
     90 CG2        85.9960  -46.7810   67.4380 C.3       1 THR        -0.0346
     91 N          87.7940  -43.3980   70.2700 N.am      1 GLY        -0.2663
     92 CA         88.9250  -42.5320   70.4600 C.3       1 GLY         0.1201
     93 C          89.8160  -42.3580   69.2540 C.2       1 GLY         0.2007
     94 O          90.8120  -41.6360   69.3570 O.2       1 GLY        -0.3947
     95 N          89.5030  -42.9990   68.1260 N.am      1 GLN        -0.2638
     96 CA         90.2310  -42.7760   66.8860 C.3       1 GLN         0.1330
     97 C          89.9750  -41.3630   66.3790 C.2       1 GLN         0.2040
     98 O          88.9140  -40.7750   66.6080 O.2       1 GLN        -0.3944
     99 CB         89.8160  -43.8130   65.8340 C.3       1 GLN         0.0045
    100 CG         90.1330  -45.2320   66.2560 C.3       1 GLN         0.0412
    101 CD         89.6690  -46.2900   65.2780 C.2       1 GLN         0.1737
    102 OE1        90.0230  -46.2780   64.0980 O.2       1 GLN        -0.3973
    103 NE2        88.8840  -47.2350   65.7730 N.am      1 GLN        -0.3009
    104 N          90.9530  -40.8240   65.6770 N.am      1 ILE        -0.2635
    105 CA         90.9310  -39.4180   65.2810 C.3       1 ILE         0.1335
    106 C          90.3390  -39.2530   63.8750 C.2       1 ILE         0.2042
    107 O          90.7590  -39.9290   62.9280 O.2       1 ILE        -0.3944
    108 CB         92.3460  -38.8280   65.3660 C.3       1 ILE        -0.0037
    109 CG1        92.5560  -37.7020   64.3500 C.3       1 ILE        -0.0491
    110 CG2        93.3720  -39.9570   65.2470 C.3       1 ILE        -0.0582
    111 CD1        93.5790  -36.7070   64.8100 C.3       1 ILE        -0.0648
    112 N          89.3450  -38.3670   63.7470 N.am      1 ILE        -0.2635
    113 CA         88.6960  -38.0360   62.4740 C.3       1 ILE         0.1335
    114 C          89.4140  -36.8300   61.8890 C.2       1 ILE         0.2043
    115 O          89.2460  -35.7180   62.3860 O.2       1 ILE        -0.3944
    116 CB         87.2100  -37.7010   62.6540 C.3       1 ILE        -0.0037
    117 CG1        86.4830  -38.7420   63.4960 C.3       1 ILE        -0.0491
    118 CG2        86.5360  -37.4820   61.3140 C.3       1 ILE        -0.0582
    119 CD1        85.4410  -38.0840   64.4040 C.3       1 ILE        -0.0648
    120 N          90.1460  -37.0290   60.7890 N.am      1 TYR        -0.2621
    121 CA         91.0120  -35.9700   60.2680 C.3       1 TYR         0.1390
    122 C          90.2360  -34.8320   59.6060 C.2       1 TYR         0.2058
    123 O          90.6680  -33.6730   59.6750 O.2       1 TYR        -0.3942
    124 CB         92.0400  -36.5770   59.3090 C.3       1 TYR         0.0163
    125 CG         93.0910  -37.4150   60.0310 C.ar      1 TYR        -0.0493
    126 CD1        92.9020  -38.7820   60.2550 C.ar      1 TYR        -0.0685
    127 CD2        94.2710  -36.8400   60.4830 C.ar      1 TYR        -0.0685
    128 CE1        93.8690  -39.5470   60.8950 C.ar      1 TYR        -0.0398
    129 CE2        95.2330  -37.6020   61.1320 C.ar      1 TYR        -0.0398
    130 CZ         95.0290  -38.9500   61.3450 C.ar      1 TYR         0.0805
    131 OH         96.0100  -39.6740   62.0040 O.3       1 TYR        -0.3376
    132 N          89.1080  -35.1280   58.9580 N.am      1 CYS        -0.2628
    133 CA         88.3500  -34.1260   58.2140 C.3       1 CYS         0.1400
    134 C          86.8610  -34.2390   58.5260 C.2       1 CYS         0.2048
    135 O          86.3090  -35.3400   58.5790 O.2       1 CYS        -0.3944
    136 CB         88.5850  -34.2720   56.7170 C.3       1 CYS         0.0364
    137 SG         87.9100  -32.9200   55.7150 S.3       1 CYS        -0.1344
    138 N          86.2110  -33.1010   58.7360 N.am      1 SER        -0.2616
    139 CA         84.8130  -33.1040   59.1560 C.3       1 SER         0.1536
    140 C          83.8580  -32.7190   58.0250 C.2       1 SER         0.2015
    141 O          84.1920  -31.8980   57.1780 O.2       1 SER        -0.3947
    142 CB         84.6360  -32.1550   60.3300 C.3       1 SER         0.0843
    143 OG         85.1830  -30.8880   60.0090 O.3       1 SER        -0.3903
    144 N          82.6650  -33.3040   58.0300 N.am      1 NH2        -0.2989
    145 H1         90.1385  -32.2332   56.1123 H         1 ACE         0.0616
    146 H2         89.2986  -31.1730   54.9303 H         1 ACE         0.0616
    147 H3         90.8371  -30.2240   56.9019 H         1 DTR         0.1884
    148 H4         88.9285  -28.6997   58.5982 H         1 DTR         0.0815
    149 H5         90.3009  -27.5417   56.8507 H         1 DTR         0.0397
    150 H6         91.7820  -28.0985   57.7011 H         1 DTR         0.0397
    151 H7         88.7476  -25.7165   58.2530 H         1 DTR         0.0795
    152 H8         89.4853  -23.8410   59.8926 H         1 DTR         0.2216
    153 H9         91.7749  -23.2425   61.4141 H         1 DTR         0.0541
    154 H10        94.0191  -24.1087   61.9329 H         1 DTR         0.0530
    155 H11        94.8403  -26.1997   60.9118 H         1 DTR         0.0510
    156 H12        93.4172  -27.4925   59.3531 H         1 DTR         0.0540
    157 H13        89.2737  -28.5347   60.8084 H         1 ARG         0.1883
    158 H14        91.6784  -29.6163   62.0613 H         1 ARG         0.0800
    159 H15        90.4708  -29.0644   64.2088 H         1 ARG         0.0313
    160 H16        89.0967  -28.4831   63.2085 H         1 ARG         0.0313
    161 H17        90.5511  -26.7682   62.2100 H         1 ARG         0.0301
    162 H18        91.9226  -27.3481   63.2146 H         1 ARG         0.0301
    163 H19        90.7905  -26.7530   65.2483 H         1 ARG         0.0689
    164 H20        89.2580  -26.4269   64.3698 H         1 ARG         0.0689
    165 H21        90.0045  -24.2902   63.9153 H         1 ARG         0.2642
    166 H22        93.9298  -24.9681   64.7396 H         1 ARG         0.2615
    167 H23        92.7889  -26.3397   64.7348 H         1 ARG         0.2615
    168 H24        91.4702  -22.5659   63.9286 H         1 ARG         0.2615
    169 H25        93.1946  -22.8623   64.2768 H         1 ARG         0.2615
    170 H26        90.1455  -33.6705   62.7354 H         1 PRO         0.0802
    171 H27        92.0510  -34.7878   63.4612 H         1 PRO         0.0313
    172 H28        92.1462  -33.8162   64.9691 H         1 PRO         0.0313
    173 H29        93.2308  -33.1721   62.1917 H         1 PRO         0.0287
    174 H30        93.9948  -32.9142   63.7969 H         1 PRO         0.0287
    175 H31        92.6494  -31.0374   64.2731 H         1 PRO         0.0524
    176 H32        92.8457  -30.8683   62.4955 H         1 PRO         0.0524
    177 H33        88.8592  -34.7996   64.1497 H         1 ARG         0.1883
    178 H34        88.4699  -33.7143   66.8866 H         1 ARG         0.0800
    179 H35        86.0566  -34.1485   66.7276 H         1 ARG         0.0313
    180 H36        86.2497  -34.6013   65.0001 H         1 ARG         0.0313
    181 H37        85.4211  -32.3522   65.1011 H         1 ARG         0.0301
    182 H38        87.1370  -32.2915   64.5730 H         1 ARG         0.0301
    183 H39        87.8435  -31.7545   66.8139 H         1 ARG         0.0689
    184 H40        86.1564  -31.9120   67.4102 H         1 ARG         0.0689
    185 H41        85.5821  -29.8861   66.1570 H         1 ARG         0.2642
    186 H42        89.5359  -28.9030   66.2487 H         1 ARG         0.2615
    187 H43        89.0589  -30.6043   66.4949 H         1 ARG         0.2615
    188 H44        86.2143  -27.7378   65.8809 H         1 ARG         0.2615
    189 H45        87.9432  -27.2996   65.9190 H         1 ARG         0.2615
    190 H46        87.2388  -35.4275   68.2299 H         1 VAL         0.1883
    191 H47        88.6781  -37.9719   67.6878 H         1 VAL         0.0802
    192 H48        87.4751  -36.9615   70.3023 H         1 VAL         0.0343
    193 H49        88.7914  -38.8123   71.2866 H         1 VAL         0.0234
    194 H50        89.2987  -39.3227   69.6408 H         1 VAL         0.0234
    195 H51        87.5692  -39.4163   70.1170 H         1 VAL         0.0234
    196 H52        89.3578  -35.5763   69.5132 H         1 VAL         0.0234
    197 H53        90.3608  -37.0531   69.3147 H         1 VAL         0.0234
    198 H54        89.8133  -36.5524   70.9506 H         1 VAL         0.0234
    199 H55        87.5899  -39.7058   67.1232 H         1 ALA         0.1883
    200 H56        84.7616  -39.5423   66.6487 H         1 ALA         0.0797
    201 H57        84.9854  -41.9206   65.9744 H         1 ALA         0.0277
    202 H58        86.6505  -41.9511   66.6475 H         1 ALA         0.0277
    203 H59        86.2689  -40.8994   65.2422 H         1 ALA         0.0277
    204 H60        83.1223  -40.0088   67.9213 H         1 ARG         0.1883
    205 H61        83.3493  -40.6467   70.6577 H         1 ARG         0.0800
    206 H62        81.1455  -40.8096   68.5960 H         1 ARG         0.0313
    207 H63        81.2942  -39.7490   70.0381 H         1 ARG         0.0313
    208 H64        81.2031  -42.3991   70.9996 H         1 ARG         0.0301
    209 H65        79.9443  -42.2747   69.7242 H         1 ARG         0.0301
    210 H66        79.7245  -39.9022   71.2649 H         1 ARG         0.0689
    211 H67        79.9416  -41.2392   72.4447 H         1 ARG         0.0689
    212 H68        78.0099  -41.9178   70.3766 H         1 ARG         0.2642
    213 H69        76.7772  -40.2143   73.8423 H         1 ARG         0.2615
    214 H70        78.5007  -40.1396   73.3877 H         1 ARG         0.2615
    215 H71        75.8350  -42.0108   70.9396 H         1 ARG         0.2615
    216 H72        75.2752  -41.2810   72.4682 H         1 ARG         0.2615
    217 H73        83.4894  -42.4162   71.7534 H         1 TRP         0.1884
    218 H74        83.5632  -44.5032   72.5261 H         1 TRP         0.0815
    219 H75        82.8525  -46.4375   70.9150 H         1 TRP         0.0397
    220 H76        82.2456  -45.1018   69.8785 H         1 TRP         0.0397
    221 H77        81.9771  -45.8172   73.7252 H         1 TRP         0.0795
    222 H78        79.4961  -45.4757   74.4322 H         1 TRP         0.2216
    223 H79        80.0571  -44.6909   69.1180 H         1 TRP         0.0540
    224 H80        77.0847  -44.8267   73.1353 H         1 TRP         0.0541
    225 H81        77.6566  -44.1845   68.9327 H         1 TRP         0.0510
    226 H82        76.1889  -44.2760   70.9068 H         1 TRP         0.0530
    227 H83        84.9728  -44.1305   69.2346 H         1 THR         0.1884
    228 H84        86.7081  -46.4189   69.8460 H         1 THR         0.0826
    229 H85        87.7846  -45.6099   67.5766 H         1 THR         0.0639
    230 H86        86.1787  -44.4602   66.3511 H         1 THR         0.2101
    231 H87        86.0433  -46.8543   66.3415 H         1 THR         0.0257
    232 H88        84.9448  -46.7215   67.7565 H         1 THR         0.0257
    233 H89        86.4649  -47.6698   67.8854 H         1 THR         0.0257
    234 H90        86.8765  -43.0319   70.4254 H         1 GLY         0.1881
    235 H91        89.5356  -42.9451   71.2764 H         1 GLY         0.0763
    236 H92        88.5482  -41.5400   70.7497 H         1 GLY         0.0763
    237 H93        88.7456  -43.6520   68.1332 H         1 GLN         0.1883
    238 H94        91.3072  -42.8887   67.0834 H         1 GLN         0.0801
    239 H95        90.3500  -43.5969   64.8969 H         1 GLN         0.0337
    240 H96        88.7321  -43.7296   65.6660 H         1 GLN         0.0337
    241 H97        89.6463  -45.4206   67.2243 H         1 GLN         0.0504
    242 H98        91.2233  -45.3224   66.3698 H         1 GLN         0.0504
    243 H99        88.5429  -47.9636   65.1790 H         1 GLN         0.1814
    244 H100       88.6324  -47.2199   66.7407 H         1 GLN         0.1814
    245 H101       91.7303  -41.3930   65.4087 H         1 ILE         0.1883
    246 H102       90.2882  -38.8710   65.9864 H         1 ILE         0.0803
    247 H103       92.4629  -38.3823   66.3648 H         1 ILE         0.0345
    248 H104       91.5995  -37.1810   64.1959 H         1 ILE         0.0267
    249 H105       92.8917  -38.1411   63.3990 H         1 ILE         0.0267
    250 H106       93.1601  -40.7263   66.0041 H         1 ILE         0.0235
    251 H107       94.3823  -39.5528   65.4078 H         1 ILE         0.0235
    252 H108       93.3111  -40.4036   64.2436 H         1 ILE         0.0235
    253 H109       93.6939  -35.9209   64.0492 H         1 ILE         0.0230
    254 H110       94.5429  -37.2151   64.9606 H         1 ILE         0.0230
    255 H111       93.2507  -36.2550   65.7576 H         1 ILE         0.0230
    256 H112       89.0241  -37.9008   64.5714 H         1 ILE         0.1883
    257 H113       88.7873  -38.8916   61.7887 H         1 ILE         0.0803
    258 H114       87.1564  -36.7498   63.2038 H         1 ILE         0.0345
    259 H115       87.2157  -39.2767   64.1183 H         1 ILE         0.0267
    260 H116       85.9785  -39.4559   62.8284 H         1 ILE         0.0267
    261 H117       87.0934  -36.7252   60.7426 H         1 ILE         0.0235
    262 H118       85.5049  -37.1341   61.4747 H         1 ILE         0.0235
    263 H119       86.5206  -38.4277   60.7524 H         1 ILE         0.0235
    264 H120       84.9327  -38.8571   64.9990 H         1 ILE         0.0230
    265 H121       84.7021  -37.5507   63.7878 H         1 ILE         0.0230
    266 H122       85.9393  -37.3715   65.0777 H         1 ILE         0.0230
    267 H123       90.1018  -37.9096   60.3172 H         1 TYR         0.1885
    268 H124       91.5579  -35.5386   61.1199 H         1 TYR         0.0821
    269 H125       92.5470  -35.7611   58.7731 H         1 TYR         0.0453
    270 H126       91.5131  -37.2181   58.5870 H         1 TYR         0.0453
    271 H127       91.9841  -39.2536   59.9232 H         1 TYR         0.0530
    272 H128       94.4436  -35.7813   60.3270 H         1 TYR         0.0530
    273 H129       93.7128  -40.6098   61.0405 H         1 TYR         0.0525
    274 H130       96.1499  -37.1353   61.4735 H         1 TYR         0.0525
    275 H131       95.7363  -40.5806   62.0791 H         1 TYR         0.2458
    276 H132       88.7699  -36.0688   58.9827 H         1 CYS         0.1884
    277 H133       88.6963  -33.1292   58.5245 H         1 CYS         0.0808
    278 H134       88.1181  -35.2113   56.3858 H         1 CYS         0.0426
    279 H135       89.6700  -34.3204   56.5426 H         1 CYS         0.0426
    280 H136       86.6851  -32.2303   58.6048 H         1 SER         0.1884
    281 H137       84.5572  -34.1219   59.4852 H         1 SER         0.0823
    282 H138       85.1528  -32.5634   61.2110 H         1 SER         0.0606
    283 H139       83.5643  -32.0445   60.5521 H         1 SER         0.0606
    284 H140       84.7362  -30.5349   59.2486 H         1 SER         0.2097
    285 H141       82.0001  -33.0899   57.3144 H         1 NH2         0.1815
    286 H142       82.4320  -33.9584   58.7494 H         1 NH2         0.1815
@<TRIPOS>BOND
     1    1    2 2  
     2    1    3 1  
     3    1    4 am 
     4    3  137 1  
     5    4    5 1  
     6    5    6 1  
     7    5   16 1  
     8    6    7 1  
     9    7    8 2  
    10    7   15 1  
    11    8    9 1  
    12    9   10 1  
    13   10   11 ar 
    14   10   15 ar 
    15   11   12 ar 
    16   12   13 ar 
    17   13   14 ar 
    18   14   15 ar 
    19   16   17 2  
    20   16   18 am 
    21   18   19 1  
    22   19   20 1  
    23   19   22 1  
    24   20   21 2  
    25   20   29 am 
    26   22   23 1  
    27   23   24 1  
    28   24   25 1  
    29   25   26 ar 
    30   26   27 ar 
    31   26   28 ar 
    32   29   30 1  
    33   29   35 1  
    34   30   31 1  
    35   30   33 1  
    36   31   32 2  
    37   31   36 am 
    38   33   34 1  
    39   34   35 1  
    40   36   37 1  
    41   37   38 1  
    42   37   40 1  
    43   38   39 2  
    44   38   47 am 
    45   40   41 1  
    46   41   42 1  
    47   42   43 1  
    48   43   44 ar 
    49   44   45 ar 
    50   44   46 ar 
    51   47   48 1  
    52   48   49 1  
    53   48   51 1  
    54   49   50 2  
    55   49   54 am 
    56   51   52 1  
    57   51   53 1  
    58   54   55 1  
    59   55   56 1  
    60   55   58 1  
    61   56   57 2  
    62   56   59 am 
    63   59   60 1  
    64   60   61 1  
    65   60   63 1  
    66   61   62 2  
    67   61   70 am 
    68   63   64 1  
    69   64   65 1  
    70   65   66 1  
    71   66   67 ar 
    72   67   68 ar 
    73   67   69 ar 
    74   70   71 1  
    75   71   72 1  
    76   71   74 1  
    77   72   73 2  
    78   72   84 am 
    79   74   75 1  
    80   75   76 2  
    81   75   77 1  
    82   76   78 1  
    83   77   79 ar 
    84   77   80 ar 
    85   78   79 1  
    86   79   81 ar 
    87   80   82 ar 
    88   81   83 ar 
    89   82   83 ar 
    90   84   85 1  
    91   85   86 1  
    92   85   88 1  
    93   86   87 2  
    94   86   91 am 
    95   88   89 1  
    96   88   90 1  
    97   91   92 1  
    98   92   93 1  
    99   93   94 2  
   100   93   95 am 
   101   95   96 1  
   102   96   97 1  
   103   96   99 1  
   104   97   98 2  
   105   97  104 am 
   106   99  100 1  
   107  100  101 1  
   108  101  102 2  
   109  101  103 am 
   110  104  105 1  
   111  105  106 1  
   112  105  108 1  
   113  106  107 2  
   114  106  112 am 
   115  108  109 1  
   116  108  110 1  
   117  109  111 1  
   118  112  113 1  
   119  113  114 1  
   120  113  116 1  
   121  114  115 2  
   122  114  120 am 
   123  116  117 1  
   124  116  118 1  
   125  117  119 1  
   126  120  121 1  
   127  121  122 1  
   128  121  124 1  
   129  122  123 2  
   130  122  132 am 
   131  124  125 1  
   132  125  126 ar 
   133  125  127 ar 
   134  126  128 ar 
   135  127  129 ar 
   136  128  130 ar 
   137  129  130 ar 
   138  130  131 1  
   139  132  133 1  
   140  133  134 1  
   141  133  136 1  
   142  134  135 2  
   143  134  138 am 
   144  136  137 1  
   145  138  139 1  
   146  139  140 1  
   147  139  142 1  
   148  140  141 2  
   149  140  144 am 
   150  142  143 1  
   151    3  145 1  
   152    3  146 1  
   153    4  147 1  
   154    5  148 1  
   155    6  149 1  
   156    6  150 1  
   157    8  151 1  
   158    9  152 1  
   159   11  153 1  
   160   12  154 1  
   161   13  155 1  
   162   14  156 1  
   163   18  157 1  
   164   19  158 1  
   165   22  159 1  
   166   22  160 1  
   167   23  161 1  
   168   23  162 1  
   169   24  163 1  
   170   24  164 1  
   171   25  165 1  
   172   27  166 1  
   173   27  167 1  
   174   28  168 1  
   175   28  169 1  
   176   30  170 1  
   177   33  171 1  
   178   33  172 1  
   179   34  173 1  
   180   34  174 1  
   181   35  175 1  
   182   35  176 1  
   183   36  177 1  
   184   37  178 1  
   185   40  179 1  
   186   40  180 1  
   187   41  181 1  
   188   41  182 1  
   189   42  183 1  
   190   42  184 1  
   191   43  185 1  
   192   45  186 1  
   193   45  187 1  
   194   46  188 1  
   195   46  189 1  
   196   47  190 1  
   197   48  191 1  
   198   51  192 1  
   199   52  193 1  
   200   52  194 1  
   201   52  195 1  
   202   53  196 1  
   203   53  197 1  
   204   53  198 1  
   205   54  199 1  
   206   55  200 1  
   207   58  201 1  
   208   58  202 1  
   209   58  203 1  
   210   59  204 1  
   211   60  205 1  
   212   63  206 1  
   213   63  207 1  
   214   64  208 1  
   215   64  209 1  
   216   65  210 1  
   217   65  211 1  
   218   66  212 1  
   219   68  213 1  
   220   68  214 1  
   221   69  215 1  
   222   69  216 1  
   223   70  217 1  
   224   71  218 1  
   225   74  219 1  
   226   74  220 1  
   227   76  221 1  
   228   78  222 1  
   229   80  223 1  
   230   81  224 1  
   231   82  225 1  
   232   83  226 1  
   233   84  227 1  
   234   85  228 1  
   235   88  229 1  
   236   89  230 1  
   237   90  231 1  
   238   90  232 1  
   239   90  233 1  
   240   91  234 1  
   241   92  235 1  
   242   92  236 1  
   243   95  237 1  
   244   96  238 1  
   245   99  239 1  
   246   99  240 1  
   247  100  241 1  
   248  100  242 1  
   249  103  243 1  
   250  103  244 1  
   251  104  245 1  
   252  105  246 1  
   253  108  247 1  
   254  109  248 1  
   255  109  249 1  
   256  110  250 1  
   257  110  251 1  
   258  110  252 1  
   259  111  253 1  
   260  111  254 1  
   261  111  255 1  
   262  112  256 1  
   263  113  257 1  
   264  116  258 1  
   265  117  259 1  
   266  117  260 1  
   267  118  261 1  
   268  118  262 1  
   269  118  263 1  
   270  119  264 1  
   271  119  265 1  
   272  119  266 1  
   273  120  267 1  
   274  121  268 1  
   275  124  269 1  
   276  124  270 1  
   277  126  271 1  
   278  127  272 1  
   279  128  273 1  
   280  129  274 1  
   281  131  275 1  
   282  132  276 1  
   283  133  277 1  
   284  136  278 1  
   285  136  279 1  
   286  138  280 1  
   287  139  281 1  
   288  142  282 1  
   289  142  283 1  
   290  143  284 1  
   291  144  285 1  
   292  144  286 1  
@<TRIPOS>SUBSTRUCTURE
     1 ACE         1

