4ks3_ligand
  -I-interpret- 

 58 59  0  0  0  0  0  0  0  0999 V2000
  -26.3110  -22.1150  -36.9160 C   0  0  0  0  0
  -27.0160  -21.4100  -38.0890 C   0  0  0  0  0
  -26.2500  -21.5240  -39.4150 C   0  0  0  0  0
  -27.1520  -22.1840  -40.4520 C   0  0  0  0  0
  -28.1750  -21.1840  -40.9950 C   0  0  0  0  0
  -25.9180  -20.2060  -39.8780 O   0  0  0  0  0
  -24.5020  -19.9770  -39.9620 C   0  0  0  0  0
  -24.2150  -18.4790  -39.8240 C   0  0  0  0  0
  -24.8890  -17.7580  -40.9130 N   0  0  0  0  0
  -25.4800  -16.5830  -40.7580 C   0  0  0  0  0
  -25.9540  -15.9350  -42.0560 C   0  0  0  0  0
  -25.5980  -16.0170  -39.6780 O   0  0  0  0  0
  -23.8030  -20.7260  -38.8400 C   0  0  0  0  0
  -22.4000  -20.2500  -38.5190 C   0  0  0  0  0
  -21.4980  -21.2800  -37.8520 C   0  0  0  0  0
  -20.3980  -20.9040  -37.3710 O   0  0  0  0  0
  -22.0010  -22.4210  -37.7220 O   0  0  0  0  0
  -21.8450  -19.1990  -39.2260 C   0  0  0  0  0
  -22.7220  -18.2050  -39.9850 C   0  0  0  0  0
  -22.3310  -16.8700  -39.5200 N   0  0  0  0  0
  -21.5350  -16.7040  -38.4750 C   0  0  0  0  0
  -22.6310  -15.7890  -40.0450 N   0  0  0  0  0
  -22.0930  -14.8750  -39.4120 N   0  0  0  0  0
  -21.3800  -15.3990  -38.4050 C   0  0  0  0  0
  -20.5240  -14.6510  -37.3810 C   0  0  0  0  0
  -19.6760  -15.5620  -36.4910 C   0  0  0  0  0
  -18.9490  -14.6760  -35.4730 C   0  0  0  0  0
  -18.1980  -15.4600  -34.5540 O   0  0  0  0  0
  -26.2028  -23.1755  -37.1433 H   0  0  0  0  0
  -25.3264  -21.6719  -36.7663 H   0  0  0  0  0
  -26.9063  -21.9950  -36.0109 H   0  0  0  0  0
  -27.0894  -20.3512  -37.8409 H   0  0  0  0  0
  -27.9855  -21.8888  -38.2264 H   0  0  0  0  0
  -25.3448  -22.1132  -39.2685 H   0  0  0  0  0
  -27.6836  -23.0108  -39.9810 H   0  0  0  0  0
  -26.5365  -22.5414  -41.2776 H   0  0  0  0  0
  -28.7914  -20.8153  -40.1751 H   0  0  0  0  0
  -27.6525  -20.3493  -41.4623 H   0  0  0  0  0
  -28.8072  -21.6776  -41.7331 H   0  0  0  0  0
  -24.1349  -20.3308  -40.9254 H   0  0  0  0  0
  -24.5629  -18.1562  -38.8427 H   0  0  0  0  0
  -24.9023  -18.1860  -41.8388 H   0  0  0  0  0
  -27.0246  -15.7401  -41.9935 H   0  0  0  0  0
  -25.4208  -14.9965  -42.2079 H   0  0  0  0  0
  -25.7539  -16.6072  -42.8904 H   0  0  0  0  0
  -23.7142  -21.7627  -39.1648 H   0  0  0  0  0
  -24.3992  -20.5689  -37.9411 H   0  0  0  0  0
  -20.2403  -19.9885  -37.6132 H   0  0  0  0  0
  -20.7619  -19.0777  -39.2419 H   0  0  0  0  0
  -22.5615  -18.2984  -41.0591 H   0  0  0  0  0
  -21.1084  -17.4684  -37.8255 H   0  0  0  0  0
  -21.2054  -14.1056  -36.7280 H   0  0  0  0  0
  -19.8369  -14.0145  -37.9385 H   0  0  0  0  0
  -18.9560  -16.1163  -37.0931 H   0  0  0  0  0
  -20.3088  -16.2867  -35.9787 H   0  0  0  0  0
  -19.6912  -14.1032  -34.9170 H   0  0  0  0  0
  -18.2654  -14.0180  -36.0094 H   0  0  0  0  0
  -17.7542  -14.8814  -33.9296 H   0  0  0  0  0
  1  2  1  0  0  0
  2  3  1  0  0  0
  3  4  1  0  0  0
  3  6  1  0  0  0
  4  5  1  0  0  0
  6  7  1  0  0  0
  7  8  1  0  0  0
  7 13  1  0  0  0
  8  9  1  0  0  0
  8 19  1  0  0  0
  9 10  1  0  0  0
 10 11  1  0  0  0
 10 12  2  0  0  0
 13 14  1  0  0  0
 14 15  1  0  0  0
 14 18  2  0  0  0
 15 16  1  0  0  0
 15 17  2  0  0  0
 18 19  1  0  0  0
 19 20  1  0  0  0
 20 21  4  0  0  0
 20 22  4  0  0  0
 21 24  4  0  0  0
 22 23  4  0  0  0
 23 24  4  0  0  0
 24 25  1  0  0  0
 25 26  1  0  0  0
 26 27  1  0  0  0
 27 28  1  0  0  0
  1 29  1  0  0  0
  1 30  1  0  0  0
  1 31  1  0  0  0
  2 32  1  0  0  0
  2 33  1  0  0  0
  3 34  1  0  0  0
  4 35  1  0  0  0
  4 36  1  0  0  0
  5 37  1  0  0  0
  5 38  1  0  0  0
  5 39  1  0  0  0
  7 40  1  0  0  0
  8 41  1  0  0  0
  9 42  1  0  0  0
 11 43  1  0  0  0
 11 44  1  0  0  0
 11 45  1  0  0  0
 13 46  1  0  0  0
 13 47  1  0  0  0
 16 48  1  0  0  0
 18 49  1  0  0  0
 19 50  1  0  0  0
 21 51  1  0  0  0
 25 52  1  0  0  0
 25 53  1  0  0  0
 26 54  1  0  0  0
 26 55  1  0  0  0
 27 56  1  0  0  0
 27 57  1  0  0  0
 28 58  1  0  0  0
M  END
$$$$
