4dei_ligand
  -I-interpret- 

 55 59  0  0  0  0  0  0  0  0999 V2000
   28.3430   31.0880   60.9540 C   0  0  0  0  0
   27.1360   31.2780   60.0330 C   0  0  0  0  0
   26.2790   30.2700   59.7760 C   0  0  0  0  0
   26.8790   32.4560   59.4460 N   0  0  0  0  0
   25.5220   32.2440   58.5510 S   0  0  0  0  0
   25.2840   30.6250   58.9590 C   0  0  0  0  0
   24.2530   29.7840   58.4940 N   0  0  0  0  0
   23.3240   30.2490   57.5350 C   0  0  0  0  0
   22.3180   29.3940   57.0760 C   0  0  0  0  0
   23.3940   31.4020   57.1160 O   0  0  0  0  0
   24.1480   28.4530   58.9550 C   0  0  0  0  0
   23.1390   27.6130   58.4820 C   0  0  0  0  0
   22.2270   28.0960   57.5420 C   0  0  0  0  0
   21.1790   27.5690   56.9010 N   0  0  0  0  0
   20.6840   28.4240   56.1490 N   0  0  0  0  0
   21.3120   29.4910   56.2100 N   0  0  0  0  0
   20.9920   30.7180   55.4480 C   0  0  0  0  0
   20.3170   30.4010   54.1060 C   0  0  0  0  0
   20.1110   31.6020   56.3390 C   0  0  0  0  0
   20.6620   32.7610   56.8760 C   0  0  0  0  0
   19.8920   33.5700   57.6990 C   0  0  0  0  0
   20.4400   34.7290   58.2300 C   0  0  0  0  0
   18.7920   31.2510   56.6380 C   0  0  0  0  0
   18.0190   32.0680   57.4620 C   0  0  0  0  0
   18.5720   33.2300   57.9950 C   0  0  0  0  0
   17.8350   34.0220   58.7920 N   0  0  0  0  0
   18.3360   35.1360   59.3140 C   0  0  0  0  0
   19.6520   35.5200   59.0570 C   0  0  0  0  0
   20.1750   36.6610   59.5870 O   0  0  0  0  0
   20.4470   36.4990   60.9980 C   0  0  0  0  0
   20.1730   37.8080   61.7110 C   0  0  0  0  0
   21.3920   38.5560   61.7820 O   0  0  0  0  0
   21.1090   39.9610   61.6620 C   0  0  0  0  0
   27.9990   30.7954   61.9460 H   0  0  0  0  0
   28.9893   30.3098   60.5480 H   0  0  0  0  0
   28.8976   32.0239   61.0218 H   0  0  0  0  0
   26.3869   29.2683   60.1921 H   0  0  0  0  0
   24.8625   28.0781   59.6878 H   0  0  0  0  0
   23.0636   26.5876   58.8438 H   0  0  0  0  0
   21.9103   31.2467   55.1925 H   0  0  0  0  0
   20.9847   29.7878   53.5008 H   0  0  0  0  0
   19.3884   29.8596   54.2868 H   0  0  0  0  0
   20.1004   31.3313   53.5810 H   0  0  0  0  0
   21.6935   33.0321   56.6513 H   0  0  0  0  0
   21.4676   35.0130   58.0030 H   0  0  0  0  0
   18.3662   30.3361   56.2260 H   0  0  0  0  0
   16.9872   31.7988   57.6879 H   0  0  0  0  0
   17.7096   35.7590   59.9524 H   0  0  0  0  0
   21.4901   36.2163   61.1397 H   0  0  0  0  0
   19.8059   35.7181   61.4071 H   0  0  0  0  0
   19.8003   37.6112   62.7162 H   0  0  0  0  0
   19.4208   38.3769   61.1645 H   0  0  0  0  0
   20.6233   40.1521   60.7051 H   0  0  0  0  0
   20.4492   40.2680   62.4735 H   0  0  0  0  0
   22.0407   40.5240   61.7168 H   0  0  0  0  0
  1  2  1  0  0  0
  2  3  4  0  0  0
  2  4  4  0  0  0
  3  6  4  0  0  0
  4  5  4  0  0  0
  5  6  4  0  0  0
  6  7  1  0  0  0
  7  8  1  0  0  0
  7 11  1  0  0  0
  8  9  1  0  0  0
  8 10  2  0  0  0
  9 13  4  0  0  0
  9 16  4  0  0  0
 11 12  2  0  0  0
 12 13  1  0  0  0
 13 14  4  0  0  0
 14 15  4  0  0  0
 15 16  4  0  0  0
 16 17  1  0  0  0
 17 18  1  0  0  0
 17 19  1  0  0  0
 19 20  4  0  0  0
 19 23  4  0  0  0
 20 21  4  0  0  0
 21 22  4  0  0  0
 21 25  4  0  0  0
 22 28  4  0  0  0
 23 24  4  0  0  0
 24 25  4  0  0  0
 25 26  4  0  0  0
 26 27  4  0  0  0
 27 28  4  0  0  0
 28 29  1  0  0  0
 29 30  1  0  0  0
 30 31  1  0  0  0
 31 32  1  0  0  0
 32 33  1  0  0  0
  1 34  1  0  0  0
  1 35  1  0  0  0
  1 36  1  0  0  0
  3 37  1  0  0  0
 11 38  1  0  0  0
 12 39  1  0  0  0
 17 40  1  0  0  0
 18 41  1  0  0  0
 18 42  1  0  0  0
 18 43  1  0  0  0
 20 44  1  0  0  0
 22 45  1  0  0  0
 23 46  1  0  0  0
 24 47  1  0  0  0
 27 48  1  0  0  0
 30 49  1  0  0  0
 30 50  1  0  0  0
 31 51  1  0  0  0
 31 52  1  0  0  0
 33 53  1  0  0  0
 33 54  1  0  0  0
 33 55  1  0  0  0
M  END
$$$$
