3gt9_ligand
  -I-interpret- 

 73 77  0  0  0  0  0  0  0  0999 V2000
   80.5260   62.0630   14.9220 O   0  0  0  0  0
   80.8480   62.3490   13.7780 C   0  0  0  0  0
   82.0200   61.6510   13.1440 C   0  0  0  0  0
   81.5110   60.5290   12.2340 C   0  0  0  0  0
   80.8980   59.3690   13.0190 C   0  0  0  0  0
   80.3590   58.2930   12.0840 C   0  0  0  0  0
   81.4490   57.7770   11.1490 C   0  0  0  0  0
   82.1060   58.9230   10.3860 C   0  0  0  0  0
   82.6270   59.9900   11.3440 C   0  0  0  0  0
   82.9330   61.1350   14.1560 N   0  0  0  0  0
   84.2610   61.1950   14.0560 C   0  0  0  0  0
   84.8450   61.6540   13.0890 O   0  0  0  0  0
   85.0460   60.6330   15.2060 C   0  0  0  0  0
   85.1240   61.6510   16.3340 C   0  0  0  0  0
   86.3820   60.2450   14.7900 N   0  3  0  0  0
   86.5510   59.0820   13.9390 C   0  0  0  0  0
   80.1740   63.2600   13.0650 N   0  0  0  0  0
   78.9940   63.9020   13.6370 C   0  0  0  0  0
   78.5650   64.9660   12.6290 C   0  0  0  0  0
   79.7190   65.1120   11.7070 C   0  0  0  0  0
   80.4380   63.7690   11.7230 C   0  0  0  0  0
   77.8710   62.9390   13.9260 C   0  0  0  0  0
   77.6080   61.5130   13.0980 S   0  0  0  0  0
   76.3070   61.2890   14.1180 C   0  0  0  0  0
   76.1160   62.2510   15.0320 C   0  0  0  0  0
   77.0230   63.2090   14.9080 N   0  0  0  0  0
   74.9950   62.2610   16.0390 C   0  0  0  0  0
   73.7400   61.8380   15.5990 C   0  0  0  0  0
   72.6510   61.8240   16.4630 C   0  0  0  0  0
   72.8130   62.2410   17.7790 C   0  0  0  0  0
   74.0600   62.6690   18.2260 C   0  0  0  0  0
   74.1880   63.0810   19.5500 C   0  0  0  0  0
   75.1600   62.6850   17.3650 C   0  0  0  0  0
   76.3940   63.1240   17.8650 C   0  0  0  0  0
   76.5200   63.5360   19.1900 C   0  0  0  0  0
   75.4150   63.5160   20.0330 C   0  0  0  0  0
   82.5788   62.3683   12.5429 H   0  0  0  0  0
   80.7311   60.9755   11.6171 H   0  0  0  0  0
   80.0730   59.7530   13.6190 H   0  0  0  0  0
   81.6715   58.9276   13.6474 H   0  0  0  0  0
   79.5597   58.7245   11.4815 H   0  0  0  0  0
   79.9942   57.4605   12.6856 H   0  0  0  0  0
   80.9971   57.0933   10.4303 H   0  0  0  0  0
   82.2100   57.2733   11.7450 H   0  0  0  0  0
   81.3641   59.3758    9.7282 H   0  0  0  0  0
   82.9451   58.5267    9.8142 H   0  0  0  0  0
   83.3915   59.5425   11.9791 H   0  0  0  0  0
   83.0319   60.8148   10.7576 H   0  0  0  0  0
   82.5328   60.7030   14.9889 H   0  0  0  0  0
   84.5308   59.7414   15.5632 H   0  0  0  0  0
   85.6151   62.5546   15.9729 H   0  0  0  0  0
   84.1169   61.8939   16.6727 H   0  0  0  0  0
   85.6957   61.2312   17.1617 H   0  0  0  0  0
   86.8654   60.0065   15.6559 H   0  0  0  0  0
   86.7182   61.0285   14.2301 H   0  0  0  0  0
   86.1589   58.2012   14.4475 H   0  0  0  0  0
   86.0100   59.2350   13.0052 H   0  0  0  0  0
   87.6107   58.9392   13.7273 H   0  0  0  0  0
   79.2397   64.3329   14.6076 H   0  0  0  0  0
   78.3178   65.9083   13.1179 H   0  0  0  0  0
   77.6586   64.6759   12.0977 H   0  0  0  0  0
   80.3798   65.9186   12.0246 H   0  0  0  0  0
   79.3912   65.3735   10.7009 H   0  0  0  0  0
   80.0842   63.0953   10.9426 H   0  0  0  0  0
   81.5034   63.8619   11.5125 H   0  0  0  0  0
   75.6554   60.4182   14.0461 H   0  0  0  0  0
   73.6121   61.5148   14.5659 H   0  0  0  0  0
   71.6758   61.4880   16.1105 H   0  0  0  0  0
   71.9631   62.2329   18.4614 H   0  0  0  0  0
   73.3210   63.0619   20.2103 H   0  0  0  0  0
   77.2648   63.1432   17.2097 H   0  0  0  0  0
   77.4857   63.8742   19.5657 H   0  0  0  0  0
   75.5113   63.8405   21.0691 H   0  0  0  0  0
  1  2  2  0  0  0
  2  3  1  0  0  0
  2 17  1  0  0  0
  3  4  1  0  0  0
  3 10  1  0  0  0
  4  5  1  0  0  0
  4  9  1  0  0  0
  5  6  1  0  0  0
  6  7  1  0  0  0
  7  8  1  0  0  0
  8  9  1  0  0  0
 10 11  1  0  0  0
 11 12  2  0  0  0
 11 13  1  0  0  0
 13 14  1  0  0  0
 13 15  1  0  0  0
 15 16  1  0  0  0
 17 18  1  0  0  0
 17 21  1  0  0  0
 18 19  1  0  0  0
 18 22  1  0  0  0
 19 20  1  0  0  0
 20 21  1  0  0  0
 22 23  4  0  0  0
 22 26  4  0  0  0
 23 24  4  0  0  0
 24 25  4  0  0  0
 25 26  4  0  0  0
 25 27  1  0  0  0
 27 28  4  0  0  0
 27 33  4  0  0  0
 28 29  4  0  0  0
 29 30  4  0  0  0
 30 31  4  0  0  0
 31 32  4  0  0  0
 31 33  4  0  0  0
 32 36  4  0  0  0
 33 34  4  0  0  0
 34 35  4  0  0  0
 35 36  4  0  0  0
  3 37  1  0  0  0
  4 38  1  0  0  0
  5 39  1  0  0  0
  5 40  1  0  0  0
  6 41  1  0  0  0
  6 42  1  0  0  0
  7 43  1  0  0  0
  7 44  1  0  0  0
  8 45  1  0  0  0
  8 46  1  0  0  0
  9 47  1  0  0  0
  9 48  1  0  0  0
 10 49  1  0  0  0
 13 50  1  0  0  0
 14 51  1  0  0  0
 14 52  1  0  0  0
 14 53  1  0  0  0
 15 54  1  0  0  0
 15 55  1  0  0  0
 16 56  1  0  0  0
 16 57  1  0  0  0
 16 58  1  0  0  0
 18 59  1  0  0  0
 19 60  1  0  0  0
 19 61  1  0  0  0
 20 62  1  0  0  0
 20 63  1  0  0  0
 21 64  1  0  0  0
 21 65  1  0  0  0
 24 66  1  0  0  0
 28 67  1  0  0  0
 29 68  1  0  0  0
 30 69  1  0  0  0
 32 70  1  0  0  0
 34 71  1  0  0  0
 35 72  1  0  0  0
 36 73  1  0  0  0
M  END
$$$$
