5y8w_ligand
  -I-interpret- 

 37 39  0  0  0  0  0  0  0  0999 V2000
   -5.4460   13.4580   -1.9910 C   0  0  0  0  0
   -4.8420   12.6330   -0.9270 O   0  0  0  0  0
   -4.6230   11.3110   -1.1360 C   0  0  0  0  0
   -4.4890   10.8070   -2.4390 C   0  0  0  0  0
   -4.2450    9.4570   -2.6190 C   0  0  0  0  0
   -4.0640    8.6180   -1.5580 C   0  0  0  0  0
   -3.7070    6.7820   -1.8370 Br  0  0  0  0  0
   -4.1920    9.1320   -0.2560 C   0  0  0  0  0
   -4.4580   10.4520   -0.0480 C   0  0  0  0  0
   -4.5700   10.9490    1.6010 S   0  0  0  0  0
   -4.3120    9.7950    2.5330 O   0  0  0  0  0
   -3.6220   12.0760    1.7580 O   0  0  0  0  0
   -6.0850   11.5520    1.8120 N   0  0  0  0  0
   -7.1370   10.7420    1.7590 C   0  0  0  0  0
   -7.4040    9.6950    2.6480 C   0  0  0  0  0
   -8.5580    8.9310    2.5340 C   0  0  0  0  0
   -9.0550    7.8810    3.2120 C   0  0  0  0  0
   -8.4360    7.1840    4.4170 C   0  0  0  0  0
  -10.2480    7.4460    2.7430 N   0  0  0  0  0
  -10.5140    8.3240    1.5980 O   0  0  0  0  0
   -9.4360    9.2180    1.5140 C   0  0  0  0  0
   -9.2170   10.2350    0.6590 C   0  0  0  0  0
   -8.0720   10.9990    0.7400 C   0  0  0  0  0
   -7.8140   11.9950   -0.1200 O   0  0  0  0  0
   -4.8087   13.4323   -2.8749 H   0  0  0  0  0
   -6.4310   13.0632   -2.2401 H   0  0  0  0  0
   -5.5430   14.4858   -1.6412 H   0  0  0  0  0
   -4.5761   11.4712   -3.2989 H   0  0  0  0  0
   -4.1963    9.0546   -3.6308 H   0  0  0  0  0
   -4.0769    8.4656    0.5988 H   0  0  0  0  0
   -6.2174   12.5487    1.9837 H   0  0  0  0  0
   -6.6932    9.4750    3.4446 H   0  0  0  0  0
   -7.4583    6.7874    4.1431 H   0  0  0  0  0
   -8.3240    7.8999    5.2313 H   0  0  0  0  0
   -9.0843    6.3678    4.7356 H   0  0  0  0  0
   -9.9570   10.4579   -0.1097 H   0  0  0  0  0
   -8.5289   12.0591   -0.7575 H   0  0  0  0  0
  1  2  1  0  0  0
  2  3  1  0  0  0
  3  4  4  0  0  0
  3  9  4  0  0  0
  4  5  4  0  0  0
  5  6  4  0  0  0
  6  7  1  0  0  0
  6  8  4  0  0  0
  8  9  4  0  0  0
  9 10  1  0  0  0
 10 11  2  0  0  0
 10 12  2  0  0  0
 10 13  1  0  0  0
 13 14  1  0  0  0
 14 15  4  0  0  0
 14 23  4  0  0  0
 15 16  4  0  0  0
 16 17  4  0  0  0
 16 21  4  0  0  0
 17 18  1  0  0  0
 17 19  4  0  0  0
 19 20  4  0  0  0
 20 21  4  0  0  0
 21 22  4  0  0  0
 22 23  4  0  0  0
 23 24  1  0  0  0
  1 25  1  0  0  0
  1 26  1  0  0  0
  1 27  1  0  0  0
  4 28  1  0  0  0
  5 29  1  0  0  0
  8 30  1  0  0  0
 13 31  1  0  0  0
 15 32  1  0  0  0
 18 33  1  0  0  0
 18 34  1  0  0  0
 18 35  1  0  0  0
 22 36  1  0  0  0
 24 37  1  0  0  0
M  END
$$$$
