3aje_ligand
  -I-interpret- 

 18 17  0  0  0  0  0  0  0  0999 V2000
   40.9470   40.3450   16.7810 N   0  3  0  0  0
   40.3120   39.2210   16.0420 C   0  0  0  0  0
   41.2960   38.6410   15.0150 C   0  0  0  0  0
   42.4050   39.1850   14.8630 O   0  0  0  0  0
   39.0770   39.6860   15.2480 C   0  0  0  0  0
   39.5040   40.5960   14.2380 O   0  0  0  0  0
   38.0530   40.3980   16.1710 C   0  0  0  0  0
   40.9280   37.6340   14.4070 O   0  0  0  0  0
   41.7584   39.9985   17.2927 H   0  0  0  0  0
   41.2422   41.0622   16.1185 H   0  0  0  0  0
   40.2743   40.7423   17.4367 H   0  0  0  0  0
   40.0233   38.4818   16.7892 H   0  0  0  0  0
   42.4667   39.9499   15.4398 H   0  0  0  0  0
   38.5931   38.8141   14.8078 H   0  0  0  0  0
   40.1381   40.1604   13.6637 H   0  0  0  0  0
   38.5241   41.2656   16.6330 H   0  0  0  0  0
   37.1957   40.7202   15.5800 H   0  0  0  0  0
   37.7224   39.7067   16.9461 H   0  0  0  0  0
  1  2  1  0  0  0
  2  3  1  0  0  0
  2  5  1  0  0  0
  3  4  1  0  0  0
  3  8  2  0  0  0
  5  6  1  0  0  0
  5  7  1  0  0  0
  1  9  1  0  0  0
  1 10  1  0  0  0
  1 11  1  0  0  0
  2 12  1  0  0  0
  4 13  1  0  0  0
  5 14  1  0  0  0
  6 15  1  0  0  0
  7 16  1  0  0  0
  7 17  1  0  0  0
  7 18  1  0  0  0
M  END
$$$$
