6as6_ligand
  -I-interpret- 

 34 35  0  0  0  0  0  0  0  0999 V2000
   35.5790   79.2920   63.3300 C   0  0  0  0  0
   37.7670   80.2190   63.9940 C   0  0  0  0  0
   29.3130   75.9660   61.1200 C   0  0  0  0  0
   35.4460   76.1170   64.0470 C   0  0  0  0  0
   34.2520   76.2900   63.1900 C   0  0  0  0  0
   33.3010   75.2650   63.1850 C   0  0  0  0  0
   32.1620   75.3350   62.3930 C   0  0  0  0  0
   31.9190   76.4240   61.5500 C   0  0  0  0  0
   32.8760   77.4570   61.5380 C   0  0  0  0  0
   34.0300   77.4160   62.3480 C   0  0  0  0  0
   35.0050   78.5500   62.1910 C   0  0  0  0  0
   36.5150   80.2560   63.1960 C   0  0  0  0  0
   30.6900   76.4730   60.7220 C   0  0  0  0  0
   30.0550   75.2960   60.0040 C   0  0  0  0  0
   35.3200   78.8850   61.0210 O   0  0  0  0  0
   36.7530   80.9540   62.0330 O   0  0  0  0  0
   37.6400   80.0010   65.3290 O   0  0  0  0  0
   38.8940   80.2120   63.5040 O   0  0  0  0  0
   36.1053   78.5164   63.8864 H   0  0  0  0  0
   34.7212   79.8376   63.7232 H   0  0  0  0  0
   28.3191   76.3716   61.3091 H   0  0  0  0  0
   28.7799   75.6844   62.0281 H   0  0  0  0  0
   35.1337   76.0107   65.0859 H   0  0  0  0  0
   35.9885   75.2242   63.7361 H   0  0  0  0  0
   36.0922   76.9892   63.9480 H   0  0  0  0  0
   33.4570   74.3909   63.8172 H   0  0  0  0  0
   31.4390   74.5201   62.4295 H   0  0  0  0  0
   32.7202   78.3142   60.8830 H   0  0  0  0  0
   35.7309   80.8197   63.7014 H   0  0  0  0  0
   31.1077   77.4363   60.4291 H   0  0  0  0  0
   29.8659   74.9741   58.9799 H   0  0  0  0  0
   30.3279   74.2853   59.7006 H   0  0  0  0  0
   35.9492   80.9840   61.5090 H   0  0  0  0  0
   36.7115   80.0345   65.5707 H   0  0  0  0  0
 11  1  1  0  0  0
  1 12  1  0  0  0
 12  2  1  0  0  0
  2 17  1  0  0  0
  2 18  2  0  0  0
 13  3  1  0  0  0
  3 14  1  0  0  0
  5  4  1  0  0  0
  5  6  4  0  0  0
 10  5  4  0  0  0
  6  7  4  0  0  0
  8  7  4  0  0  0
  9  8  4  0  0  0
  8 13  1  0  0  0
 10  9  4  0  0  0
 10 11  1  0  0  0
 11 15  2  0  0  0
 12 16  1  0  0  0
 13 14  1  0  0  0
  1 19  1  0  0  0
  1 20  1  0  0  0
  3 21  1  0  0  0
  3 22  1  0  0  0
  4 23  1  0  0  0
  4 24  1  0  0  0
  4 25  1  0  0  0
  6 26  1  0  0  0
  7 27  1  0  0  0
  9 28  1  0  0  0
 12 29  1  0  0  0
 13 30  1  0  0  0
 14 31  1  0  0  0
 14 32  1  0  0  0
 16 33  1  0  0  0
 17 34  1  0  0  0
M  END
$$$$
