3hyf_ligand
  -I-interpret- 

 28 29  0  0  0  0  0  0  0  0999 V2000
    3.7860   49.4070   34.6460 C   0  0  0  0  0
    3.4260   49.1450   29.9340 N   0  0  0  0  0
    3.1800   52.3620   28.0190 O   0  0  0  0  0
    7.4790   50.0230   36.3950 Cl  0  0  0  0  0
    4.7910   49.7230   35.6210 C   0  0  0  0  0
    2.8670   50.9440   31.3950 N   0  0  0  0  0
    2.6200   53.0850   30.5990 O   0  0  0  0  0
    4.2440   50.1640   37.1910 Cl  0  0  0  0  0
    6.2210   49.6590   35.2690 C   0  0  0  0  0
    3.9870   48.0770   27.5900 O   0  0  0  0  0
    6.6110   49.2780   33.9340 C   0  0  0  0  0
    3.8320   49.9300   26.4760 O   0  0  0  0  0
    5.6020   48.9620   32.9650 C   0  0  0  0  0
    4.1900   49.0230   33.3090 C   0  0  0  0  0
    3.1300   48.6850   32.2810 C   0  0  0  0  0
    3.1390   49.6520   31.1350 C   0  0  0  0  0
    3.4530   49.9980   28.8340 C   0  0  0  0  0
    3.1790   51.4200   28.9990 C   0  0  0  0  0
    2.8870   51.8220   30.3330 C   0  0  0  0  0
    3.7780   49.3100   27.5430 C   0  0  0  0  0
    2.7293   49.4555   34.9091 H   0  0  0  0  0
    2.9681   53.2177   28.3990 H   0  0  0  0  0
    2.6544   51.2610   32.3409 H   0  0  0  0  0
    3.9019   47.7735   28.4968 H   0  0  0  0  0
    7.6657   49.2305   33.6631 H   0  0  0  0  0
    5.8974   48.6721   31.9566 H   0  0  0  0  0
    2.1545   48.7354   32.7648 H   0  0  0  0  0
    3.3362   47.6884   31.8906 H   0  0  0  0  0
  1  5  4  0  0  0
 14  1  4  0  0  0
  2 16  2  0  0  0
 17  2  1  0  0  0
 18  3  1  0  0  0
  9  4  1  0  0  0
  5  8  1  0  0  0
  5  9  4  0  0  0
 16  6  1  0  0  0
  6 19  1  0  0  0
 19  7  2  0  0  0
 11  9  4  0  0  0
 20 10  1  0  0  0
 13 11  4  0  0  0
 20 12  2  0  0  0
 14 13  4  0  0  0
 15 14  1  0  0  0
 16 15  1  0  0  0
 17 18  2  0  0  0
 17 20  1  0  0  0
 18 19  1  0  0  0
  1 21  1  0  0  0
  3 22  1  0  0  0
  6 23  1  0  0  0
 10 24  1  0  0  0
 11 25  1  0  0  0
 13 26  1  0  0  0
 15 27  1  0  0  0
 15 28  1  0  0  0
M  END
$$$$
