3wmc_ligand
  -I-interpret- 

 55 58  0  0  0  0  0  0  0  0999 V2000
  -34.5750   -2.3410  189.3930 O   0  0  0  0  0
  -33.9020   -1.1220  189.4290 C   0  0  0  0  0
  -32.7530   -0.9530  190.3390 C   0  0  0  0  0
  -32.0690    0.2970  190.3730 C   0  0  0  0  0
  -32.5140    1.3680  189.5170 C   0  0  0  0  0
  -31.8200    2.6470  189.5520 C   0  0  0  0  0
  -30.7170    2.8280  190.4220 C   0  0  0  0  0
  -30.2790    1.7540  191.2720 C   0  0  0  0  0
  -29.1480    1.9100  192.1820 N   0  0  0  0  0
  -29.3860    2.3230  193.5540 C   0  0  0  0  0
  -27.7890    1.6420  191.7230 C   0  0  0  0  0
  -30.9750    0.4800  191.2370 C   0  0  0  0  0
  -30.5310   -0.5890  192.0910 C   0  0  0  0  0
  -31.2150   -1.8380  192.0540 C   0  0  0  0  0
  -32.3170   -2.0230  191.1850 C   0  0  0  0  0
  -33.6620    1.1490  188.6330 C   0  0  0  0  0
  -34.1160    2.1840  187.7870 O   0  0  0  0  0
  -34.3090   -0.0900  188.6280 N   0  3  0  0  0
  -35.4290   -0.3000  187.7510 C   0  0  0  0  0
  -36.8050    0.2560  188.1450 C   0  0  0  0  0
  -37.9710   -0.0720  187.2050 N   0  3  0  0  0
  -39.2060    0.5250  187.6880 C   0  0  0  0  0
  -39.5860    1.9070  187.1710 C   0  0  0  0  0
  -39.8090    2.4360  185.5530 S   0  0  0  0  0
  -39.8230    2.9880  187.9210 N   0  0  0  0  0
  -40.1450    4.1260  187.2750 N   0  0  0  0  0
  -40.1970    4.0640  185.9470 C   0  0  0  0  0
  -40.5370    5.2070  185.0150 C   0  0  0  0  0
  -34.1644   -2.9503  190.0109 H   0  0  0  0  0
  -33.6692   -0.3171  188.7318 H   0  0  0  0  0
  -32.1486    3.4641  188.9098 H   0  0  0  0  0
  -30.1977    3.7860  190.4473 H   0  0  0  0  0
  -29.8724    3.2984  193.5593 H   0  0  0  0  0
  -30.0285    1.5926  194.0457 H   0  0  0  0  0
  -28.4351    2.3868  194.0830 H   0  0  0  0  0
  -27.7162    0.6059  191.3925 H   0  0  0  0  0
  -27.5493    2.3071  190.8934 H   0  0  0  0  0
  -27.0899    1.8135  192.5415 H   0  0  0  0  0
  -29.6814   -0.4450  192.7584 H   0  0  0  0  0
  -30.8884   -2.6548  192.6976 H   0  0  0  0  0
  -32.8348   -2.9819  191.1597 H   0  0  0  0  0
  -33.3762    2.1944  188.5162 H   0  0  0  0  0
  -33.5673    2.9618  187.9120 H   0  0  0  0  0
  -33.7023    0.3623  189.3119 H   0  0  0  0  0
  -35.5627   -1.3814  187.7238 H   0  0  0  0  0
  -35.1675    0.2275  186.8337 H   0  0  0  0  0
  -36.7058    1.3414  188.1350 H   0  0  0  0  0
  -37.0521   -0.2016  189.1030 H   0  0  0  0  0
  -38.0879   -1.0845  187.1662 H   0  0  0  0  0
  -37.7636    0.3036  186.2796 H   0  0  0  0  0
  -39.0659    0.6477  188.7620 H   0  0  0  0  0
  -39.9999   -0.1389  187.3459 H   0  0  0  0  0
  -39.7000    5.3848  184.3398 H   0  0  0  0  0
  -41.4243    4.9505  184.4362 H   0  0  0  0  0
  -40.7307    6.1060  185.6002 H   0  0  0  0  0
  1  2  1  0  0  0
  2  3  1  0  0  0
  2 18  1  0  0  0
  3  4  4  0  0  0
  3 15  4  0  0  0
  4  5  4  0  0  0
  4 12  4  0  0  0
  5  6  4  0  0  0
  5 16  1  0  0  0
  6  7  4  0  0  0
  7  8  4  0  0  0
  8  9  1  0  0  0
  8 12  4  0  0  0
  9 10  1  0  0  0
  9 11  1  0  0  0
 12 13  4  0  0  0
 13 14  4  0  0  0
 14 15  4  0  0  0
 16 17  1  0  0  0
 16 18  1  0  0  0
 18 19  1  0  0  0
 19 20  1  0  0  0
 20 21  1  0  0  0
 21 22  1  0  0  0
 22 23  1  0  0  0
 23 24  4  0  0  0
 23 25  4  0  0  0
 24 27  4  0  0  0
 25 26  4  0  0  0
 26 27  4  0  0  0
 27 28  1  0  0  0
  1 29  1  0  0  0
  2 30  1  0  0  0
  6 31  1  0  0  0
  7 32  1  0  0  0
 10 33  1  0  0  0
 10 34  1  0  0  0
 10 35  1  0  0  0
 11 36  1  0  0  0
 11 37  1  0  0  0
 11 38  1  0  0  0
 13 39  1  0  0  0
 14 40  1  0  0  0
 15 41  1  0  0  0
 16 42  1  0  0  0
 17 43  1  0  0  0
 18 44  1  0  0  0
 19 45  1  0  0  0
 19 46  1  0  0  0
 20 47  1  0  0  0
 20 48  1  0  0  0
 21 49  1  0  0  0
 21 50  1  0  0  0
 22 51  1  0  0  0
 22 52  1  0  0  0
 28 53  1  0  0  0
 28 54  1  0  0  0
 28 55  1  0  0  0
M  END
$$$$
