2jjr_ligand
  -I-interpret- 

 29 28  0  0  0  0  0  0  0  0999 V2000
   21.5620  -18.1430  -18.7780 C   0  0  0  0  0
   21.7520  -17.4140  -20.1110 C   0  0  0  0  0
   22.0340  -19.5960  -18.9510 C   0  0  0  0  0
   22.3480  -17.4250  -17.6920 C   0  0  0  0  0
   21.5560  -15.8940  -20.0860 C   0  0  0  0  0
   21.3990  -20.6400  -18.0270 C   0  0  0  0  0
   21.5640  -16.3750  -16.8870 C   0  0  0  0  0
   20.1390  -18.1310  -18.4190 N   0  3  0  0  0
   22.0690  -15.3050  -21.2900 O   0  0  0  0  0
   22.3630  -21.6360  -17.6150 O   0  0  0  0  0
   22.4200  -15.2850  -16.5100 O   0  0  0  0  0
   20.9905  -17.8078  -20.7842 H   0  0  0  0  0
   22.7882  -17.5822  -20.4046 H   0  0  0  0  0
   23.0986  -19.5958  -18.7171 H   0  0  0  0  0
   21.7558  -19.8835  -19.9649 H   0  0  0  0  0
   23.1535  -16.8904  -18.1954 H   0  0  0  0  0
   22.6615  -18.1891  -16.9807 H   0  0  0  0  0
   22.0917  -15.4804  -19.2316 H   0  0  0  0  0
   20.4913  -15.6740  -20.0082 H   0  0  0  0  0
   20.5958  -21.1391  -18.5691 H   0  0  0  0  0
   21.0238  -20.1329  -17.1381 H   0  0  0  0  0
   21.1701  -16.8432  -15.9849 H   0  0  0  0  0
   20.7527  -15.9898  -17.5046 H   0  0  0  0  0
   19.6031  -18.6108  -19.1422 H   0  0  0  0  0
   20.0107  -18.6077  -17.5264 H   0  0  0  0  0
   19.8177  -17.1662  -18.3398 H   0  0  0  0  0
   21.9395  -14.3542  -21.2602 H   0  0  0  0  0
   21.9359  -22.2740  -17.0387 H   0  0  0  0  0
   21.9142  -14.6408  -16.0093 H   0  0  0  0  0
  1  2  1  0  0  0
  1  3  1  0  0  0
  1  4  1  0  0  0
  1  8  1  0  0  0
  2  5  1  0  0  0
  3  6  1  0  0  0
  4  7  1  0  0  0
  5  9  1  0  0  0
  6 10  1  0  0  0
  7 11  1  0  0  0
  2 12  1  0  0  0
  2 13  1  0  0  0
  3 14  1  0  0  0
  3 15  1  0  0  0
  4 16  1  0  0  0
  4 17  1  0  0  0
  5 18  1  0  0  0
  5 19  1  0  0  0
  6 20  1  0  0  0
  6 21  1  0  0  0
  7 22  1  0  0  0
  7 23  1  0  0  0
  8 24  1  0  0  0
  8 25  1  0  0  0
  8 26  1  0  0  0
  9 27  1  0  0  0
 10 28  1  0  0  0
 11 29  1  0  0  0
M  END
$$$$
