3nij_ligand
  -I-interpret- 

 49 49  0  0  0  0  0  0  0  0999 V2000
   26.3640   12.4030   -9.0050 N   0  3  0  0  0
   26.9970   11.1070   -8.6310 C   0  0  0  0  0
   27.5570   11.1580   -7.2200 C   0  0  0  0  0
   27.7730   12.2360   -6.6730 O   0  0  0  0  0
   28.0940   10.7320   -9.6300 C   0  0  0  0  0
   27.5820   10.4640  -11.0100 C   0  0  0  0  0
   27.3800    9.1900  -11.4940 N   0  0  0  0  0
   27.2140   11.3070  -12.0030 C   0  0  0  0  0
   26.9160    9.2590  -12.7290 C   0  0  0  0  0
   26.8060   10.5330  -13.0620 N   0  0  0  0  0
   27.7870    9.9860   -6.6380 N   0  0  0  0  0
   28.3130    9.8910   -5.2810 C   0  0  0  0  0
   29.7520    9.3590   -5.2880 C   0  0  0  0  0
   30.2220    8.8480   -6.3090 O   0  0  0  0  0
   27.3710    9.0470   -4.3690 C   0  0  0  0  0
   27.3150    9.6280   -2.9520 C   0  0  0  0  0
   27.7380    7.5550   -4.3900 C   0  0  0  0  0
   26.3960   10.8390   -2.8190 C   0  0  0  0  0
   30.4420    9.4970   -4.1550 N   0  0  0  0  0
   31.8510    9.1080   -4.0240 C   0  0  0  0  0
   32.1050    7.6380   -4.3700 C   0  0  0  0  0
   32.8981    7.3250   -5.2977 O   0  0  0  0  0
   32.3540    9.4170   -2.6200 C   0  0  0  0  0
   31.5154    6.7331   -3.7210 O   0  0  0  0  0
   25.6373   12.6332   -8.3272 H   0  0  0  0  0
   27.0720   13.1372   -9.0088 H   0  0  0  0  0
   25.9509   12.3226   -9.9341 H   0  0  0  0  0
   26.2252   10.3379   -8.6604 H   0  0  0  0  0
   28.5626    9.8154   -9.2717 H   0  0  0  0  0
   28.7798   11.5768   -9.6944 H   0  0  0  0  0
   27.2371   12.3962  -11.9688 H   0  0  0  0  0
   26.6664    8.4097  -13.3650 H   0  0  0  0  0
   27.5902    9.1288   -7.1546 H   0  0  0  0  0
   28.3457   10.8935   -4.8545 H   0  0  0  0  0
   26.3622    9.1103   -4.7769 H   0  0  0  0  0
   28.3225    9.9546   -2.6945 H   0  0  0  0  0
   26.9241    8.8497   -2.2967 H   0  0  0  0  0
   27.6565    7.1764   -5.4089 H   0  0  0  0  0
   28.7607    7.4287   -4.0348 H   0  0  0  0  0
   27.0562    7.0053   -3.7411 H   0  0  0  0  0
   26.7438   11.6319   -3.4811 H   0  0  0  0  0
   25.3802   10.5545   -3.0932 H   0  0  0  0  0
   26.4099   11.1926   -1.7880 H   0  0  0  0  0
   29.9685    9.8911   -3.3420 H   0  0  0  0  0
   32.4077    9.6983   -4.7519 H   0  0  0  0  0
   32.2592   10.4858   -2.4285 H   0  0  0  0  0
   31.7611    8.8623   -1.8928 H   0  0  0  0  0
   33.4004    9.1232   -2.5375 H   0  0  0  0  0
   30.9517    7.1339   -3.0552 H   0  0  0  0  0
  1  2  1  0  0  0
  2  3  1  0  0  0
  2  5  1  0  0  0
  3  4  2  0  0  0
  3 11  1  0  0  0
  5  6  1  0  0  0
  6  7  4  0  0  0
  6  8  4  0  0  0
  7  9  4  0  0  0
  8 10  4  0  0  0
  9 10  4  0  0  0
 11 12  1  0  0  0
 12 13  1  0  0  0
 12 15  1  0  0  0
 13 14  2  0  0  0
 13 19  1  0  0  0
 15 16  1  0  0  0
 15 17  1  0  0  0
 16 18  1  0  0  0
 19 20  1  0  0  0
 20 21  1  0  0  0
 20 23  1  0  0  0
 21 22  2  0  0  0
 21 24  1  0  0  0
  1 25  1  0  0  0
  1 26  1  0  0  0
  1 27  1  0  0  0
  2 28  1  0  0  0
  5 29  1  0  0  0
  5 30  1  0  0  0
  8 31  1  0  0  0
  9 32  1  0  0  0
 11 33  1  0  0  0
 12 34  1  0  0  0
 15 35  1  0  0  0
 16 36  1  0  0  0
 16 37  1  0  0  0
 17 38  1  0  0  0
 17 39  1  0  0  0
 17 40  1  0  0  0
 18 41  1  0  0  0
 18 42  1  0  0  0
 18 43  1  0  0  0
 19 44  1  0  0  0
 20 45  1  0  0  0
 23 46  1  0  0  0
 23 47  1  0  0  0
 23 48  1  0  0  0
 24 49  1  0  0  0
M  END
$$$$
