5zh5_ligand
  -I-interpret- 

 41 43  0  0  0  0  0  0  0  0999 V2000
   19.3790  -14.6760  -22.0670 C   0  0  0  0  0
   17.7460  -16.0850  -23.2850 C   0  0  0  0  0
   18.6810  -16.3370  -24.3000 C   0  0  0  0  0
   15.7040  -15.7800  -21.4470 C   0  0  0  0  0
   16.5180  -16.6960  -23.4660 C   0  0  0  0  0
   23.0660  -14.9710  -25.5060 C   0  0  0  0  0
   23.1520  -15.3650  -26.8660 C   0  0  0  0  0
   22.3780  -14.3080  -27.6320 C   0  0  0  0  0
   20.8890  -14.3080  -27.3290 C   0  0  0  0  0
   20.3150  -13.1040  -28.0500 C   0  0  0  0  0
   20.6360  -14.1780  -25.9170 O   0  0  0  0  0
   21.5490  -14.9710  -25.0590 C   0  0  0  0  0
   21.0930  -16.4260  -24.8280 C   0  0  0  0  0
   20.0750  -16.4370  -23.6990 C   0  0  0  0  0
   20.3550  -15.3060  -22.8200 O   0  0  0  0  0
   19.7430  -13.7150  -21.3510 O   0  0  0  0  0
   18.0220  -15.2550  -22.1600 C   0  0  0  0  0
   15.4980  -16.5590  -22.5610 C   0  0  0  0  0
   14.3430  -17.1950  -22.8130 O   0  0  0  0  0
   16.9210  -15.1360  -21.2470 C   0  0  0  0  0
   17.0120  -14.4010  -20.1140 O   0  0  0  0  0
   18.6570  -15.5225  -25.0239 H   0  0  0  0  0
   18.4327  -17.2757  -24.7953 H   0  0  0  0  0
   14.9060  -15.6658  -20.7133 H   0  0  0  0  0
   16.3568  -17.3049  -24.3556 H   0  0  0  0  0
   23.4819  -13.9704  -25.3882 H   0  0  0  0  0
   23.6296  -15.6689  -24.8868 H   0  0  0  0  0
   22.7393  -16.3614  -27.0244 H   0  0  0  0  0
   24.1867  -15.4306  -27.2025 H   0  0  0  0  0
   22.4960  -14.5213  -28.6944 H   0  0  0  0  0
   22.7722  -13.3355  -27.3371 H   0  0  0  0  0
   20.4376  -15.2458  -27.6528 H   0  0  0  0  0
   19.2406  -13.0542  -27.8729 H   0  0  0  0  0
   20.7889  -12.1972  -27.6743 H   0  0  0  0  0
   20.5042  -13.1982  -29.1193 H   0  0  0  0  0
   21.4856  -14.4290  -24.1154 H   0  0  0  0  0
   21.9488  -17.0474  -24.5643 H   0  0  0  0  0
   20.6448  -16.8251  -25.7379 H   0  0  0  0  0
   20.1345  -17.3572  -23.1179 H   0  0  0  0  0
   14.4186  -17.6780  -23.6392 H   0  0  0  0  0
   17.8819  -13.9980  -20.0643 H   0  0  0  0  0
  1 15  1  0  0  0
  1 16  2  0  0  0
 17  1  1  0  0  0
  3  2  1  0  0  0
  2  5  4  0  0  0
  2 17  4  0  0  0
 14  3  1  0  0  0
 18  4  4  0  0  0
  4 20  4  0  0  0
  5 18  4  0  0  0
  6  7  1  0  0  0
 12  6  1  0  0  0
  7  8  1  0  0  0
  9  8  1  0  0  0
  9 10  1  0  0  0
 11  9  1  0  0  0
 12 11  1  0  0  0
 13 12  1  0  0  0
 13 14  1  0  0  0
 14 15  1  0  0  0
 17 20  4  0  0  0
 18 19  1  0  0  0
 20 21  1  0  0  0
  3 22  1  0  0  0
  3 23  1  0  0  0
  4 24  1  0  0  0
  5 25  1  0  0  0
  6 26  1  0  0  0
  6 27  1  0  0  0
  7 28  1  0  0  0
  7 29  1  0  0  0
  8 30  1  0  0  0
  8 31  1  0  0  0
  9 32  1  0  0  0
 10 33  1  0  0  0
 10 34  1  0  0  0
 10 35  1  0  0  0
 12 36  1  0  0  0
 13 37  1  0  0  0
 13 38  1  0  0  0
 14 39  1  0  0  0
 19 40  1  0  0  0
 21 41  1  0  0  0
M  END
$$$$
