### 
### Created by X-TOOL on Mon Sep 10 21:13:06 2018
### 

@<TRIPOS>MOLECULE
3qc9_ligand
   39    41     1     0     0
SMALL
GAST_HUCK


@<TRIPOS>ATOM
      1 PB        -41.0180   -3.7870   62.3310 P.3       1 ADP         0.2069
      2 O1B       -42.0490   -2.7490   62.6780 O.co2     1 ADP        -0.5891
      3 O2B       -39.7550   -3.2050   61.7200 O.co2     1 ADP        -0.5891
      4 O3B       -40.7570   -4.8260   63.3910 O.co2     1 ADP        -0.5891
      5 PA        -41.1400   -6.0110   60.5470 P.3       1 ADP         0.3276
      6 O1A       -40.4030   -5.6420   59.2780 O.co2     1 ADP        -0.5556
      7 O2A       -40.3470   -6.7990   61.5590 O.co2     1 ADP        -0.5556
      8 O3A       -41.7540   -4.6520   61.1820 O.3       1 ADP        -0.1548
      9 O5'       -42.4830   -6.8570   60.2180 O.3       1 ADP        -0.2436
     10 C5'       -43.4260   -7.1680   61.2390 C.3       1 ADP         0.1132
     11 C4'       -43.8270   -8.6400   61.2290 C.3       1 ADP         0.1189
     12 O4'       -44.4710   -8.9770   60.0090 O.3       1 ADP        -0.3364
     13 C3'       -42.6600   -9.6000   61.3690 C.3       1 ADP         0.1149
     14 O3'       -42.4630   -9.9520   62.7480 O.3       1 ADP        -0.3864
     15 C2'       -43.0980  -10.8030   60.5610 C.3       1 ADP         0.1385
     16 O2'       -43.8720  -11.7010   61.3550 O.3       1 ADP        -0.3836
     17 C1'       -44.0340  -10.2370   59.5150 C.3       1 ADP         0.2010
     18 N9        -43.2040  -10.0410   58.3040 N.pl3     1 ADP        -0.1919
     19 C8        -42.3760   -8.9940   58.1070 C.2       1 ADP         0.1123
     20 N7        -41.7220   -9.0950   56.9200 N.2       1 ADP        -0.2958
     21 C5        -42.1390  -10.2380   56.3350 C.ar      1 ADP         0.1045
     22 C6        -41.8480  -10.9320   55.0630 C.ar      1 ADP         0.1298
     23 N6        -40.9560  -10.3990   54.1940 N.pl3     1 ADP        -0.3152
     24 N1        -42.4790  -12.1080   54.8270 N.ar      1 ADP        -0.2698
     25 C2        -43.3500  -12.6220   55.7130 C.ar      1 ADP         0.0533
     26 N3        -43.6790  -12.0380   56.8870 N.ar      1 ADP        -0.2714
     27 C4        -43.1100  -10.8650   57.2530 C.ar      1 ADP         0.1613
     28 H         -44.3220   -6.5725   61.0641 H         1 ADP         0.0648
     29 H         -42.9652   -6.9499   62.2024 H         1 ADP         0.0648
     30 H         -44.4837   -8.7478   62.0923 H         1 ADP         0.0651
     31 H         -41.7136   -9.1818   61.0261 H         1 ADP         0.0648
     32 H         -42.2785   -9.1588   63.2564 H         1 ADP         0.2100
     33 H         -42.2342  -11.3374   60.1655 H         1 ADP         0.0676
     34 H         -43.3454  -12.0047   62.0979 H         1 ADP         0.2101
     35 H         -44.8928  -10.8719   59.2973 H         1 ADP         0.0996
     36 H         -42.2479   -8.1715   58.8107 H         1 ADP         0.1349
     37 H         -40.4874   -9.5212   54.4184 H         1 ADP         0.1820
     38 H         -40.7529  -10.8754   53.3153 H         1 ADP         0.1820
     39 H         -43.8225  -13.5733   55.4683 H         1 ADP         0.0996
@<TRIPOS>BOND
     1    1    2 ar 
     2    1    3 ar 
     3    1    4 ar 
     4    8    1 1  
     5    5    6 ar 
     6    5    7 ar 
     7    5    8 1  
     8    5    9 1  
     9    9   10 1  
    10   10   11 1  
    11   11   12 1  
    12   11   13 1  
    13   12   17 1  
    14   13   14 1  
    15   13   15 1  
    16   15   16 1  
    17   15   17 1  
    18   17   18 1  
    19   18   19 1  
    20   18   27 1  
    21   19   20 2  
    22   20   21 1  
    23   21   22 ar 
    24   21   27 ar 
    25   22   23 1  
    26   22   24 ar 
    27   24   25 ar 
    28   25   26 ar 
    29   26   27 ar 
    30   10   28 1  
    31   10   29 1  
    32   11   30 1  
    33   13   31 1  
    34   14   32 1  
    35   15   33 1  
    36   16   34 1  
    37   17   35 1  
    38   19   36 1  
    39   23   37 1  
    40   23   38 1  
    41   25   39 1  
@<TRIPOS>SUBSTRUCTURE
     1 ADP         1

