3elm_ligand
  -I-interpret- 

 64 66  0  0  0  0  0  0  0  0999 V2000
   -7.5790   26.9970   49.8780 C   0  0  0  0  0
   -8.0950   26.1190   50.8740 C   0  0  0  0  0
   -7.5510   26.1020   52.1930 C   0  0  0  0  0
   -6.4640   26.9750   52.5560 C   0  0  0  0  0
   -5.9410   27.8600   51.5590 C   0  0  0  0  0
   -6.4910   27.8690   50.2350 C   0  0  0  0  0
   -8.1090   27.0050   48.5990 O   0  0  0  0  0
   -8.0170   28.1520   47.7540 C   0  0  0  0  0
   -5.9000   26.9610   53.9320 C   0  0  0  0  0
   -5.9740   25.8410   54.7730 C   0  0  0  0  0
   -5.3350   26.1260   56.0440 C   0  0  0  0  0
   -4.8300   27.4220   56.0690 C   0  0  0  0  0
   -5.0920   28.3290   54.6290 S   0  0  0  0  0
   -3.9670   28.0830   57.4390 S   0  0  0  0  0
   -2.3530   27.8490   57.2420 N   0  0  0  0  0
   -4.1350   29.5430   57.4550 O   0  0  0  0  0
   -4.3450   27.3800   58.6630 O   0  0  0  0  0
   -1.7920   26.4810   57.1910 C   0  0  0  0  0
   -1.8480   26.0310   55.7020 C   0  0  0  0  0
   -2.0740   24.8350   55.4590 O   0  0  0  0  0
   -1.6420   26.9130   54.8550 O   0  0  0  0  0
   -0.3560   26.5080   57.7490 C   0  0  0  0  0
    0.5420   25.3180   57.3170 C   0  0  0  0  0
    1.9640   25.4310   57.8870 C   0  0  0  0  0
    1.9080   25.5400   59.3640 N   0  0  0  0  0
    1.1010   26.6730   59.8880 C   0  0  0  0  0
   -0.3400   26.6740   59.2960 C   0  0  0  0  0
   -9.0200   27.9780   46.6140 C   0  0  0  0  0
    2.3420   24.5960   60.1860 C   0  0  0  0  0
    3.2310   23.6930   59.5330 O   0  0  0  0  0
    2.0640   24.4380   61.3780 O   0  0  0  0  0
    3.4580   22.3860   60.0790 C   0  0  0  0  0
    4.8450   21.9030   59.6360 C   0  0  0  0  0
    2.3730   21.4370   59.5600 C   0  0  0  0  0
   -8.9183   25.4496   50.6246 H   0  0  0  0  0
   -7.9634   25.4193   52.9359 H   0  0  0  0  0
   -5.1192   28.5313   51.8084 H   0  0  0  0  0
   -6.0789   28.5466   49.4873 H   0  0  0  0  0
   -7.0067   28.2476   47.3563 H   0  0  0  0  0
   -8.2418   29.0563   48.3196 H   0  0  0  0  0
   -6.4438   24.8933   54.5097 H   0  0  0  0  0
   -5.2605   25.4185   56.8698 H   0  0  0  0  0
   -1.7324   28.6537   57.1541 H   0  0  0  0  0
   -2.3533   25.7717   57.7992 H   0  0  0  0  0
   -2.1991   24.3601   56.2839 H   0  0  0  0  0
    0.0904   27.3895   57.2887 H   0  0  0  0  0
    0.6104   25.3209   56.2292 H   0  0  0  0  0
    0.0952   24.3993   57.6970 H   0  0  0  0  0
    2.4454   26.3197   57.4789 H   0  0  0  0  0
    2.5328   24.5423   57.6133 H   0  0  0  0  0
    1.5904   27.6045   59.6036 H   0  0  0  0  0
    1.0280   26.5716   60.9708 H   0  0  0  0  0
   -0.8791   25.8308   59.7279 H   0  0  0  0  0
   -0.7980   27.6342   59.5336 H   0  0  0  0  0
   -8.7777   27.0753   46.0532 H   0  0  0  0  0
  -10.0254   27.8922   47.0263 H   0  0  0  0  0
   -8.9697   28.8428   45.9524 H   0  0  0  0  0
    3.4173   22.4110   61.1680 H   0  0  0  0  0
    4.8836   21.8623   58.5474 H   0  0  0  0  0
    5.6034   22.5950   60.0021 H   0  0  0  0  0
    5.0301   20.9096   60.0448 H   0  0  0  0  0
    1.3940   21.8021   59.8704 H   0  0  0  0  0
    2.4185   21.3957   58.4717 H   0  0  0  0  0
    2.5373   20.4405   59.9699 H   0  0  0  0  0
  1  2  4  0  0  0
  1  6  4  0  0  0
  1  7  1  0  0  0
  2  3  4  0  0  0
  3  4  4  0  0  0
  4  5  4  0  0  0
  4  9  1  0  0  0
  5  6  4  0  0  0
  7  8  1  0  0  0
  8 28  1  0  0  0
  9 10  4  0  0  0
  9 13  4  0  0  0
 10 11  4  0  0  0
 11 12  4  0  0  0
 12 13  4  0  0  0
 12 14  1  0  0  0
 14 15  1  0  0  0
 14 16  2  0  0  0
 14 17  2  0  0  0
 15 18  1  0  0  0
 18 19  1  0  0  0
 18 22  1  0  0  0
 19 20  1  0  0  0
 19 21  2  0  0  0
 22 23  1  0  0  0
 22 27  1  0  0  0
 23 24  1  0  0  0
 24 25  1  0  0  0
 25 26  1  0  0  0
 25 29  1  0  0  0
 26 27  1  0  0  0
 29 30  1  0  0  0
 29 31  2  0  0  0
 30 32  1  0  0  0
 32 33  1  0  0  0
 32 34  1  0  0  0
  2 35  1  0  0  0
  3 36  1  0  0  0
  5 37  1  0  0  0
  6 38  1  0  0  0
  8 39  1  0  0  0
  8 40  1  0  0  0
 10 41  1  0  0  0
 11 42  1  0  0  0
 15 43  1  0  0  0
 18 44  1  0  0  0
 20 45  1  0  0  0
 22 46  1  0  0  0
 23 47  1  0  0  0
 23 48  1  0  0  0
 24 49  1  0  0  0
 24 50  1  0  0  0
 26 51  1  0  0  0
 26 52  1  0  0  0
 27 53  1  0  0  0
 27 54  1  0  0  0
 28 55  1  0  0  0
 28 56  1  0  0  0
 28 57  1  0  0  0
 32 58  1  0  0  0
 33 59  1  0  0  0
 33 60  1  0  0  0
 33 61  1  0  0  0
 34 62  1  0  0  0
 34 63  1  0  0  0
 34 64  1  0  0  0
M  END
$$$$
