1o4o_ligand
  -I-interpret- 

 18 18  0  0  0  0  0  0  0  0999 V2000
   18.2230   15.5580   31.4990 C   0  0  0  0  0
   18.6700   15.5900   30.1050 C   0  0  0  0  0
   18.5480   16.6960   29.3360 C   0  0  0  0  0
   18.0280   17.8130   29.9800 C   0  0  0  0  0
   17.6850   17.8110   31.3730 C   0  0  0  0  0
   17.6760   16.6320   32.1560 C   0  0  0  0  0
   17.3970   19.0830   31.9390 O   0  0  0  0  0
   18.5160   20.2470   32.5240 P   0  0  0  0  0
   17.8170   21.4550   33.1870 O   0  0  0  0  0
   19.3900   20.6690   31.2590 O   0  0  0  0  0
   19.4160   19.4700   33.5310 O   0  0  0  0  0
   18.3313   14.6233   32.0492 H   0  0  0  0  0
   19.1154   14.6938   29.6731 H   0  0  0  0  0
   18.8371   16.7105   28.2851 H   0  0  0  0  0
   17.8750   18.7257   29.4042 H   0  0  0  0  0
   17.2783   16.5823   33.1696 H   0  0  0  0  0
   19.8031   19.8886   30.8822 H   0  0  0  0  0
   19.8310   18.7297   33.0823 H   0  0  0  0  0
  1  2  4  0  0  0
  1  6  4  0  0  0
  2  3  4  0  0  0
  3  4  4  0  0  0
  4  5  4  0  0  0
  5  6  4  0  0  0
  5  7  1  0  0  0
  7  8  1  0  0  0
  8  9  2  0  0  0
  8 10  1  0  0  0
  8 11  1  0  0  0
  1 12  1  0  0  0
  2 13  1  0  0  0
  3 14  1  0  0  0
  4 15  1  0  0  0
  6 16  1  0  0  0
 10 17  1  0  0  0
 11 18  1  0  0  0
M  END
$$$$
