### 
### Created by X-TOOL on Mon Sep 10 21:12:51 2018
### 

@<TRIPOS>MOLECULE
1o4o_ligand
   16    16     1     0     0
SMALL
GAST_HUCK


@<TRIPOS>ATOM
      1 C1         18.2230   15.5580   31.4990 C.ar      1 HPS        -0.0697
      2 C2         18.6700   15.5900   30.1050 C.ar      1 HPS        -0.0722
      3 C3         18.5480   16.6960   29.3360 C.ar      1 HPS        -0.0697
      4 C4         18.0280   17.8130   29.9800 C.ar      1 HPS        -0.0284
      5 C5         17.6850   17.8110   31.3730 C.ar      1 HPS         0.1236
      6 C6         17.6760   16.6320   32.1560 C.ar      1 HPS        -0.0284
      7 O12        17.3970   19.0830   31.9390 O.3       1 HPS        -0.2174
      8 P13        18.5160   20.2470   32.5240 P.3       1 HPS         0.2296
      9 O14        17.8170   21.4550   33.1870 O.co2     1 HPS        -0.5495
     10 O15        19.3900   20.6690   31.2590 O.co2     1 HPS        -0.5495
     11 O16        19.4160   19.4700   33.5310 O.co2     1 HPS        -0.5495
     12 H1         18.3307   14.6284   32.0462 H         1 HPS         0.0591
     13 H2         19.1129   14.6987   29.6755 H         1 HPS         0.0528
     14 H3         18.8355   16.7104   28.2909 H         1 HPS         0.0591
     15 H4         17.8758   18.7207   29.4073 H         1 HPS         0.0551
     16 H5         17.2805   16.5826   33.1641 H         1 HPS         0.0551
@<TRIPOS>BOND
     1    1    2 ar 
     2    1    6 ar 
     3    2    3 ar 
     4    3    4 ar 
     5    4    5 ar 
     6    5    6 ar 
     7    5    7 1  
     8    7    8 1  
     9    8    9 ar 
    10    8   10 ar 
    11    8   11 ar 
    12    1   12 1  
    13    2   13 1  
    14    3   14 1  
    15    4   15 1  
    16    6   16 1  
@<TRIPOS>SUBSTRUCTURE
     1 HPS         1

