5bot_ligand
  -I-interpret- 

 28 29  0  0  0  0  0  0  0  0999 V2000
   -7.1070   27.4260   52.3360 C   0  0  0  0  0
  -11.0830   27.4880   46.0100 C   0  0  0  0  0
   -7.2700   27.5800   54.7090 C   0  0  0  0  0
   -6.6920   26.4800   55.6050 C   0  0  0  0  0
   -9.1400   27.3810   49.2490 C   0  0  0  0  0
   -8.0350   28.1820   48.8900 C   0  0  0  0  0
   -8.9430   26.9710   50.6050 C   0  0  0  0  0
  -10.1400   27.1550   48.2970 C   0  0  0  0  0
   -7.2160   28.2590   49.9820 N   0  0  0  0  0
   -7.9500   28.7370   47.6160 C   0  0  0  0  0
   -7.7550   27.5140   51.0170 C   0  0  0  0  0
  -10.0280   27.7060   47.0220 C   0  0  0  0  0
   -8.9310   28.5110   46.6980 C   0  0  0  0  0
   -7.7460   27.0060   53.4520 O   0  0  0  0  0
   -5.9640   27.8220   52.4440 O   0  0  0  0  0
  -12.2830   28.0810   46.1710 N   0  0  0  0  0
  -10.8870   26.7690   45.0510 O   0  0  0  0  0
   -6.4919   28.3129   54.4955 H   0  0  0  0  0
   -8.1043   28.0579   55.2225 H   0  0  0  0  0
   -7.4660   25.7428   55.8183 H   0  0  0  0  0
   -5.8593   25.9969   55.0938 H   0  0  0  0  0
   -6.3409   26.9204   56.5382 H   0  0  0  0  0
   -9.6109   26.3457   51.1975 H   0  0  0  0  0
  -11.0078   26.5471   48.5530 H   0  0  0  0  0
   -7.0930   29.3564   47.3513 H   0  0  0  0  0
   -8.8607   28.9594   45.7070 H   0  0  0  0  0
  -13.0245   27.9255   45.4880 H   0  0  0  0  0
  -12.4494   28.6852   46.9758 H   0  0  0  0  0
 11  1  1  0  0  0
  1 14  1  0  0  0
  1 15  2  0  0  0
 12  2  1  0  0  0
  2 16  1  0  0  0
  2 17  2  0  0  0
  3  4  1  0  0  0
 14  3  1  0  0  0
  5  6  4  0  0  0
  5  7  4  0  0  0
  8  5  4  0  0  0
  6  9  4  0  0  0
  6 10  4  0  0  0
  7 11  4  0  0  0
  8 12  4  0  0  0
  9 11  4  0  0  0
 10 13  4  0  0  0
 12 13  4  0  0  0
  3 18  1  0  0  0
  3 19  1  0  0  0
  4 20  1  0  0  0
  4 21  1  0  0  0
  4 22  1  0  0  0
  7 23  1  0  0  0
  8 24  1  0  0  0
 10 25  1  0  0  0
 13 26  1  0  0  0
 16 27  1  0  0  0
 16 28  1  0  0  0
M  END
$$$$
