2y07_ligand
  -I-interpret- 

100105  0  0  0  0  0  0  0  0999 V2000
   -8.3740    4.2270   53.2950 N   0  3  0  0  0
   -7.7710    5.2070   54.2510 C   0  0  0  0  0
   -6.2840    5.4850   53.9210 C   0  0  0  0  0
   -5.3880    4.7260   54.3160 O   0  0  0  0  0
   -7.9630    4.6250   55.6370 C   0  0  0  0  0
   -9.3110    3.9000   55.4240 C   0  0  0  0  0
   -9.2660    3.2920   54.0090 C   0  0  0  0  0
   -6.0160    6.6270   53.2400 N   0  0  0  0  0
   -4.7870    7.2400   52.7250 C   0  0  0  0  0
   -3.6990    6.4790   51.9470 C   0  0  0  0  0
   -3.9250    5.3620   51.4180 O   0  0  0  0  0
   -4.2690    7.9810   53.9500 C   0  0  0  0  0
   -5.6090    8.6490   54.4660 C   0  0  0  0  0
   -6.7670    7.7130   53.9010 C   0  0  0  0  0
   -2.5270    7.1200   51.8280 N   0  0  0  0  0
   -1.4090    6.5570   51.0680 C   0  0  0  0  0
   -0.2040    7.4760   50.7780 C   0  0  0  0  0
    0.8840    6.9870   50.4470 O   0  0  0  0  0
   -1.9290    6.0370   49.7080 C   0  0  0  0  0
   -2.6690    7.0700   48.8430 C   0  0  0  0  0
   -3.6790    7.8820   49.3870 C   0  0  0  0  0
   -2.4060    7.1880   47.4680 C   0  0  0  0  0
   -4.4140    8.7790   48.5910 C   0  0  0  0  0
   -3.1500    8.0850   46.6570 C   0  0  0  0  0
   -4.1560    8.8750   47.2310 C   0  0  0  0  0
   -4.9450    9.7100   46.4570 O   0  0  0  0  0
   -0.3720    8.8100   50.8830 N   0  0  0  0  0
    0.8330    9.5870   50.5660 C   0  0  0  0  0
    1.2990   10.7340   51.4900 C   0  0  0  0  0
    1.9080   10.5080   52.5340 O   0  0  0  0  0
    0.5080   10.1000   49.1650 C   0  0  0  0  0
   -1.0420   10.3670   49.2550 C   0  0  0  0  0
   -1.5530    9.6040   50.5170 C   0  0  0  0  0
    1.0290   11.9680   51.0560 N   0  0  0  0  0
    1.4350   13.1820   51.7790 C   0  0  0  0  0
    0.3370   14.2450   51.9320 C   0  0  0  0  0
    0.5810   15.3270   52.4890 O   0  0  0  0  0
    2.6630   13.8120   51.0810 C   0  0  0  0  0
   -0.8570   13.9550   51.4280 N   0  0  0  0  0
   -1.9500   14.9100   51.5510 C   0  0  0  0  0
   -2.2580   15.2250   53.0310 C   0  0  0  0  0
   -3.1380   14.5260   53.6430 O   0  0  0  0  0
   -3.2050   14.3830   50.8390 C   0  0  0  0  0
   -3.6640   13.0070   51.2560 C   0  0  0  0  0
   -2.9980   12.1210   52.0650 C   0  0  0  0  0
   -4.8970   12.3640   50.8880 C   0  0  0  0  0
   -3.7460   10.9690   52.2240 N   0  0  0  0  0
   -4.9110   11.0920   51.5140 C   0  0  0  0  0
   -5.9880   12.7410   50.0930 C   0  0  0  0  0
   -5.9820   10.1890   51.3660 C   0  0  0  0  0
   -7.0620   11.8380   49.9440 C   0  0  0  0  0
   -7.0440   10.5780   50.5810 C   0  0  0  0  0
   -1.6524   16.1556   53.6266 O   0  0  0  0  0
   -7.6263    3.6964   52.8481 H   0  0  0  0  0
   -8.9166    4.7354   52.5968 H   0  0  0  0  0
   -8.2582    6.1795   54.1804 H   0  0  0  0  0
   -7.9631    5.3589   56.4429 H   0  0  0  0  0
   -7.1502    3.9839   55.9782 H   0  0  0  0  0
  -10.1458    4.5939   55.5229 H   0  0  0  0  0
   -9.4589    3.1249   56.1759 H   0  0  0  0  0
   -8.9087    2.2623   53.9951 H   0  0  0  0  0
  -10.2500    3.2013   53.5490 H   0  0  0  0  0
   -5.0705    7.8166   51.8445 H   0  0  0  0  0
   -3.4686    8.6900   53.7384 H   0  0  0  0  0
   -3.7763    7.3427   54.6835 H   0  0  0  0  0
   -5.7111    9.6778   54.1206 H   0  0  0  0  0
   -5.6366    8.7206   55.5533 H   0  0  0  0  0
   -7.4386    7.3516   54.6798 H   0  0  0  0  0
   -7.4424    8.2354   53.2235 H   0  0  0  0  0
   -2.4109    8.0268   52.2804 H   0  0  0  0  0
   -1.0245    5.7807   51.7296 H   0  0  0  0  0
   -2.6472    5.2482   49.9316 H   0  0  0  0  0
   -1.0526    5.7267   49.1389 H   0  0  0  0  0
   -3.8982    7.8149   50.4526 H   0  0  0  0  0
   -1.6197    6.5824   47.0174 H   0  0  0  0  0
   -5.1875    9.3997   49.0432 H   0  0  0  0  0
   -2.9394    8.1593   45.5901 H   0  0  0  0  0
   -4.6495    9.6723   45.5444 H   0  0  0  0  0
    1.6992    8.9368   50.6885 H   0  0  0  0  0
    0.7763    9.3954   48.3778 H   0  0  0  0  0
    1.0801   10.9861   48.8898 H   0  0  0  0  0
   -1.5502   10.0175   48.3563 H   0  0  0  0  0
   -1.2494   11.4341   49.3346 H   0  0  0  0  0
   -1.8975   10.2633   51.3137 H   0  0  0  0  0
   -2.4415    9.0008   50.3302 H   0  0  0  0  0
    0.5163   12.0732   50.1805 H   0  0  0  0  0
    1.6715   12.8536   52.7911 H   0  0  0  0  0
    3.4855   13.0968   51.0803 H   0  0  0  0  0
    2.4032   14.0698   50.0543 H   0  0  0  0  0
    2.9627   14.7118   51.6182 H   0  0  0  0  0
   -1.0086   13.0641   50.9551 H   0  0  0  0  0
   -1.6392   15.8382   51.0715 H   0  0  0  0  0
   -3.4954   13.8671   53.0433 H   0  0  0  0  0
   -2.9549   14.3175   49.7801 H   0  0  0  0  0
   -4.0141   15.0683   51.0915 H   0  0  0  0  0
   -2.0220   12.2993   52.5163 H   0  0  0  0  0
   -6.0065   13.7127   49.5995 H   0  0  0  0  0
   -5.9703    9.2155   51.8562 H   0  0  0  0  0
   -7.9173   12.1170   49.3287 H   0  0  0  0  0
   -7.8873    9.9002   50.4487 H   0  0  0  0  0
  1  2  1  0  0  0
  1  7  1  0  0  0
  2  3  1  0  0  0
  2  5  1  0  0  0
  3  4  2  0  0  0
  3  8  1  0  0  0
  5  6  1  0  0  0
  6  7  1  0  0  0
  8  9  1  0  0  0
  8 14  1  0  0  0
  9 10  1  0  0  0
  9 12  1  0  0  0
 10 11  2  0  0  0
 10 15  1  0  0  0
 12 13  1  0  0  0
 13 14  1  0  0  0
 15 16  1  0  0  0
 16 17  1  0  0  0
 16 19  1  0  0  0
 17 18  2  0  0  0
 17 27  1  0  0  0
 19 20  1  0  0  0
 20 21  4  0  0  0
 20 22  4  0  0  0
 21 23  4  0  0  0
 22 24  4  0  0  0
 23 25  4  0  0  0
 24 25  4  0  0  0
 25 26  1  0  0  0
 27 28  1  0  0  0
 27 33  1  0  0  0
 28 29  1  0  0  0
 28 31  1  0  0  0
 29 30  2  0  0  0
 29 34  1  0  0  0
 31 32  1  0  0  0
 32 33  1  0  0  0
 34 35  1  0  0  0
 35 36  1  0  0  0
 35 38  1  0  0  0
 36 37  2  0  0  0
 36 39  1  0  0  0
 39 40  1  0  0  0
 40 41  1  0  0  0
 40 43  1  0  0  0
 41 42  1  0  0  0
 43 44  1  0  0  0
 44 45  4  0  0  0
 44 46  4  0  0  0
 45 47  4  0  0  0
 46 48  4  0  0  0
 46 49  4  0  0  0
 47 48  4  0  0  0
 48 50  4  0  0  0
 49 51  4  0  0  0
 50 52  4  0  0  0
 51 52  4  0  0  0
 41 53  2  0  0  0
  1 54  1  0  0  0
  1 55  1  0  0  0
  2 56  1  0  0  0
  5 57  1  0  0  0
  5 58  1  0  0  0
  6 59  1  0  0  0
  6 60  1  0  0  0
  7 61  1  0  0  0
  7 62  1  0  0  0
  9 63  1  0  0  0
 12 64  1  0  0  0
 12 65  1  0  0  0
 13 66  1  0  0  0
 13 67  1  0  0  0
 14 68  1  0  0  0
 14 69  1  0  0  0
 15 70  1  0  0  0
 16 71  1  0  0  0
 19 72  1  0  0  0
 19 73  1  0  0  0
 21 74  1  0  0  0
 22 75  1  0  0  0
 23 76  1  0  0  0
 24 77  1  0  0  0
 26 78  1  0  0  0
 28 79  1  0  0  0
 31 80  1  0  0  0
 31 81  1  0  0  0
 32 82  1  0  0  0
 32 83  1  0  0  0
 33 84  1  0  0  0
 33 85  1  0  0  0
 34 86  1  0  0  0
 35 87  1  0  0  0
 38 88  1  0  0  0
 38 89  1  0  0  0
 38 90  1  0  0  0
 39 91  1  0  0  0
 40 92  1  0  0  0
 42 93  1  0  0  0
 43 94  1  0  0  0
 43 95  1  0  0  0
 45 96  1  0  0  0
 49 97  1  0  0  0
 50 98  1  0  0  0
 51 99  1  0  0  0
 52100  1  0  0  0
M  END
$$$$
