1ozv_ligand
  -I-interpret- 

 26 25  0  0  0  0  0  0  0  0999 V2000
   69.6190  132.8230   63.0910 N   0  3  0  0  0
   69.7540  134.3000   62.9370 C   0  0  0  0  0
   69.1730  134.9860   64.1640 C   0  0  0  0  0
   68.9500  134.2750   65.1680 O   0  0  0  0  0
   69.0090  134.7830   61.6890 C   0  0  0  0  0
   69.3610  134.0410   60.4170 C   0  0  0  0  0
   68.6450  134.6420   59.2240 C   0  0  0  0  0
   68.8410  133.7990   57.9700 C   0  0  0  0  0
   68.3170  134.4910   56.7520 N   0  3  0  0  0
   68.9470  136.2170   64.1020 O   0  0  0  0  0
   70.1212  132.5221   63.9263 H   0  0  0  0  0
   68.6323  132.5804   63.1802 H   0  0  0  0  0
   70.0115  132.3596   62.2715 H   0  0  0  0  0
   70.8105  134.5470   62.8322 H   0  0  0  0  0
   69.2877  135.8256   61.5362 H   0  0  0  0  0
   67.9467  134.6183   61.8694 H   0  0  0  0  0
   69.0541  133.0004   60.5221 H   0  0  0  0  0
   70.4362  134.1152   60.2542 H   0  0  0  0  0
   69.0559  135.6346   59.0397 H   0  0  0  0  0
   67.5790  134.6847   59.4474 H   0  0  0  0  0
   68.2953  132.8638   58.0956 H   0  0  0  0  0
   69.9088  133.6268   57.8349 H   0  0  0  0  0
   68.4654  133.8982   55.9353 H   0  0  0  0  0
   67.3194  134.6701   56.8669 H   0  0  0  0  0
   68.8101  135.3750   56.6261 H   0  0  0  0  0
   69.1976  136.5439   63.2349 H   0  0  0  0  0
  1  2  1  0  0  0
  2  3  1  0  0  0
  2  5  1  0  0  0
  3  4  2  0  0  0
  3 10  1  0  0  0
  5  6  1  0  0  0
  6  7  1  0  0  0
  7  8  1  0  0  0
  8  9  1  0  0  0
  1 11  1  0  0  0
  1 12  1  0  0  0
  1 13  1  0  0  0
  2 14  1  0  0  0
  5 15  1  0  0  0
  5 16  1  0  0  0
  6 17  1  0  0  0
  6 18  1  0  0  0
  7 19  1  0  0  0
  7 20  1  0  0  0
  8 21  1  0  0  0
  8 22  1  0  0  0
  9 23  1  0  0  0
  9 24  1  0  0  0
  9 25  1  0  0  0
 10 26  1  0  0  0
M  END
$$$$
