3st6_ligand
  -I-interpret- 

 24 24  0  0  0  0  0  0  0  0999 V2000
    0.0880  -37.9250   18.2760 C   0  0  0  0  0
    1.1610  -38.4350   20.9550 O   0  0  0  0  0
    1.2790  -38.2340   11.8820 O   0  0  0  0  0
    2.9700  -37.5330   20.2950 O   0  0  0  0  0
    1.0000  -39.7890   13.3520 O   0  0  0  0  0
    1.4390  -39.2500   15.8570 O   0  0  0  0  0
    2.5420  -35.5450   14.7230 C   0  0  0  0  0
    2.6050  -35.9210   16.0500 C   0  0  0  0  0
    2.1080  -36.4160   13.7670 C   0  0  0  0  0
    2.3340  -37.5060   17.7310 O   0  0  0  0  0
    1.8960  -38.0360   20.0910 C   0  0  0  0  0
    1.2520  -38.6410   13.0360 C   0  0  0  0  0
    1.4220  -37.9620   18.5860 C   0  0  0  0  0
    2.2020  -37.1720   16.4460 C   0  0  0  0  0
    1.8050  -38.0590   15.4880 C   0  0  0  0  0
    1.7310  -37.6780   14.1250 C   0  0  0  0  0
   -0.2380  -37.5183   17.3187 H   0  0  0  0  0
   -0.6473  -38.3023   18.9867 H   0  0  0  0  0
    1.4993  -37.2996   11.8785 H   0  0  0  0  0
    3.3743  -37.2938   19.4578 H   0  0  0  0  0
    2.8433  -34.5378   14.4351 H   0  0  0  0  0
    2.9793  -35.2159   16.7922 H   0  0  0  0  0
    2.0625  -36.1058   12.7230 H   0  0  0  0  0
    1.1554  -37.2856   16.7286 H   0  0  0  0  0
 13  1  2  0  0  0
 11  2  2  0  0  0
 12  3  1  0  0  0
 11  4  1  0  0  0
 12  5  2  0  0  0
 15  6  2  0  0  0
  8  7  2  0  0  0
  7  9  1  0  0  0
 14  8  1  0  0  0
  9 16  2  0  0  0
 10 13  1  0  0  0
 14 10  1  0  0  0
 13 11  1  0  0  0
 16 12  1  0  0  0
 14 15  1  0  0  0
 15 16  1  0  0  0
  1 17  1  0  0  0
  1 18  1  0  0  0
  3 19  1  0  0  0
  4 20  1  0  0  0
  7 21  1  0  0  0
  8 22  1  0  0  0
  9 23  1  0  0  0
 14 24  1  0  0  0
M  END
$$$$
