2hdu_ligand
  -I-interpret- 

 19 19  0  0  0  0  0  0  0  0999 V2000
   21.9940    6.2380   16.6280 O   0  0  0  0  0
   20.7940    6.6220   16.6310 C   0  0  0  0  0
   20.1930    7.0820   17.6430 O   0  0  0  0  0
   20.0070    6.5430   15.3580 C   0  0  0  0  0
   18.6730    6.9590   15.2620 C   0  0  0  0  0
   18.0900    6.8180   14.0060 C   0  0  0  0  0
   19.2030    6.1690   12.8640 S   0  0  0  0  0
   20.4540    6.0510   14.0270 C   0  0  0  0  0
   21.6860    5.5730   13.7410 N   0  0  0  0  0
   22.0820    5.1270   12.5400 C   0  0  0  0  0
   21.3800    5.0920   11.5450 O   0  0  0  0  0
   23.4960    4.6360   12.4920 C   0  0  0  0  0
   19.2909    7.3066   17.4034 H   0  0  0  0  0
   18.1280    7.3659   16.1138 H   0  0  0  0  0
   17.0588    7.0848   13.7746 H   0  0  0  0  0
   22.3683    5.5498   14.4989 H   0  0  0  0  0
   23.5045    3.5841   12.2065 H   0  0  0  0  0
   24.0564    5.2171   11.7596 H   0  0  0  0  0
   23.9526    4.7507   13.4751 H   0  0  0  0  0
  1  2  2  0  0  0
  2  3  1  0  0  0
  2  4  1  0  0  0
  4  5  4  0  0  0
  4  8  4  0  0  0
  5  6  4  0  0  0
  6  7  4  0  0  0
  7  8  4  0  0  0
  8  9  1  0  0  0
  9 10  1  0  0  0
 10 11  2  0  0  0
 10 12  1  0  0  0
  3 13  1  0  0  0
  5 14  1  0  0  0
  6 15  1  0  0  0
  9 16  1  0  0  0
 12 17  1  0  0  0
 12 18  1  0  0  0
 12 19  1  0  0  0
M  END
$$$$
