4io4_ligand
  -I-interpret- 

 15 14  0  0  0  0  0  0  0  0999 V2000
   -3.9310   22.4840   -7.8260 N   0  3  0  0  0
   -3.5440   21.0280   -7.9390 C   0  0  0  0  0
   -2.0980   20.8310   -7.5680 C   0  0  0  0  0
   -1.3070   21.8220   -7.4790 O   0  0  0  0  0
   -3.8100   20.4630   -9.3400 C   0  0  0  0  0
   -5.1940   20.2590   -9.5520 O   0  0  0  0  0
   -1.7170   19.6640   -7.3570 O   0  0  0  0  0
   -3.7366   22.8138   -6.8806 H   0  0  0  0  0
   -3.3907   23.0312   -8.4961 H   0  0  0  0  0
   -4.9261   22.5865   -8.0253 H   0  0  0  0  0
   -4.1721   20.4782   -7.2381 H   0  0  0  0  0
   -1.7853   22.6305   -7.6768 H   0  0  0  0  0
   -3.2977   19.5054   -9.4332 H   0  0  0  0  0
   -3.4451   21.1763  -10.0791 H   0  0  0  0  0
   -5.3329   19.9059  -10.4338 H   0  0  0  0  0
  1  2  1  0  0  0
  2  3  1  0  0  0
  2  5  1  0  0  0
  3  4  1  0  0  0
  3  7  2  0  0  0
  5  6  1  0  0  0
  1  8  1  0  0  0
  1  9  1  0  0  0
  1 10  1  0  0  0
  2 11  1  0  0  0
  4 12  1  0  0  0
  5 13  1  0  0  0
  5 14  1  0  0  0
  6 15  1  0  0  0
M  END
$$$$
