3iww_ligand
  -I-interpret- 

 53 53  0  0  0  0  0  0  0  0999 V2000
   13.7880   47.1210   40.4710 C   0  0  0  0  0
   14.9220   46.3540   40.3040 C   0  0  0  0  0
   14.8830   44.8840   40.6840 C   0  0  0  0  0
   16.2680   44.3150   41.0210 C   0  0  0  0  0
   17.2720   44.4790   39.8440 C   0  0  0  0  0
   17.1860   43.6790   38.8630 O   0  0  0  0  0
   18.1870   45.3290   39.9880 O   0  0  0  0  0
   16.9100   45.0310   42.0950 N   0  0  0  0  0
   18.0600   44.5840   42.5490 C   0  0  0  0  0
   18.6020   45.3360   43.4890 N   0  0  0  0  0
   19.9210   45.0470   44.0430 C   0  0  0  0  0
   20.9220   45.7120   43.0540 C   0  0  0  0  0
   22.3670   45.1740   43.1190 C   0  0  0  0  0
   23.4210   45.9150   42.2060 C   0  0  0  0  0
   23.5050   47.4540   42.3910 C   0  0  0  0  0
   23.6640   47.8450   43.8190 N   0  0  0  0  0
   23.1740   49.0040   44.2920 C   0  0  0  0  0
   23.2870   49.3190   45.8240 C   0  0  0  0  0
   22.7250   50.4980   46.4000 C   0  0  0  0  0
   22.8220   50.7700   47.8080 C   0  0  0  0  0
   23.4850   49.9060   48.7130 C   0  0  0  0  0
   23.6840   50.1910   50.9180 I   0  0  0  0  0
   24.0270   48.7550   48.0810 C   0  0  0  0  0
   23.9420   48.4470   46.6990 C   0  0  0  0  0
   22.5200   49.7510   43.5680 O   0  0  0  0  0
   20.0050   45.6770   45.4580 C   0  0  0  0  0
   19.5440   46.8440   45.6470 O   0  0  0  0  0
   20.4350   44.9300   46.3480 O   0  0  0  0  0
   18.5840   43.5330   42.1340 O   0  0  0  0  0
   12.8795   46.6707   40.8711 H   0  0  0  0  0
   13.8002   48.1774   40.2029 H   0  0  0  0  0
   15.8343   46.7970   39.9045 H   0  0  0  0  0
   14.4954   44.3301   39.8290 H   0  0  0  0  0
   14.2590   44.7870   41.5724 H   0  0  0  0  0
   16.0663   43.2728   41.2686 H   0  0  0  0  0
   16.4081   43.1266   38.9693 H   0  0  0  0  0
   16.4814   45.8662   42.4940 H   0  0  0  0  0
   18.0840   46.1423   43.8382 H   0  0  0  0  0
   20.1339   43.9833   44.1490 H   0  0  0  0  0
   20.9694   46.7680   43.3201 H   0  0  0  0  0
   20.5551   45.5017   42.0494 H   0  0  0  0  0
   22.3268   44.1433   42.7667 H   0  0  0  0  0
   22.7003   45.3132   44.1474 H   0  0  0  0  0
   23.1116   45.7438   41.1749 H   0  0  0  0  0
   24.3989   45.5170   42.4770 H   0  0  0  0  0
   22.5760   47.8896   42.0230 H   0  0  0  0  0
   24.3766   47.8129   41.8436 H   0  0  0  0  0
   24.1571   47.2176   44.4543 H   0  0  0  0  0
   22.2092   51.2100   45.7557 H   0  0  0  0  0
   22.3655   51.6806   48.1959 H   0  0  0  0  0
   24.5562   48.0441   48.7156 H   0  0  0  0  0
   24.3884   47.5284   46.3182 H   0  0  0  0  0
   19.2749   47.2206   44.8060 H   0  0  0  0  0
  1  2  2  0  0  0
  2  3  1  0  0  0
  3  4  1  0  0  0
  4  5  1  0  0  0
  4  8  1  0  0  0
  5  6  1  0  0  0
  5  7  2  0  0  0
  8  9  1  0  0  0
  9 10  1  0  0  0
  9 29  2  0  0  0
 10 11  1  0  0  0
 11 12  1  0  0  0
 11 26  1  0  0  0
 12 13  1  0  0  0
 13 14  1  0  0  0
 14 15  1  0  0  0
 15 16  1  0  0  0
 16 17  1  0  0  0
 17 18  1  0  0  0
 17 25  2  0  0  0
 18 19  4  0  0  0
 18 24  4  0  0  0
 19 20  4  0  0  0
 20 21  4  0  0  0
 21 22  1  0  0  0
 21 23  4  0  0  0
 23 24  4  0  0  0
 26 27  1  0  0  0
 26 28  2  0  0  0
  1 30  1  0  0  0
  1 31  1  0  0  0
  2 32  1  0  0  0
  3 33  1  0  0  0
  3 34  1  0  0  0
  4 35  1  0  0  0
  6 36  1  0  0  0
  8 37  1  0  0  0
 10 38  1  0  0  0
 11 39  1  0  0  0
 12 40  1  0  0  0
 12 41  1  0  0  0
 13 42  1  0  0  0
 13 43  1  0  0  0
 14 44  1  0  0  0
 14 45  1  0  0  0
 15 46  1  0  0  0
 15 47  1  0  0  0
 16 48  1  0  0  0
 19 49  1  0  0  0
 20 50  1  0  0  0
 23 51  1  0  0  0
 24 52  1  0  0  0
 27 53  1  0  0  0
M  END
$$$$
