6s4u_ligand
  -I-interpret- 

 58 60  0  0  0  0  0  0  0  0999 V2000
  -74.3790   49.5340  -20.9410 C   0  0  0  0  0
  -73.4090   48.5820  -21.1310 C   0  0  0  0  0
  -71.9150   51.6330  -18.8640 C   0  0  0  0  0
  -71.8560   53.0120  -19.5240 C   0  0  0  0  0
  -72.4500   51.6970  -17.4330 C   0  0  0  0  0
  -73.3480   47.3160  -21.8810 C   0  0  0  0  0
  -73.1460   46.1040  -21.1930 C   0  0  0  0  0
  -73.0450   44.9100  -21.8970 C   0  0  0  0  0
  -73.1020   44.9200  -23.2870 C   0  0  0  0  0
  -73.2590   46.1180  -23.9800 C   0  0  0  0  0
  -75.6850   49.5820  -21.4640 N   0  0  0  0  0
  -76.3790   48.5810  -22.2700 C   0  0  0  0  0
  -76.9470   47.5520  -21.3090 C   0  0  0  0  0
  -77.2250   46.2540  -22.0500 C   0  0  0  0  0
  -78.6150   45.7870  -21.6230 C   0  0  0  0  0
  -77.8370   43.3980  -22.0000 C   0  0  0  0  0
  -80.4530   42.7040  -22.3860 C   0  0  0  0  0
  -72.0490   49.2250  -20.1930 S   0  0  0  0  0
  -72.6750   50.6670  -19.6670 N   0  0  0  0  0
  -73.9510   50.6660  -20.1310 C   0  0  0  0  0
  -74.7220   51.5950  -19.9440 O   0  0  0  0  0
  -71.9020   48.4020  -19.0490 O   0  0  0  0  0
  -71.0000   49.5410  -21.0960 O   0  0  0  0  0
  -73.3530   47.3170  -23.2890 C   0  0  0  0  0
  -78.8710   44.3350  -21.9380 C   0  0  0  0  0
  -78.1400   42.0680  -22.2870 C   0  0  0  0  0
  -79.4760   41.7130  -22.4770 C   0  0  0  0  0
  -80.1320   43.9640  -22.1220 N   0  0  0  0  0
  -82.1500   42.3050  -22.6110 S   0  0  0  0  0
  -82.9800   43.3080  -21.5870 N   0  0  0  0  0
  -82.4820   42.7100  -23.9340 O   0  0  0  0  0
  -82.3330   40.9740  -22.1370 O   0  0  0  0  0
  -70.8855   51.2788  -18.8113 H   0  0  0  0  0
  -71.3745   52.9268  -20.4982 H   0  0  0  0  0
  -72.8680   53.3967  -19.6499 H   0  0  0  0  0
  -71.2836   53.6914  -18.8925 H   0  0  0  0  0
  -73.4961   52.0026  -17.4509 H   0  0  0  0  0
  -72.3653   50.7136  -16.9705 H   0  0  0  0  0
  -71.8686   52.4202  -16.8611 H   0  0  0  0  0
  -73.0687   46.1023  -20.1057 H   0  0  0  0  0
  -72.9215   43.9686  -21.3617 H   0  0  0  0  0
  -73.0232   43.9829  -23.8381 H   0  0  0  0  0
  -73.3082   46.1133  -25.0689 H   0  0  0  0  0
  -76.2163   50.4266  -21.2524 H   0  0  0  0  0
  -75.6936   48.1119  -22.9759 H   0  0  0  0  0
  -77.1745   49.0418  -22.8556 H   0  0  0  0  0
  -77.8765   47.9305  -20.8836 H   0  0  0  0  0
  -76.2260   47.3654  -20.5131 H   0  0  0  0  0
  -76.4737   45.5024  -21.8078 H   0  0  0  0  0
  -77.1836   46.4083  -23.1282 H   0  0  0  0  0
  -79.3474   46.3798  -22.1709 H   0  0  0  0  0
  -78.6896   45.9106  -20.5426 H   0  0  0  0  0
  -76.8052   43.7032  -21.8260 H   0  0  0  0  0
  -73.4305   48.2575  -23.8345 H   0  0  0  0  0
  -77.3498   41.3209  -22.3614 H   0  0  0  0  0
  -79.7509   40.6805  -22.6925 H   0  0  0  0  0
  -83.5825   44.0386  -21.9660 H   0  0  0  0  0
  -82.8886   43.1951  -20.5774 H   0  0  0  0  0
  1  2  2  0  0  0
 11  1  1  0  0  0
  1 20  1  0  0  0
  2  6  1  0  0  0
  2 18  1  0  0  0
  3  4  1  0  0  0
  3  5  1  0  0  0
 19  3  1  0  0  0
  6  7  4  0  0  0
  6 24  4  0  0  0
  7  8  4  0  0  0
  8  9  4  0  0  0
 10  9  4  0  0  0
 24 10  4  0  0  0
 12 11  1  0  0  0
 13 12  1  0  0  0
 14 13  1  0  0  0
 15 14  1  0  0  0
 25 15  1  0  0  0
 25 16  4  0  0  0
 16 26  4  0  0  0
 17 27  4  0  0  0
 28 17  4  0  0  0
 17 29  1  0  0  0
 19 18  1  0  0  0
 18 22  2  0  0  0
 18 23  2  0  0  0
 20 19  1  0  0  0
 20 21  2  0  0  0
 25 28  4  0  0  0
 26 27  4  0  0  0
 29 30  1  0  0  0
 29 31  2  0  0  0
 29 32  2  0  0  0
  3 33  1  0  0  0
  4 34  1  0  0  0
  4 35  1  0  0  0
  4 36  1  0  0  0
  5 37  1  0  0  0
  5 38  1  0  0  0
  5 39  1  0  0  0
  7 40  1  0  0  0
  8 41  1  0  0  0
  9 42  1  0  0  0
 10 43  1  0  0  0
 11 44  1  0  0  0
 12 45  1  0  0  0
 12 46  1  0  0  0
 13 47  1  0  0  0
 13 48  1  0  0  0
 14 49  1  0  0  0
 14 50  1  0  0  0
 15 51  1  0  0  0
 15 52  1  0  0  0
 16 53  1  0  0  0
 24 54  1  0  0  0
 26 55  1  0  0  0
 27 56  1  0  0  0
 30 57  1  0  0  0
 30 58  1  0  0  0
M  END
$$$$
