2w6t_ligand
  -I-interpret- 

139139  0  0  0  0  0  0  0  0999 V2000
  -71.1440  -35.7880   19.3750 N   0  3  0  0  0
  -71.7670  -36.2470   18.0790 C   0  0  0  0  0
  -70.7730  -36.2260   16.9110 C   0  0  0  0  0
  -71.0720  -35.6940   15.8270 O   0  0  0  0  0
  -72.4300  -37.6220   18.2340 C   0  0  0  0  0
  -71.5710  -38.6730   17.8470 O   0  0  0  0  0
  -69.5950  -36.7950   17.1440 N   0  0  0  0  0
  -68.6130  -36.8520   16.0840 C   0  0  0  0  0
  -68.4800  -38.2290   15.4430 C   0  0  0  0  0
  -67.8250  -38.3690   14.4020 O   0  0  0  0  0
  -67.2750  -36.2800   16.5640 C   0  0  0  0  0
  -67.3330  -34.7650   16.9820 C   0  0  0  0  0
  -67.9180  -33.8050   15.9300 C   0  0  0  0  0
  -68.4320  -32.5190   16.5780 C   0  0  0  0  0
  -68.9590  -31.4960   15.5930 N   0  3  0  0  0
  -69.1490  -39.2200   16.0410 N   0  0  0  0  0
  -69.1600  -40.6020   15.5680 C   0  0  0  0  0
  -67.9830  -41.4190   16.0780 C   0  0  0  0  0
  -67.9220  -42.6390   15.8550 O   0  0  0  0  0
  -67.0600  -40.7470   16.7750 N   0  0  0  0  0
  -65.7910  -41.3190   17.2270 C   0  0  0  0  0
  -64.9540  -40.1680   17.7420 C   0  0  0  0  0
  -63.5540  -40.3350   17.2000 C   0  0  0  0  0
  -62.4030  -39.9330   18.0890 C   0  0  0  0  0
  -62.5840  -38.7290   18.9280 N   0  3  0  0  0
  -63.6320  -38.0560   19.0960 O   0  0  0  0  0
  -61.5130  -38.4250   19.5440 C   0  0  0  0  0
  -61.4670  -37.4810   20.3020 O   0  0  0  0  0
  -65.8530  -42.2500   18.3940 C   0  0  0  0  0
  -66.1560  -41.8320   19.4860 O   0  0  0  0  0
  -65.5540  -43.5230   18.1890 N   0  0  0  0  0
  -65.5080  -44.5180   19.2960 C   0  0  0  0  0
  -66.7470  -44.6470   20.1850 C   0  0  0  0  0
  -67.8480  -44.8170   19.6640 O   0  0  0  0  0
  -64.2540  -44.3480   20.1420 C   0  0  0  0  0
  -63.1950  -45.0970   19.5770 O   0  0  0  0  0
  -66.5190  -44.5850   21.5190 N   0  0  0  0  0
  -67.5630  -44.5740   22.5960 C   0  0  0  0  0
  -68.8320  -43.7230   22.3720 C   0  0  0  0  0
  -69.9570  -44.2220   22.3110 O   0  0  0  0  0
  -67.9100  -45.9590   23.0920 C   0  0  0  0  0
  -67.2330  -46.2020   24.3120 O   0  0  0  0  0
  -68.6080  -42.4170   22.1990 N   0  0  0  0  0
  -69.5940  -41.3660   22.5070 C   0  0  0  0  0
  -69.5750  -41.1030   24.0270 C   0  0  0  0  0
  -69.9850  -40.0320   24.4680 O   0  0  0  0  0
  -69.0930  -42.0610   24.8270 N   0  0  0  0  0
  -69.1810  -41.9430   26.2720 C   0  0  0  0  0
  -69.4920  -43.2920   26.9100 C   0  0  0  0  0
  -69.9320  -43.1430   28.3680 C   0  0  0  0  0
  -69.2300  -44.0560   29.3780 C   0  0  0  0  0
  -67.7820  -44.1050   29.2020 N   0  0  0  0  0
  -67.9670  -41.3360   26.9770 C   0  0  0  0  0
  -68.1070  -40.7430   28.0340 O   0  0  0  0  0
  -66.7730  -41.4770   26.4230 N   0  0  0  0  0
  -65.5750  -41.0130   27.1360 C   0  0  0  0  0
  -64.4170  -40.5550   26.2300 C   0  0  0  0  0
  -64.7500  -39.5540   25.1240 C   0  0  0  0  0
  -63.5170  -39.3940   24.2370 C   0  0  0  0  0
  -63.5650  -38.3000   23.2550 N   0  3  0  0  0
  -64.2620  -38.4240   22.2450 O   0  0  0  0  0
  -62.8480  -37.2630   23.4310 C   0  0  0  0  0
  -62.8660  -36.3720   22.5970 O   0  0  0  0  0
  -65.2230  -42.2430   27.8900 C   0  0  0  0  0
  -64.7650  -43.1920   27.2730 O   0  0  0  0  0
  -65.4490  -42.2880   29.1990 N   0  0  0  0  0
  -65.5330  -43.6040   29.8320 C   0  0  0  0  0
  -66.9920  -43.9370   30.1750 C   0  0  0  0  0
  -67.4940  -43.4770   31.1920 O   0  0  0  0  0
  -64.6520  -43.6940   31.0620 C   0  0  0  0  0
  -65.0950  -42.8070   32.0570 O   0  0  0  0  0
  -70.7130  -34.8736   19.2386 H   0  0  0  0  0
  -71.8655  -35.7214   20.0929 H   0  0  0  0  0
  -70.4339  -36.4598   19.6662 H   0  0  0  0  0
  -72.5484  -35.5281   17.8327 H   0  0  0  0  0
  -73.3105  -37.6489   17.5920 H   0  0  0  0  0
  -72.6839  -37.7602   19.2850 H   0  0  0  0  0
  -72.0233  -39.5123   17.9592 H   0  0  0  0  0
  -69.3854  -37.1878   18.0617 H   0  0  0  0  0
  -68.9766  -36.2182   15.2752 H   0  0  0  0  0
  -66.5756  -36.3569   15.7315 H   0  0  0  0  0
  -66.9824  -36.8462   17.4483 H   0  0  0  0  0
  -66.3026  -34.4506   17.1481 H   0  0  0  0  0
  -67.9894  -34.7090   17.8504 H   0  0  0  0  0
  -68.7517  -34.3008   15.4328 H   0  0  0  0  0
  -67.1320  -33.5464   15.2205 H   0  0  0  0  0
  -67.5900  -32.0616   17.0976 H   0  0  0  0  0
  -69.2612  -32.7958   17.2291 H   0  0  0  0  0
  -69.2812  -30.6718   16.1003 H   0  0  0  0  0
  -68.2139  -31.2306   14.9490 H   0  0  0  0  0
  -69.7356  -31.8991   15.0688 H   0  0  0  0  0
  -69.6851  -38.9972   16.8797 H   0  0  0  0  0
  -69.0996  -40.5793   14.4799 H   0  0  0  0  0
  -70.0722  -41.0704   15.9376 H   0  0  0  0  0
  -67.2532  -39.7726   17.0065 H   0  0  0  0  0
  -65.4156  -41.8768   16.3691 H   0  0  0  0  0
  -64.9400  -40.1688   18.8319 H   0  0  0  0  0
  -65.3754  -39.2178   17.4141 H   0  0  0  0  0
  -63.4967  -39.6757   16.3339 H   0  0  0  0  0
  -63.4325  -41.4052   17.0328 H   0  0  0  0  0
  -61.5766  -39.7030   17.4165 H   0  0  0  0  0
  -62.2645  -40.7602   18.7852 H   0  0  0  0  0
  -60.6179  -39.0267   19.3864 H   0  0  0  0  0
  -65.3479  -43.8334   17.2395 H   0  0  0  0  0
  -65.4852  -45.4666   18.7596 H   0  0  0  0  0
  -64.4490  -44.7030   21.1539 H   0  0  0  0  0
  -63.9769  -43.2942   20.1711 H   0  0  0  0  0
  -62.4059  -44.9877   20.1127 H   0  0  0  0  0
  -65.5452  -44.5417   21.8195 H   0  0  0  0  0
  -67.0413  -44.0270   23.3813 H   0  0  0  0  0
  -67.6053  -46.6988   22.3518 H   0  0  0  0  0
  -68.9859  -46.0309   23.2509 H   0  0  0  0  0
  -67.4522  -47.0814   24.6287 H   0  0  0  0  0
  -67.7005  -42.1305   21.8319 H   0  0  0  0  0
  -70.5885  -41.6885   22.1987 H   0  0  0  0  0
  -69.3422  -40.4520   21.9692 H   0  0  0  0  0
  -68.6572  -42.8866   24.4160 H   0  0  0  0  0
  -69.9939  -41.2313   26.4162 H   0  0  0  0  0
  -68.5872  -43.8994   26.8855 H   0  0  0  0  0
  -70.3057  -43.7554   26.3522 H   0  0  0  0  0
  -70.9886  -43.4092   28.3976 H   0  0  0  0  0
  -69.6884  -42.1210   28.6583 H   0  0  0  0  0
  -69.6141  -45.0656   29.2323 H   0  0  0  0  0
  -69.4278  -43.6595   30.3739 H   0  0  0  0  0
  -67.3985  -44.2787   28.2729 H   0  0  0  0  0
  -66.6848  -41.9072   25.5024 H   0  0  0  0  0
  -65.7582  -40.1197   27.7330 H   0  0  0  0  0
  -64.0663  -41.4528   25.7210 H   0  0  0  0  0
  -63.7106  -40.0469   26.8864 H   0  0  0  0  0
  -65.0255  -38.5933   25.5590 H   0  0  0  0  0
  -65.5919  -39.9150   24.5333 H   0  0  0  0  0
  -63.4319  -40.3166   23.6628 H   0  0  0  0  0
  -62.6866  -39.1680   24.9059 H   0  0  0  0  0
  -62.2230  -37.1715   24.3193 H   0  0  0  0  0
  -65.5602  -41.4331   29.7441 H   0  0  0  0  0
  -65.1643  -44.3417   29.1194 H   0  0  0  0  0
  -63.6315  -43.4302   30.7842 H   0  0  0  0  0
  -64.6951  -44.7108   31.4523 H   0  0  0  0  0
  -64.5247  -42.8796   32.8258 H   0  0  0  0  0
  1  2  1  0  0  0
  2  3  1  0  0  0
  2  5  1  0  0  0
  3  4  2  0  0  0
  3  7  1  0  0  0
  5  6  1  0  0  0
  7  8  1  0  0  0
  8  9  1  0  0  0
  8 11  1  0  0  0
  9 10  2  0  0  0
  9 16  1  0  0  0
 11 12  1  0  0  0
 12 13  1  0  0  0
 13 14  1  0  0  0
 14 15  1  0  0  0
 16 17  1  0  0  0
 17 18  1  0  0  0
 18 19  2  0  0  0
 18 20  1  0  0  0
 20 21  1  0  0  0
 21 22  1  0  0  0
 21 29  1  0  0  0
 22 23  1  0  0  0
 23 24  1  0  0  0
 24 25  1  0  0  0
 25 26  2  0  0  0
 25 27  1  0  0  0
 27 28  2  0  0  0
 29 30  2  0  0  0
 29 31  1  0  0  0
 31 32  1  0  0  0
 32 33  1  0  0  0
 32 35  1  0  0  0
 33 34  2  0  0  0
 33 37  1  0  0  0
 35 36  1  0  0  0
 37 38  1  0  0  0
 38 39  1  0  0  0
 38 41  1  0  0  0
 39 40  2  0  0  0
 39 43  1  0  0  0
 41 42  1  0  0  0
 43 44  1  0  0  0
 44 45  1  0  0  0
 45 46  2  0  0  0
 45 47  1  0  0  0
 47 48  1  0  0  0
 48 49  1  0  0  0
 48 53  1  0  0  0
 49 50  1  0  0  0
 50 51  1  0  0  0
 51 52  1  0  0  0
 52 68  1  0  0  0
 53 54  2  0  0  0
 53 55  1  0  0  0
 55 56  1  0  0  0
 56 57  1  0  0  0
 56 64  1  0  0  0
 57 58  1  0  0  0
 58 59  1  0  0  0
 59 60  1  0  0  0
 60 61  2  0  0  0
 60 62  1  0  0  0
 62 63  2  0  0  0
 64 65  2  0  0  0
 64 66  1  0  0  0
 66 67  1  0  0  0
 67 68  1  0  0  0
 67 70  1  0  0  0
 68 69  2  0  0  0
 70 71  1  0  0  0
  1 72  1  0  0  0
  1 73  1  0  0  0
  1 74  1  0  0  0
  2 75  1  0  0  0
  5 76  1  0  0  0
  5 77  1  0  0  0
  6 78  1  0  0  0
  7 79  1  0  0  0
  8 80  1  0  0  0
 11 81  1  0  0  0
 11 82  1  0  0  0
 12 83  1  0  0  0
 12 84  1  0  0  0
 13 85  1  0  0  0
 13 86  1  0  0  0
 14 87  1  0  0  0
 14 88  1  0  0  0
 15 89  1  0  0  0
 15 90  1  0  0  0
 15 91  1  0  0  0
 16 92  1  0  0  0
 17 93  1  0  0  0
 17 94  1  0  0  0
 20 95  1  0  0  0
 21 96  1  0  0  0
 22 97  1  0  0  0
 22 98  1  0  0  0
 23 99  1  0  0  0
 23100  1  0  0  0
 24101  1  0  0  0
 24102  1  0  0  0
 27103  1  0  0  0
 31104  1  0  0  0
 32105  1  0  0  0
 35106  1  0  0  0
 35107  1  0  0  0
 36108  1  0  0  0
 37109  1  0  0  0
 38110  1  0  0  0
 41111  1  0  0  0
 41112  1  0  0  0
 42113  1  0  0  0
 43114  1  0  0  0
 44115  1  0  0  0
 44116  1  0  0  0
 47117  1  0  0  0
 48118  1  0  0  0
 49119  1  0  0  0
 49120  1  0  0  0
 50121  1  0  0  0
 50122  1  0  0  0
 51123  1  0  0  0
 51124  1  0  0  0
 52125  1  0  0  0
 55126  1  0  0  0
 56127  1  0  0  0
 57128  1  0  0  0
 57129  1  0  0  0
 58130  1  0  0  0
 58131  1  0  0  0
 59132  1  0  0  0
 59133  1  0  0  0
 62134  1  0  0  0
 66135  1  0  0  0
 67136  1  0  0  0
 70137  1  0  0  0
 70138  1  0  0  0
 71139  1  0  0  0
M  END
$$$$
