### 
### Created by X-TOOL on Sun Sep  9 21:51:05 2018
### 

@<TRIPOS>MOLECULE
2w6t_ligand
  139   139     1     0     0
SMALL
GAST_HUCK


@<TRIPOS>ATOM
      1 N         -71.1440  -35.7880   19.3750 N.4       1 NON         0.2396
      2 CA        -71.7670  -36.2470   18.0790 C.3       1 NON         0.0885
      3 C         -70.7730  -36.2260   16.9110 C.2       1 NON         0.2290
      4 O         -71.0720  -35.6940   15.8270 O.2       1 NON        -0.3906
      5 CB        -72.4300  -37.6220   18.2340 C.3       1 NON         0.1041
      6 OG        -71.5710  -38.6730   17.8470 O.3       1 NON        -0.3870
      7 N         -69.5950  -36.7950   17.1440 N.am      1 NON        -0.2610
      8 CA        -68.6130  -36.8520   16.0840 C.3       1 NON         0.1311
      9 C         -68.4800  -38.2290   15.4430 C.2       1 NON         0.2037
     10 O         -67.8250  -38.3690   14.4020 O.2       1 NON        -0.3944
     11 CB        -67.2750  -36.2800   16.5640 C.3       1 NON        -0.0122
     12 CG        -67.3330  -34.7650   16.9820 C.3       1 NON        -0.0440
     13 CD        -67.9180  -33.8050   15.9300 C.3       1 NON        -0.0124
     14 CE        -68.4320  -32.5190   16.5780 C.3       1 NON        -0.0354
     15 NZ        -68.9590  -31.4960   15.5930 N.4       1 NON         0.2185
     16 N         -69.1490  -39.2200   16.0410 N.am      1 NON        -0.2664
     17 CA        -69.1600  -40.6020   15.5680 C.3       1 NON         0.1201
     18 C         -67.9830  -41.4190   16.0780 C.2       1 NON         0.2007
     19 O         -67.9220  -42.6390   15.8550 O.2       1 NON        -0.3947
     20 N         -67.0600  -40.7470   16.7750 N.am      1 NON        -0.2640
     21 CA        -65.7910  -41.3190   17.2270 C.3       1 NON         0.1311
     22 CB        -64.9540  -40.1680   17.7420 C.3       1 NON        -0.0090
     23 CG        -63.5540  -40.3350   17.2000 C.3       1 NON        -0.0081
     24 CD        -62.4030  -39.9330   18.0890 C.3       1 NON         0.1516
     25 NE        -62.5840  -38.7290   18.9280 N.2       1 NON         0.0851
     26 OZ        -63.6320  -38.0560   19.0960 O.2       1 NON         0.1605
     27 CZ        -61.5130  -38.4250   19.5440 C.2       1 NON         0.3885
     28 OH        -61.4670  -37.4810   20.3020 O.2       1 NON        -0.2003
     29 C         -65.8530  -42.2500   18.3940 C.2       1 NON         0.2040
     30 O         -66.1560  -41.8320   19.4860 O.2       1 NON        -0.3944
     31 N         -65.5540  -43.5230   18.1890 N.am      1 NON        -0.2616
     32 CA        -65.5080  -44.5180   19.2960 C.3       1 NON         0.1539
     33 C         -66.7470  -44.6470   20.1850 C.2       1 NON         0.2062
     34 O         -67.8480  -44.8170   19.6640 O.2       1 NON        -0.3943
     35 CB        -64.2540  -44.3480   20.1420 C.3       1 NON         0.0843
     36 OG        -63.1950  -45.0970   19.5770 O.3       1 NON        -0.3903
     37 N         -66.5190  -44.5850   21.5190 N.am      1 NON        -0.2615
     38 CA        -67.5630  -44.5740   22.5960 C.3       1 NON         0.1539
     39 C         -68.8320  -43.7230   22.3720 C.2       1 NON         0.2060
     40 O         -69.9570  -44.2220   22.3110 O.2       1 NON        -0.3943
     41 CB        -67.9100  -45.9590   23.0920 C.3       1 NON         0.0843
     42 OG        -67.2330  -46.2020   24.3120 O.3       1 NON        -0.3903
     43 N         -68.6080  -42.4170   22.1990 N.am      1 NON        -0.2663
     44 CA        -69.5940  -41.3660   22.5070 C.3       1 NON         0.1201
     45 C         -69.5750  -41.1030   24.0270 C.2       1 NON         0.2007
     46 O         -69.9850  -40.0320   24.4680 O.2       1 NON        -0.3947
     47 N         -69.0930  -42.0610   24.8270 N.am      1 NON        -0.2640
     48 CA        -69.1810  -41.9430   26.2720 C.3       1 NON         0.1310
     49 CB        -69.4920  -43.2920   26.9100 C.3       1 NON        -0.0106
     50 CG        -69.9320  -43.1430   28.3680 C.3       1 NON        -0.0285
     51 CD        -69.2300  -44.0560   29.3780 C.3       1 NON         0.0312
     52 NE        -67.7820  -44.1050   29.2020 N.am      1 NON        -0.2850
     53 C         -67.9670  -41.3360   26.9770 C.2       1 NON         0.2039
     54 O         -68.1070  -40.7430   28.0340 O.2       1 NON        -0.3944
     55 N         -66.7730  -41.4770   26.4230 N.am      1 NON        -0.2637
     56 CA        -65.5750  -41.0130   27.1360 C.3       1 NON         0.1311
     57 CB        -64.4170  -40.5550   26.2300 C.3       1 NON        -0.0090
     58 CG        -64.7500  -39.5540   25.1240 C.3       1 NON        -0.0081
     59 CD        -63.5170  -39.3940   24.2370 C.3       1 NON         0.1516
     60 NE        -63.5650  -38.3000   23.2550 N.2       1 NON         0.0851
     61 OZ        -64.2620  -38.4240   22.2450 O.2       1 NON         0.1605
     62 CZ        -62.8480  -37.2630   23.4310 C.2       1 NON         0.3885
     63 OH        -62.8660  -36.3720   22.5970 O.2       1 NON        -0.2003
     64 C         -65.2230  -42.2430   27.8900 C.2       1 NON         0.2040
     65 O         -64.7650  -43.1920   27.2730 O.2       1 NON        -0.3944
     66 N         -65.4490  -42.2880   29.1990 N.am      1 NON        -0.2616
     67 CA        -65.5330  -43.6040   29.8320 C.3       1 NON         0.1538
     68 C         -66.9920  -43.9370   30.1750 C.2       1 NON         0.2039
     69 O         -67.4940  -43.4770   31.1920 O.2       1 NON        -0.3945
     70 CB        -64.6520  -43.6940   31.0620 C.3       1 NON         0.0843
     71 OG        -65.0950  -42.8070   32.0570 O.3       1 NON        -0.3903
     72 H1        -71.8340  -35.8194   20.1091 H         1 NON         0.2016
     73 H2        -70.8077  -34.8436   19.2702 H         1 NON         0.2016
     74 H3        -70.3743  -36.3945   19.6112 H         1 NON         0.2016
     75 H4        -72.5637  -35.5292   17.8339 H         1 NON         0.1122
     76 H5        -73.3330  -37.6530   17.6067 H         1 NON         0.0640
     77 H6        -72.7107  -37.7635   19.2881 H         1 NON         0.0640
     78 H7        -72.0186  -39.5036   17.9581 H         1 NON         0.2099
     79 H8        -69.3895  -37.1801   18.0437 H         1 NON         0.1884
     80 H9        -68.9734  -36.1826   15.2891 H         1 NON         0.0800
     81 H10       -66.5431  -36.3851   15.7496 H         1 NON         0.0312
     82 H11       -66.9421  -36.8651   17.4340 H         1 NON         0.0312
     83 H12       -66.3074  -34.4366   17.2062 H         1 NON         0.0269
     84 H13       -67.9494  -34.6880   17.8898 H         1 NON         0.0269
     85 H14       -68.7511  -34.3039   15.4133 H         1 NON         0.0317
     86 H15       -67.1342  -33.5508   15.2013 H         1 NON         0.0317
     87 H16       -67.6050  -32.0618   17.1410 H         1 NON         0.0813
     88 H17       -69.2453  -32.7825   17.2702 H         1 NON         0.0813
     89 H18       -69.2777  -30.6810   16.0933 H         1 NON         0.1994
     90 H19       -69.7266  -31.8933   15.0743 H         1 NON         0.1994
     91 H20       -68.2235  -31.2329   14.9560 H         1 NON         0.1994
     92 H21       -69.6746  -39.0016   16.8632 H         1 NON         0.1881
     93 H22       -69.1307  -40.5955   14.4684 H         1 NON         0.0763
     94 H23       -70.0907  -41.0803   15.9072 H         1 NON         0.0763
     95 H24       -67.2494  -39.7917   17.0020 H         1 NON         0.1883
     96 H25       -65.3062  -41.8246   16.3789 H         1 NON         0.0800
     97 H26       -64.9335  -40.1831   18.8417 H         1 NON         0.0313
     98 H27       -65.3775  -39.2135   17.3962 H         1 NON         0.0313
     99 H28       -63.4841  -39.7344   16.2811 H         1 NON         0.0303
    100 H29       -63.4222  -41.3989   16.9537 H         1 NON         0.0303
    101 H30       -61.5311  -39.7570   17.4418 H         1 NON         0.0767
    102 H31       -62.1950  -40.7773   18.7628 H         1 NON         0.0767
    103 H32       -60.6187  -39.0261   19.3865 H         1 NON         0.2097
    104 H33       -65.3519  -43.8273   17.2581 H         1 NON         0.1884
    105 H34       -65.4126  -45.4933   18.7962 H         1 NON         0.0823
    106 H35       -64.4505  -44.7051   21.1637 H         1 NON         0.0606
    107 H36       -63.9745  -43.2846   20.1727 H         1 NON         0.0606
    108 H37       -62.4141  -44.9888   20.1071 H         1 NON         0.2097
    109 H38       -65.5643  -44.5425   21.8136 H         1 NON         0.1884
    110 H39       -67.0597  -44.0846   23.4429 H         1 NON         0.0823
    111 H40       -67.6008  -46.7051   22.3452 H         1 NON         0.0606
    112 H41       -68.9957  -46.0302   23.2537 H         1 NON         0.0606
    113 H42       -67.4499  -47.0722   24.6253 H         1 NON         0.2097
    114 H43       -67.7183  -42.1361   21.8391 H         1 NON         0.1881
    115 H44       -70.5971  -41.6978   22.2010 H         1 NON         0.0763
    116 H45       -69.3327  -40.4434   21.9681 H         1 NON         0.0763
    117 H46       -68.6658  -42.8704   24.4240 H         1 NON         0.1883
    118 H47       -70.0299  -41.2734   26.4743 H         1 NON         0.0800
    119 H48       -68.5897  -43.9200   26.8728 H         1 NON         0.0313
    120 H49       -70.2998  -43.7767   26.3421 H         1 NON         0.0313
    121 H50       -71.0106  -43.3533   28.4172 H         1 NON         0.0287
    122 H51       -69.7473  -42.1017   28.6706 H         1 NON         0.0287
    123 H52       -69.6301  -45.0744   29.2652 H         1 NON         0.0520
    124 H53       -69.4463  -43.6872   30.3915 H         1 NON         0.0520
    125 H54       -67.4060  -44.2753   28.2912 H         1 NON         0.1851
    126 H55       -66.6865  -41.8988   25.5204 H         1 NON         0.1883
    127 H56       -65.8283  -40.1874   27.8174 H         1 NON         0.0800
    128 H57       -63.9979  -41.4515   25.7498 H         1 NON         0.0313
    129 H58       -63.6544  -40.0940   26.8750 H         1 NON         0.0313
    130 H59       -65.0174  -38.5838   25.5681 H         1 NON         0.0303
    131 H60       -65.5934  -39.9280   24.5250 H         1 NON         0.0303
    132 H61       -63.3752  -40.3350   23.6853 H         1 NON         0.0767
    133 H62       -62.6513  -39.2194   24.8928 H         1 NON         0.0767
    134 H63       -62.2236  -37.1716   24.3185 H         1 NON         0.2097
    135 H64       -65.5580  -41.4499   29.7335 H         1 NON         0.1884
    136 H65       -65.1745  -44.3504   29.1079 H         1 NON         0.0823
    137 H66       -63.6185  -43.4388   30.7852 H         1 NON         0.0606
    138 H67       -64.6836  -44.7212   31.4542 H         1 NON         0.0606
    139 H68       -65.9866  -43.0262   32.3009 H         1 NON         0.2097
@<TRIPOS>BOND
     1    1    2 1  
     2    2    3 1  
     3    2    5 1  
     4    3    4 2  
     5    3    7 am 
     6    5    6 1  
     7    7    8 1  
     8    8    9 1  
     9    8   11 1  
    10    9   10 2  
    11    9   16 am 
    12   11   12 1  
    13   12   13 1  
    14   13   14 1  
    15   14   15 1  
    16   16   17 1  
    17   17   18 1  
    18   18   19 2  
    19   18   20 am 
    20   20   21 1  
    21   21   22 1  
    22   21   29 1  
    23   22   23 1  
    24   23   24 1  
    25   24   25 1  
    26   25   26 2  
    27   25   27 1  
    28   27   28 2  
    29   29   30 2  
    30   29   31 am 
    31   31   32 1  
    32   32   33 1  
    33   32   35 1  
    34   33   34 2  
    35   33   37 am 
    36   35   36 1  
    37   37   38 1  
    38   38   39 1  
    39   38   41 1  
    40   39   40 2  
    41   39   43 am 
    42   41   42 1  
    43   43   44 1  
    44   44   45 1  
    45   45   46 2  
    46   45   47 am 
    47   47   48 1  
    48   48   49 1  
    49   48   53 1  
    50   49   50 1  
    51   50   51 1  
    52   51   52 1  
    53   52   68 am 
    54   53   54 2  
    55   53   55 am 
    56   55   56 1  
    57   56   57 1  
    58   56   64 1  
    59   57   58 1  
    60   58   59 1  
    61   59   60 1  
    62   60   61 2  
    63   60   62 1  
    64   62   63 2  
    65   64   65 2  
    66   64   66 am 
    67   66   67 1  
    68   67   68 1  
    69   67   70 1  
    70   68   69 2  
    71   70   71 1  
    72    1   72 1  
    73    1   73 1  
    74    1   74 1  
    75    2   75 1  
    76    5   76 1  
    77    5   77 1  
    78    6   78 1  
    79    7   79 1  
    80    8   80 1  
    81   11   81 1  
    82   11   82 1  
    83   12   83 1  
    84   12   84 1  
    85   13   85 1  
    86   13   86 1  
    87   14   87 1  
    88   14   88 1  
    89   15   89 1  
    90   15   90 1  
    91   15   91 1  
    92   16   92 1  
    93   17   93 1  
    94   17   94 1  
    95   20   95 1  
    96   21   96 1  
    97   22   97 1  
    98   22   98 1  
    99   23   99 1  
   100   23  100 1  
   101   24  101 1  
   102   24  102 1  
   103   27  103 1  
   104   31  104 1  
   105   32  105 1  
   106   35  106 1  
   107   35  107 1  
   108   36  108 1  
   109   37  109 1  
   110   38  110 1  
   111   41  111 1  
   112   41  112 1  
   113   42  113 1  
   114   43  114 1  
   115   44  115 1  
   116   44  116 1  
   117   47  117 1  
   118   48  118 1  
   119   49  119 1  
   120   49  120 1  
   121   50  121 1  
   122   50  122 1  
   123   51  123 1  
   124   51  124 1  
   125   52  125 1  
   126   55  126 1  
   127   56  127 1  
   128   57  128 1  
   129   57  129 1  
   130   58  130 1  
   131   58  131 1  
   132   59  132 1  
   133   59  133 1  
   134   62  134 1  
   135   66  135 1  
   136   67  136 1  
   137   70  137 1  
   138   70  138 1  
   139   71  139 1  
@<TRIPOS>SUBSTRUCTURE
     1 NON         1

