5otr_ligand
  -I-interpret- 

 28 29  0  0  0  0  0  0  0  0999 V2000
 -113.0850 -175.1970  308.1530 C   0  0  0  0  0
 -110.7770 -174.5120  308.2090 C   0  0  0  0  0
 -110.3500 -175.7710  308.6420 C   0  0  0  0  0
 -111.3490 -176.7280  308.7960 C   0  0  0  0  0
 -112.6800 -176.4680  308.5380 C   0  0  0  0  0
 -108.4480 -176.0310  310.2690 C   0  0  0  0  0
 -107.1470 -176.4080  310.5720 C   0  0  0  0  0
 -106.2880 -176.8230  309.5660 C   0  0  0  0  0
 -106.7320 -176.8500  308.2520 C   0  0  0  0  0
 -108.0320 -176.4750  307.9460 C   0  0  0  0  0
 -110.9260 -178.3000  309.3730 Cl  0  0  0  0  0
 -114.5570 -174.8910  307.9970 C   0  0  0  0  0
 -115.2450 -175.7440  307.0270 N   0  3  0  0  0
 -109.6240 -173.2380  307.9900 Cl  0  0  0  0  0
 -112.1100 -174.2240  307.9720 C   0  0  0  0  0
 -108.9180 -176.0740  308.9520 C   0  0  0  0  0
 -113.4170 -177.2649  308.6371 H   0  0  0  0  0
 -109.1115 -175.6974  311.0668 H   0  0  0  0  0
 -106.7994 -176.3777  311.6046 H   0  0  0  0  0
 -105.2691 -177.1265  309.8063 H   0  0  0  0  0
 -106.0569 -177.1670  307.4571 H   0  0  0  0  0
 -108.3675 -176.4929  306.9091 H   0  0  0  0  0
 -114.6368 -173.8649  307.6379 H   0  0  0  0  0
 -115.0262 -175.0611  308.9660 H   0  0  0  0  0
 -116.2284 -175.4774  306.9788 H   0  0  0  0  0
 -114.8149 -175.6287  306.1093 H   0  0  0  0  0
 -115.1696 -176.7183  307.3192 H   0  0  0  0  0
 -112.3970 -173.2260  307.6408 H   0  0  0  0  0
  5  1  4  0  0  0
  1 12  1  0  0  0
 15  1  4  0  0  0
  3  2  4  0  0  0
  2 14  1  0  0  0
  2 15  4  0  0  0
  3  4  4  0  0  0
 16  3  1  0  0  0
  4  5  4  0  0  0
  4 11  1  0  0  0
  6  7  4  0  0  0
  6 16  4  0  0  0
  7  8  4  0  0  0
  8  9  4  0  0  0
  9 10  4  0  0  0
 10 16  4  0  0  0
 12 13  1  0  0  0
  5 17  1  0  0  0
  6 18  1  0  0  0
  7 19  1  0  0  0
  8 20  1  0  0  0
  9 21  1  0  0  0
 10 22  1  0  0  0
 12 23  1  0  0  0
 12 24  1  0  0  0
 13 25  1  0  0  0
 13 26  1  0  0  0
 13 27  1  0  0  0
 15 28  1  0  0  0
M  END
$$$$
