1qy2_ligand
  -I-interpret- 

 23 23  0  0  0  0  0  0  0  0999 V2000
   48.4750   25.6490   42.1400 C   0  0  0  0  0
   48.9590   24.8540   40.9240 C   0  0  0  0  0
   47.7690   24.2150   40.2100 C   0  0  0  0  0
   49.9660   23.7680   41.3250 C   0  0  0  0  0
   49.8510   23.0680   42.4600 N   0  0  0  0  0
   50.7040   22.1120   42.7950 C   0  0  0  0  0
   51.7570   21.8080   41.9370 C   0  0  0  0  0
   51.8890   22.4850   40.8060 N   0  0  0  0  0
   51.0280   23.4590   40.4780 C   0  0  0  0  0
   51.1460   24.1920   39.3370 O   0  0  0  0  0
   52.4100   24.1120   38.6670 C   0  0  0  0  0
   47.9912   24.9732   42.8452 H   0  0  0  0  0
   49.3271   26.1292   42.6212 H   0  0  0  0  0
   47.7634   26.4085   41.8161 H   0  0  0  0  0
   49.4612   25.5487   40.2508 H   0  0  0  0  0
   48.1181   23.6976   39.3164 H   0  0  0  0  0
   47.2857   23.5025   40.8785 H   0  0  0  0  0
   47.0572   24.9906   39.9275 H   0  0  0  0  0
   50.5828   21.5691   43.7324 H   0  0  0  0  0
   52.4660   21.0207   42.1932 H   0  0  0  0  0
   53.1968   24.4621   39.3352 H   0  0  0  0  0
   52.6052   23.0775   38.3845 H   0  0  0  0  0
   52.3862   24.7357   37.7734 H   0  0  0  0  0
  1  2  1  0  0  0
  2  3  1  0  0  0
  2  4  1  0  0  0
  4  5  4  0  0  0
  4  9  4  0  0  0
  5  6  4  0  0  0
  6  7  4  0  0  0
  7  8  4  0  0  0
  8  9  4  0  0  0
  9 10  1  0  0  0
 10 11  1  0  0  0
  1 12  1  0  0  0
  1 13  1  0  0  0
  1 14  1  0  0  0
  2 15  1  0  0  0
  3 16  1  0  0  0
  3 17  1  0  0  0
  3 18  1  0  0  0
  6 19  1  0  0  0
  7 20  1  0  0  0
 11 21  1  0  0  0
 11 22  1  0  0  0
 11 23  1  0  0  0
M  END
$$$$
