2yke_ligand
  -I-interpret- 

 53 59  0  0  0  0  0  0  0  0999 V2000
    8.4630   10.4070   23.5140 C   0  0  0  0  0
    7.3650    9.7460   22.9790 C   0  0  0  0  0
    6.0960   10.2860   23.1210 C   0  0  0  0  0
    8.3350   11.5930   24.2370 C   0  0  0  0  0
    7.0630   12.1610   24.3720 C   0  0  0  0  0
    5.9700   11.5320   23.7090 C   0  0  0  0  0
    4.8690   12.1990   24.4130 C   0  0  0  0  0
    6.5840   13.3880   25.0870 C   0  0  0  0  0
    5.2130   13.5490   24.8690 C   0  0  0  0  0
    4.4610   14.5390   25.4730 C   0  0  0  0  0
    5.1110   15.4900   26.2490 C   0  0  0  0  0
    6.4770   15.4050   26.4540 C   0  0  0  0  0
    7.2310   14.3760   25.8720 C   0  0  0  0  0
    8.6730   14.3890   26.1500 C   0  0  0  0  0
    9.2020   14.5590   27.3600 N   0  0  0  0  0
    9.6390   14.2750   25.2150 N   0  0  0  0  0
   10.8470   14.4230   25.8780 C   0  0  0  0  0
   10.5500   14.5960   27.2480 C   0  0  0  0  0
   11.6000   14.7550   28.1760 C   0  0  0  0  0
   12.8870   14.7720   27.6800 C   0  0  0  0  0
   13.1230   14.6260   26.3780 N   0  0  0  0  0
   12.1760   14.4240   25.4690 C   0  0  0  0  0
    3.5190   11.7230   24.6080 N   0  0  0  0  0
    2.7750   10.6720   24.2640 C   0  0  0  0  0
    1.6740   10.3720   25.2240 C   0  0  0  0  0
    2.8840   10.1230   23.1770 O   0  0  0  0  0
    2.0090    9.6510   26.3830 C   0  0  0  0  0
   -0.2850    9.6100   27.1520 C   0  0  0  0  0
    1.0350    9.2810   27.3250 C   0  0  0  0  0
    0.3090   10.7340   25.0010 C   0  0  0  0  0
   -0.6630   10.3320   25.9690 C   0  0  0  0  0
   -1.9420   10.6700   25.7710 N   0  0  0  0  0
   -2.3260   11.2620   24.6640 C   0  0  0  0  0
   -1.4630   11.7010   23.6730 C   0  0  0  0  0
   -0.1060   11.4660   23.8600 C   0  0  0  0  0
    9.4569    9.9854   23.3641 H   0  0  0  0  0
    7.5008    8.8038   22.4481 H   0  0  0  0  0
    5.2170    9.7409   22.7770 H   0  0  0  0  0
    9.2070   12.0673   24.6872 H   0  0  0  0  0
    4.5007   11.2030   24.6587 H   0  0  0  0  0
    3.3793   14.5727   25.3429 H   0  0  0  0  0
    4.5437   16.3054   26.6977 H   0  0  0  0  0
    6.9740   16.1487   27.0769 H   0  0  0  0  0
   11.4024   14.8603   29.2428 H   0  0  0  0  0
   13.7241   14.9071   28.3650 H   0  0  0  0  0
   12.4355   14.2622   24.4228 H   0  0  0  0  0
    2.9799   12.3807   25.1712 H   0  0  0  0  0
    3.0487    9.3725   26.5548 H   0  0  0  0  0
   -1.0310    9.3298   27.8957 H   0  0  0  0  0
    1.3343    8.7213   28.2111 H   0  0  0  0  0
   -3.3943   11.4185   24.5146 H   0  0  0  0  0
   -1.8332   12.2099   22.7830 H   0  0  0  0  0
    0.6257   11.8376   23.1426 H   0  0  0  0  0
  1  2  4  0  0  0
  1  4  4  0  0  0
  2  3  4  0  0  0
  3  6  4  0  0  0
  4  5  4  0  0  0
  5  6  4  0  0  0
  5  8  1  0  0  0
  6  7  1  0  0  0
  7  9  1  0  0  0
  7 23  1  0  0  0
  8  9  4  0  0  0
  8 13  4  0  0  0
  9 10  4  0  0  0
 10 11  4  0  0  0
 11 12  4  0  0  0
 12 13  4  0  0  0
 13 14  1  0  0  0
 14 15  4  0  0  0
 14 16  4  0  0  0
 15 18  4  0  0  0
 16 17  4  0  0  0
 17 18  4  0  0  0
 17 22  4  0  0  0
 18 19  4  0  0  0
 19 20  4  0  0  0
 20 21  4  0  0  0
 21 22  4  0  0  0
 23 24  1  0  0  0
 24 25  1  0  0  0
 24 26  2  0  0  0
 25 27  4  0  0  0
 25 30  4  0  0  0
 27 29  4  0  0  0
 29 28  4  0  0  0
 28 31  4  0  0  0
 30 31  4  0  0  0
 30 35  4  0  0  0
 31 32  4  0  0  0
 32 33  4  0  0  0
 33 34  4  0  0  0
 34 35  4  0  0  0
  1 36  1  0  0  0
  2 37  1  0  0  0
  3 38  1  0  0  0
  4 39  1  0  0  0
  7 40  1  0  0  0
 10 41  1  0  0  0
 11 42  1  0  0  0
 12 43  1  0  0  0
 19 44  1  0  0  0
 20 45  1  0  0  0
 22 46  1  0  0  0
 23 47  1  0  0  0
 27 48  1  0  0  0
 28 49  1  0  0  0
 29 50  1  0  0  0
 33 51  1  0  0  0
 34 52  1  0  0  0
 35 53  1  0  0  0
M  END
$$$$
