6b5j_ligand
  -I-interpret- 

 45 47  0  0  0  0  0  0  0  0999 V2000
   53.7590   48.4710   -7.8940 C   0  0  0  0  0
   54.6250   45.4960   -5.8510 C   0  0  0  0  0
   54.3030   42.5130   -6.1030 C   0  0  0  0  0
   54.6280   40.2530   -4.5730 C   0  0  0  0  0
   55.0790   41.4680   -4.1130 C   0  0  0  0  0
   53.5490   38.7830   -6.2500 C   0  0  0  0  0
   57.5430   51.4170   -8.8110 C   0  0  0  0  0
   56.8320   51.5280   -7.5310 N   0  0  0  0  0
   55.2540   52.1840   -7.5900 S   0  0  0  0  0
   55.1670   53.1870   -8.6410 O   0  0  0  0  0
   54.8560   52.4090   -6.2120 O   0  0  0  0  0
   54.3150   50.7820   -8.1060 C   0  0  0  0  0
   53.4030   50.9490   -9.1240 C   0  0  0  0  0
   52.6570   49.8650   -9.5340 C   0  0  0  0  0
   52.8430   48.6420   -8.9220 C   0  0  0  0  0
   53.8760   47.1720   -7.3320 N   0  0  0  0  0
   54.7090   46.8000   -6.2740 C   0  0  0  0  0
   55.4400   45.1090   -4.8040 C   0  0  0  0  0
   55.4280   43.7990   -4.2950 N   0  0  0  0  0
   54.9250   42.6100   -4.8680 C   0  0  0  0  0
   53.8460   41.2980   -6.5710 C   0  0  0  0  0
   54.0090   40.1520   -5.8040 C   0  0  0  0  0
   52.6710   38.1970   -5.3680 F   0  0  0  0  0
   53.0180   38.7240   -7.5170 F   0  0  0  0  0
   54.5980   37.9170   -6.3170 F   0  0  0  0  0
   56.2850   45.9620   -4.2040 N   0  0  0  0  0
   56.2960   47.2070   -4.6940 C   0  0  0  0  0
   55.5480   47.6740   -5.7010 N   0  0  0  0  0
   54.5050   49.5680   -7.4830 C   0  0  0  0  0
   53.9404   44.7919   -6.3239 H   0  0  0  0  0
   54.1733   43.4076   -6.7120 H   0  0  0  0  0
   54.7602   39.3611   -3.9605 H   0  0  0  0  0
   55.5644   41.5282   -3.1389 H   0  0  0  0  0
   56.9771   50.7738   -9.4849 H   0  0  0  0  0
   57.6475   52.4073   -9.2542 H   0  0  0  0  0
   58.5303   50.9877   -8.6407 H   0  0  0  0  0
   57.2570   51.2296   -6.6531 H   0  0  0  0  0
   53.2732   51.9221   -9.5976 H   0  0  0  0  0
   51.9259   49.9728  -10.3352 H   0  0  0  0  0
   52.2543   47.7873   -9.2553 H   0  0  0  0  0
   53.2955   46.4395   -7.7405 H   0  0  0  0  0
   55.8462   43.6904   -3.3711 H   0  0  0  0  0
   53.3568   41.2378   -7.5432 H   0  0  0  0  0
   56.9832   47.9119   -4.2261 H   0  0  0  0  0
   55.2322   49.4696   -6.6770 H   0  0  0  0  0
  1 15  4  0  0  0
 16  1  1  0  0  0
  1 29  4  0  0  0
  2 17  4  0  0  0
 18  2  4  0  0  0
 20  3  4  0  0  0
  3 21  4  0  0  0
  5  4  4  0  0  0
  4 22  4  0  0  0
 20  5  4  0  0  0
 22  6  1  0  0  0
  6 23  1  0  0  0
  6 24  1  0  0  0
  6 25  1  0  0  0
  8  7  1  0  0  0
  9  8  1  0  0  0
  9 10  2  0  0  0
  9 11  2  0  0  0
 12  9  1  0  0  0
 12 13  4  0  0  0
 29 12  4  0  0  0
 14 13  4  0  0  0
 15 14  4  0  0  0
 17 16  1  0  0  0
 17 28  4  0  0  0
 19 18  1  0  0  0
 18 26  4  0  0  0
 19 20  1  0  0  0
 21 22  4  0  0  0
 26 27  4  0  0  0
 27 28  4  0  0  0
  2 30  1  0  0  0
  3 31  1  0  0  0
  4 32  1  0  0  0
  5 33  1  0  0  0
  7 34  1  0  0  0
  7 35  1  0  0  0
  7 36  1  0  0  0
  8 37  1  0  0  0
 13 38  1  0  0  0
 14 39  1  0  0  0
 15 40  1  0  0  0
 16 41  1  0  0  0
 19 42  1  0  0  0
 21 43  1  0  0  0
 27 44  1  0  0  0
 29 45  1  0  0  0
M  END
$$$$
