### 
### Created by X-TOOL on Mon Sep 10 21:12:52 2018
### 

@<TRIPOS>MOLECULE
1wva_ligand
   26    25     1     0     0
SMALL
GAST_HUCK


@<TRIPOS>ATOM
      1 OXT        23.4010   13.7150   -6.3660 O.co2     1 S2C        -0.5642
      2 N          22.5730   11.5070   -3.5050 N.4       1 S2C         0.2333
      3 CA         22.4030   12.0810   -4.8680 C.3       1 S2C         0.0375
      4 C          23.4980   13.1820   -5.1440 C.2       1 S2C         0.0852
      5 O          24.3580   13.5380   -4.3760 O.co2     1 S2C        -0.5642
      6 CB         20.9530   12.5710   -4.8350 C.3       1 S2C         0.0487
      7 SG         20.4570   13.3760   -6.3520 S.3       1 S2C        -0.1518
      8 CD         18.7770   13.7350   -5.8610 C.3       1 S2C         0.0139
      9 CE         18.6130   15.2220   -5.5710 C.3       1 S2C         0.0857
     10 B          17.1830   15.6360   -5.1390 B         1 S2C         1.0137
     11 O1         16.7690   15.0130   -3.9140 O.3       1 S2C        -0.3003
     12 O2         17.1090   17.0480   -4.9300 O.3       1 S2C        -0.3003
     13 O3         16.1950   15.3090   -6.1570 O.3       1 S2C        -0.3003
     14 H1         21.8664   10.8061   -3.3451 H         1 S2C         0.2010
     15 H2         22.4815   12.2392   -2.8182 H         1 S2C         0.2010
     16 H3         23.4861   11.0870   -3.4288 H         1 S2C         0.2010
     17 H4         22.5088   11.2989   -5.6342 H         1 S2C         0.1033
     18 H5         20.8426   13.2856   -4.0060 H         1 S2C         0.0451
     19 H6         20.2941   11.7068   -4.6645 H         1 S2C         0.0451
     20 H7         18.5338   13.1604   -4.9551 H         1 S2C         0.0392
     21 H8         18.0929   13.4468   -6.6728 H         1 S2C         0.0392
     22 H9         18.8725   15.7810   -6.4822 H         1 S2C         0.0511
     23 H10        19.3086   15.4939   -4.7634 H         1 S2C         0.0511
     24 H11        17.3497   15.2813   -3.2116 H         1 S2C         0.2287
     25 H12        17.6856   17.2919   -4.2155 H         1 S2C         0.2287
     26 H13        16.4458   15.7104   -6.9806 H         1 S2C         0.2287
@<TRIPOS>BOND
     1    4    1 ar 
     2    3    2 1  
     3    3    4 1  
     4    3    6 1  
     5    4    5 ar 
     6    6    7 1  
     7    7    8 1  
     8    8    9 1  
     9    9   10 1  
    10   10   11 1  
    11   10   12 1  
    12    2   14 1  
    13    2   15 1  
    14    2   16 1  
    15    3   17 1  
    16    6   18 1  
    17    6   19 1  
    18    8   20 1  
    19    8   21 1  
    20    9   22 1  
    21    9   23 1  
    22   11   24 1  
    23   12   25 1  
    24   10   13 1  
    25   13   26 1  
@<TRIPOS>SUBSTRUCTURE
     1 S2C         1

