1wva_ligand
  -I-interpret- 

 27 26  0  0  0  0  0  0  0  0999 V2000
   23.4010   13.7150   -6.3660 O   0  0  0  0  0
   22.5730   11.5070   -3.5050 N   0  3  0  0  0
   22.4030   12.0810   -4.8680 C   0  0  0  0  0
   23.4980   13.1820   -5.1440 C   0  0  0  0  0
   24.3580   13.5380   -4.3760 O   0  0  0  0  0
   20.9530   12.5710   -4.8350 C   0  0  0  0  0
   20.4570   13.3760   -6.3520 S   0  0  0  0  0
   18.7770   13.7350   -5.8610 C   0  0  0  0  0
   18.6130   15.2220   -5.5710 C   0  0  0  0  0
   17.1830   15.6360   -5.1390 B   0  0  0  0  0
   16.7690   15.0130   -3.9140 O   0  0  0  0  0
   17.1090   17.0480   -4.9300 O   0  0  0  0  0
   16.1950   15.3090   -6.1570 O   0  0  0  0  0
   22.6641   13.3129   -6.8317 H   0  0  0  0  0
   23.5203   11.1417   -3.4070 H   0  0  0  0  0
   22.4143   12.2351   -2.8085 H   0  0  0  0  0
   21.9005   10.7523   -3.3689 H   0  0  0  0  0
   22.5541   11.3916   -5.6986 H   0  0  0  0  0
   20.8654   13.2982   -4.0278 H   0  0  0  0  0
   20.3107   11.7018   -4.6937 H   0  0  0  0  0
   18.5429   13.1699   -4.9588 H   0  0  0  0  0
   18.1035   13.4554   -6.6711 H   0  0  0  0  0
   18.8347   15.7547   -6.4958 H   0  0  0  0  0
   19.2795   15.4618   -4.7426 H   0  0  0  0  0
   15.8807   15.3024   -3.6934 H   0  0  0  0  0
   16.2176   17.2846   -4.6636 H   0  0  0  0  0
   15.3247   15.5791   -5.8551 H   0  0  0  0  0
  4  1  1  0  0  0
  3  2  1  0  0  0
  3  4  1  0  0  0
  3  6  1  0  0  0
  4  5  2  0  0  0
  6  7  1  0  0  0
  7  8  1  0  0  0
  8  9  1  0  0  0
  9 10  1  0  0  0
 10 11  1  0  0  0
 10 12  1  0  0  0
 10 13  1  0  0  0
  1 14  1  0  0  0
  2 15  1  0  0  0
  2 16  1  0  0  0
  2 17  1  0  0  0
  3 18  1  0  0  0
  6 19  1  0  0  0
  6 20  1  0  0  0
  8 21  1  0  0  0
  8 22  1  0  0  0
  9 23  1  0  0  0
  9 24  1  0  0  0
 11 25  1  0  0  0
 12 26  1  0  0  0
 13 27  1  0  0  0
M  END
$$$$
