4b2l_ligand
  -I-interpret- 

 30 31  0  0  0  0  0  0  0  0999 V2000
   23.9010    7.1510   -5.5770 N   0  3  0  0  0
   22.5490    7.3770   -5.0360 C   0  0  0  0  0
   21.8560    8.5110   -5.8000 C   0  0  0  0  0
   20.4990    8.5020   -5.9130 O   0  0  0  0  0
   22.6450    7.7650   -3.5630 C   0  0  0  0  0
   21.2500    7.9980   -2.9560 C   0  0  0  0  0
   20.6420    9.1700   -2.7540 C   0  0  0  0  0
   20.3840    7.0090   -2.5150 C   0  0  0  0  0
   19.4340    8.9730   -2.2010 N   0  0  0  0  0
   19.2570    7.6660   -2.0420 C   0  0  0  0  0
   20.4640    5.6220   -2.4730 C   0  0  0  0  0
   18.2000    6.9380   -1.5230 C   0  0  0  0  0
   19.3990    4.8910   -1.9490 C   0  0  0  0  0
   18.2830    5.5600   -1.4830 C   0  0  0  0  0
   22.5110    9.4210   -6.3120 O   0  0  0  0  0
   20.0490    9.6360   -6.6550 C   0  0  0  0  0
   23.8332    6.8920   -6.5612 H   0  0  0  0  0
   24.4495    8.0061   -5.4863 H   0  0  0  0  0
   24.3528    6.3990   -5.0566 H   0  0  0  0  0
   21.9719    6.4587   -5.1448 H   0  0  0  0  0
   23.2175    8.6891   -3.4835 H   0  0  0  0  0
   23.1290    6.9529   -3.0204 H   0  0  0  0  0
   21.0644   10.1438   -3.0017 H   0  0  0  0  0
   21.3513    5.1106   -2.8463 H   0  0  0  0  0
   17.3114    7.4472   -1.1498 H   0  0  0  0  0
   19.4459    3.8028   -1.9072 H   0  0  0  0  0
   17.4501    4.9875   -1.0749 H   0  0  0  0  0
   20.3553   10.5483   -6.1432 H   0  0  0  0  0
   20.4872    9.6129   -7.6528 H   0  0  0  0  0
   18.9622    9.6093   -6.7334 H   0  0  0  0  0
  1  2  1  0  0  0
  2  3  1  0  0  0
  2  5  1  0  0  0
  3  4  1  0  0  0
  3 15  2  0  0  0
  4 16  1  0  0  0
  5  6  1  0  0  0
  6  7  4  0  0  0
  6  8  4  0  0  0
  7  9  4  0  0  0
  8 10  4  0  0  0
  8 11  4  0  0  0
  9 10  4  0  0  0
 10 12  4  0  0  0
 11 13  4  0  0  0
 12 14  4  0  0  0
 13 14  4  0  0  0
  1 17  1  0  0  0
  1 18  1  0  0  0
  1 19  1  0  0  0
  2 20  1  0  0  0
  5 21  1  0  0  0
  5 22  1  0  0  0
  7 23  1  0  0  0
 11 24  1  0  0  0
 12 25  1  0  0  0
 13 26  1  0  0  0
 14 27  1  0  0  0
 16 28  1  0  0  0
 16 29  1  0  0  0
 16 30  1  0  0  0
M  END
$$$$
