2vev_ligand
  -I-interpret- 

 66 70  0  0  0  0  0  0  0  0999 V2000
   19.1860   16.6550   82.3440 C   0  0  0  0  0
   20.4970   17.1570   81.8380 C   0  0  0  0  0
   21.5820   16.4440   82.5620 C   0  0  0  0  0
   21.2250   15.2550   83.0640 N   0  0  0  0  0
   19.5380   14.9240   82.6290 S   0  0  0  0  0
   18.5630   14.4070   83.8400 O   0  0  0  0  0
   19.3150   14.0850   81.2560 O   0  0  0  0  0
   22.7030   16.8680   82.7330 O   0  0  0  0  0
   17.9620   16.8440   81.4630 C   0  0  0  0  0
   18.0850   16.7760   80.0040 C   0  0  0  0  0
   16.9100   16.9760   79.1690 C   0  0  0  0  0
   15.6040   17.2440   79.7920 C   0  0  0  0  0
   15.4830   17.3080   81.2460 C   0  0  0  0  0
   16.6540   17.1090   82.0820 C   0  0  0  0  0
   14.3850   17.4480   78.9280 C   0  0  0  0  0
   13.7020   18.7980   79.1630 C   0  0  0  0  0
   12.4340   18.7900   78.4100 N   0  0  0  0  0
   11.3170   20.0770   78.7670 S   0  0  0  0  0
   16.0510   21.5480   78.3030 C   0  0  0  0  0
   15.7810   20.9780   76.9950 C   0  0  0  0  0
   15.3390   20.9110   79.3430 N   0  0  0  0  0
   14.6190   19.9150   78.6530 C   0  0  0  0  0
   14.8620   19.9440   77.2660 N   0  0  0  0  0
   17.0020   22.6980   78.5820 C   0  0  0  0  0
   20.3260   23.0930   75.6360 C   0  0  0  0  0
   19.3290   24.1660   75.7680 C   0  0  0  0  0
   18.2300   24.0320   76.7310 C   0  0  0  0  0
   18.1270   22.8250   77.5640 C   0  0  0  0  0
   19.1270   21.7480   77.4290 C   0  0  0  0  0
   20.2230   21.8840   76.4670 C   0  0  0  0  0
    9.7060   19.5330   78.7750 O   0  0  0  0  0
   11.8510   20.9480   80.1380 O   0  0  0  0  0
   12.7020   23.4210   76.6430 C   0  0  0  0  0
   12.2610   23.1120   75.2800 C   0  0  0  0  0
   12.4030   22.4920   77.7350 C   0  0  0  0  0
   11.6640   21.2510   77.4630 C   0  0  0  0  0
   11.2210   20.9420   76.1030 C   0  0  0  0  0
   11.5170   21.8690   75.0110 C   0  0  0  0  0
   11.0560   21.5430   73.6670 C   0  0  0  0  0
   12.2570   21.3860   72.8340 F   0  0  0  0  0
   10.1870   22.6160   73.1440 F   0  0  0  0  0
   10.1810   20.3400   73.4740 F   0  0  0  0  0
   18.8769   17.2351   83.2135 H   0  0  0  0  0
   20.5769   18.2306   82.0087 H   0  0  0  0  0
   20.5791   16.9729   80.7668 H   0  0  0  0  0
   21.8272   14.6383   83.6094 H   0  0  0  0  0
   19.0536   16.5762   79.5458 H   0  0  0  0  0
   16.9972   16.9274   78.0836 H   0  0  0  0  0
   14.5137   17.5051   81.7039 H   0  0  0  0  0
   16.5637   17.1560   83.1672 H   0  0  0  0  0
   13.6677   16.6659   79.1769 H   0  0  0  0  0
   14.7074   17.4164   77.8873 H   0  0  0  0  0
   13.5059   18.9662   80.2219 H   0  0  0  0  0
   12.2231   18.0705   77.7185 H   0  0  0  0  0
   16.1919   21.2787   76.0312 H   0  0  0  0  0
   17.4613   22.5120   79.5529 H   0  0  0  0  0
   16.4201   23.6187   78.5403 H   0  0  0  0  0
   21.1426   23.1939   74.9211 H   0  0  0  0  0
   19.4064   25.0609   75.1505 H   0  0  0  0  0
   17.4905   24.8268   76.8287 H   0  0  0  0  0
   19.0499   20.8519   78.0448 H   0  0  0  0  0
   20.9622   21.0892   76.3670 H   0  0  0  0  0
   13.2516   24.3407   76.8437 H   0  0  0  0  0
   12.4833   23.8015   74.4656 H   0  0  0  0  0
   12.7286   22.7210   78.7497 H   0  0  0  0  0
   10.6711   20.0222   75.9040 H   0  0  0  0  0
  1  2  1  0  0  0
  1  5  1  0  0  0
  9  1  1  0  0  0
  2  3  1  0  0  0
  4  3  1  0  0  0
  3  8  2  0  0  0
  5  4  1  0  0  0
  5  6  2  0  0  0
  5  7  2  0  0  0
 10  9  4  0  0  0
 14  9  4  0  0  0
 11 10  4  0  0  0
 12 11  4  0  0  0
 12 13  4  0  0  0
 15 12  1  0  0  0
 13 14  4  0  0  0
 16 15  1  0  0  0
 17 16  1  0  0  0
 16 22  1  0  0  0
 18 17  1  0  0  0
 18 31  2  0  0  0
 18 32  2  0  0  0
 36 18  1  0  0  0
 20 19  4  0  0  0
 21 19  4  0  0  0
 19 24  1  0  0  0
 23 20  4  0  0  0
 22 21  4  0  0  0
 22 23  4  0  0  0
 24 28  1  0  0  0
 26 25  4  0  0  0
 30 25  4  0  0  0
 27 26  4  0  0  0
 28 27  4  0  0  0
 28 29  4  0  0  0
 29 30  4  0  0  0
 33 34  4  0  0  0
 35 33  4  0  0  0
 34 38  4  0  0  0
 35 36  4  0  0  0
 36 37  4  0  0  0
 37 38  4  0  0  0
 38 39  1  0  0  0
 39 40  1  0  0  0
 39 41  1  0  0  0
 39 42  1  0  0  0
  1 43  1  0  0  0
  2 44  1  0  0  0
  2 45  1  0  0  0
  4 46  1  0  0  0
 10 47  1  0  0  0
 11 48  1  0  0  0
 13 49  1  0  0  0
 14 50  1  0  0  0
 15 51  1  0  0  0
 15 52  1  0  0  0
 16 53  1  0  0  0
 17 54  1  0  0  0
 20 55  1  0  0  0
 24 56  1  0  0  0
 24 57  1  0  0  0
 25 58  1  0  0  0
 26 59  1  0  0  0
 27 60  1  0  0  0
 29 61  1  0  0  0
 30 62  1  0  0  0
 33 63  1  0  0  0
 34 64  1  0  0  0
 35 65  1  0  0  0
 37 66  1  0  0  0
M  END
$$$$
