5jer_ligand
  -I-interpret- 

165165  0  0  0  0  0  0  0  0999 V2000
  136.6200  415.9310    2.7930 N   0  3  0  0  0
  137.6500  415.8500    3.8180 C   0  0  0  0  0
  138.6440  414.7360    3.5240 C   0  0  0  0  0
  138.4150  413.5800    3.8870 O   0  0  0  0  0
  137.0180  415.6400    5.1960 C   0  0  0  0  0
  137.6050  416.5400    6.2670 C   0  0  0  0  0
  137.9070  417.9330    5.7440 C   0  0  0  0  0
  139.1010  418.2570    5.5820 O   0  0  0  0  0
  136.9550  418.7020    5.4920 O   0  0  0  0  0
  139.7320  415.1020    2.8490 N   0  0  0  0  0
  140.8610  414.2110    2.5920 C   0  0  0  0  0
  142.1200  414.8600    3.1730 C   0  0  0  0  0
  142.1570  416.0780    3.3570 O   0  0  0  0  0
  141.0120  413.9330    1.0910 C   0  0  0  0  0
  141.0270  415.1700    0.1880 C   0  0  0  0  0
  142.4220  415.5280   -0.2920 C   0  0  0  0  0
  142.8520  416.6830   -0.0790 O   0  0  0  0  0
  143.0850  414.6530   -0.8890 O   0  0  0  0  0
  143.1390  414.0650    3.4870 N   0  0  0  0  0
  144.3110  414.6150    4.1590 C   0  0  0  0  0
  145.6380  414.2500    3.4830 C   0  0  0  0  0
  145.9690  413.0730    3.3110 O   0  0  0  0  0
  144.3270  414.1670    5.6280 C   0  0  0  0  0
  143.1400  414.6440    6.4240 C   0  0  0  0  0
  143.1250  415.9170    6.9780 C   0  0  0  0  0
  142.0420  413.8180    6.6240 C   0  0  0  0  0
  142.0320  416.3610    7.7130 C   0  0  0  0  0
  140.9470  414.2530    7.3580 C   0  0  0  0  0
  140.9460  415.5260    7.8990 C   0  0  0  0  0
  146.3850  415.2840    3.1000 N   0  0  0  0  0
  147.7170  415.1220    2.5260 C   0  0  0  0  0
  148.7640  415.4470    3.5870 C   0  0  0  0  0
  149.0770  416.6180    3.8320 O   0  0  0  0  0
  147.9000  416.0140    1.2920 C   0  0  0  0  0
  146.7620  415.9250    0.2820 C   0  0  0  0  0
  147.1550  416.4080   -1.1010 C   0  0  0  0  0
  146.6150  417.4370   -1.5480 O   0  0  0  0  0
  147.9880  415.7440   -1.7460 O   0  0  0  0  0
  149.2920  414.3970    4.2150 N   0  0  0  0  0
  150.2420  414.5430    5.3110 C   0  0  0  0  0
  151.6560  414.7880    4.7870 C   0  0  0  0  0
  152.2790  413.8910    4.2140 O   0  0  0  0  0
  150.2070  413.3020    6.2190 C   0  0  0  0  0
  148.8860  413.0090    6.9290 C   0  0  0  0  0
  148.9740  411.8140    7.8730 C   0  0  0  0  0
  148.4300  414.2340    7.6870 C   0  0  0  0  0
  152.1530  416.0080    4.9870 N   0  0  0  0  0
  153.5160  416.3430    4.5990 C   0  0  0  0  0
  154.4990  415.7740    5.6160 C   0  0  0  0  0
  155.2450  416.5110    6.2630 O   0  0  0  0  0
  153.6850  417.8590    4.4520 C   0  0  0  0  0
  152.8510  418.4960    3.3440 C   0  0  0  0  0
  153.2350  419.9440    3.1010 C   0  0  0  0  0
  152.9760  417.6940    2.0610 C   0  0  0  0  0
  154.4780  414.4500    5.7510 N   0  0  0  0  0
  155.3960  413.7410    6.6310 C   0  0  0  0  0
  156.5130  413.1560    5.7840 C   0  0  0  0  0
  156.2590  412.3230    4.9110 O   0  0  0  0  0
  154.6890  412.6330    7.4090 C   0  0  0  0  0
  153.7090  413.2380    8.4160 C   0  0  0  0  0
  155.7080  411.7590    8.1170 C   0  0  0  0  0
  152.6670  412.2700    8.9200 C   0  0  0  0  0
  157.7440  413.5950    6.0220 N   0  0  0  0  0
  158.8250  413.2130    5.1320 C   0  0  0  0  0
  159.7760  412.2300    5.7970 C   0  0  0  0  0
  160.5630  412.5980    6.6750 O   0  0  0  0  0
  159.5830  414.4490    4.6480 C   0  0  0  0  0
  159.7820  414.3910    3.2470 O   0  0  0  0  0
  159.6960  410.9850    5.3330 N   0  0  0  0  0
  160.4070  409.8510    5.9040 C   0  0  0  0  0
  161.5950  409.3910    5.0460 C   0  0  0  0  0
  161.8740  409.9800    4.0000 O   0  0  0  0  0
  159.4290  408.6930    6.1180 C   0  0  0  0  0
  158.6370  408.3300    4.8560 C   0  0  0  0  0
  158.5740  409.0940    3.8920 O   0  0  0  0  0
  158.0160  407.1520    4.8770 N   0  0  0  0  0
  162.2920  408.3540    5.5160 N   0  0  0  0  0
  163.4620  407.7550    4.8490 C   0  0  0  0  0
  164.7030  408.6460    4.8290 C   0  0  0  0  0
  165.7310  408.2770    4.2590 O   0  0  0  0  0
  163.1210  407.3390    3.4180 C   0  0  0  0  0
  162.7860  405.9580    3.3880 O   0  0  0  0  0
  164.6940  409.7470    5.3830 O   0  0  0  0  0
  137.0582  416.0708    1.8826 H   0  0  0  0  0
  136.0826  415.0641    2.7835 H   0  0  0  0  0
  135.9998  416.7147    2.9971 H   0  0  0  0  0
  138.1930  416.7951    3.8147 H   0  0  0  0  0
  137.2070  414.6081    5.4920 H   0  0  0  0  0
  135.9571  415.8757    5.1119 H   0  0  0  0  0
  138.5402  416.0958    6.6079 H   0  0  0  0  0
  136.8747  416.6308    7.0711 H   0  0  0  0  0
  136.1263  418.2578    5.6858 H   0  0  0  0  0
  139.7798  416.0563    2.4920 H   0  0  0  0  0
  140.6935  413.2462    3.0708 H   0  0  0  0  0
  140.1432  413.3445    0.7960 H   0  0  0  0  0
  141.9774  413.4436    0.9621 H   0  0  0  0  0
  140.6459  416.0114    0.7667 H   0  0  0  0  0
  140.4171  414.9518   -0.6887 H   0  0  0  0  0
  142.1857  417.1897    0.3911 H   0  0  0  0  0
  143.1010  413.0717    3.2581 H   0  0  0  0  0
  144.2244  415.6996    4.0933 H   0  0  0  0  0
  145.2185  414.5937    6.0876 H   0  0  0  0  0
  144.3056  413.0772    5.6351 H   0  0  0  0  0
  143.9810  416.5764    6.8348 H   0  0  0  0  0
  142.0398  412.8143    6.1989 H   0  0  0  0  0
  142.0311  417.3635    8.1410 H   0  0  0  0  0
  140.0916  413.5942    7.5074 H   0  0  0  0  0
  140.0866  415.8717    8.4735 H   0  0  0  0  0
  146.0114  416.2264    3.2123 H   0  0  0  0  0
  147.8392  414.0885    2.2018 H   0  0  0  0  0
  148.8059  415.6805    0.7858 H   0  0  0  0  0
  147.9380  417.0451    1.6434 H   0  0  0  0  0
  145.9526  416.5624    0.6379 H   0  0  0  0  0
  146.4751  414.8768    0.1977 H   0  0  0  0  0
  148.2761  414.9952   -1.2188 H   0  0  0  0  0
  149.0222  413.4590    3.9187 H   0  0  0  0  0
  149.9494  415.4130    5.8989 H   0  0  0  0  0
  150.9374  413.4855    7.0070 H   0  0  0  0  0
  150.3941  412.4480    5.5680 H   0  0  0  0  0
  148.1581  412.7520    6.1595 H   0  0  0  0  0
  149.2525  410.9251    7.3069 H   0  0  0  0  0
  149.7265  412.0105    8.6367 H   0  0  0  0  0
  148.0056  411.6554    8.3476 H   0  0  0  0  0
  149.1847  414.5045    8.4255 H   0  0  0  0  0
  148.2897  415.0599    6.9896 H   0  0  0  0  0
  147.4878  414.0181    8.1907 H   0  0  0  0  0
  151.5670  416.7215    5.4205 H   0  0  0  0  0
  153.7259  415.8953    3.6276 H   0  0  0  0  0
  154.7307  418.0363    4.2005 H   0  0  0  0  0
  153.3552  418.3050    5.3903 H   0  0  0  0  0
  151.8119  418.4860    3.6730 H   0  0  0  0  0
  153.0812  420.5176    4.0150 H   0  0  0  0  0
  154.2841  419.9964    2.8099 H   0  0  0  0  0
  152.6146  420.3543    2.3042 H   0  0  0  0  0
  154.0205  417.6684    1.7503 H   0  0  0  0  0
  152.6219  416.6776    2.2334 H   0  0  0  0  0
  152.3751  418.1621    1.2814 H   0  0  0  0  0
  153.7939  413.9125    5.2186 H   0  0  0  0  0
  155.7979  414.4410    7.3636 H   0  0  0  0  0
  154.1278  412.0134    6.7095 H   0  0  0  0  0
  153.1807  414.0443    7.9072 H   0  0  0  0  0
  154.2918  413.5620    9.2782 H   0  0  0  0  0
  156.3740  411.3099    7.3802 H   0  0  0  0  0
  156.2885  412.3683    8.8098 H   0  0  0  0  0
  155.1908  410.9733    8.6677 H   0  0  0  0  0
  152.0781  411.9021    8.0798 H   0  0  0  0  0
  153.1596  411.4327    9.4143 H   0  0  0  0  0
  152.0132  412.7784    9.6287 H   0  0  0  0  0
  157.9283  414.1965    6.8249 H   0  0  0  0  0
  158.3829  412.7133    4.2701 H   0  0  0  0  0
  160.5536  414.4856    5.1426 H   0  0  0  0  0
  158.9997  415.3384    4.8866 H   0  0  0  0  0
  160.2586  415.1733    2.9600 H   0  0  0  0  0
  159.0975  410.8148    4.5248 H   0  0  0  0  0
  160.8231  410.1762    6.8575 H   0  0  0  0  0
  158.7131  409.0018    6.8798 H   0  0  0  0  0
  160.0114  407.8177    6.4056 H   0  0  0  0  0
  157.4623  406.8530    4.0742 H   0  0  0  0  0
  158.0941  406.5488    5.6958 H   0  0  0  0  0
  161.9929  407.9462    6.4018 H   0  0  0  0  0
  163.7108  406.8824    5.4530 H   0  0  0  0  0
  163.9831  407.5159    2.7749 H   0  0  0  0  0
  162.2726  407.9245    3.0638 H   0  0  0  0  0
  162.5727  405.7011    2.4879 H   0  0  0  0  0
  163.8332  409.8968    5.7807 H   0  0  0  0  0
  1  2  1  0  0  0
  2  3  1  0  0  0
  2  5  1  0  0  0
  3  4  2  0  0  0
  3 10  1  0  0  0
  5  6  1  0  0  0
  6  7  1  0  0  0
  7  8  2  0  0  0
  7  9  1  0  0  0
 10 11  1  0  0  0
 11 12  1  0  0  0
 11 14  1  0  0  0
 12 13  2  0  0  0
 12 19  1  0  0  0
 14 15  1  0  0  0
 15 16  1  0  0  0
 16 17  1  0  0  0
 16 18  2  0  0  0
 19 20  1  0  0  0
 20 21  1  0  0  0
 20 23  1  0  0  0
 21 22  2  0  0  0
 21 30  1  0  0  0
 23 24  1  0  0  0
 24 25  4  0  0  0
 24 26  4  0  0  0
 25 27  4  0  0  0
 26 28  4  0  0  0
 27 29  4  0  0  0
 28 29  4  0  0  0
 30 31  1  0  0  0
 31 32  1  0  0  0
 31 34  1  0  0  0
 32 33  2  0  0  0
 32 39  1  0  0  0
 34 35  1  0  0  0
 35 36  1  0  0  0
 36 37  2  0  0  0
 36 38  1  0  0  0
 39 40  1  0  0  0
 40 41  1  0  0  0
 40 43  1  0  0  0
 41 42  2  0  0  0
 41 47  1  0  0  0
 43 44  1  0  0  0
 44 45  1  0  0  0
 44 46  1  0  0  0
 47 48  1  0  0  0
 48 49  1  0  0  0
 48 51  1  0  0  0
 49 50  2  0  0  0
 49 55  1  0  0  0
 51 52  1  0  0  0
 52 53  1  0  0  0
 52 54  1  0  0  0
 55 56  1  0  0  0
 56 57  1  0  0  0
 56 59  1  0  0  0
 57 58  2  0  0  0
 57 63  1  0  0  0
 59 60  1  0  0  0
 59 61  1  0  0  0
 60 62  1  0  0  0
 63 64  1  0  0  0
 64 65  1  0  0  0
 64 67  1  0  0  0
 65 66  2  0  0  0
 65 69  1  0  0  0
 67 68  1  0  0  0
 69 70  1  0  0  0
 70 71  1  0  0  0
 70 73  1  0  0  0
 71 72  2  0  0  0
 71 77  1  0  0  0
 73 74  1  0  0  0
 74 75  2  0  0  0
 74 76  1  0  0  0
 77 78  1  0  0  0
 78 79  1  0  0  0
 78 81  1  0  0  0
 79 80  2  0  0  0
 79 83  1  0  0  0
 81 82  1  0  0  0
  1 84  1  0  0  0
  1 85  1  0  0  0
  1 86  1  0  0  0
  2 87  1  0  0  0
  5 88  1  0  0  0
  5 89  1  0  0  0
  6 90  1  0  0  0
  6 91  1  0  0  0
  9 92  1  0  0  0
 10 93  1  0  0  0
 11 94  1  0  0  0
 14 95  1  0  0  0
 14 96  1  0  0  0
 15 97  1  0  0  0
 15 98  1  0  0  0
 17 99  1  0  0  0
 19100  1  0  0  0
 20101  1  0  0  0
 23102  1  0  0  0
 23103  1  0  0  0
 25104  1  0  0  0
 26105  1  0  0  0
 27106  1  0  0  0
 28107  1  0  0  0
 29108  1  0  0  0
 30109  1  0  0  0
 31110  1  0  0  0
 34111  1  0  0  0
 34112  1  0  0  0
 35113  1  0  0  0
 35114  1  0  0  0
 38115  1  0  0  0
 39116  1  0  0  0
 40117  1  0  0  0
 43118  1  0  0  0
 43119  1  0  0  0
 44120  1  0  0  0
 45121  1  0  0  0
 45122  1  0  0  0
 45123  1  0  0  0
 46124  1  0  0  0
 46125  1  0  0  0
 46126  1  0  0  0
 47127  1  0  0  0
 48128  1  0  0  0
 51129  1  0  0  0
 51130  1  0  0  0
 52131  1  0  0  0
 53132  1  0  0  0
 53133  1  0  0  0
 53134  1  0  0  0
 54135  1  0  0  0
 54136  1  0  0  0
 54137  1  0  0  0
 55138  1  0  0  0
 56139  1  0  0  0
 59140  1  0  0  0
 60141  1  0  0  0
 60142  1  0  0  0
 61143  1  0  0  0
 61144  1  0  0  0
 61145  1  0  0  0
 62146  1  0  0  0
 62147  1  0  0  0
 62148  1  0  0  0
 63149  1  0  0  0
 64150  1  0  0  0
 67151  1  0  0  0
 67152  1  0  0  0
 68153  1  0  0  0
 69154  1  0  0  0
 70155  1  0  0  0
 73156  1  0  0  0
 73157  1  0  0  0
 76158  1  0  0  0
 76159  1  0  0  0
 77160  1  0  0  0
 78161  1  0  0  0
 81162  1  0  0  0
 81163  1  0  0  0
 82164  1  0  0  0
 83165  1  0  0  0
M  END
$$$$
