### 
### Created by X-TOOL on Mon Sep 10 21:13:29 2018
### 

@<TRIPOS>MOLECULE
5jer_ligand
  161   161     1     0     0
SMALL
GAST_HUCK


@<TRIPOS>ATOM
      1 N         136.6200  415.9310    2.7930 N.4       1 GLU         0.2380
      2 CA        137.6500  415.8500    3.8180 C.3       1 GLU         0.0665
      3 C         138.6440  414.7360    3.5240 C.2       1 GLU         0.2268
      4 O         138.4150  413.5800    3.8870 O.2       1 GLU        -0.3907
      5 CB        137.0180  415.6400    5.1960 C.3       1 GLU         0.0194
      6 CG        137.6050  416.5400    6.2670 C.3       1 GLU         0.0075
      7 CD        137.9070  417.9330    5.7440 C.2       1 GLU         0.0351
      8 OE1       139.1010  418.2570    5.5820 O.co2     1 GLU        -0.5690
      9 OE2       136.9550  418.7020    5.4920 O.co2     1 GLU        -0.5690
     10 N         139.7320  415.1020    2.8490 N.am      1 GLU        -0.2609
     11 CA        140.8610  414.2110    2.5920 C.3       1 GLU         0.1326
     12 C         142.1200  414.8600    3.1730 C.2       1 GLU         0.2041
     13 O         142.1570  416.0780    3.3570 O.2       1 GLU        -0.3944
     14 CB        141.0120  413.9330    1.0910 C.3       1 GLU        -0.0008
     15 CG        141.0270  415.1700    0.1880 C.3       1 GLU         0.0044
     16 CD        142.4220  415.5280   -0.2920 C.2       1 GLU         0.0350
     17 OE1       142.8520  416.6830   -0.0790 O.co2     1 GLU        -0.5690
     18 OE2       143.0850  414.6530   -0.8890 O.co2     1 GLU        -0.5690
     19 N         143.1390  414.0650    3.4870 N.am      1 PHE        -0.2619
     20 CA        144.3110  414.6150    4.1590 C.3       1 PHE         0.1404
     21 C         145.6380  414.2500    3.4830 C.2       1 PHE         0.2060
     22 O         145.9690  413.0730    3.3110 O.2       1 PHE        -0.3942
     23 CB        144.3270  414.1670    5.6280 C.3       1 PHE         0.0214
     24 CG        143.1400  414.6440    6.4240 C.ar      1 PHE        -0.0386
     25 CD1       143.1250  415.9170    6.9780 C.ar      1 PHE        -0.0601
     26 CD2       142.0420  413.8180    6.6240 C.ar      1 PHE        -0.0601
     27 CE1       142.0320  416.3610    7.7130 C.ar      1 PHE        -0.0686
     28 CE2       140.9470  414.2530    7.3580 C.ar      1 PHE        -0.0686
     29 CZ        140.9460  415.5260    7.8990 C.ar      1 PHE        -0.0687
     30 N         146.3850  415.2840    3.1000 N.am      1 GLU        -0.2635
     31 CA        147.7170  415.1220    2.5260 C.3       1 GLU         0.1325
     32 C         148.7640  415.4470    3.5870 C.2       1 GLU         0.2040
     33 O         149.0770  416.6180    3.8320 O.2       1 GLU        -0.3944
     34 CB        147.9000  416.0140    1.2920 C.3       1 GLU        -0.0008
     35 CG        146.7620  415.9250    0.2820 C.3       1 GLU         0.0044
     36 CD        147.1550  416.4080   -1.1010 C.2       1 GLU         0.0350
     37 OE1       146.6150  417.4370   -1.5480 O.co2     1 GLU        -0.5690
     38 OE2       147.9880  415.7440   -1.7460 O.co2     1 GLU        -0.5690
     39 N         149.2920  414.3970    4.2150 N.am      1 LEU        -0.2637
     40 CA        150.2420  414.5430    5.3110 C.3       1 LEU         0.1312
     41 C         151.6560  414.7880    4.7870 C.2       1 LEU         0.2039
     42 O         152.2790  413.8910    4.2140 O.2       1 LEU        -0.3944
     43 CB        150.2070  413.3020    6.2190 C.3       1 LEU        -0.0101
     44 CG        148.8860  413.0090    6.9290 C.3       1 LEU        -0.0425
     45 CD1       148.9740  411.8140    7.8730 C.3       1 LEU        -0.0625
     46 CD2       148.4300  414.2340    7.6870 C.3       1 LEU        -0.0625
     47 N         152.1530  416.0080    4.9870 N.am      1 LEU        -0.2637
     48 CA        153.5160  416.3430    4.5990 C.3       1 LEU         0.1312
     49 C         154.4990  415.7740    5.6160 C.2       1 LEU         0.2039
     50 O         155.2450  416.5110    6.2630 O.2       1 LEU        -0.3944
     51 CB        153.6850  417.8590    4.4520 C.3       1 LEU        -0.0101
     52 CG        152.8510  418.4960    3.3440 C.3       1 LEU        -0.0425
     53 CD1       153.2350  419.9440    3.1010 C.3       1 LEU        -0.0625
     54 CD2       152.9760  417.6940    2.0610 C.3       1 LEU        -0.0625
     55 N         154.4780  414.4500    5.7510 N.am      1 ILE        -0.2635
     56 CA        155.3960  413.7410    6.6310 C.3       1 ILE         0.1335
     57 C         156.5130  413.1560    5.7840 C.2       1 ILE         0.2042
     58 O         156.2590  412.3230    4.9110 O.2       1 ILE        -0.3944
     59 CB        154.6890  412.6330    7.4090 C.3       1 ILE        -0.0037
     60 CG1       153.7090  413.2380    8.4160 C.3       1 ILE        -0.0491
     61 CG2       155.7080  411.7590    8.1170 C.3       1 ILE        -0.0582
     62 CD1       152.6670  412.2700    8.9200 C.3       1 ILE        -0.0648
     63 N         157.7440  413.5950    6.0220 N.am      1 SER        -0.2616
     64 CA        158.8250  413.2130    5.1320 C.3       1 SER         0.1539
     65 C         159.7760  412.2300    5.7970 C.2       1 SER         0.2063
     66 O         160.5630  412.5980    6.6750 O.2       1 SER        -0.3943
     67 CB        159.5830  414.4490    4.6480 C.3       1 SER         0.0843
     68 OG        159.7820  414.3910    3.2470 O.3       1 SER        -0.3903
     69 N         159.6960  410.9850    5.3330 N.am      1 ASN        -0.2615
     70 CA        160.4070  409.8510    5.9040 C.3       1 ASN         0.1475
     71 C         161.5950  409.3910    5.0460 C.2       1 ASN         0.2058
     72 O         161.8740  409.9800    4.0000 O.2       1 ASN        -0.3942
     73 CB        159.4290  408.6930    6.1180 C.3       1 ASN         0.0773
     74 CG        158.6370  408.3300    4.8560 C.2       1 ASN         0.1780
     75 OD1       158.5740  409.0940    3.8920 O.2       1 ASN        -0.3970
     76 ND2       158.0160  407.1520    4.8770 N.am      1 ASN        -0.3007
     77 N         162.2920  408.3540    5.5160 N.am      1 SER        -0.2671
     78 CA        163.4620  407.7550    4.8490 C.3       1 SER         0.1173
     79 C         164.7030  408.6460    4.8290 C.2       1 SER         0.0623
     80 O         165.7310  408.2770    4.2590 O.co2     1 SER        -0.5665
     81 CB        163.1210  407.3390    3.4180 C.3       1 SER         0.0789
     82 OG        162.7860  405.9580    3.3880 O.3       1 SER        -0.3910
     83 OXT       164.6940  409.7470    5.3830 O.co2     1 SER        -0.5665
     84 H1        135.9802  416.6768    3.0178 H         1 GLU         0.2015
     85 H2        136.1175  415.0582    2.7519 H         1 GLU         0.2015
     86 H3        137.0489  416.1142    1.8994 H         1 GLU         0.2015
     87 H4        138.1972  416.8042    3.8289 H         1 GLU         0.1099
     88 H5        137.1732  414.5931    5.4958 H         1 GLU         0.0363
     89 H6        135.9397  415.8439    5.1207 H         1 GLU         0.0363
     90 H7        138.5387  416.0899    6.6352 H         1 GLU         0.0434
     91 H8        136.8855  416.6209    7.0951 H         1 GLU         0.0434
     92 H9        139.7788  416.0376    2.4990 H         1 GLU         0.1885
     93 H10       140.6852  413.2537    3.1045 H         1 GLU         0.0801
     94 H11       140.1716  413.2958    0.7784 H         1 GLU         0.0330
     95 H12       141.9580  413.3923    0.9402 H         1 GLU         0.0330
     96 H13       140.6193  416.0221    0.7516 H         1 GLU         0.0433
     97 H14       140.3928  414.9733   -0.6890 H         1 GLU         0.0433
     98 H15       143.1017  413.0912    3.2626 H         1 PHE         0.1885
     99 H16       144.2205  415.7110    4.1356 H         1 PHE         0.0823
    100 H17       145.2404  414.5585    6.0997 H         1 PHE         0.0474
    101 H18       144.3428  413.0675    5.6548 H         1 PHE         0.0474
    102 H19       143.9763  416.5728    6.8356 H         1 PHE         0.0557
    103 H20       142.0398  412.8198    6.2012 H         1 PHE         0.0557
    104 H21       142.0311  417.3579    8.1386 H         1 PHE         0.0599
    105 H22       140.0963  413.5978    7.5066 H         1 PHE         0.0599
    106 H23       140.0914  415.8698    8.4704 H         1 PHE         0.0559
    107 H24       146.0187  416.2080    3.2101 H         1 GLU         0.1883
    108 H25       147.8414  414.0737    2.2167 H         1 GLU         0.0801
    109 H26       148.8321  415.7187    0.7881 H         1 GLU         0.0330
    110 H27       147.9805  417.0578    1.6298 H         1 GLU         0.0330
    111 H28       145.9247  416.5403    0.6429 H         1 GLU         0.0433
    112 H29       146.4407  414.8756    0.2081 H         1 GLU         0.0433
    113 H30       149.0275  413.4774    3.9245 H         1 LEU         0.1883
    114 H31       149.9433  415.4163    5.9094 H         1 LEU         0.0800
    115 H32       150.9790  413.4322    6.9916 H         1 LEU         0.0315
    116 H33       150.4530  412.4277    5.5985 H         1 LEU         0.0315
    117 H34       148.1343  412.7761    6.1604 H         1 LEU         0.0298
    118 H35       147.9973  411.6529    8.3526 H         1 LEU         0.0232
    119 H36       149.7331  412.0111    8.6443 H         1 LEU         0.0232
    120 H37       149.2550  410.9162    7.3029 H         1 LEU         0.0232
    121 H38       148.3696  415.0898    6.9985 H         1 LEU         0.0232
    122 H39       149.1494  414.4582    8.4884 H         1 LEU         0.0232
    123 H40       147.4390  414.0459    8.1258 H         1 LEU         0.0232
    124 H41       151.5785  416.7075    5.4120 H         1 LEU         0.1883
    125 H42       153.7223  415.8800    3.6228 H         1 LEU         0.0800
    126 H43       154.7450  418.0656    4.2430 H         1 LEU         0.0315
    127 H44       153.4010  418.3282    5.4055 H         1 LEU         0.0315
    128 H45       151.7978  418.4752    3.6606 H         1 LEU         0.0298
    129 H46       152.6095  420.3592    2.2970 H         1 LEU         0.0232
    130 H47       154.2936  419.9983    2.8070 H         1 LEU         0.0232
    131 H48       153.0802  420.5241    4.0227 H         1 LEU         0.0232
    132 H49       152.6946  416.6482    2.2535 H         1 LEU         0.0232
    133 H50       154.0154  417.7341    1.7033 H         1 LEU         0.0232
    134 H51       152.3085  418.1185    1.2967 H         1 LEU         0.0232
    135 H52       153.8073  413.9231    5.2290 H         1 ILE         0.1883
    136 H53       155.8234  414.4552    7.3502 H         1 ILE         0.0803
    137 H54       154.1240  412.0098    6.7002 H         1 ILE         0.0345
    138 H55       153.1927  414.0802    7.9322 H         1 ILE         0.0267
    139 H56       154.2836  413.6067    9.2784 H         1 ILE         0.0267
    140 H57       156.4028  411.3336    7.3779 H         1 ILE         0.0235
    141 H58       155.1894  410.9445    8.6440 H         1 ILE         0.0235
    142 H59       156.2704  412.3654    8.8422 H         1 ILE         0.0235
    143 H60       152.0065  412.7819    9.6353 H         1 ILE         0.0230
    144 H61       153.1629  411.4245    9.4192 H         1 ILE         0.0230
    145 H62       152.0719  411.8980    8.0730 H         1 ILE         0.0230
    146 H63       157.9247  414.1847    6.8091 H         1 SER         0.1884
    147 H64       158.3831  412.7169    4.2553 H         1 SER         0.0823
    148 H65       160.5602  414.4945    5.1509 H         1 SER         0.0606
    149 H66       159.0016  415.3498    4.8941 H         1 SER         0.0606
    150 H67       160.2536  415.1652    2.9629 H         1 SER         0.2097
    151 H68       159.1092  410.8181    4.5406 H         1 ASN         0.1885
    152 H69       160.8013  410.1587    6.8837 H         1 ASN         0.0826
    153 H70       158.7177  408.9775    6.9073 H         1 ASN         0.0551
    154 H71       159.9990  407.8088    6.4393 H         1 ASN         0.0551
    155 H72       157.4818  406.8542    4.0858 H         1 ASN         0.1814
    156 H73       158.0839  406.5653    5.6840 H         1 ASN         0.1814
    157 H74       161.9988  407.9542    6.3844 H         1 SER         0.1876
    158 H75       163.7215  406.8471    5.4131 H         1 SER         0.0749
    159 H76       163.9900  407.5187    2.7679 H         1 SER         0.0599
    160 H77       162.2659  407.9306    3.0590 H         1 SER         0.0599
    161 H78       162.5749  405.7038    2.4973 H         1 SER         0.2096
@<TRIPOS>BOND
     1    1    2 1  
     2    2    3 1  
     3    2    5 1  
     4    3    4 2  
     5    3   10 am 
     6    5    6 1  
     7    6    7 1  
     8    7    8 ar 
     9    7    9 ar 
    10   10   11 1  
    11   11   12 1  
    12   11   14 1  
    13   12   13 2  
    14   12   19 am 
    15   14   15 1  
    16   15   16 1  
    17   16   17 ar 
    18   16   18 ar 
    19   19   20 1  
    20   20   21 1  
    21   20   23 1  
    22   21   22 2  
    23   21   30 am 
    24   23   24 1  
    25   24   25 ar 
    26   24   26 ar 
    27   25   27 ar 
    28   26   28 ar 
    29   27   29 ar 
    30   28   29 ar 
    31   30   31 1  
    32   31   32 1  
    33   31   34 1  
    34   32   33 2  
    35   32   39 am 
    36   34   35 1  
    37   35   36 1  
    38   36   37 ar 
    39   36   38 ar 
    40   39   40 1  
    41   40   41 1  
    42   40   43 1  
    43   41   42 2  
    44   41   47 am 
    45   43   44 1  
    46   44   45 1  
    47   44   46 1  
    48   47   48 1  
    49   48   49 1  
    50   48   51 1  
    51   49   50 2  
    52   49   55 am 
    53   51   52 1  
    54   52   53 1  
    55   52   54 1  
    56   55   56 1  
    57   56   57 1  
    58   56   59 1  
    59   57   58 2  
    60   57   63 am 
    61   59   60 1  
    62   59   61 1  
    63   60   62 1  
    64   63   64 1  
    65   64   65 1  
    66   64   67 1  
    67   65   66 2  
    68   65   69 am 
    69   67   68 1  
    70   69   70 1  
    71   70   71 1  
    72   70   73 1  
    73   71   72 2  
    74   71   77 am 
    75   73   74 1  
    76   74   75 2  
    77   74   76 am 
    78   77   78 1  
    79   78   79 1  
    80   78   81 1  
    81   79   80 ar 
    82   79   83 ar 
    83   81   82 1  
    84    1   84 1  
    85    1   85 1  
    86    1   86 1  
    87    2   87 1  
    88    5   88 1  
    89    5   89 1  
    90    6   90 1  
    91    6   91 1  
    92   10   92 1  
    93   11   93 1  
    94   14   94 1  
    95   14   95 1  
    96   15   96 1  
    97   15   97 1  
    98   19   98 1  
    99   20   99 1  
   100   23  100 1  
   101   23  101 1  
   102   25  102 1  
   103   26  103 1  
   104   27  104 1  
   105   28  105 1  
   106   29  106 1  
   107   30  107 1  
   108   31  108 1  
   109   34  109 1  
   110   34  110 1  
   111   35  111 1  
   112   35  112 1  
   113   39  113 1  
   114   40  114 1  
   115   43  115 1  
   116   43  116 1  
   117   44  117 1  
   118   45  118 1  
   119   45  119 1  
   120   45  120 1  
   121   46  121 1  
   122   46  122 1  
   123   46  123 1  
   124   47  124 1  
   125   48  125 1  
   126   51  126 1  
   127   51  127 1  
   128   52  128 1  
   129   53  129 1  
   130   53  130 1  
   131   53  131 1  
   132   54  132 1  
   133   54  133 1  
   134   54  134 1  
   135   55  135 1  
   136   56  136 1  
   137   59  137 1  
   138   60  138 1  
   139   60  139 1  
   140   61  140 1  
   141   61  141 1  
   142   61  142 1  
   143   62  143 1  
   144   62  144 1  
   145   62  145 1  
   146   63  146 1  
   147   64  147 1  
   148   67  148 1  
   149   67  149 1  
   150   68  150 1  
   151   69  151 1  
   152   70  152 1  
   153   73  153 1  
   154   73  154 1  
   155   76  155 1  
   156   76  156 1  
   157   77  157 1  
   158   78  158 1  
   159   81  159 1  
   160   81  160 1  
   161   82  161 1  
@<TRIPOS>SUBSTRUCTURE
     1 GLU         1

