5vcy_ligand
  -I-interpret- 

 67 70  0  0  0  0  0  0  0  0999 V2000
  -14.9280   -5.9220   -1.6360 C   0  0  0  0  0
  -20.8190    0.2520   -5.2570 O   0  0  0  0  0
   -9.3770   -4.3760   -1.9880 C   0  0  0  0  0
  -19.5620    1.3350   -1.6620 N   0  0  0  0  0
  -23.3790   -0.1620   -3.8950 Cl  0  0  0  0  0
  -20.5270   -2.9280   -0.2990 Cl  0  0  0  0  0
  -18.6230    0.8760   -1.6400 C   0  0  0  0  0
  -16.1230    0.9670   -1.6240 C   0  0  0  0  0
  -21.8020   -1.5220   -2.2100 C   0  0  0  0  0
  -19.4820   -1.0340   -3.6340 C   0  0  0  0  0
  -13.2720   -1.3320   -1.5970 C   0  0  0  0  0
  -15.4090   -3.1890   -1.8140 C   0  0  0  0  0
   -9.4800   -3.2990   -0.9060 C   0  0  0  0  0
  -10.6940   -2.4070   -1.1750 C   0  0  0  0  0
   -5.0650   -8.0180   -1.5870 C   0  0  0  0  0
   -8.1280   -6.2400   -2.7810 C   0  0  0  0  0
   -7.5830   -5.3480   -0.6410 C   0  0  0  0  0
   -6.8290   -7.0170   -2.8330 C   0  0  0  0  0
   -6.2810   -6.1130   -0.7600 C   0  0  0  0  0
  -14.8380    0.4790   -1.6120 N   0  0  0  0  0
  -18.1700   -2.2410   -1.9090 N   0  0  0  0  0
  -13.8850   -5.0330   -1.7850 O   0  0  0  0  0
  -11.7030   -3.2480   -1.5870 O   0  0  0  0  0
  -20.7450   -0.4980   -4.1140 C   0  0  0  0  0
  -21.8730   -0.7690   -3.3780 C   0  0  0  0  0
  -20.5920   -2.0290   -1.7480 C   0  0  0  0  0
  -17.2530    0.1610   -1.6940 C   0  0  0  0  0
  -19.4050   -1.7810   -2.4840 C   0  0  0  0  0
  -14.1070   -3.6440   -1.7600 C   0  0  0  0  0
  -13.0500   -2.7160   -1.6550 C   0  0  0  0  0
  -17.0590   -1.2460   -1.7690 C   0  0  0  0  0
  -14.6300   -0.8770   -1.6600 C   0  0  0  0  0
  -15.7060   -1.7730   -1.7630 C   0  0  0  0  0
   -8.0650   -5.0370   -1.9500 N   0  3  0  0  0
   -6.3560   -7.3270   -1.5140 N   0  3  0  0  0
  -19.6340    0.6170   -5.9980 C   0  0  0  0  0
  -15.4077   -5.7589   -0.6709 H   0  0  0  0  0
  -15.6533   -5.7664   -2.4346 H   0  0  0  0  0
  -14.5448   -6.9412   -1.6850 H   0  0  0  0  0
   -9.5033   -3.9053   -2.9630 H   0  0  0  0  0
  -10.1504   -5.1236   -1.8120 H   0  0  0  0  0
  -16.2636    2.0468   -1.5759 H   0  0  0  0  0
  -22.7135   -1.7186   -1.6455 H   0  0  0  0  0
  -18.5723   -0.8380   -4.2015 H   0  0  0  0  0
  -12.4435   -0.6294   -1.5074 H   0  0  0  0  0
  -16.2256   -3.9063   -1.8962 H   0  0  0  0  0
   -8.5761   -2.6899   -0.9171 H   0  0  0  0  0
   -9.5925   -3.7762    0.0675 H   0  0  0  0  0
  -10.4713   -1.6579   -1.9348 H   0  0  0  0  0
  -10.9825   -1.8549   -0.2806 H   0  0  0  0  0
   -5.1810   -8.9434   -2.1512 H   0  0  0  0  0
   -4.3384   -7.3760   -2.0850 H   0  0  0  0  0
   -4.7191   -8.2465   -0.5789 H   0  0  0  0  0
   -8.8816   -6.8962   -2.3456 H   0  0  0  0  0
   -8.3562   -5.9206   -3.7979 H   0  0  0  0  0
   -7.4167   -4.4264   -0.0833 H   0  0  0  0  0
   -8.3186   -5.9564   -0.1147 H   0  0  0  0  0
   -6.0791   -6.4073   -3.3370 H   0  0  0  0  0
   -7.0033   -7.9504   -3.3682 H   0  0  0  0  0
   -5.9867   -6.3903    0.2522 H   0  0  0  0  0
   -5.5813   -5.4615   -1.2835 H   0  0  0  0  0
  -18.0547   -3.2086   -1.6077 H   0  0  0  0  0
   -7.3866   -4.3685   -2.3152 H   0  0  0  0  0
   -7.0008   -7.9607   -1.0417 H   0  0  0  0  0
  -18.9729    1.2019   -5.3585 H   0  0  0  0  0
  -19.1192   -0.2863   -6.3255 H   0  0  0  0  0
  -19.9188    1.2098   -6.8672 H   0  0  0  0  0
 22  1  1  0  0  0
 24  2  1  0  0  0
  2 36  1  0  0  0
 13  3  1  0  0  0
  3 34  1  0  0  0
  7  4  3  0  0  0
 25  5  1  0  0  0
 26  6  1  0  0  0
 27  7  1  0  0  0
 20  8  4  0  0  0
  8 27  4  0  0  0
  9 25  4  0  0  0
 26  9  4  0  0  0
 10 24  4  0  0  0
 28 10  4  0  0  0
 30 11  4  0  0  0
 11 32  4  0  0  0
 29 12  4  0  0  0
 12 33  4  0  0  0
 14 13  1  0  0  0
 23 14  1  0  0  0
 35 15  1  0  0  0
 16 18  1  0  0  0
 34 16  1  0  0  0
 17 19  1  0  0  0
 34 17  1  0  0  0
 18 35  1  0  0  0
 19 35  1  0  0  0
 32 20  4  0  0  0
 21 28  1  0  0  0
 31 21  1  0  0  0
 29 22  1  0  0  0
 30 23  1  0  0  0
 24 25  4  0  0  0
 28 26  4  0  0  0
 27 31  4  0  0  0
 29 30  4  0  0  0
 31 33  4  0  0  0
 32 33  4  0  0  0
  1 37  1  0  0  0
  1 38  1  0  0  0
  1 39  1  0  0  0
  3 40  1  0  0  0
  3 41  1  0  0  0
  8 42  1  0  0  0
  9 43  1  0  0  0
 10 44  1  0  0  0
 11 45  1  0  0  0
 12 46  1  0  0  0
 13 47  1  0  0  0
 13 48  1  0  0  0
 14 49  1  0  0  0
 14 50  1  0  0  0
 15 51  1  0  0  0
 15 52  1  0  0  0
 15 53  1  0  0  0
 16 54  1  0  0  0
 16 55  1  0  0  0
 17 56  1  0  0  0
 17 57  1  0  0  0
 18 58  1  0  0  0
 18 59  1  0  0  0
 19 60  1  0  0  0
 19 61  1  0  0  0
 21 62  1  0  0  0
 34 63  1  0  0  0
 35 64  1  0  0  0
 36 65  1  0  0  0
 36 66  1  0  0  0
 36 67  1  0  0  0
M  END
$$$$
