3neo_ligand
  -I-interpret- 

 52 54  0  0  0  0  0  0  0  0999 V2000
   21.3500   -2.4670  -22.5690 C   0  0  0  0  0
   20.6680   -2.6870  -21.3710 C   0  0  0  0  0
   20.4240   -1.6400  -20.4850 C   0  0  0  0  0
   20.8730   -0.3600  -20.8100 C   0  0  0  0  0
   21.5670   -0.1750  -22.0530 C   0  0  0  0  0
   21.7640   -1.1830  -22.8770 C   0  0  0  0  0
   22.5350   -0.8100  -24.1200 C   0  0  0  0  0
   21.7450   -0.0210  -25.1610 C   0  0  0  0  0
   21.9360   -0.5680  -26.3940 C   0  0  0  0  0
   20.9350    1.1210  -25.0520 C   0  0  0  0  0
   20.7120    1.7630  -23.8580 O   0  0  0  0  0
   20.3360    1.6520  -26.2000 C   0  0  0  0  0
   20.5420    1.0660  -27.4490 C   0  0  0  0  0
   21.3550   -0.0520  -27.5080 C   0  0  0  0  0
   21.7090   -0.8420  -28.7160 C   0  0  0  0  0
   21.4020   -0.1750  -29.9980 C   0  0  0  0  0
   20.3040   -0.6220  -30.7090 C   0  0  0  0  0
   19.4500   -1.7390  -30.1050 C   0  0  0  0  0
   19.9840   -0.0550  -31.9310 C   0  0  0  0  0
   22.2120    0.8300  -30.5030 C   0  0  0  0  0
   23.4320    1.2980  -29.6990 C   0  0  0  0  0
   21.9020    1.4030  -31.7240 C   0  0  0  0  0
   20.7910    0.9600  -32.4300 C   0  0  0  0  0
   20.5130    1.5380  -33.6230 O   0  0  0  0  0
   21.4190    2.6210  -33.8100 C   0  0  0  0  0
   22.5760    2.2620  -34.7420 C   0  0  0  0  0
   22.5230    2.6760  -35.9200 O   0  0  0  0  0
   23.5180    1.5870  -34.2770 O   0  0  0  0  0
   21.5531   -3.2930  -23.2506 H   0  0  0  0  0
   20.3219   -3.6910  -21.1256 H   0  0  0  0  0
   19.8901   -1.8184  -19.5516 H   0  0  0  0  0
   20.7011    0.4795  -20.1364 H   0  0  0  0  0
   21.9366    0.8154  -22.3188 H   0  0  0  0  0
   22.8341   -1.7441  -24.5954 H   0  0  0  0  0
   23.3567   -0.1699  -23.7988 H   0  0  0  0  0
   22.5744   -1.4463  -26.4894 H   0  0  0  0  0
   20.1338    2.5154  -24.0036 H   0  0  0  0  0
   19.7009    2.5340  -26.1171 H   0  0  0  0  0
   20.0787    1.4746  -28.3471 H   0  0  0  0  0
   21.1168   -1.7565  -28.6831 H   0  0  0  0  0
   22.7873   -0.9990  -28.6890 H   0  0  0  0  0
   20.0663   -2.6256  -29.9559 H   0  0  0  0  0
   19.0475   -1.4094  -29.1472 H   0  0  0  0  0
   18.6300   -1.9749  -30.7833 H   0  0  0  0  0
   19.1146   -0.3987  -32.4914 H   0  0  0  0  0
   23.1038    1.6795  -28.7321 H   0  0  0  0  0
   24.1103    0.4581  -29.5484 H   0  0  0  0  0
   23.9457    2.0877  -30.2473 H   0  0  0  0  0
   22.5270    2.1985  -32.1298 H   0  0  0  0  0
   21.8383    2.8803  -32.8379 H   0  0  0  0  0
   20.8679    3.4465  -34.2606 H   0  0  0  0  0
   21.7097    3.1696  -36.0482 H   0  0  0  0  0
  1  2  4  0  0  0
  1  6  4  0  0  0
  2  3  4  0  0  0
  3  4  4  0  0  0
  4  5  4  0  0  0
  5  6  4  0  0  0
  6  7  1  0  0  0
  7  8  1  0  0  0
  8  9  4  0  0  0
  8 10  4  0  0  0
  9 14  4  0  0  0
 10 11  1  0  0  0
 10 12  4  0  0  0
 12 13  4  0  0  0
 13 14  4  0  0  0
 14 15  1  0  0  0
 15 16  1  0  0  0
 16 17  4  0  0  0
 16 20  4  0  0  0
 17 18  1  0  0  0
 17 19  4  0  0  0
 19 23  4  0  0  0
 20 21  1  0  0  0
 20 22  4  0  0  0
 22 23  4  0  0  0
 23 24  1  0  0  0
 24 25  1  0  0  0
 25 26  1  0  0  0
 26 27  1  0  0  0
 26 28  2  0  0  0
  1 29  1  0  0  0
  2 30  1  0  0  0
  3 31  1  0  0  0
  4 32  1  0  0  0
  5 33  1  0  0  0
  7 34  1  0  0  0
  7 35  1  0  0  0
  9 36  1  0  0  0
 11 37  1  0  0  0
 12 38  1  0  0  0
 13 39  1  0  0  0
 15 40  1  0  0  0
 15 41  1  0  0  0
 18 42  1  0  0  0
 18 43  1  0  0  0
 18 44  1  0  0  0
 19 45  1  0  0  0
 21 46  1  0  0  0
 21 47  1  0  0  0
 21 48  1  0  0  0
 22 49  1  0  0  0
 25 50  1  0  0  0
 25 51  1  0  0  0
 27 52  1  0  0  0
M  END
$$$$
