4pax_ligand
  -I-interpret- 

 21 22  0  0  0  0  0  0  0  0999 V2000
   39.8440   22.5140   21.9820 C   0  0  0  0  0
   38.4950   22.3890   21.5850 O   0  0  0  0  0
   40.8640   23.0640   21.1180 C   0  0  0  0  0
   40.5810   23.5140   19.8540 N   0  0  0  0  0
   41.4750   24.0120   19.0810 C   0  0  0  0  0
   41.0660   24.4710   17.7210 C   0  0  0  0  0
   42.7650   24.1310   19.4150 N   0  0  0  0  0
   43.2080   23.7340   20.6200 C   0  0  0  0  0
   44.3880   23.8360   20.9660 O   0  0  0  0  0
   42.2000   23.1530   21.5860 C   0  0  0  0  0
   42.5440   22.7080   22.8850 C   0  0  0  0  0
   41.5410   22.1690   23.7240 C   0  0  0  0  0
   40.2080   22.0680   23.2730 C   0  0  0  0  0
   37.9862   22.0029   22.3017 H   0  0  0  0  0
   40.6531   23.6300   17.1640 H   0  0  0  0  0
   40.3116   25.2522   17.8142 H   0  0  0  0  0
   41.9357   24.8649   17.1951 H   0  0  0  0  0
   43.4225   24.5293   18.7446 H   0  0  0  0  0
   43.5735   22.7801   23.2358 H   0  0  0  0  0
   41.7999   21.8290   24.7267 H   0  0  0  0  0
   39.4492   21.6406   23.9284 H   0  0  0  0  0
  1  2  1  0  0  0
  1  3  4  0  0  0
  1 13  4  0  0  0
  3  4  1  0  0  0
  3 10  4  0  0  0
  4  5  2  0  0  0
  5  6  1  0  0  0
  5  7  1  0  0  0
  7  8  1  0  0  0
  8  9  2  0  0  0
  8 10  1  0  0  0
 10 11  4  0  0  0
 11 12  4  0  0  0
 12 13  4  0  0  0
  2 14  1  0  0  0
  6 15  1  0  0  0
  6 16  1  0  0  0
  6 17  1  0  0  0
  7 18  1  0  0  0
 11 19  1  0  0  0
 12 20  1  0  0  0
 13 21  1  0  0  0
M  END
$$$$
