1h2t_ligand
  -I-interpret- 

 83 88  0  0  0  0  0  0  0  0999 V2000
  -16.6240   27.7060   76.5890 P   0  0  0  0  0
  -16.0280   28.9730   76.0280 O   0  0  0  0  0
  -15.8950   26.9580   77.6730 O   0  0  0  0  0
  -16.8810   26.6810   75.3750 O   0  0  0  0  0
  -18.0760   28.0470   77.2030 O   0  0  0  0  0
  -19.2350   29.1180   76.8790 P   0  0  0  0  0
  -19.8580   28.7870   75.5400 O   0  0  0  0  0
  -18.7020   30.5080   77.1250 O   0  0  0  0  0
  -20.2960   28.7870   78.0250 O   0  0  0  0  0
  -21.6330   29.3440   77.9700 C   0  0  0  0  0
  -22.4790   28.8590   79.1360 C   0  0  0  0  0
  -23.8240   29.4020   78.9740 O   0  0  0  0  0
  -22.6380   27.3420   79.2510 C   0  0  0  0  0
  -22.6700   26.9620   80.6260 O   0  0  0  0  0
  -23.9870   27.0730   78.5830 C   0  0  0  0  0
  -24.6510   25.9270   79.0800 O   0  0  0  0  0
  -24.7670   28.3480   78.9060 C   0  0  0  0  0
  -25.7650   28.6810   77.8900 N   0  0  0  0  0
  -27.1310   28.6940   78.0550 C   0  0  0  0  0
  -27.7760   29.0270   76.9710 N   0  0  0  0  0
  -26.7800   29.2510   76.0290 C   0  0  0  0  0
  -26.8740   29.6450   74.6680 C   0  0  0  0  0
  -27.8900   29.8790   73.9990 O   0  0  0  0  0
  -25.6190   29.7600   74.0820 N   0  0  0  0  0
  -24.4230   29.5290   74.7180 C   0  0  0  0  0
  -23.3130   29.6980   73.9800 N   0  0  0  0  0
  -24.3210   29.1600   75.9850 N   0  0  0  0  0
  -25.5310   29.0420   76.5770 C   0  0  0  0  0
  -16.0510   26.2810   74.0480 P   0  0  0  0  0
  -16.1060   27.4340   73.0640 O   0  0  0  0  0
  -16.5120   24.9100   73.6040 O   0  0  0  0  0
  -14.5560   26.1540   74.5870 O   0  0  0  0  0
  -13.4880   25.6920   73.7300 C   0  0  0  0  0
  -12.2080   26.4460   74.0350 C   0  0  0  0  0
  -12.2930   27.7890   73.4900 O   0  0  0  0  0
  -11.8820   26.6010   75.5170 C   0  0  0  0  0
  -10.4760   26.5090   75.7150 O   0  0  0  0  0
  -12.3610   28.0160   75.8360 C   0  0  0  0  0
  -11.6720   28.6250   76.9150 O   0  0  0  0  0
  -12.0880   28.7390   74.5190 C   0  0  0  0  0
  -12.9590   29.8840   74.2640 N   0  0  0  0  0
  -14.2470   29.8520   73.7890 C   0  0  0  0  0
  -14.7870   31.0970   73.6380 N   0  0  0  0  0
  -13.7560   31.9380   74.0470 C   0  0  0  0  0
  -13.7190   33.3540   74.1120 C   0  0  0  0  0
  -14.5960   34.1620   73.7920 O   0  0  0  0  0
  -12.5010   33.8140   74.6020 N   0  0  0  0  0
  -11.4450   33.0180   74.9730 C   0  0  0  0  0
  -10.3540   33.6600   75.4290 N   0  0  0  0  0
  -11.4580   31.6940   74.9060 N   0  0  0  0  0
  -12.6360   31.2210   74.4410 C   0  0  0  0  0
  -16.1160   31.4360   73.1630 C   0  0  0  0  0
  -16.6095   29.3263   75.3508 H   0  0  0  0  0
  -20.1463   27.8713   75.5401 H   0  0  0  0  0
  -22.1051   29.0244   77.0410 H   0  0  0  0  0
  -21.5597   30.4303   78.0215 H   0  0  0  0  0
  -21.9559   29.1943   80.0316 H   0  0  0  0  0
  -21.8231   26.7827   78.7914 H   0  0  0  0  0
  -22.7699   26.0094   80.6913 H   0  0  0  0  0
  -23.8834   26.8605   77.5189 H   0  0  0  0  0
  -25.4863   25.8177   78.6197 H   0  0  0  0  0
  -25.3055   28.1972   79.8416 H   0  0  0  0  0
  -27.6242   28.4507   78.9961 H   0  0  0  0  0
  -25.5828   30.0381   73.1013 H   0  0  0  0  0
  -22.3950   29.5420   74.3964 H   0  0  0  0  0
  -23.3883   29.9823   73.0033 H   0  0  0  0  0
  -15.7833   28.2319   73.4893 H   0  0  0  0  0
  -13.7649   25.8653   72.6901 H   0  0  0  0  0
  -13.3256   24.6284   73.9043 H   0  0  0  0  0
  -11.4213   25.8413   73.5838 H   0  0  0  0  0
  -12.3446   25.8380   76.1430 H   0  0  0  0  0
  -10.2784   26.6074   76.6493 H   0  0  0  0  0
  -13.3998   28.0407   76.1654 H   0  0  0  0  0
  -12.0221   29.5071   77.0597 H   0  0  0  0  0
  -11.0741   29.1369   74.5621 H   0  0  0  0  0
  -14.8559   29.3098   74.5124 H   0  0  0  0  0
  -14.2294   29.3750   72.8091 H   0  0  0  0  0
  -12.3827   34.8230   74.6930 H   0  0  0  0  0
   -9.5352   33.1280   75.7238 H   0  0  0  0  0
  -10.3457   34.6787   75.4799 H   0  0  0  0  0
  -16.2475   31.0527   72.1511 H   0  0  0  0  0
  -16.8608   30.9894   73.8217 H   0  0  0  0  0
  -16.2342   32.5196   73.1607 H   0  0  0  0  0
  1  2  1  0  0  0
  1  3  2  0  0  0
  1  4  1  0  0  0
  1  5  1  0  0  0
  4 29  1  0  0  0
  5  6  1  0  0  0
  6  7  1  0  0  0
  6  8  2  0  0  0
  6  9  1  0  0  0
  9 10  1  0  0  0
 10 11  1  0  0  0
 11 12  1  0  0  0
 11 13  1  0  0  0
 12 17  1  0  0  0
 13 14  1  0  0  0
 13 15  1  0  0  0
 15 16  1  0  0  0
 15 17  1  0  0  0
 17 18  1  0  0  0
 18 19  4  0  0  0
 18 28  4  0  0  0
 19 20  4  0  0  0
 20 21  4  0  0  0
 21 22  1  0  0  0
 21 28  4  0  0  0
 22 23  2  0  0  0
 22 24  1  0  0  0
 24 25  1  0  0  0
 25 26  1  0  0  0
 25 27  2  0  0  0
 27 28  1  0  0  0
 29 30  1  0  0  0
 29 31  2  0  0  0
 29 32  1  0  0  0
 32 33  1  0  0  0
 33 34  1  0  0  0
 34 35  1  0  0  0
 34 36  1  0  0  0
 35 40  1  0  0  0
 36 37  1  0  0  0
 36 38  1  0  0  0
 38 39  1  0  0  0
 38 40  1  0  0  0
 40 41  1  0  0  0
 41 42  1  0  0  0
 41 51  1  0  0  0
 42 43  1  0  0  0
 43 44  1  0  0  0
 43 52  1  0  0  0
 44 45  1  0  0  0
 44 51  2  0  0  0
 45 46  2  0  0  0
 45 47  1  0  0  0
 47 48  1  0  0  0
 48 49  1  0  0  0
 48 50  2  0  0  0
 50 51  1  0  0  0
  2 53  1  0  0  0
  7 54  1  0  0  0
 10 55  1  0  0  0
 10 56  1  0  0  0
 11 57  1  0  0  0
 13 58  1  0  0  0
 14 59  1  0  0  0
 15 60  1  0  0  0
 16 61  1  0  0  0
 17 62  1  0  0  0
 19 63  1  0  0  0
 24 64  1  0  0  0
 26 65  1  0  0  0
 26 66  1  0  0  0
 30 67  1  0  0  0
 33 68  1  0  0  0
 33 69  1  0  0  0
 34 70  1  0  0  0
 36 71  1  0  0  0
 37 72  1  0  0  0
 38 73  1  0  0  0
 39 74  1  0  0  0
 40 75  1  0  0  0
 42 76  1  0  0  0
 42 77  1  0  0  0
 47 78  1  0  0  0
 49 79  1  0  0  0
 49 80  1  0  0  0
 52 81  1  0  0  0
 52 82  1  0  0  0
 52 83  1  0  0  0
M  END
$$$$
