5ng9_ligand
  -I-interpret- 

 23 24  0  0  0  0  0  0  0  0999 V2000
   76.5670   91.9070   64.3590 C   0  0  0  0  0
   76.5300   89.5420   64.5740 C   0  0  0  0  0
   77.9020   89.5340   62.4020 C   0  0  0  0  0
   77.8600   89.8830   63.8560 C   0  0  0  0  0
   77.8890   91.3980   63.7800 C   0  0  0  0  0
   77.9150   88.1190   61.8730 C   0  0  0  0  0
   76.7170   89.3120   66.0770 C   0  0  0  0  0
   77.8880   91.7250   62.3890 O   0  0  0  0  0
   78.2020   87.1830   62.6460 O   0  0  0  0  0
   75.9960   89.9790   66.8510 O   0  0  0  0  0
   77.5720   88.4930   66.4400 O   0  0  0  0  0
   75.6850   90.7410   64.4360 N   0  3  0  0  0
   77.8980   90.5370   61.6330 N   0  0  0  0  0
   77.6700   88.0110   60.6460 O   0  0  0  0  0
   76.1359   92.6876   63.7322 H   0  0  0  0  0
   76.7132   92.3571   65.3409 H   0  0  0  0  0
   76.1121   88.6344   64.1385 H   0  0  0  0  0
   78.6454   89.3552   64.3969 H   0  0  0  0  0
   78.7440   91.8210   64.3074 H   0  0  0  0  0
   75.4133   90.5430   66.3373 H   0  0  0  0  0
   75.1128   90.6748   63.5942 H   0  0  0  0  0
   75.0577   90.8249   65.2359 H   0  0  0  0  0
   77.4784   88.8782   60.2815 H   0  0  0  0  0
  1  5  1  0  0  0
 12  1  1  0  0  0
  2  4  1  0  0  0
  2  7  1  0  0  0
  2 12  1  0  0  0
  4  3  1  0  0  0
  3  6  1  0  0  0
  3 13  2  0  0  0
  4  5  1  0  0  0
  5  8  1  0  0  0
  6  9  2  0  0  0
  6 14  1  0  0  0
  7 10  1  0  0  0
  7 11  2  0  0  0
  8 13  1  0  0  0
  1 15  1  0  0  0
  1 16  1  0  0  0
  2 17  1  0  0  0
  4 18  1  0  0  0
  5 19  1  0  0  0
 10 20  1  0  0  0
 12 21  1  0  0  0
 12 22  1  0  0  0
 14 23  1  0  0  0
M  END
$$$$
