4po0_ligand
  -I-interpret- 

 31 32  0  0  0  0  0  0  0  0999 V2000
   61.6280   26.6520   51.0440 C   0  0  0  0  0
   62.9660   26.2820   51.3310 O   0  0  0  0  0
   60.8690   25.9210   50.0920 C   0  0  0  0  0
   55.6450   29.2330   50.7720 C   0  0  0  0  0
   59.5240   26.2780   49.8410 C   0  0  0  0  0
   58.9520   27.3840   50.5380 C   0  0  0  0  0
   59.7120   28.0870   51.4520 C   0  0  0  0  0
   61.0560   27.7170   51.7160 C   0  0  0  0  0
   57.6120   27.7810   50.2790 C   0  0  0  0  0
   57.0800   28.8570   50.9530 C   0  0  0  0  0
   54.8050   28.0450   50.7340 C   0  0  0  0  0
   59.1760   29.1480   52.1090 C   0  0  0  0  0
   57.8480   29.5290   51.8760 C   0  0  0  0  0
   63.3600   24.9320   51.1660 C   0  0  0  0  0
   56.3660   30.1440   48.6510 O   0  0  0  0  0
   54.3590   30.7350   49.3900 O   0  0  0  0  0
   55.4480   30.0690   49.5280 C   0  0  0  0  0
   61.3221   25.0869   49.5562 H   0  0  0  0  0
   55.3477   29.8385   51.6282 H   0  0  0  0  0
   58.9299   25.7138   49.1221 H   0  0  0  0  0
   61.6390   28.2733   52.4500 H   0  0  0  0  0
   57.0096   27.2370   49.5515 H   0  0  0  0  0
   55.1121   27.4109   49.9023 H   0  0  0  0  0
   54.9116   27.4962   51.6697 H   0  0  0  0  0
   53.7645   28.3414   50.6016 H   0  0  0  0  0
   59.7827   29.7065   52.8219 H   0  0  0  0  0
   57.4199   30.3643   52.4302 H   0  0  0  0  0
   62.7569   24.2969   51.8149 H   0  0  0  0  0
   63.2128   24.6362   50.1273 H   0  0  0  0  0
   64.4125   24.8273   51.4292 H   0  0  0  0  0
   53.7824   30.5618   50.1377 H   0  0  0  0  0
  1  2  1  0  0  0
  3  1  4  0  0  0
  8  1  4  0  0  0
  2 14  1  0  0  0
  5  3  4  0  0  0
 10  4  1  0  0  0
  4 11  1  0  0  0
  4 17  1  0  0  0
  6  5  4  0  0  0
  6  7  4  0  0  0
  9  6  4  0  0  0
  7  8  4  0  0  0
  7 12  4  0  0  0
  9 10  4  0  0  0
 10 13  4  0  0  0
 12 13  4  0  0  0
 17 15  2  0  0  0
 17 16  1  0  0  0
  3 18  1  0  0  0
  4 19  1  0  0  0
  5 20  1  0  0  0
  8 21  1  0  0  0
  9 22  1  0  0  0
 11 23  1  0  0  0
 11 24  1  0  0  0
 11 25  1  0  0  0
 12 26  1  0  0  0
 13 27  1  0  0  0
 14 28  1  0  0  0
 14 29  1  0  0  0
 14 30  1  0  0  0
 16 31  1  0  0  0
M  END
$$$$
