4gxs_ligand
  -I-interpret- 

 55 56  0  0  0  0  0  0  0  0999 V2000
  -17.7900   12.2760    3.0850 O   0  0  0  0  0
  -17.9920   11.3980    2.3030 C   0  0  0  0  0
  -17.0530   10.3370    2.1600 O   0  0  0  0  0
  -18.9860   11.6930    1.1660 C   0  0  0  0  0
  -19.4410   13.0930    1.3370 N   0  0  0  0  0
  -20.7480   13.4830    0.8270 C   0  0  0  0  0
  -21.1030   14.9830    0.7780 C   0  0  0  0  0
  -20.0100   15.9170    0.8460 C   0  0  0  0  0
  -20.2510   17.3300    0.7680 C   0  0  0  0  0
  -18.8670   18.4710    0.8370 Cl  0  0  0  0  0
  -21.6400   17.8350    0.6020 C   0  0  0  0  0
  -21.8840   19.2100    0.4790 O   0  0  0  0  0
  -22.7290   16.8960    0.5370 C   0  0  0  0  0
  -24.3840   17.5470    0.3480 Cl  0  0  0  0  0
  -22.5050   15.4700    0.6190 C   0  0  0  0  0
  -21.4530   12.6350    0.3960 O   0  0  0  0  0
  -18.4000   11.5550   -0.2850 C   0  0  0  0  0
  -17.1500   12.4600   -0.6030 C   0  0  0  0  0
  -16.1860   12.0460   -1.7060 C   0  0  0  0  0
  -15.7320   13.3330   -2.3790 C   0  0  0  0  0
  -17.4000   13.9280   -0.8700 N   0  3  0  0  0
  -16.7420   14.3190   -2.0900 C   0  0  0  0  0
  -17.7140   14.5310   -3.1290 C   0  0  0  0  0
  -18.8690   14.3990   -2.8600 O   0  0  0  0  0
  -17.3810   15.2560   -4.2950 O   0  0  0  0  0
  -16.0170   15.6880   -1.8340 C   0  0  0  0  0
  -16.8710   16.7960   -1.7790 O   0  0  0  0  0
  -14.9790   15.6910   -0.6810 C   0  0  0  0  0
  -13.9280   16.6510   -0.9700 N   0  3  0  0  0
  -15.6390   16.0410    0.6800 C   0  0  0  0  0
  -16.4440   15.3100    1.1800 O   0  0  0  0  0
  -14.9050   16.8750    1.5290 O   0  0  0  0  0
  -17.3671    9.7207    1.4943 H   0  0  0  0  0
  -19.7805   10.9508    1.2434 H   0  0  0  0  0
  -18.8457   13.7754    1.8064 H   0  0  0  0  0
  -18.9904   15.5482    0.9577 H   0  0  0  0  0
  -22.8272   19.3589    0.3804 H   0  0  0  0  0
  -23.3380   14.7690    0.5661 H   0  0  0  0  0
  -19.1897   11.8664   -0.9688 H   0  0  0  0  0
  -18.0684   10.5218   -0.3880 H   0  0  0  0  0
  -16.6960   12.2870    0.3727 H   0  0  0  0  0
  -16.6691   11.3788   -2.4198 H   0  0  0  0  0
  -15.3378   11.4948   -1.2999 H   0  0  0  0  0
  -15.6167   13.1936   -3.4539 H   0  0  0  0  0
  -14.7580   13.6484   -2.0049 H   0  0  0  0  0
  -17.0314   14.4799   -0.0954 H   0  0  0  0  0
  -18.4031   14.0889   -0.9606 H   0  0  0  0  0
  -16.4262   15.2851   -4.3906 H   0  0  0  0  0
  -15.4263   15.8032   -2.7428 H   0  0  0  0  0
  -16.3542   17.5893   -1.6204 H   0  0  0  0  0
  -14.5587   14.6880   -0.6067 H   0  0  0  0  0
  -13.2486   16.6489   -0.2092 H   0  0  0  0  0
  -13.4648   16.3941   -1.8417 H   0  0  0  0  0
  -14.3351   17.5818   -1.0614 H   0  0  0  0  0
  -14.2990   17.4067    1.0079 H   0  0  0  0  0
  1  2  2  0  0  0
  2  3  1  0  0  0
  2  4  1  0  0  0
  4  5  1  0  0  0
  4 17  1  0  0  0
  5  6  1  0  0  0
  6  7  1  0  0  0
  6 16  2  0  0  0
  7  8  4  0  0  0
  7 15  4  0  0  0
  8  9  4  0  0  0
  9 10  1  0  0  0
  9 11  4  0  0  0
 11 12  1  0  0  0
 11 13  4  0  0  0
 13 14  1  0  0  0
 13 15  4  0  0  0
 17 18  1  0  0  0
 18 19  1  0  0  0
 18 21  1  0  0  0
 19 20  1  0  0  0
 20 22  1  0  0  0
 21 22  1  0  0  0
 22 23  1  0  0  0
 22 26  1  0  0  0
 23 24  2  0  0  0
 23 25  1  0  0  0
 26 27  1  0  0  0
 26 28  1  0  0  0
 28 29  1  0  0  0
 28 30  1  0  0  0
 30 31  2  0  0  0
 30 32  1  0  0  0
  3 33  1  0  0  0
  4 34  1  0  0  0
  5 35  1  0  0  0
  8 36  1  0  0  0
 12 37  1  0  0  0
 15 38  1  0  0  0
 17 39  1  0  0  0
 17 40  1  0  0  0
 18 41  1  0  0  0
 19 42  1  0  0  0
 19 43  1  0  0  0
 20 44  1  0  0  0
 20 45  1  0  0  0
 21 46  1  0  0  0
 21 47  1  0  0  0
 25 48  1  0  0  0
 26 49  1  0  0  0
 27 50  1  0  0  0
 28 51  1  0  0  0
 29 52  1  0  0  0
 29 53  1  0  0  0
 29 54  1  0  0  0
 32 55  1  0  0  0
M  END
$$$$
