6bw8_ligand
  -I-interpret- 

 89 95  0  0  0  0  0  0  0  0999 V2000
   13.1590   29.1850   33.4570 C   0  0  0  0  0
   15.0880   31.6770   34.7490 C   0  0  0  0  0
   13.9210   34.0110   35.5330 C   0  0  0  0  0
   13.9030   36.5720   35.8220 C   0  0  0  0  0
   12.5280   39.0290   35.9670 C   0  0  0  0  0
   13.6210   38.8710   35.0860 C   0  0  0  0  0
   14.3300   37.6560   34.9990 C   0  0  0  0  0
   16.3090   36.9070   33.5960 C   0  0  0  0  0
   14.2350   39.7700   34.1550 C   0  0  0  0  0
   15.6010   24.6110   30.5440 C   0  0  0  0  0
   15.1420   25.2360   31.8440 C   0  0  0  0  0
   14.8620   24.4430   32.9490 C   0  0  0  0  0
   14.4450   25.0340   34.1290 C   0  0  0  0  0
   14.1380   24.1230   35.3330 C   0  0  0  0  0
   14.3050   26.4230   34.2130 C   0  0  0  0  0
   14.5830   27.2120   33.1000 C   0  0  0  0  0
   13.1570   30.7420   33.2900 C   0  0  0  0  0
   14.5630   31.4280   33.3290 C   0  0  0  0  0
   14.7970   32.7410   35.6490 C   0  0  0  0  0
   12.8270   36.7500   36.7050 C   0  0  0  0  0
   12.1290   37.9780   36.7750 C   0  0  0  0  0
   15.2630   39.0610   33.5680 C   0  0  0  0  0
   13.8320   41.2350   33.8700 C   0  0  0  0  0
   15.9160   35.1950   36.2990 C   0  0  0  0  0
   15.9970   34.8320   37.7610 C   0  0  0  0  0
   15.3420   33.4870   37.8850 C   0  0  0  0  0
   16.2180   31.4040   36.7040 C   0  0  0  0  0
   16.0150   30.8270   35.4620 C   0  0  0  0  0
   16.6630   29.6260   35.1170 C   0  0  0  0  0
   17.5270   29.0040   36.0360 C   0  0  0  0  0
   17.7400   29.5930   37.2950 C   0  0  0  0  0
   17.1000   30.7760   37.6370 C   0  0  0  0  0
   17.3280   31.4390   39.0220 C   0  0  0  0  0
   18.1830   32.5680   39.3150 C   0  0  0  0  0
   19.0800   33.3220   38.3270 C   0  0  0  0  0
   18.7520   33.8670   41.2980 C   0  0  0  0  0
   16.7190   31.1290   40.2500 C   0  0  0  0  0
   15.7100   30.0130   40.5070 C   0  0  0  0  0
   15.0040   26.6150   31.9190 C   0  0  0  0  0
   14.5700   35.2390   35.8550 N   0  0  0  0  0
   15.3030   37.8290   34.0730 N   0  0  0  0  0
   15.4730   32.5640   36.7660 N   0  0  0  0  0
   18.0510   32.8160   40.5940 N   0  0  0  0  0
   17.2050   31.9860   41.1500 N   0  0  0  0  0
   14.4610   28.6550   33.1550 O   0  0  0  0  0
   14.3270   42.1630   34.5580 O   0  0  0  0  0
   13.0080   41.4910   32.9610 O   0  0  0  0  0
   12.7960   33.9720   35.1550 O   0  0  0  0  0
   15.0250   22.6850   32.8810 Cl  0  0  0  0  0
   18.8060   28.8300   38.4270 Cl  0  0  0  0  0
   12.4298   28.7518   32.7724 H   0  0  0  0  0
   12.9026   28.9362   34.4868 H   0  0  0  0  0
   11.9977   39.9803   36.0107 H   0  0  0  0  0
   16.9361   36.5921   34.4301 H   0  0  0  0  0
   15.8227   36.0362   33.1563 H   0  0  0  0  0
   16.9241   37.4000   32.8432 H   0  0  0  0  0
   16.5295   24.0655   30.7125 H   0  0  0  0  0
   14.8355   23.9246   30.1821 H   0  0  0  0  0
   15.7674   25.3944   29.8046 H   0  0  0  0  0
   13.3395   23.4298   35.0682 H   0  0  0  0  0
   15.0337   23.5624   35.6005 H   0  0  0  0  0
   13.8243   24.7345   36.1790 H   0  0  0  0  0
   13.9799   26.8855   35.1450 H   0  0  0  0  0
   12.5935   31.1429   34.1325 H   0  0  0  0  0
   12.7398   30.9470   32.3041 H   0  0  0  0  0
   15.2664   30.7584   32.8340 H   0  0  0  0  0
   14.4660   32.3985   32.8424 H   0  0  0  0  0
   12.5231   35.9254   37.3498 H   0  0  0  0  0
   11.2869   38.0956   37.4570 H   0  0  0  0  0
   15.9394   39.4499   32.8069 H   0  0  0  0  0
   16.4477   34.4379   35.7227 H   0  0  0  0  0
   16.3604   36.1806   36.1602 H   0  0  0  0  0
   15.4975   35.5752   38.3825 H   0  0  0  0  0
   17.0306   34.8031   38.1058 H   0  0  0  0  0
   14.2746   33.6895   37.9724 H   0  0  0  0  0
   15.8358   32.9986   38.7251 H   0  0  0  0  0
   16.4952   29.1780   34.1376 H   0  0  0  0  0
   18.0280   28.0720   35.7742 H   0  0  0  0  0
   19.8081   32.6323   37.9000 H   0  0  0  0  0
   18.4669   33.7439   37.5307 H   0  0  0  0  0
   19.6007   34.1241   38.8501 H   0  0  0  0  0
   19.8266   33.7040   41.2151 H   0  0  0  0  0
   18.4945   34.8309   40.8591 H   0  0  0  0  0
   18.4614   33.8554   42.3485 H   0  0  0  0  0
   14.8297   30.1702   39.8837 H   0  0  0  0  0
   16.1629   29.0521   40.2626 H   0  0  0  0  0
   15.4194   30.0225   41.5575 H   0  0  0  0  0
   15.2268   27.2314   31.0481 H   0  0  0  0  0
   14.9337   41.7928   35.2034 H   0  0  0  0  0
 17  1  1  0  0  0
  1 45  1  0  0  0
  2 18  1  0  0  0
 19  2  4  0  0  0
  2 28  4  0  0  0
  3 19  1  0  0  0
 40  3  1  0  0  0
  3 48  2  0  0  0
  4  7  4  0  0  0
  4 20  4  0  0  0
 40  4  1  0  0  0
  6  5  4  0  0  0
 21  5  4  0  0  0
  7  6  4  0  0  0
  6  9  4  0  0  0
  7 41  4  0  0  0
 41  8  1  0  0  0
 22  9  4  0  0  0
  9 23  1  0  0  0
 11 10  1  0  0  0
 11 12  4  0  0  0
 39 11  4  0  0  0
 13 12  4  0  0  0
 12 49  1  0  0  0
 13 14  1  0  0  0
 15 13  4  0  0  0
 16 15  4  0  0  0
 16 39  4  0  0  0
 45 16  1  0  0  0
 18 17  1  0  0  0
 19 42  4  0  0  0
 20 21  4  0  0  0
 41 22  4  0  0  0
 23 46  1  0  0  0
 23 47  2  0  0  0
 24 25  1  0  0  0
 24 40  1  0  0  0
 25 26  1  0  0  0
 26 42  1  0  0  0
 28 27  4  0  0  0
 27 32  4  0  0  0
 27 42  4  0  0  0
 28 29  4  0  0  0
 29 30  4  0  0  0
 30 31  4  0  0  0
 31 32  4  0  0  0
 31 50  1  0  0  0
 32 33  1  0  0  0
 33 34  4  0  0  0
 33 37  4  0  0  0
 34 35  1  0  0  0
 34 43  4  0  0  0
 43 36  1  0  0  0
 37 38  1  0  0  0
 37 44  4  0  0  0
 43 44  4  0  0  0
  1 51  1  0  0  0
  1 52  1  0  0  0
  5 53  1  0  0  0
  8 54  1  0  0  0
  8 55  1  0  0  0
  8 56  1  0  0  0
 10 57  1  0  0  0
 10 58  1  0  0  0
 10 59  1  0  0  0
 14 60  1  0  0  0
 14 61  1  0  0  0
 14 62  1  0  0  0
 15 63  1  0  0  0
 17 64  1  0  0  0
 17 65  1  0  0  0
 18 66  1  0  0  0
 18 67  1  0  0  0
 20 68  1  0  0  0
 21 69  1  0  0  0
 22 70  1  0  0  0
 24 71  1  0  0  0
 24 72  1  0  0  0
 25 73  1  0  0  0
 25 74  1  0  0  0
 26 75  1  0  0  0
 26 76  1  0  0  0
 29 77  1  0  0  0
 30 78  1  0  0  0
 35 79  1  0  0  0
 35 80  1  0  0  0
 35 81  1  0  0  0
 36 82  1  0  0  0
 36 83  1  0  0  0
 36 84  1  0  0  0
 38 85  1  0  0  0
 38 86  1  0  0  0
 38 87  1  0  0  0
 39 88  1  0  0  0
 46 89  1  0  0  0
M  END
$$$$
