6jjz_ligand
  -I-interpret- 

186192  0  0  0  0  0  0  0  0999 V2000
  -35.8770  -22.9000   -4.7260 N   0  3  0  0  0
  -34.7280  -22.9920   -3.8340 C   0  0  0  0  0
  -33.8710  -21.7470   -3.9050 C   0  0  0  0  0
  -33.6970  -21.1670   -4.9720 O   0  0  0  0  0
  -33.8630  -24.2010   -4.1670 C   0  0  0  0  0
  -32.8660  -24.5120   -3.0700 C   0  0  0  0  0
  -31.7650  -25.0150   -3.3790 O   0  0  0  0  0
  -33.1860  -24.2470   -1.8930 O   0  0  0  0  0
  -33.3040  -21.3610   -2.7690 N   0  0  0  0  0
  -32.5130  -20.1430   -2.7090 C   0  0  0  0  0
  -31.3660  -20.2950   -1.7090 C   0  0  0  0  0
  -31.4510  -21.1040   -0.7830 O   0  0  0  0  0
  -33.4140  -18.9590   -2.3420 C   0  0  0  0  0
  -30.2800  -19.5230   -1.8940 N   0  0  0  0  0
  -29.1570  -19.5660   -0.9520 C   0  0  0  0  0
  -29.5700  -18.9850    0.3860 C   0  0  0  0  0
  -30.7030  -18.5050    0.4960 O   0  0  0  0  0
  -28.0790  -18.6950   -1.6190 C   0  0  0  0  0
  -28.6560  -18.1710   -2.8590 C   0  0  0  0  0
  -30.1120  -18.4700   -2.9090 C   0  0  0  0  0
  -28.6750  -19.0310    1.3880 N   0  0  0  0  0
  -28.9610  -18.3440    2.6510 C   0  0  0  0  0
  -29.3410  -16.8940    2.3880 C   0  0  0  0  0
  -28.7810  -16.2870    1.4750 O   0  0  0  0  0
  -27.6400  -18.4570    3.4070 C   0  0  0  0  0
  -27.0770  -19.7500    2.9380 C   0  0  0  0  0
  -27.4280  -19.8160    1.4710 C   0  0  0  0  0
  -30.3120  -16.3570    3.1400 N   0  0  0  0  0
  -30.7170  -14.9760    2.8790 C   0  0  0  0  0
  -29.6030  -14.0230    3.2750 C   0  0  0  0  0
  -28.6710  -14.4240    3.9770 O   0  0  0  0  0
  -31.9580  -14.7840    3.7620 C   0  0  0  0  0
  -32.3430  -16.1700    4.2370 C   0  0  0  0  0
  -31.0780  -16.9630    4.2430 C   0  0  0  0  0
  -29.6810  -12.7820    2.8140 N   0  0  0  0  0
  -28.7030  -11.7960    3.2300 C   0  0  0  0  0
  -28.7380  -11.6470    4.7430 C   0  0  0  0  0
  -29.8060  -11.5310    5.3290 O   0  0  0  0  0
  -28.9700  -10.4500    2.5730 C   0  0  0  0  0
  -27.8350   -9.4680    2.7540 C   0  0  0  0  0
  -26.7140   -9.5210    1.9330 C   0  0  0  0  0
  -27.8810   -8.4950    3.7500 C   0  0  0  0  0
  -25.6730   -8.6210    2.0850 C   0  0  0  0  0
  -26.8400   -7.5950    3.9190 C   0  0  0  0  0
  -25.7400   -7.6690    3.0910 C   0  0  0  0  0
  -24.7120   -6.7790    3.2520 O   0  0  0  0  0
  -27.5610  -11.6520    5.3600 N   0  0  0  0  0
  -27.4370  -11.4120    6.7860 C   0  0  0  0  0
  -26.9560   -9.9870    7.0070 C   0  0  0  0  0
  -25.8110   -9.6600    6.7090 O   0  0  0  0  0
  -26.4630  -12.3960    7.4470 C   0  0  0  0  0
  -26.2910  -12.0560    8.9210 C   0  0  0  0  0
  -26.9590  -13.8300    7.2790 C   0  0  0  0  0
  -27.8410   -9.1390    7.5160 N   0  0  0  0  0
  -27.5260   -7.7340    7.7010 C   0  0  0  0  0
  -26.6990   -7.5210    8.9610 C   0  0  0  0  0
  -26.7270   -8.3460    9.8740 O   0  0  0  0  0
  -28.8050   -6.9110    7.7660 C   0  0  0  0  0
  -25.9500   -6.4110    9.0090 N   0  0  0  0  0
  -25.2780   -6.0070   10.2430 C   0  0  0  0  0
  -26.3050   -5.5780   11.2950 C   0  0  0  0  0
  -27.4940   -5.4690   10.9820 O   0  0  0  0  0
  -24.3990   -4.8340    9.7890 C   0  0  0  0  0
  -25.0950   -4.2880    8.6010 C   0  0  0  0  0
  -25.6850   -5.4720    7.9030 C   0  0  0  0  0
  -25.8680   -5.3610   12.5430 N   0  0  0  0  0
  -26.8380   -4.9010   13.5420 C   0  0  0  0  0
  -27.5610   -3.6370   13.0810 C   0  0  0  0  0
  -26.9800   -2.8330   12.3490 O   0  0  0  0  0
  -25.9690   -4.6310   14.7780 C   0  0  0  0  0
  -24.7890   -5.5590   14.5900 C   0  0  0  0  0
  -24.5230   -5.5390   13.1110 C   0  0  0  0  0
  -28.8230   -3.4860   13.4630 N   0  0  0  0  0
  -29.5970   -2.3240   13.0330 C   0  0  0  0  0
  -29.0470   -1.0500   13.6660 C   0  0  0  0  0
  -28.4390   -1.0930   14.7380 O   0  0  0  0  0
  -31.0730   -2.4980   13.3850 C   0  0  0  0  0
  -31.6370   -3.5740   12.6600 O   0  0  0  0  0
  -29.2540    0.0750   12.9840 N   0  0  0  0  0
  -28.8280    1.3790   13.4830 C   0  0  0  0  0
  -29.5000    1.6800   14.8240 C   0  0  0  0  0
  -30.7150    1.5560   14.9510 O   0  0  0  0  0
  -29.1570    2.4720   12.4570 C   0  0  0  0  0
  -28.6870    3.8560   12.8600 C   0  0  0  0  0
  -29.5400    4.7410   13.5050 C   0  0  0  0  0
  -27.3860    4.2720   12.6010 C   0  0  0  0  0
  -29.1100    6.0110   13.8870 C   0  0  0  0  0
  -26.9470    5.5340   12.9740 C   0  0  0  0  0
  -27.8100    6.3970   13.6180 C   0  0  0  0  0
  -27.3740    7.6490   13.9840 O   0  0  0  0  0
  -28.7030    2.0640   15.8160 N   0  0  0  0  0
  -29.2170    2.3220   17.1620 C   0  0  0  0  0
  -29.1750    3.8110   17.4920 C   0  0  0  0  0
  -28.2030    4.5000   17.1770 O   0  0  0  0  0
  -28.4210    1.5280   18.2000 C   0  0  0  0  0
  -30.1120    4.3540   18.0800 O   0  0  0  0  0
  -36.4342  -22.0826   -4.4775 H   0  0  0  0  0
  -35.5522  -22.8116   -5.6889 H   0  0  0  0  0
  -36.4458  -23.7416   -4.6337 H   0  0  0  0  0
  -35.1258  -23.0982   -2.8247 H   0  0  0  0  0
  -33.3065  -23.9789   -5.0776 H   0  0  0  0  0
  -34.5181  -25.0643   -4.2842 H   0  0  0  0  0
  -31.7254  -25.1358   -4.3305 H   0  0  0  0  0
  -33.4247  -21.9256   -1.9281 H   0  0  0  0  0
  -32.0738  -19.9537   -3.6885 H   0  0  0  0  0
  -34.1920  -18.8483   -3.0974 H   0  0  0  0  0
  -33.8727  -19.1407   -1.3701 H   0  0  0  0  0
  -32.8159  -18.0488   -2.2984 H   0  0  0  0  0
  -28.8079  -20.5790   -0.7518 H   0  0  0  0  0
  -27.1849  -19.2822   -1.8285 H   0  0  0  0  0
  -27.7797  -17.8805   -0.9594 H   0  0  0  0  0
  -28.1640  -18.6415   -3.7102 H   0  0  0  0  0
  -28.5103  -17.0913   -2.8940 H   0  0  0  0  0
  -30.7265  -17.5926   -2.7073 H   0  0  0  0  0
  -30.4403  -18.7869   -3.8989 H   0  0  0  0  0
  -29.7976  -18.7671    3.2071 H   0  0  0  0  0
  -27.7753  -18.4295    4.4882 H   0  0  0  0  0
  -26.9741  -17.6169    3.2097 H   0  0  0  0  0
  -27.4872  -20.5949    3.4911 H   0  0  0  0  0
  -26.0005  -19.8057    3.0999 H   0  0  0  0  0
  -26.6388  -19.4211    0.8313 H   0  0  0  0  0
  -27.5497  -20.8383    1.1130 H   0  0  0  0  0
  -30.9264  -14.7775    1.8279 H   0  0  0  0  0
  -32.7707  -14.3141    3.2081 H   0  0  0  0  0
  -31.7495  -14.1203    4.6011 H   0  0  0  0  0
  -33.0904  -16.6201    3.5836 H   0  0  0  0  0
  -32.7962  -16.1383    5.2278 H   0  0  0  0  0
  -30.5542  -16.9216    5.1980 H   0  0  0  0  0
  -31.2450  -18.0317    4.1084 H   0  0  0  0  0
  -30.4269  -12.5220    2.1687 H   0  0  0  0  0
  -27.7162  -12.1380    2.9179 H   0  0  0  0  0
  -29.8566  -10.0223    3.0412 H   0  0  0  0  0
  -29.0931  -10.6214    1.5036 H   0  0  0  0  0
  -26.6538  -10.2839    1.1568 H   0  0  0  0  0
  -28.7492   -8.4404    4.4068 H   0  0  0  0  0
  -24.8097   -8.6604    1.4208 H   0  0  0  0  0
  -26.8907   -6.8358    4.6994 H   0  0  0  0  0
  -24.9105   -6.1917    3.9850 H   0  0  0  0  0
  -26.7180  -11.8302    4.8141 H   0  0  0  0  0
  -28.4147  -11.5596    7.2448 H   0  0  0  0  0
  -25.4929  -12.3105    6.9575 H   0  0  0  0  0
  -25.8960  -11.0445    9.0155 H   0  0  0  0  0
  -27.2570  -12.1185    9.4221 H   0  0  0  0  0
  -25.5973  -12.7624    9.3770 H   0  0  0  0  0
  -27.9385  -13.9314    7.7463 H   0  0  0  0  0
  -27.0355  -14.0646    6.2173 H   0  0  0  0  0
  -26.2559  -14.5143    7.7539 H   0  0  0  0  0
  -28.7636   -9.4823    7.7833 H   0  0  0  0  0
  -26.9352   -7.4037    6.8466 H   0  0  0  0  0
  -29.3614   -7.0326    6.8366 H   0  0  0  0  0
  -29.4137   -7.2534    8.6028 H   0  0  0  0  0
  -28.5525   -5.8598    7.9049 H   0  0  0  0  0
  -24.7003   -6.8032   10.7125 H   0  0  0  0  0
  -23.3821   -5.1509    9.5573 H   0  0  0  0  0
  -24.2793   -4.0857   10.5725 H   0  0  0  0  0
  -24.4093   -3.7431    7.9522 H   0  0  0  0  0
  -25.8630   -3.5682    8.8842 H   0  0  0  0  0
  -26.5819   -5.2241    7.3353 H   0  0  0  0  0
  -25.0223   -5.8888    7.1446 H   0  0  0  0  0
  -27.6305   -5.6257   13.7288 H   0  0  0  0  0
  -26.5011   -4.8158   15.7112 H   0  0  0  0  0
  -25.6699   -3.5859   14.8581 H   0  0  0  0  0
  -24.9999   -6.5651   14.9526 H   0  0  0  0  0
  -23.9209   -5.2360   15.1646 H   0  0  0  0  0
  -23.8287   -4.7528   12.8144 H   0  0  0  0  0
  -24.0276   -6.4426   12.7558 H   0  0  0  0  0
  -29.2567   -4.1880   14.0626 H   0  0  0  0  0
  -29.5094   -2.2387   11.9499 H   0  0  0  0  0
  -31.6065   -1.5827   13.1287 H   0  0  0  0  0
  -31.1584   -2.7085   14.4511 H   0  0  0  0  0
  -32.5631   -3.6663   12.8952 H   0  0  0  0  0
  -29.7267    0.0237   12.0816 H   0  0  0  0  0
  -27.7489    1.3612   13.6357 H   0  0  0  0  0
  -30.2423    2.5129   12.3642 H   0  0  0  0  0
  -28.6433    2.2124   11.5314 H   0  0  0  0  0
  -30.5652    4.4373   13.7168 H   0  0  0  0  0
  -26.6982    3.5941   12.0955 H   0  0  0  0  0
  -29.7927    6.6935   14.3932 H   0  0  0  0  0
  -25.9240    5.8428   12.7591 H   0  0  0  0  0
  -26.4554    7.7548   13.7261 H   0  0  0  0  0
  -27.7063    2.1821   15.6344 H   0  0  0  0  0
  -30.2571    1.9971   17.1909 H   0  0  0  0  0
  -27.5548    3.9513   16.7295 H   0  0  0  0  0
  -28.5073    0.4629   17.9852 H   0  0  0  0  0
  -27.3731    1.8249   18.1572 H   0  0  0  0  0
  -28.8176    1.7327   19.1944 H   0  0  0  0  0
  1  2  1  0  0  0
  2  3  1  0  0  0
  2  5  1  0  0  0
  3  4  2  0  0  0
  3  9  1  0  0  0
  5  6  1  0  0  0
  6  7  1  0  0  0
  6  8  2  0  0  0
  9 10  1  0  0  0
 10 11  1  0  0  0
 10 13  1  0  0  0
 11 12  2  0  0  0
 11 14  1  0  0  0
 14 15  1  0  0  0
 14 20  1  0  0  0
 15 16  1  0  0  0
 15 18  1  0  0  0
 16 17  2  0  0  0
 16 21  1  0  0  0
 18 19  1  0  0  0
 19 20  1  0  0  0
 21 22  1  0  0  0
 21 27  1  0  0  0
 22 23  1  0  0  0
 22 25  1  0  0  0
 23 24  2  0  0  0
 23 28  1  0  0  0
 25 26  1  0  0  0
 26 27  1  0  0  0
 28 29  1  0  0  0
 28 34  1  0  0  0
 29 30  1  0  0  0
 29 32  1  0  0  0
 30 31  2  0  0  0
 30 35  1  0  0  0
 32 33  1  0  0  0
 33 34  1  0  0  0
 35 36  1  0  0  0
 36 37  1  0  0  0
 36 39  1  0  0  0
 37 38  2  0  0  0
 37 47  1  0  0  0
 39 40  1  0  0  0
 40 41  4  0  0  0
 40 42  4  0  0  0
 41 43  4  0  0  0
 42 44  4  0  0  0
 43 45  4  0  0  0
 44 45  4  0  0  0
 45 46  1  0  0  0
 47 48  1  0  0  0
 48 49  1  0  0  0
 48 51  1  0  0  0
 49 50  2  0  0  0
 49 54  1  0  0  0
 51 52  1  0  0  0
 51 53  1  0  0  0
 54 55  1  0  0  0
 55 56  1  0  0  0
 55 58  1  0  0  0
 56 57  2  0  0  0
 56 59  1  0  0  0
 59 60  1  0  0  0
 59 65  1  0  0  0
 60 61  1  0  0  0
 60 63  1  0  0  0
 61 62  2  0  0  0
 61 66  1  0  0  0
 63 64  1  0  0  0
 64 65  1  0  0  0
 66 67  1  0  0  0
 66 72  1  0  0  0
 67 68  1  0  0  0
 67 70  1  0  0  0
 68 69  2  0  0  0
 68 73  1  0  0  0
 70 71  1  0  0  0
 71 72  1  0  0  0
 73 74  1  0  0  0
 74 75  1  0  0  0
 74 77  1  0  0  0
 75 76  2  0  0  0
 75 79  1  0  0  0
 77 78  1  0  0  0
 79 80  1  0  0  0
 80 81  1  0  0  0
 80 83  1  0  0  0
 81 82  2  0  0  0
 81 91  1  0  0  0
 83 84  1  0  0  0
 84 85  4  0  0  0
 84 86  4  0  0  0
 85 87  4  0  0  0
 86 88  4  0  0  0
 87 89  4  0  0  0
 88 89  4  0  0  0
 89 90  1  0  0  0
 91 92  1  0  0  0
 92 93  1  0  0  0
 92 95  1  0  0  0
 93 94  1  0  0  0
 93 96  2  0  0  0
  1 97  1  0  0  0
  1 98  1  0  0  0
  1 99  1  0  0  0
  2100  1  0  0  0
  5101  1  0  0  0
  5102  1  0  0  0
  7103  1  0  0  0
  9104  1  0  0  0
 10105  1  0  0  0
 13106  1  0  0  0
 13107  1  0  0  0
 13108  1  0  0  0
 15109  1  0  0  0
 18110  1  0  0  0
 18111  1  0  0  0
 19112  1  0  0  0
 19113  1  0  0  0
 20114  1  0  0  0
 20115  1  0  0  0
 22116  1  0  0  0
 25117  1  0  0  0
 25118  1  0  0  0
 26119  1  0  0  0
 26120  1  0  0  0
 27121  1  0  0  0
 27122  1  0  0  0
 29123  1  0  0  0
 32124  1  0  0  0
 32125  1  0  0  0
 33126  1  0  0  0
 33127  1  0  0  0
 34128  1  0  0  0
 34129  1  0  0  0
 35130  1  0  0  0
 36131  1  0  0  0
 39132  1  0  0  0
 39133  1  0  0  0
 41134  1  0  0  0
 42135  1  0  0  0
 43136  1  0  0  0
 44137  1  0  0  0
 46138  1  0  0  0
 47139  1  0  0  0
 48140  1  0  0  0
 51141  1  0  0  0
 52142  1  0  0  0
 52143  1  0  0  0
 52144  1  0  0  0
 53145  1  0  0  0
 53146  1  0  0  0
 53147  1  0  0  0
 54148  1  0  0  0
 55149  1  0  0  0
 58150  1  0  0  0
 58151  1  0  0  0
 58152  1  0  0  0
 60153  1  0  0  0
 63154  1  0  0  0
 63155  1  0  0  0
 64156  1  0  0  0
 64157  1  0  0  0
 65158  1  0  0  0
 65159  1  0  0  0
 67160  1  0  0  0
 70161  1  0  0  0
 70162  1  0  0  0
 71163  1  0  0  0
 71164  1  0  0  0
 72165  1  0  0  0
 72166  1  0  0  0
 73167  1  0  0  0
 74168  1  0  0  0
 77169  1  0  0  0
 77170  1  0  0  0
 78171  1  0  0  0
 79172  1  0  0  0
 80173  1  0  0  0
 83174  1  0  0  0
 83175  1  0  0  0
 85176  1  0  0  0
 86177  1  0  0  0
 87178  1  0  0  0
 88179  1  0  0  0
 90180  1  0  0  0
 91181  1  0  0  0
 92182  1  0  0  0
 94183  1  0  0  0
 95184  1  0  0  0
 95185  1  0  0  0
 95186  1  0  0  0
M  END
$$$$
