### 
### Created by X-TOOL on Mon Aug  2 16:17:05 2021
### 

@<TRIPOS>MOLECULE
6jjz_ligand
  184   190     1     0     0
SMALL
GAST_HUCK


@<TRIPOS>ATOM
      1 N         -35.8770  -22.9000   -4.7260 N.4       1 ASP         0.2391
      2 CA        -34.7280  -22.9920   -3.8340 C.3       1 ASP         0.0764
      3 C         -33.8710  -21.7470   -3.9050 C.2       1 ASP         0.2284
      4 O         -33.6970  -21.1670   -4.9720 O.2       1 ASP        -0.3906
      5 CB        -33.8630  -24.2010   -4.1670 C.3       1 ASP         0.0607
      6 CG        -32.8660  -24.5120   -3.0700 C.2       1 ASP         0.0425
      7 OD1       -31.7650  -25.0150   -3.3790 O.co2     1 ASP        -0.5686
      8 OD2       -33.1860  -24.2470   -1.8930 O.co2     1 ASP        -0.5686
      9 N         -33.3040  -21.3610   -2.7690 N.am      1 ASP        -0.2612
     10 CA        -32.5130  -20.1430   -2.7090 C.3       1 ASP         0.1285
     11 C         -31.3660  -20.2950   -1.7090 C.2       1 ASP         0.2061
     12 O         -31.4510  -21.1040   -0.7830 O.2       1 ASP        -0.3942
     13 CB        -33.4140  -18.9590   -2.3420 C.3       1 ASP        -0.0244
     14 N         -30.2800  -19.5230   -1.8940 N.am      1 ASP        -0.2498
     15 CA        -29.1570  -19.5660   -0.9520 C.3       1 ASP         0.1340
     16 C         -29.5700  -18.9850    0.3860 C.2       1 ASP         0.2066
     17 O         -30.7030  -18.5050    0.4960 O.2       1 ASP        -0.3942
     18 CB        -28.0790  -18.6950   -1.6190 C.3       1 ASP        -0.0104
     19 CG        -28.6560  -18.1710   -2.8590 C.3       1 ASP        -0.0281
     20 CD        -30.1120  -18.4700   -2.9090 C.3       1 ASP         0.0369
     21 N         -28.6750  -19.0310    1.3880 N.am      1 ASP        -0.2498
     22 CA        -28.9610  -18.3440    2.6510 C.3       1 ASP         0.1340
     23 C         -29.3410  -16.8940    2.3880 C.2       1 ASP         0.2066
     24 O         -28.7810  -16.2870    1.4750 O.2       1 ASP        -0.3942
     25 CB        -27.6400  -18.4570    3.4070 C.3       1 ASP        -0.0104
     26 CG        -27.0770  -19.7500    2.9380 C.3       1 ASP        -0.0281
     27 CD        -27.4280  -19.8160    1.4710 C.3       1 ASP         0.0369
     28 N         -30.3120  -16.3570    3.1400 N.am      1 ASP        -0.2498
     29 CA        -30.7170  -14.9760    2.8790 C.3       1 ASP         0.1338
     30 C         -29.6030  -14.0230    3.2750 C.2       1 ASP         0.2042
     31 O         -28.6710  -14.4240    3.9770 O.2       1 ASP        -0.3944
     32 CB        -31.9580  -14.7840    3.7620 C.3       1 ASP        -0.0104
     33 CG        -32.3430  -16.1700    4.2370 C.3       1 ASP        -0.0281
     34 CD        -31.0780  -16.9630    4.2430 C.3       1 ASP         0.0369
     35 N         -29.6810  -12.7820    2.8140 N.am      1 ASP        -0.2621
     36 CA        -28.7030  -11.7960    3.2300 C.3       1 ASP         0.1390
     37 C         -28.7380  -11.6470    4.7430 C.2       1 ASP         0.2057
     38 O         -29.8060  -11.5310    5.3290 O.2       1 ASP        -0.3942
     39 CB        -28.9700  -10.4500    2.5730 C.3       1 ASP         0.0163
     40 CG        -27.8350   -9.4680    2.7540 C.ar      1 ASP        -0.0493
     41 CD1       -26.7140   -9.5210    1.9330 C.ar      1 ASP        -0.0685
     42 CD2       -27.8810   -8.4950    3.7500 C.ar      1 ASP        -0.0685
     43 CE1       -25.6730   -8.6210    2.0850 C.ar      1 ASP        -0.0398
     44 CE2       -26.8400   -7.5950    3.9190 C.ar      1 ASP        -0.0398
     45 CZ        -25.7400   -7.6690    3.0910 C.ar      1 ASP         0.0805
     46 OH        -24.7120   -6.7790    3.2520 O.3       1 ASP        -0.3376
     47 N         -27.5610  -11.6520    5.3600 N.am      1 ASP        -0.2633
     48 CA        -27.4370  -11.4120    6.7860 C.3       1 ASP         0.1333
     49 C         -26.9560   -9.9870    7.0070 C.2       1 ASP         0.2041
     50 O         -25.8110   -9.6600    6.7090 O.2       1 ASP        -0.3944
     51 CB        -26.4630  -12.3960    7.4470 C.3       1 ASP        -0.0063
     52 CG1       -26.2910  -12.0560    8.9210 C.3       1 ASP        -0.0584
     53 CG2       -26.9590  -13.8300    7.2790 C.3       1 ASP        -0.0584
     54 N         -27.8410   -9.1390    7.5160 N.am      1 ASP        -0.2640
     55 CA        -27.5260   -7.7340    7.7010 C.3       1 ASP         0.1284
     56 C         -26.6990   -7.5210    8.9610 C.2       1 ASP         0.2061
     57 O         -26.7270   -8.3460    9.8740 O.2       1 ASP        -0.3942
     58 CB        -28.8050   -6.9110    7.7660 C.3       1 ASP        -0.0244
     59 N         -25.9500   -6.4110    9.0090 N.am      1 ASP        -0.2498
     60 CA        -25.2780   -6.0070   10.2430 C.3       1 ASP         0.1340
     61 C         -26.3050   -5.5780   11.2950 C.2       1 ASP         0.2066
     62 O         -27.4940   -5.4690   10.9820 O.2       1 ASP        -0.3942
     63 CB        -24.3990   -4.8340    9.7890 C.3       1 ASP        -0.0104
     64 CG        -25.0950   -4.2880    8.6010 C.3       1 ASP        -0.0281
     65 CD        -25.6850   -5.4720    7.9030 C.3       1 ASP         0.0369
     66 N         -25.8680   -5.3610   12.5430 N.am      1 ASP        -0.2498
     67 CA        -26.8380   -4.9010   13.5420 C.3       1 ASP         0.1338
     68 C         -27.5610   -3.6370   13.0810 C.2       1 ASP         0.2042
     69 O         -26.9800   -2.8330   12.3490 O.2       1 ASP        -0.3944
     70 CB        -25.9690   -4.6310   14.7780 C.3       1 ASP        -0.0104
     71 CG        -24.7890   -5.5590   14.5900 C.3       1 ASP        -0.0281
     72 CD        -24.5230   -5.5390   13.1110 C.3       1 ASP         0.0369
     73 N         -28.8230   -3.4860   13.4630 N.am      1 ASP        -0.2616
     74 CA        -29.5970   -2.3240   13.0330 C.3       1 ASP         0.1539
     75 C         -29.0470   -1.0500   13.6660 C.2       1 ASP         0.2063
     76 O         -28.4390   -1.0930   14.7380 O.2       1 ASP        -0.3943
     77 CB        -31.0730   -2.4980   13.3850 C.3       1 ASP         0.0843
     78 OG        -31.6370   -3.5740   12.6600 O.3       1 ASP        -0.3903
     79 N         -29.2540    0.0750   12.9840 N.am      1 ASP        -0.2621
     80 CA        -28.8280    1.3790   13.4830 C.3       1 ASP         0.1390
     81 C         -29.5000    1.6800   14.8240 C.2       1 ASP         0.2052
     82 O         -30.7150    1.5560   14.9510 O.2       1 ASP        -0.3943
     83 CB        -29.1570    2.4720   12.4570 C.3       1 ASP         0.0163
     84 CG        -28.6870    3.8560   12.8600 C.ar      1 ASP        -0.0493
     85 CD1       -29.5400    4.7410   13.5050 C.ar      1 ASP        -0.0685
     86 CD2       -27.3860    4.2720   12.6010 C.ar      1 ASP        -0.0685
     87 CE1       -29.1100    6.0110   13.8870 C.ar      1 ASP        -0.0398
     88 CE2       -26.9470    5.5340   12.9740 C.ar      1 ASP        -0.0398
     89 CZ        -27.8100    6.3970   13.6180 C.ar      1 ASP         0.0805
     90 OH        -27.3740    7.6490   13.9840 O.3       1 ASP        -0.3376
     91 N         -28.7030    2.0640   15.8160 N.am      1 ASP        -0.2696
     92 CA        -29.2170    2.3220   17.1620 C.3       1 ASP         0.0916
     93 C         -29.1750    3.8110   17.4920 C.2       1 ASP         0.0598
     94 O         -28.2030    4.5000   17.1770 O.co2     1 ASP        -0.5666
     95 CB        -28.4210    1.5280   18.2000 C.3       1 ASP        -0.0300
     96 OXT       -30.1120    4.3540   18.0800 O.co2     1 ASP        -0.5666
     97 H1        -36.4257  -23.7426   -4.6551 H         1 ASP         0.2016
     98 H2        -35.5573  -22.7862   -5.6751 H         1 ASP         0.2016
     99 H3        -36.4427  -22.1077   -4.4647 H         1 ASP         0.2016
    100 H4        -35.1026  -23.1013   -2.8056 H         1 ASP         0.1117
    101 H5        -33.3132  -23.9975   -5.0977 H         1 ASP         0.0512
    102 H6        -34.5157  -25.0747   -4.3103 H         1 ASP         0.0512
    103 H7        -33.4223  -21.9145   -1.9446 H         1 ASP         0.1884
    104 H8        -32.0812  -19.9566   -3.7034 H         1 ASP         0.0797
    105 H9        -32.8115  -18.0397   -2.2977 H         1 ASP         0.0277
    106 H10       -33.8775  -19.1411   -1.3612 H         1 ASP         0.0277
    107 H11       -34.1996  -18.8461   -3.1036 H         1 ASP         0.0277
    108 H12       -28.7980  -20.5964   -0.8128 H         1 ASP         0.0802
    109 H13       -27.1893  -19.3016   -1.8436 H         1 ASP         0.0313
    110 H14       -27.7987  -17.8655   -0.9532 H         1 ASP         0.0313
    111 H15       -28.1579  -18.6412   -3.7197 H         1 ASP         0.0287
    112 H16       -28.5063  -17.0820   -2.8987 H         1 ASP         0.0287
    113 H17       -30.7055  -17.5796   -2.6542 H         1 ASP         0.0524
    114 H18       -30.4050  -18.8333   -3.9051 H         1 ASP         0.0524
    115 H19       -29.7727  -18.8422    3.2014 H         1 ASP         0.0802
    116 H20       -27.8098  -18.4740    4.4937 H         1 ASP         0.0313
    117 H21       -26.9700  -17.6222    3.1535 H         1 ASP         0.0313
    118 H22       -27.5313  -20.5906    3.4830 H         1 ASP         0.0287
    119 H23       -25.9859  -19.7702    3.0763 H         1 ASP         0.0287
    120 H24       -26.6360  -19.3650    0.8551 H         1 ASP         0.0524
    121 H25       -27.5940  -20.8554    1.1514 H         1 ASP         0.0524
    122 H26       -30.9665  -14.8307    1.8176 H         1 ASP         0.0802
    123 H27       -32.7773  -14.3370    3.1798 H         1 ASP         0.0313
    124 H28       -31.7219  -14.1368    4.6195 H         1 ASP         0.0313
    125 H29       -33.0746  -16.6209    3.5504 H         1 ASP         0.0287
    126 H30       -32.7706  -16.1231    5.2494 H         1 ASP         0.0287
    127 H31       -30.5472  -16.8561    5.2005 H         1 ASP         0.0524
    128 H32       -31.2762  -18.0277    4.0505 H         1 ASP         0.0524
    129 H33       -30.4123  -12.5271    2.1813 H         1 ASP         0.1885
    130 H34       -27.7034  -12.1423    2.9286 H         1 ASP         0.0821
    131 H35       -29.8803  -10.0187    3.0151 H         1 ASP         0.0453
    132 H36       -29.1260  -10.6106    1.4960 H         1 ASP         0.0453
    133 H37       -26.6542  -10.2797    1.1611 H         1 ASP         0.0530
    134 H38       -28.7444   -8.4407    4.4032 H         1 ASP         0.0530
    135 H39       -24.8144   -8.6601    1.4244 H         1 ASP         0.0525
    136 H40       -26.8905   -6.8399    4.6951 H         1 ASP         0.0525
    137 H41       -24.0349   -6.9596    2.6106 H         1 ASP         0.2458
    138 H42       -26.7345  -11.8267    4.8248 H         1 ASP         0.1883
    139 H43       -28.4263  -11.5340    7.2511 H         1 ASP         0.0802
    140 H44       -25.4849  -12.3058    6.9518 H         1 ASP         0.0343
    141 H45       -25.5911  -12.7683    9.3823 H         1 ASP         0.0234
    142 H46       -27.2652  -12.1188    9.4279 H         1 ASP         0.0234
    143 H47       -25.8924  -11.0354    9.0178 H         1 ASP         0.0234
    144 H48       -27.0762  -14.0544    6.2085 H         1 ASP         0.0234
    145 H49       -27.9285  -13.9444    7.7859 H         1 ASP         0.0234
    146 H50       -26.2297  -14.5245    7.7214 H         1 ASP         0.0234
    147 H51       -28.7455   -9.4756    7.7781 H         1 ASP         0.1883
    148 H52       -26.9356   -7.3945    6.8372 H         1 ASP         0.0797
    149 H53       -28.5514   -5.8498    7.9062 H         1 ASP         0.0277
    150 H54       -29.4203   -7.2556    8.6102 H         1 ASP         0.0277
    151 H55       -29.3675   -7.0328    6.8286 H         1 ASP         0.0277
    152 H56       -24.6622   -6.8246   10.6459 H         1 ASP         0.0802
    153 H57       -23.3908   -5.1839    9.5224 H         1 ASP         0.0313
    154 H58       -24.3259   -4.0736   10.5805 H         1 ASP         0.0313
    155 H59       -24.3824   -3.7696    7.9426 H         1 ASP         0.0287
    156 H60       -25.8869   -3.5886    8.9072 H         1 ASP         0.0287
    157 H61       -26.6156   -5.2010    7.3829 H         1 ASP         0.0524
    158 H62       -24.9735   -5.9009    7.1821 H         1 ASP         0.0524
    159 H63       -27.5811   -5.6843   13.7522 H         1 ASP         0.0802
    160 H64       -26.5147   -4.8713   15.7024 H         1 ASP         0.0313
    161 H65       -25.6425   -3.5810   14.8073 H         1 ASP         0.0313
    162 H66       -25.0377   -6.5764   14.9261 H         1 ASP         0.0287
    163 H67       -23.9141   -5.1924   15.1469 H         1 ASP         0.0287
    164 H68       -23.8632   -4.7023   12.8380 H         1 ASP         0.0524
    165 H69       -24.0730   -6.4852   12.7761 H         1 ASP         0.0524
    166 H70       -29.2482   -4.1742   14.0508 H         1 ASP         0.1884
    167 H71       -29.5093   -2.2348   11.9402 H         1 ASP         0.0823
    168 H72       -31.6146   -1.5730   13.1378 H         1 ASP         0.0606
    169 H73       -31.1658   -2.7006   14.4622 H         1 ASP         0.0606
    170 H74       -32.5535   -3.6654   12.8928 H         1 ASP         0.2097
    171 H75       -29.7174    0.0247   12.0993 H         1 ASP         0.1885
    172 H76       -27.7387    1.3580   13.6348 H         1 ASP         0.0821
    173 H77       -30.2482    2.5028   12.3219 H         1 ASP         0.0453
    174 H78       -28.6768    2.2075   11.5034 H         1 ASP         0.0453
    175 H79       -30.5596    4.4390   13.7156 H         1 ASP         0.0530
    176 H80       -26.7020    3.5978   12.0983 H         1 ASP         0.0530
    177 H81       -29.7889    6.6897   14.3904 H         1 ASP         0.0525
    178 H82       -25.9296    5.8411   12.7603 H         1 ASP         0.0525
    179 H83       -26.6397    7.5654   14.5808 H         1 ASP         0.2458
    180 H84       -27.7258    2.1798   15.6379 H         1 ASP         0.1875
    181 H85       -30.2650    1.9899   17.1995 H         1 ASP         0.0723
    182 H86       -28.8204    1.7337   19.2041 H         1 ASP         0.0270
    183 H87       -27.3632    1.8267   18.1579 H         1 ASP         0.0270
    184 H88       -28.5073    0.4528   17.9843 H         1 ASP         0.0270
@<TRIPOS>BOND
     1    1    2 1  
     2    2    3 1  
     3    2    5 1  
     4    3    4 2  
     5    3    9 am 
     6    5    6 1  
     7    6    7 ar 
     8    6    8 ar 
     9    9   10 1  
    10   10   11 1  
    11   10   13 1  
    12   11   12 2  
    13   11   14 am 
    14   14   15 1  
    15   14   20 1  
    16   15   16 1  
    17   15   18 1  
    18   16   17 2  
    19   16   21 am 
    20   18   19 1  
    21   19   20 1  
    22   21   22 1  
    23   21   27 1  
    24   22   23 1  
    25   22   25 1  
    26   23   24 2  
    27   23   28 am 
    28   25   26 1  
    29   26   27 1  
    30   28   29 1  
    31   28   34 1  
    32   29   30 1  
    33   29   32 1  
    34   30   31 2  
    35   30   35 am 
    36   32   33 1  
    37   33   34 1  
    38   35   36 1  
    39   36   37 1  
    40   36   39 1  
    41   37   38 2  
    42   37   47 am 
    43   39   40 1  
    44   40   41 ar 
    45   40   42 ar 
    46   41   43 ar 
    47   42   44 ar 
    48   43   45 ar 
    49   44   45 ar 
    50   45   46 1  
    51   47   48 1  
    52   48   49 1  
    53   48   51 1  
    54   49   50 2  
    55   49   54 am 
    56   51   52 1  
    57   51   53 1  
    58   54   55 1  
    59   55   56 1  
    60   55   58 1  
    61   56   57 2  
    62   56   59 am 
    63   59   60 1  
    64   59   65 1  
    65   60   61 1  
    66   60   63 1  
    67   61   62 2  
    68   61   66 am 
    69   63   64 1  
    70   64   65 1  
    71   66   67 1  
    72   66   72 1  
    73   67   68 1  
    74   67   70 1  
    75   68   69 2  
    76   68   73 am 
    77   70   71 1  
    78   71   72 1  
    79   73   74 1  
    80   74   75 1  
    81   74   77 1  
    82   75   76 2  
    83   75   79 am 
    84   77   78 1  
    85   79   80 1  
    86   80   81 1  
    87   80   83 1  
    88   81   82 2  
    89   81   91 am 
    90   83   84 1  
    91   84   85 ar 
    92   84   86 ar 
    93   85   87 ar 
    94   86   88 ar 
    95   87   89 ar 
    96   88   89 ar 
    97   89   90 1  
    98   91   92 1  
    99   92   93 1  
   100   92   95 1  
   101   93   94 ar 
   102   93   96 ar 
   103    1   97 1  
   104    1   98 1  
   105    1   99 1  
   106    2  100 1  
   107    5  101 1  
   108    5  102 1  
   109    9  103 1  
   110   10  104 1  
   111   13  105 1  
   112   13  106 1  
   113   13  107 1  
   114   15  108 1  
   115   18  109 1  
   116   18  110 1  
   117   19  111 1  
   118   19  112 1  
   119   20  113 1  
   120   20  114 1  
   121   22  115 1  
   122   25  116 1  
   123   25  117 1  
   124   26  118 1  
   125   26  119 1  
   126   27  120 1  
   127   27  121 1  
   128   29  122 1  
   129   32  123 1  
   130   32  124 1  
   131   33  125 1  
   132   33  126 1  
   133   34  127 1  
   134   34  128 1  
   135   35  129 1  
   136   36  130 1  
   137   39  131 1  
   138   39  132 1  
   139   41  133 1  
   140   42  134 1  
   141   43  135 1  
   142   44  136 1  
   143   46  137 1  
   144   47  138 1  
   145   48  139 1  
   146   51  140 1  
   147   52  141 1  
   148   52  142 1  
   149   52  143 1  
   150   53  144 1  
   151   53  145 1  
   152   53  146 1  
   153   54  147 1  
   154   55  148 1  
   155   58  149 1  
   156   58  150 1  
   157   58  151 1  
   158   60  152 1  
   159   63  153 1  
   160   63  154 1  
   161   64  155 1  
   162   64  156 1  
   163   65  157 1  
   164   65  158 1  
   165   67  159 1  
   166   70  160 1  
   167   70  161 1  
   168   71  162 1  
   169   71  163 1  
   170   72  164 1  
   171   72  165 1  
   172   73  166 1  
   173   74  167 1  
   174   77  168 1  
   175   77  169 1  
   176   78  170 1  
   177   79  171 1  
   178   80  172 1  
   179   83  173 1  
   180   83  174 1  
   181   85  175 1  
   182   86  176 1  
   183   87  177 1  
   184   88  178 1  
   185   90  179 1  
   186   91  180 1  
   187   92  181 1  
   188   95  182 1  
   189   95  183 1  
   190   95  184 1  
@<TRIPOS>SUBSTRUCTURE
     1 ASP         1

