3wv1_ligand
  -I-interpret- 

 58 61  0  0  0  0  0  0  0  0999 V2000
   44.4840   -6.0260  -14.8610 C   0  0  0  0  0
   52.7080   -8.6550  -10.8800 C   0  0  0  0  0
   53.3430   -9.3010   -8.6490 C   0  0  0  0  0
   44.2450   -5.2410  -13.7520 C   0  0  0  0  0
   52.1070   -7.5230  -10.3750 C   0  0  0  0  0
   52.7420   -8.1590   -8.1560 C   0  0  0  0  0
   45.6300   -5.5510   -7.2570 C   0  0  0  0  0
   43.7920   -5.8010  -16.0320 C   0  0  0  0  0
   46.4370   -6.0660   -6.2620 C   0  0  0  0  0
   42.6420   -4.0030  -14.9780 C   0  0  0  0  0
   47.5220   -4.5920   -8.3520 C   0  0  0  0  0
   53.3220   -9.5320  -10.0120 C   0  0  0  0  0
   52.1220   -7.2710   -9.0180 C   0  0  0  0  0
   43.3220   -4.2230  -13.7980 C   0  0  0  0  0
   46.1540   -4.8050   -8.2990 C   0  0  0  0  0
   42.8620   -4.7830  -16.0830 C   0  0  0  0  0
   48.3390   -5.1120   -7.3550 C   0  0  0  0  0
   47.7960   -5.8430   -6.3180 C   0  0  0  0  0
   48.0850   -3.7930   -9.4660 C   0  0  0  0  0
   45.8280   -3.6320  -10.2250 C   0  0  0  0  0
   53.9610  -10.7230  -10.5820 C   0  0  0  0  0
   45.0170   -3.0900  -11.3440 C   0  0  0  0  0
   42.4640   -5.2640  -18.3330 C   0  0  0  0  0
   51.4780   -6.0140   -8.5310 C   0  0  0  0  0
   43.0210   -3.3270  -12.6330 C   0  0  0  0  0
   50.1930   -6.2130   -7.7820 C   0  0  0  0  0
   45.2790   -4.3170   -9.2720 N   0  0  0  0  0
   47.1610   -3.3360  -10.3600 N   0  0  0  0  0
   43.7510   -3.5850  -11.4290 N   0  0  0  0  0
   49.2820   -3.5750   -9.5630 O   0  0  0  0  0
   54.3880  -10.7850  -11.7230 O   0  0  0  0  0
   45.5720   -2.3860  -12.1600 O   0  0  0  0  0
   54.0200  -11.6840   -9.6400 O   0  0  0  0  0
   42.1000   -4.4770  -17.2060 O   0  0  0  0  0
   49.7110   -4.9340   -7.3520 O   0  0  0  0  0
   48.6120   -6.3350   -5.3660 F   0  0  0  0  0
   45.2221   -6.8265  -14.8113 H   0  0  0  0  0
   52.6981   -8.8544  -11.9516 H   0  0  0  0  0
   53.8258  -10.0083   -7.9746 H   0  0  0  0  0
   44.7938   -5.4299  -12.8294 H   0  0  0  0  0
   51.6168   -6.8223  -11.0509 H   0  0  0  0  0
   52.7561   -7.9566   -7.0850 H   0  0  0  0  0
   44.5564   -5.7359   -7.2213 H   0  0  0  0  0
   43.9777   -6.4212  -16.9089 H   0  0  0  0  0
   46.0051   -6.6413   -5.4431 H   0  0  0  0  0
   41.9152   -3.1925  -15.0325 H   0  0  0  0  0
   43.5118   -5.0864  -18.5754 H   0  0  0  0  0
   42.3172   -6.3188  -18.1007 H   0  0  0  0  0
   41.8411   -4.9879  -19.1838 H   0  0  0  0  0
   51.2409   -5.4184   -9.4126 H   0  0  0  0  0
   52.1786   -5.5479   -7.8382 H   0  0  0  0  0
   41.9703   -3.4866  -12.3909 H   0  0  0  0  0
   43.2972   -2.3199  -12.9454 H   0  0  0  0  0
   50.3631   -6.8550   -6.9177 H   0  0  0  0  0
   49.4562   -6.6885   -8.4294 H   0  0  0  0  0
   47.4678   -2.7621  -11.1454 H   0  0  0  0  0
   43.3388   -4.1191  -10.6640 H   0  0  0  0  0
   53.6069  -11.3661   -8.8339 H   0  0  0  0  0
  4  1  4  0  0  0
  1  8  4  0  0  0
  5  2  4  0  0  0
  2 12  4  0  0  0
  6  3  4  0  0  0
  3 12  4  0  0  0
 14  4  4  0  0  0
 13  5  4  0  0  0
 13  6  4  0  0  0
  9  7  4  0  0  0
 15  7  4  0  0  0
 16  8  4  0  0  0
 18  9  4  0  0  0
 14 10  4  0  0  0
 10 16  4  0  0  0
 11 15  4  0  0  0
 17 11  4  0  0  0
 11 19  1  0  0  0
 12 21  1  0  0  0
 24 13  1  0  0  0
 25 14  1  0  0  0
 15 27  1  0  0  0
 16 34  1  0  0  0
 17 18  4  0  0  0
 35 17  1  0  0  0
 18 36  1  0  0  0
 19 28  1  0  0  0
 19 30  2  0  0  0
 20 22  1  0  0  0
 27 20  2  0  0  0
 28 20  1  0  0  0
 21 31  2  0  0  0
 21 33  1  0  0  0
 22 29  1  0  0  0
 22 32  2  0  0  0
 34 23  1  0  0  0
 26 24  1  0  0  0
 29 25  1  0  0  0
 26 35  1  0  0  0
  1 37  1  0  0  0
  2 38  1  0  0  0
  3 39  1  0  0  0
  4 40  1  0  0  0
  5 41  1  0  0  0
  6 42  1  0  0  0
  7 43  1  0  0  0
  8 44  1  0  0  0
  9 45  1  0  0  0
 10 46  1  0  0  0
 23 47  1  0  0  0
 23 48  1  0  0  0
 23 49  1  0  0  0
 24 50  1  0  0  0
 24 51  1  0  0  0
 25 52  1  0  0  0
 25 53  1  0  0  0
 26 54  1  0  0  0
 26 55  1  0  0  0
 28 56  1  0  0  0
 29 57  1  0  0  0
 33 58  1  0  0  0
M  END
$$$$
