1v16_ligand
  -I-interpret- 

 45 46  0  0  0  0  0  0  0  0999 V2000
   77.0480    0.6410   11.1880 N   0  0  0  0  0
   77.2970    1.8180   11.7370 C   0  0  0  0  0
   77.4390    1.9950   13.2770 C   0  0  0  0  0
   77.3660    2.9110   10.9250 N   0  0  0  0  0
   77.2880    2.8510    9.5620 C   0  0  0  0  0
   77.4280    4.0190    8.8930 N   0  0  0  0  0
   77.0280    1.5860    8.9620 C   0  0  0  0  0
   76.8830    0.5040    9.8490 C   0  0  0  0  0
   76.8820    1.3990    7.4130 C   0  0  0  0  0
   75.6030    2.0070    6.9640 N   0  3  0  0  0
   75.7460    3.2910    6.3050 C   0  0  0  0  0
   74.0010    3.6320    5.8920 S   0  0  0  0  0
   73.3200    2.1500    6.5060 C   0  0  0  0  0
   74.3850    1.4030    7.0040 C   0  0  0  0  0
   74.2570   -0.0260    7.6160 C   0  0  0  0  0
   71.8230    1.9030    6.4000 C   0  0  0  0  0
   71.0440    2.9360    7.2280 C   0  0  0  0  0
   69.6330    2.7480    7.1180 O   0  0  0  0  0
   68.6320    3.7430    7.6910 P   0  0  0  0  0
   68.7560    5.0370    6.7470 O   0  0  0  0  0
   69.0550    4.1690    9.0430 O   0  0  0  0  0
   67.2850    3.1100    7.5310 O   0  0  0  0  0
   68.4960    5.1530    5.1220 P   0  0  0  0  0
   69.8340    4.8260    4.4440 O   0  0  0  0  0
   67.4040    4.1630    4.7500 O   0  0  0  0  0
   68.0850    6.5580    4.8500 O   0  0  0  0  0
   76.5128    1.6891   13.7635 H   0  0  0  0  0
   78.2616    1.3777   13.6381 H   0  0  0  0  0
   77.6417    3.0417   13.5040 H   0  0  0  0  0
   77.5832    4.8860    9.4075 H   0  0  0  0  0
   77.3784    4.0324    7.8743 H   0  0  0  0  0
   76.6297   -0.4769    9.4468 H   0  0  0  0  0
   76.8855    0.3361    7.1716 H   0  0  0  0  0
   77.7153    1.8858    6.9063 H   0  0  0  0  0
   76.6403    3.8834    6.1115 H   0  0  0  0  0
   74.8828   -0.7184    7.0529 H   0  0  0  0  0
   74.5815   -0.0047    8.6563 H   0  0  0  0  0
   73.2175   -0.3500    7.5649 H   0  0  0  0  0
   71.6019    0.9060    6.7811 H   0  0  0  0  0
   71.5240    1.9900    5.3554 H   0  0  0  0  0
   71.2876    3.9300    6.8529 H   0  0  0  0  0
   71.3249    2.8185    8.2746 H   0  0  0  0  0
   67.1455    2.8862    6.6079 H   0  0  0  0  0
   70.0745    3.9165    4.6353 H   0  0  0  0  0
   67.7045    3.2710    4.9388 H   0  0  0  0  0
  1  2  4  0  0  0
  1  8  4  0  0  0
  2  3  1  0  0  0
  2  4  4  0  0  0
  4  5  4  0  0  0
  5  6  1  0  0  0
  5  7  4  0  0  0
  7  8  4  0  0  0
  7  9  1  0  0  0
  9 10  1  0  0  0
 10 11  4  0  0  0
 10 14  4  0  0  0
 11 12  4  0  0  0
 12 13  4  0  0  0
 13 14  4  0  0  0
 13 16  1  0  0  0
 14 15  1  0  0  0
 16 17  1  0  0  0
 17 18  1  0  0  0
 18 19  1  0  0  0
 19 20  1  0  0  0
 19 21  2  0  0  0
 19 22  1  0  0  0
 20 23  1  0  0  0
 23 24  1  0  0  0
 23 25  1  0  0  0
 23 26  2  0  0  0
  3 27  1  0  0  0
  3 28  1  0  0  0
  3 29  1  0  0  0
  6 30  1  0  0  0
  6 31  1  0  0  0
  8 32  1  0  0  0
  9 33  1  0  0  0
  9 34  1  0  0  0
 11 35  1  0  0  0
 15 36  1  0  0  0
 15 37  1  0  0  0
 15 38  1  0  0  0
 16 39  1  0  0  0
 16 40  1  0  0  0
 17 41  1  0  0  0
 17 42  1  0  0  0
 22 43  1  0  0  0
 24 44  1  0  0  0
 25 45  1  0  0  0
M  END
$$$$
