5ddd_ligand
  -I-interpret- 

 48 51  0  0  0  0  0  0  0  0999 V2000
   13.1900    7.4520   12.2150 C   0  0  0  0  0
   13.3750    8.7680   11.9540 C   0  0  0  0  0
   12.2990    9.4800   11.4380 C   0  0  0  0  0
   11.1320    8.8540   11.2110 N   0  0  0  0  0
   12.0290    6.8390   12.0160 N   0  0  0  0  0
   17.6150    6.6850   11.8440 F   0  0  0  0  0
   17.8090    8.0020   11.9790 C   0  0  0  0  0
   16.9300    8.4480   13.1720 C   0  0  0  0  0
   15.4580    8.2200   12.7450 C   0  0  0  0  0
   14.5360    6.7780   12.8910 S   0  0  0  0  0
   14.6560    9.1660   12.2470 C   0  0  0  0  0
   10.9770    7.5210   11.4980 C   0  0  0  0  0
   12.2550   10.7980   11.1230 N   0  0  0  0  0
   11.0860   11.3100   10.3490 C   0  0  0  0  0
   11.1260   12.7840   10.1360 C   0  0  0  0  0
   13.1880   11.8490   11.7270 C   0  0  0  0  0
   12.2230   12.7520   12.5080 C   0  0  0  0  0
   11.3640   13.4340   11.5230 N   0  3  0  0  0
   10.7670   14.6020   11.8210 C   0  0  0  0  0
   10.8700   15.3580   13.3100 S   0  0  0  0  0
    9.9130   16.8010   12.9010 C   0  0  0  0  0
    8.8140   17.0670   13.9700 C   0  0  0  0  0
   10.8370   18.0210   12.7740 C   0  0  0  0  0
    9.3570   16.5830   11.5630 C   0  0  0  0  0
    9.9880   15.3160   10.9780 N   0  0  0  0  0
   17.5352    8.5348   11.0684 H   0  0  0  0  0
   18.8600    8.2279   12.1593 H   0  0  0  0  0
   17.1072    9.4953   13.4167 H   0  0  0  0  0
   17.1692    7.8752   14.0680 H   0  0  0  0  0
   14.9971   10.1883   12.0838 H   0  0  0  0  0
   10.0268    7.0199   11.3133 H   0  0  0  0  0
   10.1857   11.0822   10.9197 H   0  0  0  0  0
   11.1034   10.8333    9.3689 H   0  0  0  0  0
   10.1917   13.1368    9.6992 H   0  0  0  0  0
   11.9222   13.0526    9.4417 H   0  0  0  0  0
   13.7605   12.3908   10.9742 H   0  0  0  0  0
   13.9655   11.4149   12.3557 H   0  0  0  0  0
   12.7762   13.4798   13.1016 H   0  0  0  0  0
   11.6197   12.1611   13.1972 H   0  0  0  0  0
    8.1450   16.2081   14.0229 H   0  0  0  0  0
    9.2838   17.2236   14.9410 H   0  0  0  0  0
    8.2461   17.9550   13.6922 H   0  0  0  0  0
   11.3512   18.1859   13.7209 H   0  0  0  0  0
   11.5699   17.8398   11.9878 H   0  0  0  0  0
   10.2434   18.9002   12.5235 H   0  0  0  0  0
    9.5765   17.4383   10.9239 H   0  0  0  0  0
    8.2748   16.4672   11.6230 H   0  0  0  0  0
    9.8302   15.0287   10.0121 H   0  0  0  0  0
  1  2  4  0  0  0
  1  5  4  0  0  0
 10  1  4  0  0  0
  2  3  4  0  0  0
  2 11  4  0  0  0
  3  4  4  0  0  0
  3 13  1  0  0  0
 12  4  4  0  0  0
  5 12  4  0  0  0
  7  6  1  0  0  0
  8  7  1  0  0  0
  9  8  1  0  0  0
  9 10  4  0  0  0
  9 11  4  0  0  0
 13 14  1  0  0  0
 13 16  1  0  0  0
 14 15  1  0  0  0
 15 18  1  0  0  0
 16 17  1  0  0  0
 17 18  1  0  0  0
 18 19  2  0  0  0
 19 20  1  0  0  0
 19 25  1  0  0  0
 20 21  1  0  0  0
 21 22  1  0  0  0
 21 23  1  0  0  0
 21 24  1  0  0  0
 24 25  1  0  0  0
  7 26  1  0  0  0
  7 27  1  0  0  0
  8 28  1  0  0  0
  8 29  1  0  0  0
 11 30  1  0  0  0
 12 31  1  0  0  0
 14 32  1  0  0  0
 14 33  1  0  0  0
 15 34  1  0  0  0
 15 35  1  0  0  0
 16 36  1  0  0  0
 16 37  1  0  0  0
 17 38  1  0  0  0
 17 39  1  0  0  0
 22 40  1  0  0  0
 22 41  1  0  0  0
 22 42  1  0  0  0
 23 43  1  0  0  0
 23 44  1  0  0  0
 23 45  1  0  0  0
 24 46  1  0  0  0
 24 47  1  0  0  0
 25 48  1  0  0  0
M  END
$$$$
