2wed_ligand
  -I-interpret- 

 72 75  0  0  0  0  0  0  0  0999 V2000
   18.5650    8.1550   19.6630 O   0  0  0  0  0
   21.0440    5.4740   19.1630 C   0  0  0  0  0
   20.9400    4.1000   19.1490 C   0  0  0  0  0
   22.0210    3.2630   19.5050 C   0  0  0  0  0
   23.2730    3.7700   19.7700 C   0  0  0  0  0
   23.4410    5.2060   19.7780 C   0  0  0  0  0
   22.3390    6.0530   19.4530 C   0  0  0  0  0
   22.5080    7.4600   19.5460 C   0  0  0  0  0
   23.7190    8.0170   19.8970 C   0  0  0  0  0
   24.8110    7.1710   20.2000 C   0  0  0  0  0
   24.6540    5.8130   20.1690 C   0  0  0  0  0
   19.7960    6.3150   18.8990 C   0  0  0  0  0
   19.4470    7.3080   19.9930 C   0  0  0  0  0
   23.8750    9.5100   19.9760 C   0  0  0  0  0
   23.3400    9.9860   21.3350 C   0  0  0  0  0
   20.0150    7.3340   21.1980 N   0  0  0  0  0
   19.8700    8.3390   22.2500 C   0  0  0  0  0
   21.3750    8.6870   22.2230 C   0  0  0  0  0
   22.1800    8.0780   22.9480 O   0  0  0  0  0
   19.3300    7.8770   23.6220 C   0  0  0  0  0
   19.1780    9.3220   24.0990 C   0  0  0  0  0
   17.9430    7.5370   23.0640 C   0  0  0  0  0
   21.9270    9.6650   21.4940 N   0  0  0  0  0
   23.5160   11.7720   21.4550 P   0  0  0  0  0
   24.9290   12.1260   21.2950 O   0  0  0  0  0
   22.6130   12.4420   20.5230 O   0  0  0  0  0
   24.0460   12.9730   23.7760 C   0  0  0  0  0
   23.2470   13.7890   24.8260 C   0  0  0  0  0
   21.9770   13.1330   25.3100 C   0  0  0  0  0
   20.9870   12.7520   24.4270 C   0  0  0  0  0
   21.7410   12.9820   26.6640 C   0  0  0  0  0
   19.8700   12.1100   24.8680 C   0  0  0  0  0
   20.5790   12.3820   27.1150 C   0  0  0  0  0
   19.6380   11.9610   26.2110 C   0  0  0  0  0
   24.8720   11.8900   24.4610 C   0  0  0  0  0
   27.0350   11.7710   25.4690 C   0  0  0  0  0
   23.2510   12.1700   22.9600 O   0  0  0  0  0
   25.7430   12.4970   25.2600 O   0  0  0  0  0
   24.6230   10.7240   24.5650 O   0  0  0  0  0
   19.9945    3.6449   18.8541 H   0  0  0  0  0
   21.8593    2.1871   19.5716 H   0  0  0  0  0
   24.1150    3.1068   19.9684 H   0  0  0  0  0
   21.6616    8.1137   19.3352 H   0  0  0  0  0
   25.7784    7.6017   20.4584 H   0  0  0  0  0
   25.4927    5.1786   20.4555 H   0  0  0  0  0
   18.9588    5.6208   18.8259 H   0  0  0  0  0
   19.9934    6.8962   17.9983 H   0  0  0  0  0
   23.3164    9.9852   19.1696 H   0  0  0  0  0
   24.9263    9.7796   19.8754 H   0  0  0  0  0
   23.9130    9.4791   22.1114 H   0  0  0  0  0
   20.6313    6.5507   21.4148 H   0  0  0  0  0
   19.1265    9.1208   22.0949 H   0  0  0  0  0
   19.7947    7.1513   24.2894 H   0  0  0  0  0
   20.1507    9.8136   24.0806 H   0  0  0  0  0
   18.4898    9.8505   23.4393 H   0  0  0  0  0
   18.7855    9.3282   25.1159 H   0  0  0  0  0
   17.4951    8.4338   22.6360 H   0  0  0  0  0
   18.0405    6.7740   22.2917 H   0  0  0  0  0
   17.3108    7.1623   23.8690 H   0  0  0  0  0
   21.2753   10.2619   20.9846 H   0  0  0  0  0
   25.4530   11.6463   21.9407 H   0  0  0  0  0
   24.5947   13.7406   23.2303 H   0  0  0  0  0
   22.9557   14.7225   24.3445 H   0  0  0  0  0
   23.8942   13.9026   25.6957 H   0  0  0  0  0
   21.1005   12.9675   23.3646 H   0  0  0  0  0
   22.4780   13.3393   27.3833 H   0  0  0  0  0
   19.1551   11.7117   24.1480 H   0  0  0  0  0
   20.4124   12.2446   28.1834 H   0  0  0  0  0
   18.7089   11.5095   26.5588 H   0  0  0  0  0
   26.8347   10.7961   25.9134 H   0  0  0  0  0
   27.5352   11.6386   24.5096 H   0  0  0  0  0
   27.6727   12.3515   26.1357 H   0  0  0  0  0
 13  1  2  0  0  0
  2  3  4  0  0  0
  7  2  4  0  0  0
  2 12  1  0  0  0
  3  4  4  0  0  0
  5  4  4  0  0  0
  6  5  4  0  0  0
  7  6  4  0  0  0
 11  6  4  0  0  0
  8  7  4  0  0  0
  9  8  4  0  0  0
  9 10  4  0  0  0
 10 11  4  0  0  0
 13 12  1  0  0  0
 16 13  1  0  0  0
 14  9  1  0  0  0
 15 14  1  0  0  0
 15 23  1  0  0  0
 24 15  1  0  0  0
 17 16  1  0  0  0
 18 17  1  0  0  0
 17 20  1  0  0  0
 18 19  2  0  0  0
 23 18  1  0  0  0
 20 21  1  0  0  0
 20 22  1  0  0  0
 24 25  1  0  0  0
 24 26  2  0  0  0
 37 24  1  0  0  0
 27 28  1  0  0  0
 27 35  1  0  0  0
 37 27  1  0  0  0
 28 29  1  0  0  0
 29 30  4  0  0  0
 29 31  4  0  0  0
 30 32  4  0  0  0
 31 33  4  0  0  0
 32 34  4  0  0  0
 33 34  4  0  0  0
 35 38  1  0  0  0
 35 39  2  0  0  0
 38 36  1  0  0  0
  3 40  1  0  0  0
  4 41  1  0  0  0
  5 42  1  0  0  0
  8 43  1  0  0  0
 10 44  1  0  0  0
 11 45  1  0  0  0
 12 46  1  0  0  0
 12 47  1  0  0  0
 14 48  1  0  0  0
 14 49  1  0  0  0
 15 50  1  0  0  0
 16 51  1  0  0  0
 17 52  1  0  0  0
 20 53  1  0  0  0
 21 54  1  0  0  0
 21 55  1  0  0  0
 21 56  1  0  0  0
 22 57  1  0  0  0
 22 58  1  0  0  0
 22 59  1  0  0  0
 23 60  1  0  0  0
 25 61  1  0  0  0
 27 62  1  0  0  0
 28 63  1  0  0  0
 28 64  1  0  0  0
 30 65  1  0  0  0
 31 66  1  0  0  0
 32 67  1  0  0  0
 33 68  1  0  0  0
 34 69  1  0  0  0
 36 70  1  0  0  0
 36 71  1  0  0  0
 36 72  1  0  0  0
M  END
$$$$
