3mhi_ligand
  -I-interpret- 

 33 34  0  0  0  0  0  0  0  0999 V2000
   -0.4050    9.0720   14.6540 N   0  0  0  0  0
   -1.5480    8.8020   15.2370 C   0  0  0  0  0
   -2.3080    7.8050   14.8250 N   0  0  0  0  0
   -2.0290    7.0040   13.7830 C   0  0  0  0  0
   -0.8090    7.2000   13.1290 C   0  0  0  0  0
   -0.0310    8.2680   13.6220 C   0  0  0  0  0
   -2.8900    5.9360   13.4480 N   0  0  0  0  0
   -4.6790    4.6850   14.5560 C   0  0  0  0  0
   -3.7050    3.6680   14.8770 C   0  0  0  0  0
   -4.1170    2.4950   15.6060 C   0  0  0  0  0
   -5.4610    2.3750   15.9280 C   0  0  0  0  0
   -6.3740    3.3590   15.5770 C   0  0  0  0  0
   -6.0120    4.5490   14.8800 C   0  0  0  0  0
   -6.0730    0.9080   16.7700 S   0  0  0  0  0
   -5.4910    0.9830   18.1410 O   0  0  0  0  0
   -7.5600    0.9250   16.6010 O   0  0  0  0  0
   -5.2930   -0.3710   16.0350 N   0  0  0  0  0
   -0.3400    6.3410   11.9530 N   0  0  0  0  0
    0.7460    6.7010   11.6080 O   0  0  0  0  0
   -1.1600    5.5490   11.6860 O   0  0  0  0  0
    1.1570    8.5450   12.9780 O   0  0  0  0  0
   -4.2670    5.9290   13.7680 C   0  0  0  0  0
   -1.8767    9.4127   16.0779 H   0  0  0  0  0
   -2.5009    5.1336   12.9529 H   0  0  0  0  0
   -2.6659    3.7868   14.5701 H   0  0  0  0  0
   -3.3975    1.7287   15.8944 H   0  0  0  0  0
   -7.4200    3.2152   15.8475 H   0  0  0  0  0
   -6.7482    5.3089   14.6179 H   0  0  0  0  0
   -4.5858   -0.8990   16.5464 H   0  0  0  0  0
   -5.5234   -0.6248   15.0743 H   0  0  0  0  0
    1.2963    7.9047   12.2765 H   0  0  0  0  0
   -4.8292    5.9370   12.8342 H   0  0  0  0  0
   -4.4728    6.8024   14.3868 H   0  0  0  0  0
  2  1  4  0  0  0
  6  1  4  0  0  0
  3  2  4  0  0  0
  4  3  4  0  0  0
  4  5  4  0  0  0
  7  4  1  0  0  0
  5  6  4  0  0  0
  5 18  1  0  0  0
  6 21  1  0  0  0
 22  7  1  0  0  0
  8  9  4  0  0  0
  8 13  4  0  0  0
  8 22  1  0  0  0
  9 10  4  0  0  0
 10 11  4  0  0  0
 11 12  4  0  0  0
 11 14  1  0  0  0
 12 13  4  0  0  0
 14 15  2  0  0  0
 14 16  2  0  0  0
 14 17  1  0  0  0
 18 19  2  0  0  0
 18 20  2  0  0  0
  2 23  1  0  0  0
  7 24  1  0  0  0
  9 25  1  0  0  0
 10 26  1  0  0  0
 12 27  1  0  0  0
 13 28  1  0  0  0
 17 29  1  0  0  0
 17 30  1  0  0  0
 21 31  1  0  0  0
 22 32  1  0  0  0
 22 33  1  0  0  0
M  END
$$$$
