5csx_ligand
  -I-interpret- 

 74 78  0  0  0  0  0  0  0  0999 V2000
   16.0260  -81.8280   93.0800 N   0  3  0  0  0
   16.9190  -81.1710   92.1060 C   0  0  0  0  0
   17.3390  -79.7930   92.6390 C   0  0  0  0  0
   16.0910  -78.9490   92.8970 C   0  0  0  0  0
   15.1810  -79.6880   93.8820 C   0  0  0  0  0
   14.8030  -81.0310   93.2650 C   0  0  0  0  0
   16.7640  -77.4580   94.8510 C   0  0  0  0  0
   17.2610  -74.2670   91.9720 C   0  0  0  0  0
   17.1960  -76.0790   88.8280 C   0  0  0  0  0
   16.6120  -79.5180   86.5370 C   0  0  0  0  0
   17.0830  -75.9680   90.2860 C   0  0  0  0  0
   17.8380  -72.5870   89.2620 C   0  0  0  0  0
   15.1390  -84.0030   93.8420 C   0  0  0  0  0
   15.6920  -83.1990   92.6580 C   0  0  0  0  0
   16.5280  -77.6310   93.4090 N   0  0  0  0  0
   16.7800  -76.5690   92.5240 C   0  0  0  0  0
   16.9940  -75.2370   92.9310 C   0  0  0  0  0
   17.3070  -74.6220   90.6150 C   0  0  0  0  0
   17.5390  -73.9480   89.4230 N   0  0  0  0  0
   17.4700  -74.8290   88.3800 C   0  0  0  0  0
   17.0100  -77.3020   88.0110 C   0  0  0  0  0
   17.4580  -77.3780   86.6750 C   0  0  0  0  0
   17.2390  -78.4930   85.9830 N   0  0  0  0  0
   16.1690  -79.4940   87.7760 N   0  0  0  0  0
   16.3380  -78.4240   88.5330 C   0  0  0  0  0
   16.8390  -76.8560   91.2390 N   0  0  0  0  0
   16.9850  -71.7780   88.5170 C   0  0  0  0  0
   15.8660  -72.3050   87.9850 F   0  0  0  0  0
   17.2720  -70.4300   88.3440 C   0  0  0  0  0
   18.4280  -69.8790   88.8870 C   0  0  0  0  0
   19.3060  -70.6780   89.6120 C   0  0  0  0  0
   20.4560  -70.1040   90.1690 N   0  0  0  0  0
   21.9500  -70.3350   89.5030 S   0  0  0  0  0
   22.8310  -69.7070   90.4130 O   0  0  0  0  0
   22.0610  -71.7340   89.2690 O   0  0  0  0  0
   21.8520  -69.4410   87.9380 C   0  0  0  0  0
   23.0860  -69.7660   87.0990 C   0  0  0  0  0
   22.8480  -69.2760   85.6700 C   0  0  0  0  0
   19.0090  -72.0360   89.7990 C   0  0  0  0  0
   19.8660  -72.7910   90.5130 F   0  0  0  0  0
   16.5178  -81.8888   93.9715 H   0  0  0  0  0
   16.3937  -81.0480   91.1589 H   0  0  0  0  0
   17.8059  -81.7866   91.9555 H   0  0  0  0  0
   17.9708  -79.2946   91.9038 H   0  0  0  0  0
   17.8951  -79.9154   93.5684 H   0  0  0  0  0
   15.5159  -78.7887   91.9851 H   0  0  0  0  0
   14.2845  -79.0998   94.0780 H   0  0  0  0  0
   15.6998  -79.8427   94.8281 H   0  0  0  0  0
   14.1135  -81.5594   93.9235 H   0  0  0  0  0
   14.3164  -80.8718   92.3027 H   0  0  0  0  0
   17.8134  -77.2166   95.0197 H   0  0  0  0  0
   16.1386  -76.6476   95.2256 H   0  0  0  0  0
   16.5141  -78.3821   95.3722 H   0  0  0  0  0
   17.4341  -73.2338   92.2730 H   0  0  0  0  0
   16.4561  -80.4187   85.9432 H   0  0  0  0  0
   15.8890  -84.0467   94.6318 H   0  0  0  0  0
   14.2391  -83.5180   94.2202 H   0  0  0  0  0
   14.8975  -85.0135   93.5122 H   0  0  0  0  0
   16.5941  -83.6864   92.2882 H   0  0  0  0  0
   14.9356  -83.1550   91.8744 H   0  0  0  0  0
   16.9506  -74.9701   93.9869 H   0  0  0  0  0
   17.6152  -74.5633   87.3329 H   0  0  0  0  0
   17.9759  -76.5355   86.2167 H   0  0  0  0  0
   15.9596  -78.4101   89.5551 H   0  0  0  0  0
   16.5862  -69.7992   87.7785 H   0  0  0  0  0
   18.6460  -68.8206   88.7443 H   0  0  0  0  0
   20.3687  -69.5289   91.0069 H   0  0  0  0  0
   21.8110  -68.3688   88.1300 H   0  0  0  0  0
   20.9530  -69.7413   87.3997 H   0  0  0  0  0
   23.2610  -70.8419   87.0979 H   0  0  0  0  0
   23.9614  -69.2713   87.5198 H   0  0  0  0  0
   21.9741  -69.7788   85.2557 H   0  0  0  0  0
   22.6786  -68.1993   85.6799 H   0  0  0  0  0
   23.7222  -69.5019   85.0595 H   0  0  0  0  0
  2  1  1  0  0  0
  6  1  1  0  0  0
  1 14  1  0  0  0
  3  2  1  0  0  0
  4  3  1  0  0  0
  4  5  1  0  0  0
 15  4  1  0  0  0
  5  6  1  0  0  0
 15  7  1  0  0  0
  8 17  4  0  0  0
 18  8  4  0  0  0
  9 11  4  0  0  0
  9 20  4  0  0  0
 21  9  1  0  0  0
 23 10  4  0  0  0
 10 24  4  0  0  0
 11 18  4  0  0  0
 11 26  4  0  0  0
 19 12  1  0  0  0
 12 27  4  0  0  0
 12 39  4  0  0  0
 14 13  1  0  0  0
 16 15  1  0  0  0
 16 17  4  0  0  0
 26 16  4  0  0  0
 19 18  4  0  0  0
 20 19  4  0  0  0
 22 21  4  0  0  0
 21 25  4  0  0  0
 22 23  4  0  0  0
 24 25  4  0  0  0
 27 28  1  0  0  0
 27 29  4  0  0  0
 29 30  4  0  0  0
 30 31  4  0  0  0
 31 32  1  0  0  0
 31 39  4  0  0  0
 32 33  1  0  0  0
 33 34  2  0  0  0
 33 35  2  0  0  0
 33 36  1  0  0  0
 36 37  1  0  0  0
 37 38  1  0  0  0
 39 40  1  0  0  0
  1 41  1  0  0  0
  2 42  1  0  0  0
  2 43  1  0  0  0
  3 44  1  0  0  0
  3 45  1  0  0  0
  4 46  1  0  0  0
  5 47  1  0  0  0
  5 48  1  0  0  0
  6 49  1  0  0  0
  6 50  1  0  0  0
  7 51  1  0  0  0
  7 52  1  0  0  0
  7 53  1  0  0  0
  8 54  1  0  0  0
 10 55  1  0  0  0
 13 56  1  0  0  0
 13 57  1  0  0  0
 13 58  1  0  0  0
 14 59  1  0  0  0
 14 60  1  0  0  0
 17 61  1  0  0  0
 20 62  1  0  0  0
 22 63  1  0  0  0
 25 64  1  0  0  0
 29 65  1  0  0  0
 30 66  1  0  0  0
 32 67  1  0  0  0
 36 68  1  0  0  0
 36 69  1  0  0  0
 37 70  1  0  0  0
 37 71  1  0  0  0
 38 72  1  0  0  0
 38 73  1  0  0  0
 38 74  1  0  0  0
M  END
$$$$
