3bl0_ligand
  -I-interpret- 

 23 23  0  0  0  0  0  0  0  0999 V2000
   -4.3930    7.4330   12.8310 C   0  0  0  0  0
   -5.2990    6.3810   13.2370 N   0  0  0  0  0
   -6.7030    6.6270   12.9950 C   0  0  0  0  0
   -4.8070    5.1870   13.7200 C   0  0  0  0  0
   -5.7200    3.7480   14.0210 S   0  0  0  0  0
   -3.5120    5.0100   13.9920 N   0  0  0  0  0
   -3.2130    3.7120   14.4280 N   0  0  0  0  0
   -4.2850    2.8900   14.5040 C   0  0  0  0  0
   -4.4090    1.4370   14.8800 C   0  0  0  0  0
   -5.2240    1.0780   16.2820 S   0  0  0  0  0
   -6.5510    1.4340   16.1720 O   0  0  0  0  0
   -5.1550   -0.4460   16.5620 N   0  0  0  0  0
   -4.5290    1.6510   17.3790 O   0  0  0  0  0
   -3.7776    7.7288   13.6807 H   0  0  0  0  0
   -3.7535    7.0696   12.0266 H   0  0  0  0  0
   -4.9676    8.2905   12.4809 H   0  0  0  0  0
   -7.0743    5.9129   12.2599 H   0  0  0  0  0
   -7.2566    6.5121   13.9269 H   0  0  0  0  0
   -6.8329    7.6408   12.6164 H   0  0  0  0  0
   -3.3891    1.0846   15.0338 H   0  0  0  0  0
   -4.9838    0.9734   14.0783 H   0  0  0  0  0
   -6.0143   -0.9911   16.6321 H   0  0  0  0  0
   -4.2503   -0.9031   16.6761 H   0  0  0  0  0
  1  2  1  0  0  0
  2  3  1  0  0  0
  2  4  1  0  0  0
  4  5  4  0  0  0
  4  6  4  0  0  0
  5  8  4  0  0  0
  6  7  4  0  0  0
  7  8  4  0  0  0
  8  9  1  0  0  0
  9 10  1  0  0  0
 10 11  2  0  0  0
 10 12  1  0  0  0
 10 13  2  0  0  0
  1 14  1  0  0  0
  1 15  1  0  0  0
  1 16  1  0  0  0
  3 17  1  0  0  0
  3 18  1  0  0  0
  3 19  1  0  0  0
  9 20  1  0  0  0
  9 21  1  0  0  0
 12 22  1  0  0  0
 12 23  1  0  0  0
M  END
$$$$
