### 
### Created by X-TOOL on Mon Sep 10 21:13:12 2018
### 

@<TRIPOS>MOLECULE
4dhp_ligand
   36    37     1     0     0
SMALL
GAST_HUCK


@<TRIPOS>ATOM
      1 OAI        21.5250   13.1490  -11.8130 O.co2     1 Y07        -0.5643
      2 PAG        21.8430   13.6180  -10.3440 P.3       1 Y07         0.0783
      3 OAJ        20.8240   14.7780   -9.9020 O.co2     1 Y07        -0.5643
      4 OAH        21.7470   12.5100   -9.3320 O.co2     1 Y07        -0.5643
      5 CAC        23.4970   14.3880  -10.3950 C.ar      1 Y07         0.0641
      6 CAD        23.6140   15.7680  -10.2120 C.ar      1 Y07        -0.0499
      7 CAE        24.8940   16.3370  -10.2560 C.ar      1 Y07        -0.0681
      8 CAF        26.0270   15.5330  -10.4850 C.ar      1 Y07        -0.0672
      9 CAA        25.8910   14.1440  -10.6830 C.ar      1 Y07        -0.0277
     10 CAB        24.6000   13.5800  -10.6310 C.ar      1 Y07         0.1159
     11 OAK        24.3740   12.2360  -10.8260 O.3       1 Y07        -0.2925
     12 CAL        25.2480   11.2500  -10.2140 C.3       1 Y07         0.1661
     13 CAM        24.4740   10.0440   -9.6160 C.2       1 Y07         0.2352
     14 OAO        25.1150    9.0180   -9.3970 O.2       1 Y07        -0.3818
     15 NAN        23.1640   10.1320   -9.3620 N.am      1 Y07        -0.2251
     16 CAP        22.4860    9.1360   -8.7540 C.ar      1 Y07         0.1095
     17 CAU        22.4140    9.1630   -7.3640 C.ar      1 Y07        -0.0124
     18 CAQ        21.7310    8.1840   -6.6480 C.ar      1 Y07         0.0323
     19 CAW        21.6870    8.2640   -5.1110 C.3       1 Y07         0.3713
     20 FAY        21.1080    7.1910   -4.5740 F         1 Y07        -0.2223
     21 FAZ        20.9830    9.3300   -4.7680 F         1 Y07        -0.2223
     22 FAX        22.9190    8.4000   -4.6410 F         1 Y07        -0.2223
     23 CAR        21.1110    7.1500   -7.3350 C.ar      1 Y07        -0.0449
     24 CAS        21.1570    7.1170   -8.7260 C.ar      1 Y07        -0.0289
     25 CAT        21.8420    8.1010   -9.4320 C.ar      1 Y07         0.0929
     26 CL1        21.8780    8.0110  -11.1540 Cl        1 Y07        -0.0520
     27 H1         22.7377   16.3826  -10.0405 H         1 Y07         0.0634
     28 H2         25.0128   17.4049  -10.1126 H         1 Y07         0.0533
     29 H3         27.0116   15.9857  -10.5092 H         1 Y07         0.0616
     30 H4         26.7597   13.5234  -10.8710 H         1 Y07         0.0552
     31 H5         25.8161   11.7370   -9.4077 H         1 Y07         0.0867
     32 H6         25.9444   10.8756  -10.9787 H         1 Y07         0.0867
     33 H7         22.6722   10.9603   -9.6305 H         1 Y07         0.2264
     34 H8         22.9024    9.9671   -6.8254 H         1 Y07         0.0706
     35 H9         20.5921    6.3698   -6.7899 H         1 Y07         0.0740
     36 H10        20.6559    6.3195   -9.2626 H         1 Y07         0.0669
@<TRIPOS>BOND
     1    1    2 ar 
     2    2    3 ar 
     3    2    4 ar 
     4    2    5 1  
     5    5    6 ar 
     6    5   10 ar 
     7    6    7 ar 
     8    7    8 ar 
     9    8    9 ar 
    10    9   10 ar 
    11   10   11 1  
    12   11   12 1  
    13   12   13 1  
    14   13   14 2  
    15   13   15 am 
    16   15   16 1  
    17   16   17 ar 
    18   16   25 ar 
    19   17   18 ar 
    20   18   19 1  
    21   18   23 ar 
    22   19   20 1  
    23   19   21 1  
    24   19   22 1  
    25   23   24 ar 
    26   24   25 ar 
    27   25   26 1  
    28    6   27 1  
    29    7   28 1  
    30    8   29 1  
    31    9   30 1  
    32   12   31 1  
    33   12   32 1  
    34   15   33 1  
    35   17   34 1  
    36   23   35 1  
    37   24   36 1  
@<TRIPOS>SUBSTRUCTURE
     1 Y07         1

