4dhp_ligand
  -I-interpret- 

 38 39  0  0  0  0  0  0  0  0999 V2000
   21.5250   13.1490  -11.8130 O   0  0  0  0  0
   21.8430   13.6180  -10.3440 P   0  0  0  0  0
   20.8240   14.7780   -9.9020 O   0  0  0  0  0
   21.7470   12.5100   -9.3320 O   0  0  0  0  0
   23.4970   14.3880  -10.3950 C   0  0  0  0  0
   23.6140   15.7680  -10.2120 C   0  0  0  0  0
   24.8940   16.3370  -10.2560 C   0  0  0  0  0
   26.0270   15.5330  -10.4850 C   0  0  0  0  0
   25.8910   14.1440  -10.6830 C   0  0  0  0  0
   24.6000   13.5800  -10.6310 C   0  0  0  0  0
   24.3740   12.2360  -10.8260 O   0  0  0  0  0
   25.2480   11.2500  -10.2140 C   0  0  0  0  0
   24.4740   10.0440   -9.6160 C   0  0  0  0  0
   25.1150    9.0180   -9.3970 O   0  0  0  0  0
   23.1640   10.1320   -9.3620 N   0  0  0  0  0
   22.4860    9.1360   -8.7540 C   0  0  0  0  0
   22.4140    9.1630   -7.3640 C   0  0  0  0  0
   21.7310    8.1840   -6.6480 C   0  0  0  0  0
   21.6870    8.2640   -5.1110 C   0  0  0  0  0
   21.1080    7.1910   -4.5740 F   0  0  0  0  0
   20.9830    9.3300   -4.7680 F   0  0  0  0  0
   22.9190    8.4000   -4.6410 F   0  0  0  0  0
   21.1110    7.1500   -7.3350 C   0  0  0  0  0
   21.1570    7.1170   -8.7260 C   0  0  0  0  0
   21.8420    8.1010   -9.4320 C   0  0  0  0  0
   21.8780    8.0110  -11.1540 Cl  0  0  0  0  0
   21.6023   13.8966  -12.4102 H   0  0  0  0  0
   20.8674   15.4987  -10.5347 H   0  0  0  0  0
   22.7329   16.3860  -10.0395 H   0  0  0  0  0
   25.0134   17.4108  -10.1118 H   0  0  0  0  0
   27.0171   15.9883  -10.5094 H   0  0  0  0  0
   26.7645   13.5200  -10.8721 H   0  0  0  0  0
   25.7826   11.7391   -9.3997 H   0  0  0  0  0
   25.9124   10.8677  -10.9889 H   0  0  0  0  0
   22.6624   10.9769   -9.6359 H   0  0  0  0  0
   22.9051    9.9715   -6.8224 H   0  0  0  0  0
   20.5892    6.3655   -6.7869 H   0  0  0  0  0
   20.6531    6.3151   -9.2655 H   0  0  0  0  0
  1  2  1  0  0  0
  2  3  1  0  0  0
  2  4  2  0  0  0
  2  5  1  0  0  0
  5  6  4  0  0  0
  5 10  4  0  0  0
  6  7  4  0  0  0
  7  8  4  0  0  0
  8  9  4  0  0  0
  9 10  4  0  0  0
 10 11  1  0  0  0
 11 12  1  0  0  0
 12 13  1  0  0  0
 13 14  2  0  0  0
 13 15  1  0  0  0
 15 16  1  0  0  0
 16 17  4  0  0  0
 16 25  4  0  0  0
 17 18  4  0  0  0
 18 19  1  0  0  0
 18 23  4  0  0  0
 19 20  1  0  0  0
 19 21  1  0  0  0
 19 22  1  0  0  0
 23 24  4  0  0  0
 24 25  4  0  0  0
 25 26  1  0  0  0
  1 27  1  0  0  0
  3 28  1  0  0  0
  6 29  1  0  0  0
  7 30  1  0  0  0
  8 31  1  0  0  0
  9 32  1  0  0  0
 12 33  1  0  0  0
 12 34  1  0  0  0
 15 35  1  0  0  0
 17 36  1  0  0  0
 23 37  1  0  0  0
 24 38  1  0  0  0
M  END
$$$$
