4zsl_ligand
  -I-interpret- 

 42 44  0  0  0  0  0  0  0  0999 V2000
   95.8340   38.9860   52.4990 C   0  0  0  0  0
   96.7450   39.9180   53.2720 C   0  0  0  0  0
   97.3810   39.4890   54.4750 C   0  0  0  0  0
   96.9350   41.2380   52.7980 C   0  0  0  0  0
   96.5630   37.2280   50.8970 C   0  0  0  0  0
   97.2130   35.1130   49.5300 C   0  0  0  0  0
   98.4200   34.1360   51.0920 C   0  0  0  0  0
   96.3500   34.8700   47.1680 C   0  0  0  0  0
   96.9070   33.6140   46.8220 C   0  0  0  0  0
   96.6320   33.0910   45.5640 C   0  0  0  0  0
   95.8080   33.8200   44.7100 C   0  0  0  0  0
   95.2330   35.0560   45.0080 C   0  0  0  0  0
   95.5190   35.5960   46.2560 C   0  0  0  0  0
   95.4880   33.1610   43.2070 Cl  0  0  0  0  0
   96.5160   35.5120   48.4030 N   0  0  0  0  0
   97.9350   33.9730   49.7520 N   0  0  0  0  0
   99.1200   33.1900   51.6880 N   0  0  0  0  0
   98.0290   35.3280   51.6950 N   0  0  0  0  0
   97.2440   35.9510   50.6930 N   0  0  0  0  0
   96.0680   37.8030   49.8990 O   0  0  0  0  0
   96.4850   37.7050   52.2070 N   0  0  0  0  0
   94.5450   38.7320   53.2740 C   0  0  0  0  0
   97.7430   42.1350   53.5270 C   0  0  0  0  0
   98.3640   41.7070   54.7300 C   0  0  0  0  0
   98.1890   40.3860   55.2010 C   0  0  0  0  0
   95.6030   39.4767   51.5535 H   0  0  0  0  0
   97.2419   38.4685   54.8318 H   0  0  0  0  0
   96.4583   41.5603   51.8723 H   0  0  0  0  0
   97.5367   33.0704   47.5263 H   0  0  0  0  0
   97.0509   32.1338   45.2534 H   0  0  0  0  0
   94.5901   35.5733   44.2958 H   0  0  0  0  0
   95.1128   36.5671   46.5390 H   0  0  0  0  0
   96.0496   36.4155   48.4837 H   0  0  0  0  0
   99.3263   32.3211   51.1953 H   0  0  0  0  0
   99.4549   33.3275   52.6416 H   0  0  0  0  0
   96.8849   37.1568   52.9685 H   0  0  0  0  0
   93.8785   38.1117   52.6747 H   0  0  0  0  0
   94.7787   38.2198   54.2074 H   0  0  0  0  0
   94.0600   39.6835   53.4918 H   0  0  0  0  0
   97.8903   43.1536   53.1681 H   0  0  0  0  0
   98.9819   42.4042   55.2959 H   0  0  0  0  0
   98.6765   40.0631   56.1209 H   0  0  0  0  0
  1  2  1  0  0  0
 21  1  1  0  0  0
  1 22  1  0  0  0
  2  3  4  0  0  0
  2  4  4  0  0  0
  3 25  4  0  0  0
  4 23  4  0  0  0
 19  5  1  0  0  0
  5 20  2  0  0  0
  5 21  1  0  0  0
 15  6  1  0  0  0
  6 16  4  0  0  0
  6 19  4  0  0  0
 16  7  4  0  0  0
  7 17  1  0  0  0
  7 18  4  0  0  0
  8  9  4  0  0  0
  8 13  4  0  0  0
  8 15  1  0  0  0
  9 10  4  0  0  0
 10 11  4  0  0  0
 11 12  4  0  0  0
 11 14  1  0  0  0
 12 13  4  0  0  0
 18 19  4  0  0  0
 23 24  4  0  0  0
 24 25  4  0  0  0
  1 26  1  0  0  0
  3 27  1  0  0  0
  4 28  1  0  0  0
  9 29  1  0  0  0
 10 30  1  0  0  0
 12 31  1  0  0  0
 13 32  1  0  0  0
 15 33  1  0  0  0
 17 34  1  0  0  0
 17 35  1  0  0  0
 21 36  1  0  0  0
 22 37  1  0  0  0
 22 38  1  0  0  0
 22 39  1  0  0  0
 23 40  1  0  0  0
 24 41  1  0  0  0
 25 42  1  0  0  0
M  END
$$$$
