5o3r_ligand
  -I-interpret- 

 37 39  0  0  0  0  0  0  0  0999 V2000
  -21.1720   10.7330    6.1590 P   0  0  0  0  0
  -22.1120   11.7340    5.5280 O   0  0  0  0  0
  -20.8170   11.1400    7.5910 O   0  0  0  0  0
  -21.5160    9.2650    5.9500 O   0  0  0  0  0
  -19.8070   10.9110    5.2740 O   0  0  0  0  0
  -19.7590   10.9830    3.8490 C   0  0  0  0  0
  -18.3110   10.8850    3.3900 C   0  0  0  0  0
  -17.5200   11.8890    4.0470 O   0  0  0  0  0
  -17.6700    9.5410    3.7530 C   0  0  0  0  0
  -17.9510    8.4950    2.8170 O   0  0  0  0  0
  -16.1980    9.8900    3.8160 C   0  0  0  0  0
  -15.5850    9.9470    2.5170 O   0  0  0  0  0
  -16.2450   11.2880    4.3860 C   0  0  0  0  0
  -16.0700   11.2500    5.8520 N   0  0  0  0  0
  -17.0080   11.1260    6.8290 C   0  0  0  0  0
  -16.4150   11.1630    8.0670 N   0  0  0  0  0
  -15.0860   11.3280    7.8560 C   0  0  0  0  0
  -13.8840   11.4550    8.6920 C   0  0  0  0  0
  -13.9940   11.4130   10.0430 N   0  0  0  0  0
  -12.6970   11.5850    8.0480 N   0  0  0  0  0
  -12.5580   11.6210    6.6960 C   0  0  0  0  0
  -13.6110   11.5160    5.8640 N   0  0  0  0  0
  -14.8590   11.3740    6.3920 C   0  0  0  0  0
  -20.2204   10.4897    7.9687 H   0  0  0  0  0
  -20.8600    8.7182    6.3885 H   0  0  0  0  0
  -20.1843   11.9299    3.5165 H   0  0  0  0  0
  -20.3339   10.1612    3.4221 H   0  0  0  0  0
  -18.3299   11.0089    2.3072 H   0  0  0  0  0
  -18.0616    9.1285    4.6828 H   0  0  0  0  0
  -17.5212    7.6861    3.1043 H   0  0  0  0  0
  -15.6228    9.1574    4.3822 H   0  0  0  0  0
  -14.6563   10.1709    2.6122 H   0  0  0  0  0
  -15.4357   11.8832    3.9631 H   0  0  0  0  0
  -18.0780   11.0133    6.6542 H   0  0  0  0  0
  -14.9094   11.2935   10.4767 H   0  0  0  0  0
  -13.1613   11.5009   10.6255 H   0  0  0  0  0
  -11.5609   11.7388    6.2717 H   0  0  0  0  0
  1  2  2  0  0  0
  1  3  1  0  0  0
  1  4  1  0  0  0
  1  5  1  0  0  0
  5  6  1  0  0  0
  6  7  1  0  0  0
  7  8  1  0  0  0
  7  9  1  0  0  0
  8 13  1  0  0  0
  9 10  1  0  0  0
  9 11  1  0  0  0
 11 12  1  0  0  0
 11 13  1  0  0  0
 13 14  1  0  0  0
 14 15  4  0  0  0
 14 23  4  0  0  0
 15 16  4  0  0  0
 16 17  4  0  0  0
 17 18  4  0  0  0
 17 23  4  0  0  0
 18 19  1  0  0  0
 18 20  4  0  0  0
 20 21  4  0  0  0
 21 22  4  0  0  0
 22 23  4  0  0  0
  3 24  1  0  0  0
  4 25  1  0  0  0
  6 26  1  0  0  0
  6 27  1  0  0  0
  7 28  1  0  0  0
  9 29  1  0  0  0
 10 30  1  0  0  0
 11 31  1  0  0  0
 12 32  1  0  0  0
 13 33  1  0  0  0
 15 34  1  0  0  0
 19 35  1  0  0  0
 19 36  1  0  0  0
 21 37  1  0  0  0
M  END
$$$$
