### 
### Created by X-TOOL on Wed Jan  1 15:39:35 2020
### 

@<TRIPOS>MOLECULE
5o3r_ligand
   35    37     1     0     0
SMALL
GAST_HUCK


@<TRIPOS>ATOM
      1 P         -21.1720   10.7330    6.1590 P.3       1 AMP         0.2008
      2 O1P       -22.1120   11.7340    5.5280 O.co2     1 AMP        -0.5537
      3 O2P       -20.8170   11.1400    7.5910 O.co2     1 AMP        -0.5537
      4 O3P       -21.5160    9.2650    5.9500 O.co2     1 AMP        -0.5537
      5 O5'       -19.8070   10.9110    5.2740 O.3       1 AMP        -0.2734
      6 C5'       -19.7590   10.9830    3.8490 C.3       1 AMP         0.1072
      7 C4'       -18.3110   10.8850    3.3900 C.3       1 AMP         0.1182
      8 O4'       -17.5200   11.8890    4.0470 O.3       1 AMP        -0.3365
      9 C3'       -17.6700    9.5410    3.7530 C.3       1 AMP         0.1149
     10 O3'       -17.9510    8.4950    2.8170 O.3       1 AMP        -0.3864
     11 C2'       -16.1980    9.8900    3.8160 C.3       1 AMP         0.1385
     12 O2'       -15.5850    9.9470    2.5170 O.3       1 AMP        -0.3836
     13 C1'       -16.2450   11.2880    4.3860 C.3       1 AMP         0.2010
     14 N9        -16.0700   11.2500    5.8520 N.pl3     1 AMP        -0.1919
     15 C8        -17.0080   11.1260    6.8290 C.2       1 AMP         0.1123
     16 N7        -16.4150   11.1630    8.0670 N.2       1 AMP        -0.2958
     17 C5        -15.0860   11.3280    7.8560 C.ar      1 AMP         0.1045
     18 C6        -13.8840   11.4550    8.6920 C.ar      1 AMP         0.1298
     19 N6        -13.9940   11.4130   10.0430 N.pl3     1 AMP        -0.3152
     20 N1        -12.6970   11.5850    8.0480 N.ar      1 AMP        -0.2698
     21 C2        -12.5580   11.6210    6.6960 C.ar      1 AMP         0.0533
     22 N3        -13.6110   11.5160    5.8640 N.ar      1 AMP        -0.2714
     23 C4        -14.8590   11.3740    6.3920 C.ar      1 AMP         0.1613
     24 H1        -20.1867   11.9397    3.5146 H         1 AMP         0.0639
     25 H2        -20.3379   10.1523    3.4192 H         1 AMP         0.0639
     26 H3        -18.2744   11.0282    2.3000 H         1 AMP         0.0650
     27 H4        -18.0234    9.2131    4.7417 H         1 AMP         0.0648
     28 H5        -17.6234    8.7419    1.9602 H         1 AMP         0.2100
     29 H6        -15.6465    9.1926    4.4637 H         1 AMP         0.0676
     30 H7        -14.6660   10.1685    2.6112 H         1 AMP         0.2101
     31 H8        -15.4340   11.8863    3.9452 H         1 AMP         0.0996
     32 H9        -18.0770   11.0134    6.6544 H         1 AMP         0.1349
     33 H10       -13.1531   11.5018   10.6312 H         1 AMP         0.1820
     34 H11       -14.9184   11.2923   10.4809 H         1 AMP         0.1820
     35 H12       -11.5664   11.7381    6.2741 H         1 AMP         0.0996
@<TRIPOS>BOND
     1    1    2 ar 
     2    1    3 ar 
     3    1    4 ar 
     4    1    5 1  
     5    5    6 1  
     6    6    7 1  
     7    7    8 1  
     8    7    9 1  
     9    8   13 1  
    10    9   10 1  
    11    9   11 1  
    12   11   12 1  
    13   11   13 1  
    14   13   14 1  
    15   14   15 1  
    16   14   23 1  
    17   15   16 2  
    18   16   17 1  
    19   17   18 ar 
    20   17   23 ar 
    21   18   19 1  
    22   18   20 ar 
    23   20   21 ar 
    24   21   22 ar 
    25   22   23 ar 
    26    6   24 1  
    27    6   25 1  
    28    7   26 1  
    29    9   27 1  
    30   10   28 1  
    31   11   29 1  
    32   12   30 1  
    33   13   31 1  
    34   15   32 1  
    35   19   33 1  
    36   19   34 1  
    37   21   35 1  
@<TRIPOS>SUBSTRUCTURE
     1 AMP         1

