### 
### Created by X-TOOL on Mon Sep 10 21:13:04 2018
### 

@<TRIPOS>MOLECULE
2xru_ligand
   66    70     1     0     0
SMALL
GAST_HUCK


@<TRIPOS>ATOM
      1 C1          3.7470   31.6470    7.9320 C.2       1 400         0.1351
      2 N2          3.5630   31.9500    9.2420 N.2       1 400        -0.2232
      3 N3          4.3810   31.2430   10.0000 N.pl3     1 400        -0.2436
      4 C4          4.7550   30.6780    7.8850 C.2       1 400         0.0838
      5 C5          5.1370   30.4460    9.1940 C.2       1 400         0.0783
      6 C6          6.1650   29.5030    9.3180 C.2       1 400        -0.0185
      7 C7          6.5710   29.0160    8.0490 C.2       1 400         0.0973
      8 S8          5.6420   29.7200    6.7270 S.3       1 400        -0.0427
      9 N9          3.0090   32.2690    7.0000 N.am      1 400        -0.2340
     10 C10         3.1830   32.3860    5.6410 C.2       1 400         0.2187
     11 C11         2.5540   33.4510    4.8550 C.ar      1 400         0.0413
     12 O12         3.9060   31.5140    5.0410 O.2       1 400        -0.3815
     13 C13         1.6110   34.3900    5.4170 C.ar      1 400        -0.0531
     14 C14         1.0240   35.4080    4.6200 C.ar      1 400        -0.0381
     15 C15         1.3320   35.5620    3.1990 C.ar      1 400         0.0456
     16 C16         2.2670   34.6220    2.6430 C.ar      1 400        -0.0381
     17 C17         2.8550   33.6050    3.4410 C.ar      1 400        -0.0531
     18 N18         0.7510   36.5810    2.4350 N.pl3     1 400        -0.3099
     19 C19        -0.1590   36.3020    1.2540 C.3       1 400         0.0093
     20 C20        -0.0350   37.3640    0.0850 C.3       1 400        -0.0930
     21 N21         0.0440   38.7800    0.6770 N.4       1 400         0.4034
     22 C22         1.2470   38.8780    1.5890 C.3       1 400        -0.0930
     23 C23         0.9740   37.9950    2.8210 C.3       1 400         0.0093
     24 C24         0.0980   39.8480   -0.3940 C.3       1 400        -0.1255
     25 C25         7.6380   28.0720    7.8220 C.2       1 400         0.2119
     26 O26         8.1640   27.4530    8.7840 O.2       1 400        -0.3884
     27 N27         8.1380   27.8580    6.5820 N.am      1 400        -0.2728
     28 C28         9.2770   27.0380    6.2430 C.3       1 400         0.0744
     29 C29         8.7500   25.7080    5.7530 C.ar      1 400        -0.0181
     30 C30        10.1460   27.8230    5.2220 C.3       1 400        -0.0229
     31 C31         7.5120   25.6070    4.9570 C.ar      1 400        -0.0582
     32 C32         7.0020   24.3290    4.4990 C.ar      1 400        -0.0685
     33 C33         7.7210   23.1280    4.8310 C.ar      1 400        -0.0687
     34 C34         8.9460   23.2050    5.6150 C.ar      1 400        -0.0685
     35 C35         9.4550   24.4830    6.0700 C.ar      1 400        -0.0582
     36 C36        11.0320   28.9190    5.8880 C.3       1 400        -0.0614
     37 H           4.4374   31.2862   11.0175 H         1 400         0.2336
     38 H           6.5971   29.1845   10.2667 H         1 400         0.0536
     39 H           2.1765   32.7347    7.3613 H         1 400         0.2197
     40 H           1.3454   34.3157    6.4715 H         1 400         0.0636
     41 H           0.3194   36.0985    5.0835 H         1 400         0.0530
     42 H           2.5299   34.6913    1.5875 H         1 400         0.0530
     43 H           3.5582   32.9141    2.9760 H         1 400         0.0636
     44 H          -1.1854   36.3393    1.6190 H         1 400         0.0496
     45 H           0.1281   35.3335    0.8446 H         1 400         0.0496
     46 H          -0.9087   37.2917   -0.5628 H         1 400         0.0036
     47 H           0.8679   37.1627   -0.4914 H         1 400         0.0036
     48 H           1.4098   39.9122    1.8922 H         1 400         0.0036
     49 H           2.1442   38.5393    1.0710 H         1 400         0.0036
     50 H           1.8418   38.0413    3.4790 H         1 400         0.0496
     51 H           0.0770   38.3634    3.3187 H         1 400         0.0496
     52 H           0.9789   39.6921   -1.0167 H         1 400        -0.0019
     53 H          -0.7992   39.7886   -1.0101 H         1 400        -0.0019
     54 H           0.1530   40.8298    0.0762 H         1 400        -0.0019
     55 H           7.6618   28.3232    5.8092 H         1 400         0.1868
     56 H           9.9308   26.8189    7.0872 H         1 400         0.0718
     57 H           9.4707   28.3208    4.5261 H         1 400         0.0307
     58 H          10.8114   27.1095    4.7359 H         1 400         0.0307
     59 H           6.9663   26.5168    4.7066 H         1 400         0.0557
     60 H           6.0857   24.2791    3.9108 H         1 400         0.0599
     61 H           7.3488   22.1600    4.4956 H         1 400         0.0559
     62 H           9.4859   22.2910    5.8622 H         1 400         0.0599
     63 H          10.3742   24.5228    6.6545 H         1 400         0.0557
     64 H          10.3936   29.6383    6.4010 H         1 400         0.0232
     65 H          11.7061   28.4525    6.6064 H         1 400         0.0232
     66 H          11.6137   29.4299    5.1207 H         1 400         0.0232
@<TRIPOS>BOND
     1    1    2 2  
     2    1    4 1  
     3    1    9 1  
     4    2    3 1  
     5    3    5 1  
     6    4    5 2  
     7    4    8 1  
     8    5    6 1  
     9    6    7 2  
    10    7    8 1  
    11    7   25 1  
    12    9   10 am 
    13   10   11 1  
    14   10   12 2  
    15   11   13 ar 
    16   11   17 ar 
    17   13   14 ar 
    18   14   15 ar 
    19   15   16 ar 
    20   15   18 1  
    21   16   17 ar 
    22   18   19 1  
    23   18   23 1  
    24   19   20 1  
    25   20   21 1  
    26   21   22 1  
    27   21   24 1  
    28   22   23 1  
    29   25   26 2  
    30   25   27 am 
    31   27   28 1  
    32   28   29 1  
    33   28   30 1  
    34   29   31 ar 
    35   29   35 ar 
    36   30   36 1  
    37   31   32 ar 
    38   32   33 ar 
    39   33   34 ar 
    40   34   35 ar 
    41    3   37 1  
    42    6   38 1  
    43    9   39 1  
    44   13   40 1  
    45   14   41 1  
    46   16   42 1  
    47   17   43 1  
    48   19   44 1  
    49   19   45 1  
    50   20   46 1  
    51   20   47 1  
    52   22   48 1  
    53   22   49 1  
    54   23   50 1  
    55   23   51 1  
    56   24   52 1  
    57   24   53 1  
    58   24   54 1  
    59   27   55 1  
    60   28   56 1  
    61   30   57 1  
    62   30   58 1  
    63   31   59 1  
    64   32   60 1  
    65   33   61 1  
    66   34   62 1  
    67   35   63 1  
    68   36   64 1  
    69   36   65 1  
    70   36   66 1  
@<TRIPOS>SUBSTRUCTURE
     1 400         1

