2xru_ligand
  -I-interpret- 

 66 70  0  0  0  0  0  0  0  0999 V2000
    3.7470   31.6470    7.9320 C   0  0  0  0  0
    3.5630   31.9500    9.2420 N   0  0  0  0  0
    4.3810   31.2430   10.0000 N   0  0  0  0  0
    4.7550   30.6780    7.8850 C   0  0  0  0  0
    5.1370   30.4460    9.1940 C   0  0  0  0  0
    6.1650   29.5030    9.3180 C   0  0  0  0  0
    6.5710   29.0160    8.0490 C   0  0  0  0  0
    5.6420   29.7200    6.7270 S   0  0  0  0  0
    3.0090   32.2690    7.0000 N   0  0  0  0  0
    3.1830   32.3860    5.6410 C   0  0  0  0  0
    2.5540   33.4510    4.8550 C   0  0  0  0  0
    3.9060   31.5140    5.0410 O   0  0  0  0  0
    1.6110   34.3900    5.4170 C   0  0  0  0  0
    1.0240   35.4080    4.6200 C   0  0  0  0  0
    1.3320   35.5620    3.1990 C   0  0  0  0  0
    2.2670   34.6220    2.6430 C   0  0  0  0  0
    2.8550   33.6050    3.4410 C   0  0  0  0  0
    0.7510   36.5810    2.4350 N   0  0  0  0  0
   -0.1590   36.3020    1.2540 C   0  0  0  0  0
   -0.0350   37.3640    0.0850 C   0  0  0  0  0
    0.0440   38.7800    0.6770 N   0  3  0  0  0
    1.2470   38.8780    1.5890 C   0  0  0  0  0
    0.9740   37.9950    2.8210 C   0  0  0  0  0
    0.0980   39.8480   -0.3940 C   0  0  0  0  0
    7.6380   28.0720    7.8220 C   0  0  0  0  0
    8.1640   27.4530    8.7840 O   0  0  0  0  0
    8.1380   27.8580    6.5820 N   0  0  0  0  0
    9.2770   27.0380    6.2430 C   0  0  0  0  0
    8.7500   25.7080    5.7530 C   0  0  0  0  0
   10.1460   27.8230    5.2220 C   0  0  0  0  0
    7.5120   25.6070    4.9570 C   0  0  0  0  0
    7.0020   24.3290    4.4990 C   0  0  0  0  0
    7.7210   23.1280    4.8310 C   0  0  0  0  0
    8.9460   23.2050    5.6150 C   0  0  0  0  0
    9.4550   24.4830    6.0700 C   0  0  0  0  0
   11.0320   28.9190    5.8880 C   0  0  0  0  0
    6.5971   29.1845   10.2667 H   0  0  0  0  0
    2.1765   32.7347    7.3613 H   0  0  0  0  0
    1.3454   34.3157    6.4715 H   0  0  0  0  0
    0.3194   36.0985    5.0835 H   0  0  0  0  0
    2.5299   34.6913    1.5875 H   0  0  0  0  0
    3.5582   32.9141    2.9760 H   0  0  0  0  0
   -1.1854   36.3393    1.6190 H   0  0  0  0  0
    0.1281   35.3335    0.8446 H   0  0  0  0  0
   -0.9087   37.2917   -0.5628 H   0  0  0  0  0
    0.8679   37.1627   -0.4914 H   0  0  0  0  0
   -0.8082   38.9450    1.2127 H   0  0  0  0  0
    1.4098   39.9122    1.8922 H   0  0  0  0  0
    2.1442   38.5393    1.0710 H   0  0  0  0  0
    1.8418   38.0413    3.4790 H   0  0  0  0  0
    0.0770   38.3634    3.3187 H   0  0  0  0  0
    0.9789   39.6921   -1.0167 H   0  0  0  0  0
   -0.7992   39.7886   -1.0101 H   0  0  0  0  0
    0.1530   40.8298    0.0762 H   0  0  0  0  0
    7.6618   28.3232    5.8092 H   0  0  0  0  0
    9.9308   26.8189    7.0872 H   0  0  0  0  0
    9.4707   28.3208    4.5261 H   0  0  0  0  0
   10.8114   27.1095    4.7359 H   0  0  0  0  0
    6.9663   26.5168    4.7066 H   0  0  0  0  0
    6.0857   24.2791    3.9108 H   0  0  0  0  0
    7.3488   22.1600    4.4956 H   0  0  0  0  0
    9.4859   22.2910    5.8622 H   0  0  0  0  0
   10.3742   24.5228    6.6545 H   0  0  0  0  0
   10.3936   29.6383    6.4010 H   0  0  0  0  0
   11.7061   28.4525    6.6064 H   0  0  0  0  0
   11.6137   29.4299    5.1207 H   0  0  0  0  0
  1  2  4  0  0  0
  1  4  4  0  0  0
  1  9  1  0  0  0
  2  3  4  0  0  0
  3  5  4  0  0  0
  4  5  4  0  0  0
  4  8  4  0  0  0
  5  6  4  0  0  0
  6  7  4  0  0  0
  7  8  4  0  0  0
  7 25  1  0  0  0
  9 10  1  0  0  0
 10 11  1  0  0  0
 10 12  2  0  0  0
 11 13  4  0  0  0
 11 17  4  0  0  0
 13 14  4  0  0  0
 14 15  4  0  0  0
 15 16  4  0  0  0
 15 18  1  0  0  0
 16 17  4  0  0  0
 18 19  1  0  0  0
 18 23  1  0  0  0
 19 20  1  0  0  0
 20 21  1  0  0  0
 21 22  1  0  0  0
 21 24  1  0  0  0
 22 23  1  0  0  0
 25 26  2  0  0  0
 25 27  1  0  0  0
 27 28  1  0  0  0
 28 29  1  0  0  0
 28 30  1  0  0  0
 29 31  4  0  0  0
 29 35  4  0  0  0
 30 36  1  0  0  0
 31 32  4  0  0  0
 32 33  4  0  0  0
 33 34  4  0  0  0
 34 35  4  0  0  0
  6 37  1  0  0  0
  9 38  1  0  0  0
 13 39  1  0  0  0
 14 40  1  0  0  0
 16 41  1  0  0  0
 17 42  1  0  0  0
 19 43  1  0  0  0
 19 44  1  0  0  0
 20 45  1  0  0  0
 20 46  1  0  0  0
 21 47  1  0  0  0
 22 48  1  0  0  0
 22 49  1  0  0  0
 23 50  1  0  0  0
 23 51  1  0  0  0
 24 52  1  0  0  0
 24 53  1  0  0  0
 24 54  1  0  0  0
 27 55  1  0  0  0
 28 56  1  0  0  0
 30 57  1  0  0  0
 30 58  1  0  0  0
 31 59  1  0  0  0
 32 60  1  0  0  0
 33 61  1  0  0  0
 34 62  1  0  0  0
 35 63  1  0  0  0
 36 64  1  0  0  0
 36 65  1  0  0  0
 36 66  1  0  0  0
M  END
$$$$
