### 
### Created by X-TOOL on Wed Jan  1 15:39:36 2020
### 

@<TRIPOS>MOLECULE
5ypo_ligand
  237   238     1     0     0
SMALL
GAST_HUCK


@<TRIPOS>ATOM
      1 N          -5.6880   22.9570   28.5970 N.4       1 ALA         0.2377
      2 CA         -5.0030   23.9930   27.8360 C.3       1 ALA         0.0621
      3 C          -3.4900   23.9620   28.1230 C.2       1 ALA         0.2264
      4 O          -2.7750   24.9210   27.8390 O.2       1 ALA        -0.3907
      5 CB         -5.5910   25.3800   28.1550 C.3       1 ALA        -0.0040
      6 N          -3.0290   22.8540   28.6980 N.am      1 ARG        -0.2610
      7 CA         -1.6000   22.6040   28.8530 C.3       1 ARG         0.1312
      8 C          -0.8410   22.7190   27.5220 C.2       1 ARG         0.2039
      9 O          -1.2920   22.2240   26.4850 O.2       1 ARG        -0.3944
     10 CB         -1.4070   21.2010   29.4020 C.3       1 ARG        -0.0092
     11 CG         -1.2230   21.1100   30.8960 C.3       1 ARG        -0.0156
     12 CD         -1.0620   19.6390   31.2930 C.3       1 ARG         0.0627
     13 NE          0.3380   19.2400   31.3670 N.pl3     1 ARG        -0.2723
     14 CZ          1.1030   19.4420   32.4350 C.cat     1 ARG         0.2882
     15 NH1         2.3760   19.0540   32.4230 N.pl3     1 ARG        -0.2849
     16 NH2         0.5910   20.0490   33.5020 N.pl3     1 ARG        -0.2849
     17 N           0.3440   23.3270   27.5600 N.am      1 ARG        -0.2637
     18 CA          1.2660   23.3270   26.4190 C.3       1 ARG         0.1311
     19 C           2.5610   22.6710   26.8670 C.2       1 ARG         0.2039
     20 O           3.3930   23.3140   27.5240 O.2       1 ARG        -0.3944
     21 CB          1.5150   24.7370   25.9010 C.3       1 ARG        -0.0092
     22 CG          0.3360   25.3720   25.1540 C.3       1 ARG        -0.0156
     23 CD          0.7380   26.7740   24.6900 C.3       1 ARG         0.0627
     24 NE         -0.3290   27.4700   23.9980 N.pl3     1 ARG        -0.2723
     25 CZ         -1.3190   28.1170   24.5990 C.cat     1 ARG         0.2882
     26 NH1        -1.3950   28.1590   25.9210 N.pl3     1 ARG        -0.2849
     27 NH2        -2.2280   28.7360   23.8670 N.pl3     1 ARG        -0.2849
     28 N           2.7370   21.3980   26.5020 N.am      1 GLU        -0.2636
     29 CA          3.8660   20.6070   27.0140 C.3       1 GLU         0.1325
     30 C           5.2260   21.1840   26.6040 C.2       1 GLU         0.2041
     31 O           6.1610   21.1830   27.4100 O.2       1 GLU        -0.3944
     32 CB          3.7550   19.1380   26.5580 C.3       1 GLU        -0.0008
     33 CG          2.3990   18.4900   26.8770 C.3       1 GLU         0.0044
     34 CD          2.1800   18.2810   28.3700 C.2       1 GLU         0.0350
     35 OE1         3.1730   18.0820   29.1050 O.co2     1 GLU        -0.5690
     36 OE2         1.0170   18.3070   28.8150 O.co2     1 GLU        -0.5690
     37 N           5.3330   21.6700   25.3680 N.am      1 SEP        -0.2613
     38 CA          6.5730   22.3300   24.9210 C.3       1 SEP         0.1586
     39 CB          6.4330   22.9020   23.5070 C.3       1 SEP         0.1184
     40 OG          6.2530   21.9230   22.5240 O.3       1 SEP        -0.2714
     41 C           6.9330   23.4790   25.8650 C.2       1 SEP         0.2066
     42 O           8.0710   23.6000   26.3440 O.2       1 SEP        -0.3943
     43 P           4.7820   22.0440   21.9050 P.3       1 SEP         0.2010
     44 O1P         4.6890   21.0870   20.6190 O.co2     1 SEP        -0.5537
     45 O2P         3.7540   21.4960   23.0300 O.co2     1 SEP        -0.5537
     46 O3P         4.4490   23.5540   21.5060 O.co2     1 SEP        -0.5537
     47 N           5.9440   24.3340   26.1020 N.am      1 TYR        -0.2621
     48 CA          6.1590   25.5300   26.8890 C.3       1 TYR         0.1390
     49 C           6.5600   25.1460   28.3110 C.2       1 TYR         0.2057
     50 O           7.4340   25.7640   28.8900 O.2       1 TYR        -0.3942
     51 CB          4.8980   26.4030   26.9170 C.3       1 TYR         0.0163
     52 CG          5.0370   27.6450   27.7860 C.ar      1 TYR        -0.0493
     53 CD1         4.8130   27.5910   29.1570 C.ar      1 TYR        -0.0685
     54 CD2         5.3780   28.8800   27.2220 C.ar      1 TYR        -0.0685
     55 CE1         4.9460   28.7330   29.9530 C.ar      1 TYR        -0.0398
     56 CE2         5.5050   30.0380   28.0070 C.ar      1 TYR        -0.0398
     57 CZ          5.2920   29.9530   29.3720 C.ar      1 TYR         0.0805
     58 OH          5.4240   31.0710   30.1620 O.3       1 TYR        -0.3376
     59 N           5.8780   24.1490   28.8830 N.am      1 LEU        -0.2636
     60 CA          6.1680   23.7770   30.2590 C.3       1 LEU         0.1312
     61 C           7.5710   23.2030   30.3680 C.2       1 LEU         0.2039
     62 O           8.2780   23.4790   31.3400 O.2       1 LEU        -0.3944
     63 CB          5.1260   22.7830   30.7850 C.3       1 LEU        -0.0101
     64 CG          3.6800   23.2910   30.9130 C.3       1 LEU        -0.0425
     65 CD1         2.7530   22.1450   31.1950 C.3       1 LEU        -0.0625
     66 CD2         3.5650   24.3350   32.0210 C.3       1 LEU        -0.0625
     67 N           8.0060   22.4300   29.3660 N.am      1 LYS        -0.2637
     68 CA          9.3640   21.8970   29.4250 C.3       1 LYS         0.1310
     69 C          10.3850   23.0180   29.3250 C.2       1 LYS         0.2039
     70 O          11.4190   22.9880   30.0020 O.2       1 LYS        -0.3944
     71 CB          9.5820   20.8650   28.3200 C.3       1 LYS        -0.0122
     72 CG          9.0600   19.4530   28.6600 C.3       1 LYS        -0.0440
     73 CD          8.9860   18.6040   27.3870 C.3       1 LYS        -0.0124
     74 CE          8.3350   17.2170   27.6010 C.3       1 LYS        -0.0354
     75 NZ          7.9540   16.5860   26.2890 N.4       1 LYS         0.2185
     76 N          10.0930   24.0410   28.5240 N.am      1 ALA        -0.2640
     77 CA         11.0570   25.1150   28.3710 C.3       1 ALA         0.1282
     78 C          11.1720   25.9400   29.6440 C.2       1 ALA         0.2037
     79 O          12.2590   26.4160   29.9830 O.2       1 ALA        -0.3944
     80 CB         10.6690   26.0130   27.1990 C.3       1 ALA        -0.0244
     81 N          10.0590   26.1450   30.3460 N.am      1 THR        -0.2613
     82 CA         10.0310   27.0910   31.4450 C.3       1 THR         0.1565
     83 C          10.1430   26.4110   32.7920 C.2       1 THR         0.2065
     84 O          10.2370   27.1020   33.8050 O.2       1 THR        -0.3943
     85 CB          8.7520   27.9570   31.3810 C.3       1 THR         0.0924
     86 OG1         7.5780   27.1320   31.4430 O.3       1 THR        -0.3874
     87 CG2         8.7230   28.7170   30.0760 C.3       1 THR        -0.0346
     88 N          10.1590   25.0760   32.8270 N.am      1 GLN        -0.2635
     89 CA         10.3470   24.3260   34.0650 C.3       1 GLN         0.1332
     90 C          11.5240   23.3700   33.9030 C.2       1 GLN         0.2065
     91 O          11.3650   22.1520   34.0330 O.2       1 GLN        -0.3942
     92 CB          9.0580   23.5980   34.4480 C.3       1 GLN         0.0045
     93 CG          7.8840   24.5830   34.5700 C.3       1 GLN         0.0412
     94 CD          6.5640   23.9640   35.0660 C.2       1 GLN         0.1737
     95 OE1         6.3010   22.7770   34.8770 O.2       1 GLN        -0.3973
     96 NE2         5.7310   24.7870   35.6920 N.am      1 GLN        -0.3009
     97 N          12.7240   23.8910   33.6040 N.am      1 PRO        -0.2498
     98 CA         13.8740   23.0030   33.3800 C.3       1 PRO         0.1338
     99 C          14.2750   22.3110   34.6690 C.2       1 PRO         0.2042
    100 O          14.0930   22.8440   35.7680 O.2       1 PRO        -0.3944
    101 CB         14.9780   23.9580   32.9100 C.3       1 PRO        -0.0104
    102 CG         14.6670   25.2210   33.6230 C.3       1 PRO        -0.0281
    103 CD         13.1390   25.3100   33.5600 C.3       1 PRO         0.0369
    104 N          14.8070   21.1000   34.5180 N.am      1 SER        -0.2616
    105 CA         15.3630   20.3630   35.6460 C.3       1 SER         0.1539
    106 C          16.6010   21.0750   36.1760 C.2       1 SER         0.2056
    107 O          17.5030   21.4260   35.4100 O.2       1 SER        -0.3943
    108 CB         15.7200   18.9420   35.2250 C.3       1 SER         0.0843
    109 OG         14.5910   18.3010   34.6700 O.3       1 SER        -0.3903
    110 N          16.6280   21.2940   37.4820 N.am      1 LEU        -0.2694
    111 CA         17.7230   21.9900   38.1440 C.3       1 LEU         0.0946
    112 C          18.6160   21.0260   38.9310 C.2       1 LEU         0.0601
    113 O          19.8260   21.2670   39.0650 O.co2     1 LEU        -0.5666
    114 CB         17.1610   23.0710   39.0680 C.3       1 LEU        -0.0156
    115 CG         16.1700   23.9980   38.3520 C.3       1 LEU        -0.0431
    116 CD1        15.4970   24.9480   39.3290 C.3       1 LEU        -0.0625
    117 CD2        16.8750   24.7620   37.2340 C.3       1 LEU        -0.0625
    118 OXT        18.1320   20.0010   39.4370 O.co2     1 LEU        -0.5666
    119 H1         -6.6755   22.9912   28.3978 H         1 ALA         0.2015
    120 H2         -5.5385   23.1094   29.5821 H         1 ALA         0.2015
    121 H3         -5.3241   22.0535   28.3377 H         1 ALA         0.2015
    122 H4         -5.1551   23.7925   26.7652 H         1 ALA         0.1095
    123 H5         -5.0604   26.1463   27.5709 H         1 ALA         0.0310
    124 H6         -5.4731   25.5902   29.2283 H         1 ALA         0.0310
    125 H7         -6.6594   25.3943   27.8937 H         1 ALA         0.0310
    126 H8         -3.6805   22.1735   29.0333 H         1 ARG         0.1884
    127 H9         -1.1866   23.3365   29.5619 H         1 ARG         0.0800
    128 H10        -0.5156   20.7691   28.9235 H         1 ARG         0.0313
    129 H11        -2.2923   20.6064   29.1324 H         1 ARG         0.0313
    130 H12        -2.1030   21.5338   31.4020 H         1 ARG         0.0301
    131 H13        -0.3244   21.6716   31.1913 H         1 ARG         0.0301
    132 H14        -1.5701   19.0123   30.5453 H         1 ARG         0.0689
    133 H15        -1.5271   19.4847   32.2778 H         1 ARG         0.0689
    134 H16         0.7568   18.7768   30.5479 H         1 ARG         0.2642
    135 H17         2.9698   19.2100   33.2500 H         1 ARG         0.2615
    136 H18         2.7675   18.5977   31.5867 H         1 ARG         0.2615
    137 H19        -0.3954   20.3456   33.5019 H         1 ARG         0.2615
    138 H20         1.1809   20.2224   34.3284 H         1 ARG         0.2615
    139 H21         0.6150   23.8011   28.3977 H         1 ARG         0.1883
    140 H22         0.8261   22.7328   25.6045 H         1 ARG         0.0800
    141 H23         2.3740   24.7015   25.2148 H         1 ARG         0.0313
    142 H24         1.7588   25.3781   26.7609 H         1 ARG         0.0313
    143 H25        -0.5324   25.4406   25.8256 H         1 ARG         0.0301
    144 H26         0.0767   24.7548   24.2812 H         1 ARG         0.0301
    145 H27         1.5974   26.6848   24.0092 H         1 ARG         0.0689
    146 H28         1.0280   27.3650   25.5712 H         1 ARG         0.0689
    147 H29        -0.3176   27.4616   22.9681 H         1 ARG         0.2642
    148 H30        -2.1682   28.6644   26.3766 H         1 ARG         0.2615
    149 H31        -0.6809   27.6862   26.4932 H         1 ARG         0.2615
    150 H32        -2.1703   28.7043   22.8391 H         1 ARG         0.2615
    151 H33        -2.9944   29.2503   24.3242 H         1 ARG         0.2615
    152 H34         2.0888   20.9751   25.8687 H         1 GLU         0.1883
    153 H35         3.8129   20.6272   28.1125 H         1 GLU         0.0801
    154 H36         4.5431   18.5583   27.0609 H         1 GLU         0.0330
    155 H37         3.9098   19.1001   25.4696 H         1 GLU         0.0330
    156 H38         2.3499   17.5127   26.3746 H         1 GLU         0.0433
    157 H39         1.5997   19.1405   26.4925 H         1 GLU         0.0433
    158 H40         4.5627   21.5860   24.7359 H         1 SEP         0.1884
    159 H41         7.3852   21.5882   24.9272 H         1 SEP         0.0827
    160 H42         7.3444   23.4703   23.2695 H         1 SEP         0.0662
    161 H43         5.5648   23.5771   23.4890 H         1 SEP         0.0662
    162 H44         5.0346   24.1480   25.7300 H         1 TYR         0.1885
    163 H45         6.9761   26.1087   26.4335 H         1 TYR         0.0821
    164 H46         4.0648   25.7985   27.3048 H         1 TYR         0.0453
    165 H47         4.6724   26.7215   25.8886 H         1 TYR         0.0453
    166 H48         4.5312   26.6501   29.6156 H         1 TYR         0.0530
    167 H49         5.5482   28.9443   26.1534 H         1 TYR         0.0530
    168 H50         4.7801   28.6701   31.0224 H         1 TYR         0.0525
    169 H51         5.7663   30.9855   27.5498 H         1 TYR         0.0525
    170 H52         5.2450   30.8413   31.0663 H         1 TYR         0.2458
    171 H53         5.1727   23.6617   28.3681 H         1 LEU         0.1883
    172 H54         6.1188   24.6844   30.8788 H         1 LEU         0.0800
    173 H55         5.4528   22.4566   31.7833 H         1 LEU         0.0315
    174 H56         5.1156   21.9205   30.1024 H         1 LEU         0.0315
    175 H57         3.3872   23.7567   29.9604 H         1 LEU         0.0298
    176 H58         1.7228   22.5202   31.2844 H         1 LEU         0.0232
    177 H59         3.0485   21.6573   32.1356 H         1 LEU         0.0232
    178 H60         2.8081   21.4176   30.3717 H         1 LEU         0.0232
    179 H61         4.2466   25.1718   31.8084 H         1 LEU         0.0232
    180 H62         3.8347   23.8782   32.9846 H         1 LEU         0.0232
    181 H63         2.5310   24.7072   32.0682 H         1 LEU         0.0232
    182 H64         7.4110   22.2209   28.5899 H         1 LYS         0.1883
    183 H65         9.4965   21.3963   30.3954 H         1 LYS         0.0800
    184 H66        10.6617   20.7949   28.1217 H         1 LYS         0.0312
    185 H67         9.0648   21.2150   27.4144 H         1 LYS         0.0312
    186 H68         8.0569   19.5322   29.1044 H         1 LYS         0.0269
    187 H69         9.7425   18.9749   29.3781 H         1 LYS         0.0269
    188 H70        10.0084   18.4532   27.0103 H         1 LYS         0.0317
    189 H71         8.3963   19.1524   26.6377 H         1 LYS         0.0317
    190 H72         7.4318   17.3359   28.2175 H         1 LYS         0.0813
    191 H73         9.0497   16.5615   28.1201 H         1 LYS         0.0813
    192 H74         7.5334   15.6858   26.4587 H         1 LYS         0.1994
    193 H75         8.7780   16.4699   25.7201 H         1 LYS         0.1994
    194 H76         7.2954   17.1795   25.8094 H         1 LYS         0.1994
    195 H77         9.2214   24.0688   28.0346 H         1 ALA         0.1883
    196 H78        12.0396   24.6685   28.1584 H         1 ALA         0.0797
    197 H79        11.4081   26.8211   27.0959 H         1 ALA         0.0277
    198 H80         9.6749   26.4466   27.3827 H         1 ALA         0.0277
    199 H81        10.6445   25.4184   26.2739 H         1 ALA         0.0277
    200 H82         9.2292   25.6385   30.1116 H         1 THR         0.1884
    201 H83        10.8992   27.7573   31.3342 H         1 THR         0.0826
    202 H84         8.7498   28.6641   32.2236 H         1 THR         0.0639
    203 H85         7.5778   26.5278   30.7098 H         1 THR         0.2101
    204 H86         7.8129   29.3331   30.0307 H         1 THR         0.0257
    205 H87         8.7262   28.0055   29.2371 H         1 THR         0.0257
    206 H88         9.6087   29.3659   30.0098 H         1 THR         0.0257
    207 H89        10.0375   24.5710   31.9725 H         1 GLN         0.1883
    208 H90        10.5888   25.0349   34.8706 H         1 GLN         0.0801
    209 H91         9.2042   23.0915   35.4134 H         1 GLN         0.0337
    210 H92         8.8227   22.8521   33.6745 H         1 GLN         0.0337
    211 H93         7.7031   25.0228   33.5781 H         1 GLN         0.0504
    212 H94         8.1753   25.3755   35.2750 H         1 GLN         0.0504
    213 H95         4.8570   24.4458   36.0381 H         1 GLN         0.1814
    214 H96         5.9776   25.7480   35.8173 H         1 GLN         0.1814
    215 H97        13.6486   22.2500   32.6105 H         1 PRO         0.0802
    216 H98        14.9370   24.1010   31.8201 H         1 PRO         0.0313
    217 H99        15.9717   23.5807   33.1932 H         1 PRO         0.0313
    218 H100       15.1307   26.0808   33.1173 H         1 PRO         0.0287
    219 H101       15.0142   25.1779   34.6659 H         1 PRO         0.0287
    220 H102       12.7391   25.8663   34.4206 H         1 PRO         0.0524
    221 H103       12.8086   25.7904   32.6272 H         1 PRO         0.0524
    222 H104       14.8256   20.6857   33.6081 H         1 SER         0.1884
    223 H105       14.6092   20.3173   36.4458 H         1 SER         0.0823
    224 H106       16.0628   18.3774   36.1046 H         1 SER         0.0606
    225 H107       16.5240   18.9761   34.4750 H         1 SER         0.0606
    226 H108       14.8251   17.4173   34.4116 H         1 SER         0.2097
    227 H109       15.8634   20.9673   38.0377 H         1 LEU         0.1875
    228 H110       18.3395   22.4750   37.3729 H         1 LEU         0.0726
    229 H111       17.9956   23.6759   39.4520 H         1 LEU         0.0308
    230 H112       16.6445   22.5836   39.9080 H         1 LEU         0.0308
    231 H113       15.3875   23.3732   37.8967 H         1 LEU         0.0297
    232 H114       14.7948   25.5967   38.7849 H         1 LEU         0.0232
    233 H115       16.2602   25.5670   39.8233 H         1 LEU         0.0232
    234 H116       14.9488   24.3679   40.0859 H         1 LEU         0.0232
    235 H117       17.3508   24.0481   36.5455 H         1 LEU         0.0232
    236 H118       17.6422   25.4206   37.6671 H         1 LEU         0.0232
    237 H119       16.1400   25.3677   36.6837 H         1 LEU         0.0232
@<TRIPOS>BOND
     1    1    2 1  
     2    2    3 1  
     3    2    5 1  
     4    3    4 2  
     5    3    6 am 
     6    6    7 1  
     7    7    8 1  
     8    7   10 1  
     9    8    9 2  
    10    8   17 am 
    11   10   11 1  
    12   11   12 1  
    13   12   13 1  
    14   13   14 ar 
    15   14   15 ar 
    16   14   16 ar 
    17   17   18 1  
    18   18   19 1  
    19   18   21 1  
    20   19   20 2  
    21   19   28 am 
    22   21   22 1  
    23   22   23 1  
    24   23   24 1  
    25   24   25 ar 
    26   25   26 ar 
    27   25   27 ar 
    28   28   29 1  
    29   29   30 1  
    30   29   32 1  
    31   30   31 2  
    32   30   37 am 
    33   32   33 1  
    34   33   34 1  
    35   34   35 ar 
    36   34   36 ar 
    37   37   38 1  
    38   38   39 1  
    39   38   41 1  
    40   39   40 1  
    41   40   43 1  
    42   41   42 2  
    43   41   47 am 
    44   43   44 ar 
    45   43   45 ar 
    46   43   46 ar 
    47   47   48 1  
    48   48   49 1  
    49   48   51 1  
    50   49   50 2  
    51   49   59 am 
    52   51   52 1  
    53   52   53 ar 
    54   52   54 ar 
    55   53   55 ar 
    56   54   56 ar 
    57   55   57 ar 
    58   56   57 ar 
    59   57   58 1  
    60   59   60 1  
    61   60   61 1  
    62   60   63 1  
    63   61   62 2  
    64   61   67 am 
    65   63   64 1  
    66   64   65 1  
    67   64   66 1  
    68   67   68 1  
    69   68   69 1  
    70   68   71 1  
    71   69   70 2  
    72   69   76 am 
    73   71   72 1  
    74   72   73 1  
    75   73   74 1  
    76   74   75 1  
    77   76   77 1  
    78   77   78 1  
    79   77   80 1  
    80   78   79 2  
    81   78   81 am 
    82   81   82 1  
    83   82   83 1  
    84   82   85 1  
    85   83   84 2  
    86   83   88 am 
    87   85   86 1  
    88   85   87 1  
    89   88   89 1  
    90   89   90 1  
    91   89   92 1  
    92   90   91 2  
    93   90   97 am 
    94   92   93 1  
    95   93   94 1  
    96   94   95 2  
    97   94   96 am 
    98   97   98 1  
    99   97  103 1  
   100   98   99 1  
   101   98  101 1  
   102   99  100 2  
   103   99  104 am 
   104  101  102 1  
   105  102  103 1  
   106  104  105 1  
   107  105  106 1  
   108  105  108 1  
   109  106  107 2  
   110  106  110 am 
   111  108  109 1  
   112  110  111 1  
   113  111  112 1  
   114  111  114 1  
   115  112  113 ar 
   116  112  118 ar 
   117  114  115 1  
   118  115  116 1  
   119  115  117 1  
   120    1  119 1  
   121    1  120 1  
   122    1  121 1  
   123    2  122 1  
   124    5  123 1  
   125    5  124 1  
   126    5  125 1  
   127    6  126 1  
   128    7  127 1  
   129   10  128 1  
   130   10  129 1  
   131   11  130 1  
   132   11  131 1  
   133   12  132 1  
   134   12  133 1  
   135   13  134 1  
   136   15  135 1  
   137   15  136 1  
   138   16  137 1  
   139   16  138 1  
   140   17  139 1  
   141   18  140 1  
   142   21  141 1  
   143   21  142 1  
   144   22  143 1  
   145   22  144 1  
   146   23  145 1  
   147   23  146 1  
   148   24  147 1  
   149   26  148 1  
   150   26  149 1  
   151   27  150 1  
   152   27  151 1  
   153   28  152 1  
   154   29  153 1  
   155   32  154 1  
   156   32  155 1  
   157   33  156 1  
   158   33  157 1  
   159   37  158 1  
   160   38  159 1  
   161   39  160 1  
   162   39  161 1  
   163   47  162 1  
   164   48  163 1  
   165   51  164 1  
   166   51  165 1  
   167   53  166 1  
   168   54  167 1  
   169   55  168 1  
   170   56  169 1  
   171   58  170 1  
   172   59  171 1  
   173   60  172 1  
   174   63  173 1  
   175   63  174 1  
   176   64  175 1  
   177   65  176 1  
   178   65  177 1  
   179   65  178 1  
   180   66  179 1  
   181   66  180 1  
   182   66  181 1  
   183   67  182 1  
   184   68  183 1  
   185   71  184 1  
   186   71  185 1  
   187   72  186 1  
   188   72  187 1  
   189   73  188 1  
   190   73  189 1  
   191   74  190 1  
   192   74  191 1  
   193   75  192 1  
   194   75  193 1  
   195   75  194 1  
   196   76  195 1  
   197   77  196 1  
   198   80  197 1  
   199   80  198 1  
   200   80  199 1  
   201   81  200 1  
   202   82  201 1  
   203   85  202 1  
   204   86  203 1  
   205   87  204 1  
   206   87  205 1  
   207   87  206 1  
   208   88  207 1  
   209   89  208 1  
   210   92  209 1  
   211   92  210 1  
   212   93  211 1  
   213   93  212 1  
   214   96  213 1  
   215   96  214 1  
   216   98  215 1  
   217  101  216 1  
   218  101  217 1  
   219  102  218 1  
   220  102  219 1  
   221  103  220 1  
   222  103  221 1  
   223  104  222 1  
   224  105  223 1  
   225  108  224 1  
   226  108  225 1  
   227  109  226 1  
   228  110  227 1  
   229  111  228 1  
   230  114  229 1  
   231  114  230 1  
   232  115  231 1  
   233  116  232 1  
   234  116  233 1  
   235  116  234 1  
   236  117  235 1  
   237  117  236 1  
   238  117  237 1  
@<TRIPOS>SUBSTRUCTURE
     1 ALA         1

