5ypo_ligand
  -I-interpret- 

239240  0  0  0  0  0  0  0  0999 V2000
   -5.6880   22.9570   28.5970 N   0  3  0  0  0
   -5.0030   23.9930   27.8360 C   0  0  0  0  0
   -3.4900   23.9620   28.1230 C   0  0  0  0  0
   -2.7750   24.9210   27.8390 O   0  0  0  0  0
   -5.5910   25.3800   28.1550 C   0  0  0  0  0
   -3.0290   22.8540   28.6980 N   0  0  0  0  0
   -1.6000   22.6040   28.8530 C   0  0  0  0  0
   -0.8410   22.7190   27.5220 C   0  0  0  0  0
   -1.2920   22.2240   26.4850 O   0  0  0  0  0
   -1.4070   21.2010   29.4020 C   0  0  0  0  0
   -1.2230   21.1100   30.8960 C   0  0  0  0  0
   -1.0620   19.6390   31.2930 C   0  0  0  0  0
    0.3380   19.2400   31.3670 N   0  0  0  0  0
    1.1030   19.4420   32.4350 C   0  0  0  0  0
    2.3760   19.0540   32.4230 N   0  0  0  0  0
    0.5910   20.0490   33.5020 N   0  0  0  0  0
    0.3440   23.3270   27.5600 N   0  0  0  0  0
    1.2660   23.3270   26.4190 C   0  0  0  0  0
    2.5610   22.6710   26.8670 C   0  0  0  0  0
    3.3930   23.3140   27.5240 O   0  0  0  0  0
    1.5150   24.7370   25.9010 C   0  0  0  0  0
    0.3360   25.3720   25.1540 C   0  0  0  0  0
    0.7380   26.7740   24.6900 C   0  0  0  0  0
   -0.3290   27.4700   23.9980 N   0  0  0  0  0
   -1.3190   28.1170   24.5990 C   0  0  0  0  0
   -1.3950   28.1590   25.9210 N   0  0  0  0  0
   -2.2280   28.7360   23.8670 N   0  0  0  0  0
    2.7370   21.3980   26.5020 N   0  0  0  0  0
    3.8660   20.6070   27.0140 C   0  0  0  0  0
    5.2260   21.1840   26.6040 C   0  0  0  0  0
    6.1610   21.1830   27.4100 O   0  0  0  0  0
    3.7550   19.1380   26.5580 C   0  0  0  0  0
    2.3990   18.4900   26.8770 C   0  0  0  0  0
    2.1800   18.2810   28.3700 C   0  0  0  0  0
    3.1730   18.0820   29.1050 O   0  0  0  0  0
    1.0170   18.3070   28.8150 O   0  0  0  0  0
    5.3330   21.6700   25.3680 N   0  0  0  0  0
    6.5730   22.3300   24.9210 C   0  0  0  0  0
    6.4330   22.9020   23.5070 C   0  0  0  0  0
    6.2530   21.9230   22.5240 O   0  0  0  0  0
    6.9330   23.4790   25.8650 C   0  0  0  0  0
    8.0710   23.6000   26.3440 O   0  0  0  0  0
    4.7820   22.0440   21.9050 P   0  0  0  0  0
    4.6890   21.0870   20.6190 O   0  0  0  0  0
    3.7540   21.4960   23.0300 O   0  0  0  0  0
    4.4490   23.5540   21.5060 O   0  0  0  0  0
    5.9440   24.3340   26.1020 N   0  0  0  0  0
    6.1590   25.5300   26.8890 C   0  0  0  0  0
    6.5600   25.1460   28.3110 C   0  0  0  0  0
    7.4340   25.7640   28.8900 O   0  0  0  0  0
    4.8980   26.4030   26.9170 C   0  0  0  0  0
    5.0370   27.6450   27.7860 C   0  0  0  0  0
    4.8130   27.5910   29.1570 C   0  0  0  0  0
    5.3780   28.8800   27.2220 C   0  0  0  0  0
    4.9460   28.7330   29.9530 C   0  0  0  0  0
    5.5050   30.0380   28.0070 C   0  0  0  0  0
    5.2920   29.9530   29.3720 C   0  0  0  0  0
    5.4240   31.0710   30.1620 O   0  0  0  0  0
    5.8780   24.1490   28.8830 N   0  0  0  0  0
    6.1680   23.7770   30.2590 C   0  0  0  0  0
    7.5710   23.2030   30.3680 C   0  0  0  0  0
    8.2780   23.4790   31.3400 O   0  0  0  0  0
    5.1260   22.7830   30.7850 C   0  0  0  0  0
    3.6800   23.2910   30.9130 C   0  0  0  0  0
    2.7530   22.1450   31.1950 C   0  0  0  0  0
    3.5650   24.3350   32.0210 C   0  0  0  0  0
    8.0060   22.4300   29.3660 N   0  0  0  0  0
    9.3640   21.8970   29.4250 C   0  0  0  0  0
   10.3850   23.0180   29.3250 C   0  0  0  0  0
   11.4190   22.9880   30.0020 O   0  0  0  0  0
    9.5820   20.8650   28.3200 C   0  0  0  0  0
    9.0600   19.4530   28.6600 C   0  0  0  0  0
    8.9860   18.6040   27.3870 C   0  0  0  0  0
    8.3350   17.2170   27.6010 C   0  0  0  0  0
    7.9540   16.5860   26.2890 N   0  3  0  0  0
   10.0930   24.0410   28.5240 N   0  0  0  0  0
   11.0570   25.1150   28.3710 C   0  0  0  0  0
   11.1720   25.9400   29.6440 C   0  0  0  0  0
   12.2590   26.4160   29.9830 O   0  0  0  0  0
   10.6690   26.0130   27.1990 C   0  0  0  0  0
   10.0590   26.1450   30.3460 N   0  0  0  0  0
   10.0310   27.0910   31.4450 C   0  0  0  0  0
   10.1430   26.4110   32.7920 C   0  0  0  0  0
   10.2370   27.1020   33.8050 O   0  0  0  0  0
    8.7520   27.9570   31.3810 C   0  0  0  0  0
    7.5780   27.1320   31.4430 O   0  0  0  0  0
    8.7230   28.7170   30.0760 C   0  0  0  0  0
   10.1590   25.0760   32.8270 N   0  0  0  0  0
   10.3470   24.3260   34.0650 C   0  0  0  0  0
   11.5240   23.3700   33.9030 C   0  0  0  0  0
   11.3650   22.1520   34.0330 O   0  0  0  0  0
    9.0580   23.5980   34.4480 C   0  0  0  0  0
    7.8840   24.5830   34.5700 C   0  0  0  0  0
    6.5640   23.9640   35.0660 C   0  0  0  0  0
    6.3010   22.7770   34.8770 O   0  0  0  0  0
    5.7310   24.7870   35.6920 N   0  0  0  0  0
   12.7240   23.8910   33.6040 N   0  0  0  0  0
   13.8740   23.0030   33.3800 C   0  0  0  0  0
   14.2750   22.3110   34.6690 C   0  0  0  0  0
   14.0930   22.8440   35.7680 O   0  0  0  0  0
   14.9780   23.9580   32.9100 C   0  0  0  0  0
   14.6670   25.2210   33.6230 C   0  0  0  0  0
   13.1390   25.3100   33.5600 C   0  0  0  0  0
   14.8070   21.1000   34.5180 N   0  0  0  0  0
   15.3630   20.3630   35.6460 C   0  0  0  0  0
   16.6010   21.0750   36.1760 C   0  0  0  0  0
   17.5030   21.4260   35.4100 O   0  0  0  0  0
   15.7200   18.9420   35.2250 C   0  0  0  0  0
   14.5910   18.3010   34.6700 O   0  0  0  0  0
   16.6280   21.2940   37.4820 N   0  0  0  0  0
   17.7230   21.9900   38.1440 C   0  0  0  0  0
   18.6160   21.0260   38.9310 C   0  0  0  0  0
   19.8260   21.2670   39.0650 O   0  0  0  0  0
   17.1610   23.0710   39.0680 C   0  0  0  0  0
   16.1700   23.9980   38.3520 C   0  0  0  0  0
   15.4970   24.9480   39.3290 C   0  0  0  0  0
   16.8750   24.7620   37.2340 C   0  0  0  0  0
   18.1320   20.0010   39.4370 O   0  0  0  0  0
   -5.2841   22.0479   28.3715 H   0  0  0  0  0
   -5.5787   23.1410   29.5943 H   0  0  0  0  0
   -6.6792   22.9592   28.3563 H   0  0  0  0  0
   -5.1538   23.7968   26.7745 H   0  0  0  0  0
   -5.4274   25.6091   29.2080 H   0  0  0  0  0
   -5.0999   26.1322   27.5376 H   0  0  0  0  0
   -6.6604   25.3770   27.9443 H   0  0  0  0  0
   -3.6935   22.1599   29.0401 H   0  0  0  0  0
   -1.2014   23.3574   29.5325 H   0  0  0  0  0
   -0.4928   20.8139   28.9519 H   0  0  0  0  0
   -2.3156   20.6470   29.1662 H   0  0  0  0  0
   -2.0930   21.5322   31.3988 H   0  0  0  0  0
   -0.3345   21.6685   31.1906 H   0  0  0  0  0
   -1.5498   19.0271   30.5342 H   0  0  0  0  0
   -1.5065   19.5027   32.2789 H   0  0  0  0  0
    0.7528   18.7813   30.5559 H   0  0  0  0  0
    2.9679   19.2214   33.2367 H   0  0  0  0  0
    2.7598   18.5892   31.6001 H   0  0  0  0  0
   -0.3818   20.3556   33.4965 H   0  0  0  0  0
    0.6204   23.8106   28.4145 H   0  0  0  0  0
    0.8283   22.7687   25.5915 H   0  0  0  0  0
    2.3381   24.6696   25.1896 H   0  0  0  0  0
    1.7083   25.3624   26.7726 H   0  0  0  0  0
   -0.5271   25.4372   25.8165 H   0  0  0  0  0
    0.0747   24.7597   24.2909 H   0  0  0  0  0
    1.5704   26.6673   23.9944 H   0  0  0  0  0
    0.9941   27.3558   25.5754 H   0  0  0  0  0
   -0.3177   27.4616   22.9781 H   0  0  0  0  0
   -2.1546   28.6687   26.3722 H   0  0  0  0  0
   -0.6939   27.6816   26.4876 H   0  0  0  0  0
   -2.1648   28.7137   22.8492 H   0  0  0  0  0
    2.0759   20.9666   25.8561 H   0  0  0  0  0
    3.8095   20.6527   28.1016 H   0  0  0  0  0
    4.5187   18.5733   27.0927 H   0  0  0  0  0
    3.8748   19.1242   25.4747 H   0  0  0  0  0
    2.3756   17.5119   26.3965 H   0  0  0  0  0
    1.6171   19.1579   26.5156 H   0  0  0  0  0
    3.9721   18.1000   28.5732 H   0  0  0  0  0
    4.5473   21.5843   24.7232 H   0  0  0  0  0
    7.3552   21.5709   24.9243 H   0  0  0  0  0
    7.3565   23.4327   23.2755 H   0  0  0  0  0
    5.5501   23.5412   23.4982 H   0  0  0  0  0
    4.8919   20.1850   20.8774 H   0  0  0  0  0
    3.9767   20.5886   23.2505 H   0  0  0  0  0
    5.0164   24.1443   25.7226 H   0  0  0  0  0
    6.9614   26.1064   26.4286 H   0  0  0  0  0
    4.0918   25.8000   27.3348 H   0  0  0  0  0
    4.7086   26.7370   25.8969 H   0  0  0  0  0
    4.5296   26.6449   29.6181 H   0  0  0  0  0
    5.5492   28.9447   26.1475 H   0  0  0  0  0
    4.7792   28.6698   31.0283 H   0  0  0  0  0
    5.7678   30.9908   27.5473 H   0  0  0  0  0
    5.6636   31.8221   29.6142 H   0  0  0  0  0
    5.1585   23.6520   28.3578 H   0  0  0  0  0
    6.1166   24.6733   30.8771 H   0  0  0  0  0
    5.4424   22.5270   31.7962 H   0  0  0  0  0
    5.0936   21.9723   30.0571 H   0  0  0  0  0
    3.3989   23.7573   29.9687 H   0  0  0  0  0
    2.8086   21.4250   30.3785 H   0  0  0  0  0
    3.0469   21.6626   32.1272 H   0  0  0  0  0
    1.7326   22.5180   31.2833 H   0  0  0  0  0
    3.8661   23.8907   32.9697 H   0  0  0  0  0
    4.2146   25.1796   31.7914 H   0  0  0  0  0
    2.5325   24.6774   32.0901 H   0  0  0  0  0
    7.3991   22.2168   28.5744 H   0  0  0  0  0
    9.4979   21.4018   30.3867 H   0  0  0  0  0
   10.6578   20.7814   28.1661 H   0  0  0  0  0
    9.0304   21.2095   27.4453 H   0  0  0  0  0
    8.0647   19.5332   29.0970 H   0  0  0  0  0
    9.7393   18.9796   29.3689 H   0  0  0  0  0
   10.0081   18.4353   27.0480 H   0  0  0  0  0
    8.3699   19.1458   26.6694 H   0  0  0  0  0
    7.4335   17.3447   28.2003 H   0  0  0  0  0
    9.0538   16.5691   28.1028 H   0  0  0  0  0
    7.5285   15.6753   26.4620 H   0  0  0  0  0
    7.2877   17.1875   25.8046 H   0  0  0  0  0
    8.7885   16.4691   25.7143 H   0  0  0  0  0
    9.2039   24.0693   28.0248 H   0  0  0  0  0
   12.0290   24.6647   28.1698 H   0  0  0  0  0
   10.6450   25.4227   26.2830 H   0  0  0  0  0
    9.6839   26.4420   27.3822 H   0  0  0  0  0
   11.4021   26.8133   27.0979 H   0  0  0  0  0
    9.2126   25.6284   30.1069 H   0  0  0  0  0
   10.9038   27.7349   31.3367 H   0  0  0  0  0
    8.7621   28.6431   32.2279 H   0  0  0  0  0
    6.7957   27.6870   31.4020 H   0  0  0  0  0
    9.6011   29.3596   30.0116 H   0  0  0  0  0
    8.7263   28.0109   29.2456 H   0  0  0  0  0
    7.8208   29.3271   30.0323 H   0  0  0  0  0
   10.0351   24.5609   31.9554 H   0  0  0  0  0
   10.5790   25.0096   34.8817 H   0  0  0  0  0
    9.2056   23.1090   35.4109 H   0  0  0  0  0
    8.8240   22.8696   33.6716 H   0  0  0  0  0
    7.6933   24.9708   33.5693 H   0  0  0  0  0
    8.1766   25.3317   35.3061 H   0  0  0  0  0
    4.8352   24.4413   36.0363 H   0  0  0  0  0
    5.9869   25.7649   35.8286 H   0  0  0  0  0
   13.6658   22.2088   32.6631 H   0  0  0  0  0
   14.9918   24.0812   31.8271 H   0  0  0  0  0
   15.9774   23.5855   33.1349 H   0  0  0  0  0
   15.1520   26.0846   33.1678 H   0  0  0  0  0
   15.0407   25.2222   34.6469 H   0  0  0  0  0
   12.7153   25.9006   34.3723 H   0  0  0  0  0
   12.7813   25.8285   32.6704 H   0  0  0  0  0
   14.8260   20.6774   33.5899 H   0  0  0  0  0
   14.6138   20.3170   36.4364 H   0  0  0  0  0
   16.0540   18.3836   36.0995 H   0  0  0  0  0
   16.5129   18.9793   34.4780 H   0  0  0  0  0
   14.8276   17.4080   34.4089 H   0  0  0  0  0
   15.8482   20.9608   38.0488 H   0  0  0  0  0
   18.3433   22.4529   37.3765 H   0  0  0  0  0
   17.9944   23.6781   39.4216 H   0  0  0  0  0
   16.6310   22.5760   39.8817 H   0  0  0  0  0
   15.3867   23.3839   37.9077 H   0  0  0  0  0
   14.9542   24.3720   40.0784 H   0  0  0  0  0
   16.2543   25.5607   39.8181 H   0  0  0  0  0
   14.8015   25.5902   38.7887 H   0  0  0  0  0
   17.6818   25.3603   37.6573 H   0  0  0  0  0
   17.2853   24.0537   36.5143 H   0  0  0  0  0
   16.1595   25.4156   36.7350 H   0  0  0  0  0
   17.1925   19.9628   39.2432 H   0  0  0  0  0
  1  2  1  0  0  0
  2  3  1  0  0  0
  2  5  1  0  0  0
  3  4  2  0  0  0
  3  6  1  0  0  0
  6  7  1  0  0  0
  7  8  1  0  0  0
  7 10  1  0  0  0
  8  9  2  0  0  0
  8 17  1  0  0  0
 10 11  1  0  0  0
 11 12  1  0  0  0
 12 13  1  0  0  0
 13 14  1  0  0  0
 14 15  1  0  0  0
 14 16  2  0  0  0
 17 18  1  0  0  0
 18 19  1  0  0  0
 18 21  1  0  0  0
 19 20  2  0  0  0
 19 28  1  0  0  0
 21 22  1  0  0  0
 22 23  1  0  0  0
 23 24  1  0  0  0
 24 25  1  0  0  0
 25 26  1  0  0  0
 25 27  2  0  0  0
 28 29  1  0  0  0
 29 30  1  0  0  0
 29 32  1  0  0  0
 30 31  2  0  0  0
 30 37  1  0  0  0
 32 33  1  0  0  0
 33 34  1  0  0  0
 34 35  1  0  0  0
 34 36  2  0  0  0
 37 38  1  0  0  0
 38 39  1  0  0  0
 38 41  1  0  0  0
 39 40  1  0  0  0
 40 43  1  0  0  0
 41 42  2  0  0  0
 41 47  1  0  0  0
 43 44  1  0  0  0
 43 45  1  0  0  0
 43 46  2  0  0  0
 47 48  1  0  0  0
 48 49  1  0  0  0
 48 51  1  0  0  0
 49 50  2  0  0  0
 49 59  1  0  0  0
 51 52  1  0  0  0
 52 53  4  0  0  0
 52 54  4  0  0  0
 53 55  4  0  0  0
 54 56  4  0  0  0
 55 57  4  0  0  0
 56 57  4  0  0  0
 57 58  1  0  0  0
 59 60  1  0  0  0
 60 61  1  0  0  0
 60 63  1  0  0  0
 61 62  2  0  0  0
 61 67  1  0  0  0
 63 64  1  0  0  0
 64 65  1  0  0  0
 64 66  1  0  0  0
 67 68  1  0  0  0
 68 69  1  0  0  0
 68 71  1  0  0  0
 69 70  2  0  0  0
 69 76  1  0  0  0
 71 72  1  0  0  0
 72 73  1  0  0  0
 73 74  1  0  0  0
 74 75  1  0  0  0
 76 77  1  0  0  0
 77 78  1  0  0  0
 77 80  1  0  0  0
 78 79  2  0  0  0
 78 81  1  0  0  0
 81 82  1  0  0  0
 82 83  1  0  0  0
 82 85  1  0  0  0
 83 84  2  0  0  0
 83 88  1  0  0  0
 85 86  1  0  0  0
 85 87  1  0  0  0
 88 89  1  0  0  0
 89 90  1  0  0  0
 89 92  1  0  0  0
 90 91  2  0  0  0
 90 97  1  0  0  0
 92 93  1  0  0  0
 93 94  1  0  0  0
 94 95  2  0  0  0
 94 96  1  0  0  0
 97 98  1  0  0  0
 97103  1  0  0  0
 98 99  1  0  0  0
 98101  1  0  0  0
 99100  2  0  0  0
 99104  1  0  0  0
101102  1  0  0  0
102103  1  0  0  0
104105  1  0  0  0
105106  1  0  0  0
105108  1  0  0  0
106107  2  0  0  0
106110  1  0  0  0
108109  1  0  0  0
110111  1  0  0  0
111112  1  0  0  0
111114  1  0  0  0
112113  2  0  0  0
112118  1  0  0  0
114115  1  0  0  0
115116  1  0  0  0
115117  1  0  0  0
  1119  1  0  0  0
  1120  1  0  0  0
  1121  1  0  0  0
  2122  1  0  0  0
  5123  1  0  0  0
  5124  1  0  0  0
  5125  1  0  0  0
  6126  1  0  0  0
  7127  1  0  0  0
 10128  1  0  0  0
 10129  1  0  0  0
 11130  1  0  0  0
 11131  1  0  0  0
 12132  1  0  0  0
 12133  1  0  0  0
 13134  1  0  0  0
 15135  1  0  0  0
 15136  1  0  0  0
 16137  1  0  0  0
 17138  1  0  0  0
 18139  1  0  0  0
 21140  1  0  0  0
 21141  1  0  0  0
 22142  1  0  0  0
 22143  1  0  0  0
 23144  1  0  0  0
 23145  1  0  0  0
 24146  1  0  0  0
 26147  1  0  0  0
 26148  1  0  0  0
 27149  1  0  0  0
 28150  1  0  0  0
 29151  1  0  0  0
 32152  1  0  0  0
 32153  1  0  0  0
 33154  1  0  0  0
 33155  1  0  0  0
 35156  1  0  0  0
 37157  1  0  0  0
 38158  1  0  0  0
 39159  1  0  0  0
 39160  1  0  0  0
 44161  1  0  0  0
 45162  1  0  0  0
 47163  1  0  0  0
 48164  1  0  0  0
 51165  1  0  0  0
 51166  1  0  0  0
 53167  1  0  0  0
 54168  1  0  0  0
 55169  1  0  0  0
 56170  1  0  0  0
 58171  1  0  0  0
 59172  1  0  0  0
 60173  1  0  0  0
 63174  1  0  0  0
 63175  1  0  0  0
 64176  1  0  0  0
 65177  1  0  0  0
 65178  1  0  0  0
 65179  1  0  0  0
 66180  1  0  0  0
 66181  1  0  0  0
 66182  1  0  0  0
 67183  1  0  0  0
 68184  1  0  0  0
 71185  1  0  0  0
 71186  1  0  0  0
 72187  1  0  0  0
 72188  1  0  0  0
 73189  1  0  0  0
 73190  1  0  0  0
 74191  1  0  0  0
 74192  1  0  0  0
 75193  1  0  0  0
 75194  1  0  0  0
 75195  1  0  0  0
 76196  1  0  0  0
 77197  1  0  0  0
 80198  1  0  0  0
 80199  1  0  0  0
 80200  1  0  0  0
 81201  1  0  0  0
 82202  1  0  0  0
 85203  1  0  0  0
 86204  1  0  0  0
 87205  1  0  0  0
 87206  1  0  0  0
 87207  1  0  0  0
 88208  1  0  0  0
 89209  1  0  0  0
 92210  1  0  0  0
 92211  1  0  0  0
 93212  1  0  0  0
 93213  1  0  0  0
 96214  1  0  0  0
 96215  1  0  0  0
 98216  1  0  0  0
101217  1  0  0  0
101218  1  0  0  0
102219  1  0  0  0
102220  1  0  0  0
103221  1  0  0  0
103222  1  0  0  0
104223  1  0  0  0
105224  1  0  0  0
108225  1  0  0  0
108226  1  0  0  0
109227  1  0  0  0
110228  1  0  0  0
111229  1  0  0  0
114230  1  0  0  0
114231  1  0  0  0
115232  1  0  0  0
116233  1  0  0  0
116234  1  0  0  0
116235  1  0  0  0
117236  1  0  0  0
117237  1  0  0  0
117238  1  0  0  0
118239  1  0  0  0
M  END
$$$$
