6ea2_ligand
  -I-interpret- 

 47 49  0  0  0  0  0  0  0  0999 V2000
   15.3140  118.6280  130.0520 N   0  0  0  0  0
   14.6670  119.8980  130.4620 C   0  0  0  0  0
   13.7140  120.2610  129.3430 C   0  0  0  0  0
   12.8120  119.5140  128.9970 O   0  0  0  0  0
   13.5640  119.1990  133.9980 C   0  0  0  0  0
   13.4390  121.5470  133.5440 C   0  0  0  0  0
   14.0050  118.9500  132.6810 C   0  0  0  0  0
   13.8830  121.2950  132.2430 C   0  0  0  0  0
   13.7870  121.5190  136.5100 C   0  0  0  0  0
   11.7760  120.1860  136.4030 C   0  0  0  0  0
   17.3330  118.0220  126.8410 C   0  0  0  0  0
   15.9650  117.4160  127.1520 C   0  0  0  0  0
   18.2000  117.5890  128.0500 C   0  0  0  0  0
   16.1880  116.5190  128.3620 C   0  0  0  0  0
   16.6410  118.5760  129.7880 C   0  0  0  0  0
   13.5480  121.7940  137.8490 C   0  0  0  0  0
   11.5510  120.4860  137.7510 C   0  0  0  0  0
   13.2540  120.4880  134.4310 C   0  0  0  0  0
   12.8850  120.7300  135.7640 C   0  0  0  0  0
   14.1590  120.0100  131.7890 C   0  0  0  0  0
   12.4330  121.2820  138.4640 C   0  0  0  0  0
   17.2010  117.2720  129.1780 C   0  0  0  0  0
   14.4110  122.5690  138.6210 F   0  0  0  0  0
   10.5110  120.0260  138.3720 F   0  0  0  0  0
   12.2070  121.5680  139.8030 F   0  0  0  0  0
   14.0010  121.3990  128.7130 N   0  0  0  0  0
   17.4280  119.4680  130.0810 O   0  0  0  0  0
   13.1410  121.7580  127.6910 O   0  0  0  0  0
   14.7512  117.7815  129.9677 H   0  0  0  0  0
   15.4413  120.6559  130.5811 H   0  0  0  0  0
   13.4633  118.3651  134.6927 H   0  0  0  0  0
   13.2379  122.5693  133.8642 H   0  0  0  0  0
   14.2247  117.9312  132.3619 H   0  0  0  0  0
   14.0175  122.1345  131.5609 H   0  0  0  0  0
   14.6808  121.9165  136.0291 H   0  0  0  0  0
   11.0909  119.5343  135.8607 H   0  0  0  0  0
   17.2939  119.1045  126.7198 H   0  0  0  0  0
   17.7379  117.6763  125.8899 H   0  0  0  0  0
   15.5727  116.8550  126.3038 H   0  0  0  0  0
   15.2219  118.1869  127.3559 H   0  0  0  0  0
   18.8982  118.3732  128.3428 H   0  0  0  0  0
   18.8189  116.7246  127.8092 H   0  0  0  0  0
   16.5332  115.5230  128.0847 H   0  0  0  0  0
   15.2678  116.3268  128.9138 H   0  0  0  0  0
   17.5825  116.7318  130.0444 H   0  0  0  0  0
   14.8060  121.9708  128.9687 H   0  0  0  0  0
   13.4334  122.5867  127.3045 H   0  0  0  0  0
  2  1  1  0  0  0
  1 15  1  0  0  0
  2  3  1  0  0  0
 20  2  1  0  0  0
  3  4  2  0  0  0
  3 26  1  0  0  0
  5  7  4  0  0  0
 18  5  4  0  0  0
  6  8  4  0  0  0
 18  6  4  0  0  0
  7 20  4  0  0  0
  8 20  4  0  0  0
  9 16  4  0  0  0
 19  9  4  0  0  0
 10 17  4  0  0  0
 19 10  4  0  0  0
 12 11  1  0  0  0
 13 11  1  0  0  0
 14 12  1  0  0  0
 22 13  1  0  0  0
 22 14  1  0  0  0
 15 22  1  0  0  0
 15 27  2  0  0  0
 16 21  4  0  0  0
 16 23  1  0  0  0
 17 21  4  0  0  0
 17 24  1  0  0  0
 18 19  1  0  0  0
 21 25  1  0  0  0
 26 28  1  0  0  0
  1 29  1  0  0  0
  2 30  1  0  0  0
  5 31  1  0  0  0
  6 32  1  0  0  0
  7 33  1  0  0  0
  8 34  1  0  0  0
  9 35  1  0  0  0
 10 36  1  0  0  0
 11 37  1  0  0  0
 11 38  1  0  0  0
 12 39  1  0  0  0
 12 40  1  0  0  0
 13 41  1  0  0  0
 13 42  1  0  0  0
 14 43  1  0  0  0
 14 44  1  0  0  0
 22 45  1  0  0  0
 26 46  1  0  0  0
 28 47  1  0  0  0
M  END
$$$$
