4qmt_ligand
  -I-interpret- 

 70 74  0  0  0  0  0  0  0  0999 V2000
   18.0070    6.8820   66.4750 C   0  0  0  0  0
   18.1520    6.3050   65.0520 C   0  0  0  0  0
   16.7860    5.7750   64.5930 C   0  0  0  0  0
   16.3040    4.7090   65.5960 C   0  0  0  0  0
   16.3450    5.1570   67.0770 C   0  0  0  0  0
   17.5840    5.8780   67.5110 N   0  3  0  0  0
   17.3940    6.6010   68.8210 C   0  0  0  0  0
   18.4760    7.5000   69.3070 C   0  0  0  0  0
   18.4370    8.8950   69.0660 C   0  0  0  0  0
   19.4670    9.7270   69.5290 C   0  0  0  0  0
   19.5630    6.9800   70.0340 C   0  0  0  0  0
   20.5900    7.8120   70.4960 C   0  0  0  0  0
   20.5590    9.2060   70.2540 C   0  0  0  0  0
   21.4990   10.1300   70.6520 N   0  0  0  0  0
   22.6280   10.1030   71.4260 C   0  0  0  0  0
   23.1640    8.9050   71.8870 C   0  0  0  0  0
   24.0170    8.1300   71.0600 C   0  0  0  0  0
   24.5640    6.9270   71.5370 C   0  0  0  0  0
   24.2680    6.4940   72.8430 C   0  0  0  0  0
   23.4310    7.2540   73.6770 C   0  0  0  0  0
   22.8760    8.4600   73.2050 C   0  0  0  0  0
   23.2430   11.2860   71.6890 C   0  0  0  0  0
   24.4810   11.5830   72.3080 C   0  0  0  0  0
   25.4560   10.8600   73.0650 C   0  0  0  0  0
   22.8440   12.4980   71.1160 C   0  0  0  0  0
   21.8000   12.7700   70.4600 O   0  0  0  0  0
   23.7350   13.4550   71.3450 N   0  0  0  0  0
   24.7290   12.9400   72.0520 C   0  0  0  0  0
   25.8640   13.6160   72.5020 C   0  0  0  0  0
   26.8030   12.8860   73.2380 C   0  0  0  0  0
   26.6310   11.5180   73.5420 C   0  0  0  0  0
   27.5840   10.8530   74.2740 N   0  0  0  0  0
   27.6320    9.1770   74.6060 S   0  0  0  0  0
   28.8340    8.8620   75.6220 O   0  0  0  0  0
   26.2350    8.6670   75.1880 O   0  0  0  0  0
   27.8690    8.2980   73.0150 C   0  0  0  0  0
   29.3340    8.2940   72.5730 C   0  0  0  0  0
   17.2304    7.6457   66.4333 H   0  0  0  0  0
   18.9878    7.2540   66.7712 H   0  0  0  0  0
   18.8814    5.4950   65.0538 H   0  0  0  0  0
   18.4948    7.0834   64.3704 H   0  0  0  0  0
   16.8756    5.3341   63.6002 H   0  0  0  0  0
   16.0676    6.5937   64.5505 H   0  0  0  0  0
   16.9754    3.8555   65.5020 H   0  0  0  0  0
   15.2628    4.4930   65.3565 H   0  0  0  0  0
   16.2961    4.2462   67.6737 H   0  0  0  0  0
   15.5211    5.8586   67.2074 H   0  0  0  0  0
   18.3036    5.1649   67.6292 H   0  0  0  0  0
   17.3232    5.8131   69.5709 H   0  0  0  0  0
   16.5351    7.2530   68.6619 H   0  0  0  0  0
   17.6000    9.3256   68.5164 H   0  0  0  0  0
   19.4227   10.7967   69.3246 H   0  0  0  0  0
   19.6062    5.9107   70.2411 H   0  0  0  0  0
   21.4242    7.3805   71.0492 H   0  0  0  0  0
   21.3079   11.0603   70.2799 H   0  0  0  0  0
   24.2490    8.4691   70.0504 H   0  0  0  0  0
   25.2154    6.3311   70.8978 H   0  0  0  0  0
   24.6923    5.5599   73.2110 H   0  0  0  0  0
   23.2112    6.9111   74.6880 H   0  0  0  0  0
   22.2263    9.0510   73.8505 H   0  0  0  0  0
   25.3018    9.8024   73.2788 H   0  0  0  0  0
   23.6657   14.4226   71.0299 H   0  0  0  0  0
   26.0133   14.6743   72.2877 H   0  0  0  0  0
   27.7016   13.3924   73.5902 H   0  0  0  0  0
   28.3412   11.4175   74.6592 H   0  0  0  0  0
   27.2848    8.8122   72.2519 H   0  0  0  0  0
   27.5506    7.2639   73.1469 H   0  0  0  0  0
   29.6775    9.3210   72.4489 H   0  0  0  0  0
   29.9393    7.7960   73.3304 H   0  0  0  0  0
   29.4250    7.7622   71.6259 H   0  0  0  0  0
  1  2  1  0  0  0
  1  6  1  0  0  0
  2  3  1  0  0  0
  3  4  1  0  0  0
  4  5  1  0  0  0
  5  6  1  0  0  0
  6  7  1  0  0  0
  7  8  1  0  0  0
  8  9  4  0  0  0
  8 11  4  0  0  0
  9 10  4  0  0  0
 10 13  4  0  0  0
 11 12  4  0  0  0
 12 13  4  0  0  0
 13 14  1  0  0  0
 14 15  1  0  0  0
 15 16  1  0  0  0
 15 22  2  0  0  0
 16 17  4  0  0  0
 16 21  4  0  0  0
 17 18  4  0  0  0
 18 19  4  0  0  0
 19 20  4  0  0  0
 20 21  4  0  0  0
 22 23  1  0  0  0
 22 25  1  0  0  0
 23 24  4  0  0  0
 23 28  4  0  0  0
 24 31  4  0  0  0
 25 26  2  0  0  0
 25 27  1  0  0  0
 27 28  1  0  0  0
 28 29  4  0  0  0
 29 30  4  0  0  0
 30 31  4  0  0  0
 31 32  1  0  0  0
 32 33  1  0  0  0
 33 34  2  0  0  0
 33 35  2  0  0  0
 33 36  1  0  0  0
 36 37  1  0  0  0
  1 38  1  0  0  0
  1 39  1  0  0  0
  2 40  1  0  0  0
  2 41  1  0  0  0
  3 42  1  0  0  0
  3 43  1  0  0  0
  4 44  1  0  0  0
  4 45  1  0  0  0
  5 46  1  0  0  0
  5 47  1  0  0  0
  6 48  1  0  0  0
  7 49  1  0  0  0
  7 50  1  0  0  0
  9 51  1  0  0  0
 10 52  1  0  0  0
 11 53  1  0  0  0
 12 54  1  0  0  0
 14 55  1  0  0  0
 17 56  1  0  0  0
 18 57  1  0  0  0
 19 58  1  0  0  0
 20 59  1  0  0  0
 21 60  1  0  0  0
 24 61  1  0  0  0
 27 62  1  0  0  0
 29 63  1  0  0  0
 30 64  1  0  0  0
 32 65  1  0  0  0
 36 66  1  0  0  0
 36 67  1  0  0  0
 37 68  1  0  0  0
 37 69  1  0  0  0
 37 70  1  0  0  0
M  END
$$$$
