### 
### Created by X-TOOL on Mon Sep 10 21:12:55 2018
### 

@<TRIPOS>MOLECULE
2ez5_ligand
  163   165     1     0     0
SMALL
GAST_HUCK


@<TRIPOS>ATOM
      1 N          15.7770    9.3370    0.5890 N.4       1 THR         0.2398
      2 CA         14.7580    8.5810   -0.1820 C.3       1 THR         0.0910
      3 C          13.7740    7.8810    0.7470 C.2       1 THR         0.2291
      4 O          12.6280    8.3070    0.8890 O.2       1 THR        -0.3906
      5 CB         15.4170    7.5310   -1.0950 C.3       1 THR         0.1120
      6 OG1        16.1000    6.5520   -0.3040 O.3       1 THR        -0.3840
      7 CG2        16.3980    8.1890   -2.0540 C.3       1 THR        -0.0314
      8 H1         16.4135    9.7891   -0.0486 H         1 THR         0.2016
      9 H2         16.2892    8.7024    1.1814 H         1 THR         0.2016
     10 H3         15.3202   10.0328    1.1575 H         1 THR         0.2016
     11 H4         14.2030    9.2939   -0.8095 H         1 THR         0.1125
     12 H5         14.6316    7.0309   -1.6806 H         1 THR         0.0674
     13 H6         15.4844    6.1435    0.2933 H         1 THR         0.2102
     14 H7         16.8554    7.4208   -2.6948 H         1 THR         0.0258
     15 H8         17.1832    8.7028   -1.4800 H         1 THR         0.0258
     16 H9         15.8646    8.9190   -2.6805 H         1 THR         0.0258
     17 N          14.2280    6.8040    1.3810 N.am      1 GLY        -0.2636
     18 CA         13.3730    6.0650    2.2910 C.3       1 GLY         0.1202
     19 C          12.7660    4.8310    1.6510 C.2       1 GLY         0.2007
     20 O          13.4320    4.1240    0.8960 O.2       1 GLY        -0.3947
     21 H10        15.1685    6.5002    1.2290 H         1 GLY         0.1882
     22 H11        12.5588    6.7256    2.6238 H         1 GLY         0.0763
     23 H12        13.9705    5.7529    3.1602 H         1 GLY         0.0763
     24 N          11.4990    4.5730    1.9580 N.am      1 LEU        -0.2639
     25 CA         10.7970    3.4160    1.4120 C.3       1 LEU         0.1314
     26 C          11.4360    2.1160    1.8930 C.2       1 LEU         0.2064
     27 O          12.1550    1.4530    1.1440 O.2       1 LEU        -0.3942
     28 CB         10.7940    3.4630   -0.1170 C.3       1 LEU        -0.0101
     29 CG         10.1660    2.2490   -0.8000 C.3       1 LEU        -0.0425
     30 CD1         8.6560    2.2610   -0.6220 C.3       1 LEU        -0.0625
     31 CD2        10.5300    2.2230   -2.2780 C.3       1 LEU        -0.0625
     32 H13        11.0138    5.1880    2.5796 H         1 LEU         0.1883
     33 H14         9.7555    3.4439    1.7649 H         1 LEU         0.0800
     34 H15        11.8367    3.5446   -0.4578 H         1 LEU         0.0315
     35 H16        10.2350    4.3573   -0.4297 H         1 LEU         0.0315
     36 H17        10.5645    1.3390   -0.3277 H         1 LEU         0.0298
     37 H18         8.2212    1.3814   -1.1192 H         1 LEU         0.0232
     38 H19         8.2414    3.1768   -1.0686 H         1 LEU         0.0232
     39 H20         8.4130    2.2334    0.4504 H         1 LEU         0.0232
     40 H21        11.6247    2.2146   -2.3859 H         1 LEU         0.0232
     41 H22        10.1197    3.1158   -2.7725 H         1 LEU         0.0232
     42 H23        10.1088    1.3198   -2.7436 H         1 LEU         0.0232
     43 N          11.1810    1.7320    3.1550 N.am      1 PRO        -0.2498
     44 CA         11.7340    0.5030    3.7340 C.3       1 PRO         0.1338
     45 C          11.2620   -0.7430    2.9940 C.2       1 PRO         0.2042
     46 O          10.1550   -1.2300    3.2210 O.2       1 PRO        -0.3944
     47 CB         11.2020    0.5030    5.1740 C.3       1 PRO        -0.0104
     48 CG         10.7860    1.9100    5.4380 C.3       1 PRO        -0.0281
     49 CD         10.3370    2.4600    4.1160 C.3       1 PRO         0.0369
     50 H24        12.8335    0.5344    3.7237 H         1 PRO         0.0802
     51 H25        11.9908    0.1959    5.8765 H         1 PRO         0.0313
     52 H26        10.3426   -0.1771    5.2675 H         1 PRO         0.0313
     53 H27         9.9597    1.9351    6.1636 H         1 PRO         0.0287
     54 H28        11.6336    2.4931    5.8272 H         1 PRO         0.0287
     55 H29         9.2706    2.2531    3.9427 H         1 PRO         0.0524
     56 H30        10.5145    3.5440    4.0572 H         1 PRO         0.0524
     57 N          12.1090   -1.2520    2.1060 N.am      1 SER        -0.2616
     58 CA         11.7790   -2.4420    1.3290 C.3       1 SER         0.1539
     59 C          11.2690   -3.5610    2.2320 C.2       1 SER         0.2063
     60 O          11.5550   -3.5860    3.4290 O.2       1 SER        -0.3943
     61 CB         13.0050   -2.9210    0.5490 C.3       1 SER         0.0843
     62 OG         14.1570   -2.9450    1.3730 O.3       1 SER        -0.3903
     63 H31        12.9945   -0.8086    1.9667 H         1 SER         0.1884
     64 H32        10.9855   -2.1816    0.6131 H         1 SER         0.0823
     65 H33        13.1820   -2.2393   -0.2959 H         1 SER         0.0606
     66 H34        12.8147   -3.9353    0.1682 H         1 SER         0.0606
     67 H35        14.9018   -3.2452    0.8654 H         1 SER         0.2097
     68 N          10.5100   -4.4830    1.6490 N.am      1 TYR        -0.2621
     69 CA          9.9570   -5.6060    2.3980 C.3       1 TYR         0.1390
     70 C          11.0400   -6.3060    3.2130 C.2       1 TYR         0.2058
     71 O          11.7120   -7.2130    2.7210 O.2       1 TYR        -0.3942
     72 CB          9.2960   -6.6040    1.4440 C.3       1 TYR         0.0163
     73 CG          8.3790   -7.5890    2.1340 C.ar      1 TYR        -0.0493
     74 CD1         8.8670   -8.4780    3.0840 C.ar      1 TYR        -0.0685
     75 CD2         7.0230   -7.6290    1.8340 C.ar      1 TYR        -0.0685
     76 CE1         8.0300   -9.3790    3.7140 C.ar      1 TYR        -0.0398
     77 CE2         6.1800   -8.5270    2.4610 C.ar      1 TYR        -0.0398
     78 CZ          6.6880   -9.3990    3.4000 C.ar      1 TYR         0.0805
     79 OH          5.8520  -10.2960    4.0250 O.3       1 TYR        -0.3376
     80 H36        10.3129   -4.4049    0.6717 H         1 TYR         0.1885
     81 H37         9.1932   -5.2210    3.0897 H         1 TYR         0.0821
     82 H38        10.0873   -7.1684    0.9290 H         1 TYR         0.0453
     83 H39         8.7073   -6.0405    0.7052 H         1 TYR         0.0453
     84 H40         9.9215   -8.4644    3.3349 H         1 TYR         0.0530
     85 H41         6.6197   -6.9448    1.0962 H         1 TYR         0.0530
     86 H42         8.4269  -10.0669    4.4518 H         1 TYR         0.0525
     87 H43         5.1243   -8.5455    2.2155 H         1 TYR         0.0525
     88 H44         6.3535  -10.8200    4.6385 H         1 TYR         0.2458
     89 N          11.2040   -5.8820    4.4630 N.am      1 ASP        -0.2620
     90 CA         12.2050   -6.4700    5.3490 C.3       1 ASP         0.1423
     91 C          12.3260   -5.6690    6.6410 C.2       1 ASP         0.2056
     92 O          12.5980   -6.2260    7.7050 O.2       1 ASP        -0.3943
     93 CB         13.5660   -6.5360    4.6500 C.3       1 ASP         0.0406
     94 CG         14.0540   -7.9600    4.4680 C.2       1 ASP         0.0393
     95 OD1        13.3830   -8.7300    3.7490 O.co2     1 ASP        -0.5688
     96 OD2        15.1080   -8.3050    5.0430 O.co2     1 ASP        -0.5688
     97 H45        10.6265   -5.1408    4.8052 H         1 ASP         0.1884
     98 H46        11.8888   -7.4932    5.6001 H         1 ASP         0.0819
     99 H47        14.3011   -5.9854    5.2553 H         1 ASP         0.0478
    100 H48        13.4782   -6.0636    3.6605 H         1 ASP         0.0478
    101 N          12.1260   -4.3590    6.5410 N.am      1 GLU        -0.2635
    102 CA         12.2170   -3.4810    7.7020 C.3       1 GLU         0.1325
    103 C          10.8300   -3.1190    8.2240 C.2       1 GLU         0.2040
    104 O          10.5880   -3.1350    9.4310 O.2       1 GLU        -0.3944
    105 CB         12.9880   -2.2090    7.3450 C.3       1 GLU        -0.0008
    106 CG         14.1170   -2.4380    6.3530 C.3       1 GLU         0.0044
    107 CD         15.4350   -1.8570    6.8240 C.2       1 GLU         0.0350
    108 OE1        15.5720   -0.6150    6.8220 O.co2     1 GLU        -0.5690
    109 OE2        16.3310   -2.6430    7.1970 O.co2     1 GLU        -0.5690
    110 H49        11.9078   -3.9657    5.6479 H         1 GLU         0.1883
    111 H50        12.7618   -4.0110    8.4972 H         1 GLU         0.0801
    112 H51        13.4161   -1.7915    8.2683 H         1 GLU         0.0330
    113 H52        12.2830   -1.4864    6.9082 H         1 GLU         0.0330
    114 H53        13.8463   -1.9668    5.3966 H         1 GLU         0.0433
    115 H54        14.2422   -3.5209    6.2059 H         1 GLU         0.0433
    116 N           9.9230   -2.7920    7.3090 N.am      1 ALA        -0.2640
    117 CA          8.5610   -2.4250    7.6810 C.3       1 ALA         0.1282
    118 C           7.7100   -3.6640    7.9350 C.2       1 ALA         0.2036
    119 O           6.7460   -3.9250    7.2150 O.2       1 ALA        -0.3944
    120 CB          7.9320   -1.5640    6.5970 C.3       1 ALA        -0.0244
    121 H55        10.1804   -2.7977    6.3427 H         1 ALA         0.1883
    122 H56         8.6029   -1.8385    8.6106 H         1 ALA         0.0797
    123 H57         6.9066   -1.2954    6.8910 H         1 ALA         0.0277
    124 H58         7.9071   -2.1252    5.6513 H         1 ALA         0.0277
    125 H59         8.5271   -0.6484    6.4645 H         1 ALA         0.0277
    126 N           8.0720   -4.4240    8.9620 N.am      1 LEU        -0.2637
    127 CA          7.3420   -5.6370    9.3120 C.3       1 LEU         0.1312
    128 C           7.2800   -5.8180   10.8250 C.2       1 LEU         0.2041
    129 O           7.3300   -6.9400   11.3280 O.2       1 LEU        -0.3944
    130 CB          8.0010   -6.8580    8.6670 C.3       1 LEU        -0.0101
    131 CG          7.6210   -7.1050    7.2060 C.3       1 LEU        -0.0425
    132 CD1         8.8630   -7.1430    6.3310 C.3       1 LEU        -0.0625
    133 CD2         6.8340   -8.4010    7.0730 C.3       1 LEU        -0.0625
    134 H60         8.8654   -4.1578    9.5094 H         1 LEU         0.1883
    135 H61         6.3149   -5.5481    8.9284 H         1 LEU         0.0800
    136 H62         7.7145   -7.7467    9.2484 H         1 LEU         0.0315
    137 H63         9.0915   -6.7229    8.7172 H         1 LEU         0.0315
    138 H64         6.9833   -6.2750    6.8677 H         1 LEU         0.0298
    139 H65         8.5699   -7.3213    5.2859 H         1 LEU         0.0232
    140 H66         9.5253   -7.9535    6.6694 H         1 LEU         0.0232
    141 H67         9.3928   -6.1818    6.4043 H         1 LEU         0.0232
    142 H68         5.9403   -8.3545    7.7126 H         1 LEU         0.0232
    143 H69         7.4646   -9.2466    7.3850 H         1 LEU         0.0232
    144 H70         6.5283   -8.5385    6.0253 H         1 LEU         0.0232
    145 N           7.1690   -4.7060   11.5450 N.am      1 HIS        -0.2611
    146 CA          7.1000   -4.7430   13.0010 C.3       1 HIS         0.1480
    147 C           5.6510   -4.7740   13.4750 C.2       1 HIS         0.2585
    148 O           5.2830   -5.6120   14.2960 O.2       1 HIS        -0.3679
    149 CB          7.8180   -3.5300   13.5960 C.3       1 HIS         0.0159
    150 CG          9.2810   -3.4840   13.2810 C.2       1 HIS        -0.0026
    151 ND1         9.9320   -2.3320   12.8930 N.2       1 HIS        -0.3252
    152 CD2        10.2220   -4.4580   13.2970 C.2       1 HIS         0.0291
    153 CE1        11.2090   -2.5990   12.6840 C.2       1 HIS         0.0907
    154 NE2        11.4110   -3.8820   12.9230 N.pl3     1 HIS        -0.2752
    155 H71         7.1319   -3.8231   11.0769 H         1 HIS         0.1886
    156 H72         7.6025   -5.6567   13.3512 H         1 HIS         0.0833
    157 H73         7.6986   -3.5572   14.6892 H         1 HIS         0.0421
    158 H74         7.3481   -2.6184   13.1983 H         1 HIS         0.0421
    159 H75        10.0648   -5.5035   13.5580 H         1 HIS         0.0729
    160 H76        11.9662   -1.8828   12.3683 H         1 HIS         0.1199
    161 H77        12.3138   -4.3711   12.8420 H         1 HIS         0.2361
    162 H78         4.0727   -4.3478   12.5597 H         1 HIS         0.2540
    163 O1          4.7802   -3.8894   12.9975 O.3       1 HIS        -0.2909
@<TRIPOS>BOND
     1    2    1 1  
     2    2    5 1  
     3    3    2 1  
     4    3    4 2  
     5    5    7 1  
     6    5    6 1  
     7    1    8 1  
     8    1    9 1  
     9    1   10 1  
    10    2   11 1  
    11    5   12 1  
    12    6   13 1  
    13    7   14 1  
    14    7   15 1  
    15    7   16 1  
    16   18   17 1  
    17   19   18 1  
    18   19   20 2  
    19   17   21 1  
    20   18   22 1  
    21   18   23 1  
    22   17    3 am 
    23   25   24 1  
    24   25   28 1  
    25   26   25 1  
    26   26   27 2  
    27   28   29 1  
    28   29   30 1  
    29   29   31 1  
    30   24   32 1  
    31   25   33 1  
    32   28   34 1  
    33   28   35 1  
    34   29   36 1  
    35   30   37 1  
    36   30   38 1  
    37   30   39 1  
    38   31   40 1  
    39   31   41 1  
    40   31   42 1  
    41   24   19 am 
    42   45   44 1  
    43   44   47 1  
    44   44   43 1  
    45   43   49 1  
    46   49   48 1  
    47   47   48 1  
    48   45   46 2  
    49   44   50 1  
    50   47   51 1  
    51   47   52 1  
    52   48   53 1  
    53   48   54 1  
    54   49   55 1  
    55   49   56 1  
    56   43   26 am 
    57   58   57 1  
    58   58   61 1  
    59   59   58 1  
    60   59   60 2  
    61   61   62 1  
    62   57   63 1  
    63   58   64 1  
    64   61   65 1  
    65   61   66 1  
    66   62   67 1  
    67   57   45 am 
    68   69   68 1  
    69   69   72 1  
    70   70   69 1  
    71   70   71 2  
    72   72   73 1  
    73   73   74 ar 
    74   73   75 ar 
    75   75   77 ar 
    76   77   78 ar 
    77   78   79 1  
    78   76   78 ar 
    79   74   76 ar 
    80   68   80 1  
    81   69   81 1  
    82   72   82 1  
    83   72   83 1  
    84   74   84 1  
    85   75   85 1  
    86   76   86 1  
    87   77   87 1  
    88   79   88 1  
    89   68   59 am 
    90   90   89 1  
    91   90   93 1  
    92   91   90 1  
    93   91   92 2  
    94   93   94 1  
    95   94   95 ar 
    96   94   96 ar 
    97   89   97 1  
    98   90   98 1  
    99   93   99 1  
   100   93  100 1  
   101   89   70 am 
   102  102  101 1  
   103  102  105 1  
   104  103  102 1  
   105  103  104 2  
   106  105  106 1  
   107  106  107 1  
   108  107  109 ar 
   109  107  108 ar 
   110  101  110 1  
   111  102  111 1  
   112  105  112 1  
   113  105  113 1  
   114  106  114 1  
   115  106  115 1  
   116  101   91 am 
   117  117  116 1  
   118  117  120 1  
   119  118  117 1  
   120  118  119 2  
   121  116  121 1  
   122  117  122 1  
   123  120  123 1  
   124  120  124 1  
   125  120  125 1  
   126  116  103 am 
   127  127  126 1  
   128  127  130 1  
   129  128  127 1  
   130  128  129 2  
   131  130  131 1  
   132  131  132 1  
   133  131  133 1  
   134  126  134 1  
   135  127  135 1  
   136  130  136 1  
   137  130  137 1  
   138  131  138 1  
   139  132  139 1  
   140  132  140 1  
   141  132  141 1  
   142  133  142 1  
   143  133  143 1  
   144  133  144 1  
   145  126  118 am 
   146  145  146 1  
   147  146  149 1  
   148  146  147 1  
   149  147  148 2  
   150  149  150 1  
   151  150  151 1  
   152  150  152 2  
   153  152  154 1  
   154  154  153 1  
   155  151  153 2  
   156  145  155 1  
   157  146  156 1  
   158  149  157 1  
   159  149  158 1  
   160  152  159 1  
   161  153  160 1  
   162  154  161 1  
   163  163  162 1  
   164  128  145 am 
   165  147  163 1  
@<TRIPOS>SUBSTRUCTURE
     1 THR         1

