2ez5_ligand
  -I-interpret- 

164166  0  0  0  0  0  0  0  0999 V2000
   15.7770    9.3370    0.5890 N   0  3  0  0  0
   14.7580    8.5810   -0.1820 C   0  0  0  0  0
   13.7740    7.8810    0.7470 C   0  0  0  0  0
   12.6280    8.3070    0.8890 O   0  0  0  0  0
   15.4170    7.5310   -1.0950 C   0  0  0  0  0
   16.1000    6.5520   -0.3040 O   0  0  0  0  0
   16.3980    8.1890   -2.0540 C   0  0  0  0  0
   14.2280    6.8040    1.3810 N   0  0  0  0  0
   13.3730    6.0650    2.2910 C   0  0  0  0  0
   12.7660    4.8310    1.6510 C   0  0  0  0  0
   13.4320    4.1240    0.8960 O   0  0  0  0  0
   11.4990    4.5730    1.9580 N   0  0  0  0  0
   10.7970    3.4160    1.4120 C   0  0  0  0  0
   11.4360    2.1160    1.8930 C   0  0  0  0  0
   12.1550    1.4530    1.1440 O   0  0  0  0  0
   10.7940    3.4630   -0.1170 C   0  0  0  0  0
   10.1660    2.2490   -0.8000 C   0  0  0  0  0
    8.6560    2.2610   -0.6220 C   0  0  0  0  0
   10.5300    2.2230   -2.2780 C   0  0  0  0  0
   11.1810    1.7320    3.1550 N   0  0  0  0  0
   11.7340    0.5030    3.7340 C   0  0  0  0  0
   11.2620   -0.7430    2.9940 C   0  0  0  0  0
   10.1550   -1.2300    3.2210 O   0  0  0  0  0
   11.2020    0.5030    5.1740 C   0  0  0  0  0
   10.7860    1.9100    5.4380 C   0  0  0  0  0
   10.3370    2.4600    4.1160 C   0  0  0  0  0
   12.1090   -1.2520    2.1060 N   0  0  0  0  0
   11.7790   -2.4420    1.3290 C   0  0  0  0  0
   11.2690   -3.5610    2.2320 C   0  0  0  0  0
   11.5550   -3.5860    3.4290 O   0  0  0  0  0
   13.0050   -2.9210    0.5490 C   0  0  0  0  0
   14.1570   -2.9450    1.3730 O   0  0  0  0  0
   10.5100   -4.4830    1.6490 N   0  0  0  0  0
    9.9570   -5.6060    2.3980 C   0  0  0  0  0
   11.0400   -6.3060    3.2130 C   0  0  0  0  0
   11.7120   -7.2130    2.7210 O   0  0  0  0  0
    9.2960   -6.6040    1.4440 C   0  0  0  0  0
    8.3790   -7.5890    2.1340 C   0  0  0  0  0
    8.8670   -8.4780    3.0840 C   0  0  0  0  0
    7.0230   -7.6290    1.8340 C   0  0  0  0  0
    8.0300   -9.3790    3.7140 C   0  0  0  0  0
    6.1800   -8.5270    2.4610 C   0  0  0  0  0
    6.6880   -9.3990    3.4000 C   0  0  0  0  0
    5.8520  -10.2960    4.0250 O   0  0  0  0  0
   11.2040   -5.8820    4.4630 N   0  0  0  0  0
   12.2050   -6.4700    5.3490 C   0  0  0  0  0
   12.3260   -5.6690    6.6410 C   0  0  0  0  0
   12.5980   -6.2260    7.7050 O   0  0  0  0  0
   13.5660   -6.5360    4.6500 C   0  0  0  0  0
   14.0540   -7.9600    4.4680 C   0  0  0  0  0
   13.3830   -8.7300    3.7490 O   0  0  0  0  0
   15.1080   -8.3050    5.0430 O   0  0  0  0  0
   12.1260   -4.3590    6.5410 N   0  0  0  0  0
   12.2170   -3.4810    7.7020 C   0  0  0  0  0
   10.8300   -3.1190    8.2240 C   0  0  0  0  0
   10.5880   -3.1350    9.4310 O   0  0  0  0  0
   12.9880   -2.2090    7.3450 C   0  0  0  0  0
   14.1170   -2.4380    6.3530 C   0  0  0  0  0
   15.4350   -1.8570    6.8240 C   0  0  0  0  0
   15.5720   -0.6150    6.8220 O   0  0  0  0  0
   16.3310   -2.6430    7.1970 O   0  0  0  0  0
    9.9230   -2.7920    7.3090 N   0  0  0  0  0
    8.5610   -2.4250    7.6810 C   0  0  0  0  0
    7.7100   -3.6640    7.9350 C   0  0  0  0  0
    6.7460   -3.9250    7.2150 O   0  0  0  0  0
    7.9320   -1.5640    6.5970 C   0  0  0  0  0
    8.0720   -4.4240    8.9620 N   0  0  0  0  0
    7.3420   -5.6370    9.3120 C   0  0  0  0  0
    7.2800   -5.8180   10.8250 C   0  0  0  0  0
    7.3300   -6.9400   11.3280 O   0  0  0  0  0
    8.0010   -6.8580    8.6670 C   0  0  0  0  0
    7.6210   -7.1050    7.2060 C   0  0  0  0  0
    8.8630   -7.1430    6.3310 C   0  0  0  0  0
    6.8340   -8.4010    7.0730 C   0  0  0  0  0
    7.1690   -4.7060   11.5450 N   0  0  0  0  0
    7.1000   -4.7430   13.0010 C   0  0  0  0  0
    5.6510   -4.7740   13.4750 C   0  0  0  0  0
    5.2830   -5.6120   14.2960 O   0  0  0  0  0
    7.8180   -3.5300   13.5960 C   0  0  0  0  0
    9.2810   -3.4840   13.2810 C   0  0  0  0  0
    9.9320   -2.3320   12.8930 N   0  0  0  0  0
   10.2220   -4.4580   13.2970 C   0  0  0  0  0
   11.2090   -2.5990   12.6840 C   0  0  0  0  0
   11.4110   -3.8820   12.9230 N   0  0  0  0  0
    4.7802   -3.8894   12.9975 O   0  0  0  0  0
   16.4204    9.7940   -0.0571 H   0  0  0  0  0
   15.3136   10.0407    1.1639 H   0  0  0  0  0
   16.2945    8.6938    1.1881 H   0  0  0  0  0
   14.2216    9.3048   -0.7956 H   0  0  0  0  0
   14.6338    7.0446   -1.6765 H   0  0  0  0  0
   15.4779    6.1392    0.2996 H   0  0  0  0  0
   17.1917    8.6727   -1.4846 H   0  0  0  0  0
   16.8286    7.4309   -2.7081 H   0  0  0  0  0
   15.8740    8.9332   -2.6538 H   0  0  0  0  0
   15.1873    6.4941    1.2260 H   0  0  0  0  0
   12.5570    6.7220    2.5918 H   0  0  0  0  0
   13.9829    5.7396    3.1337 H   0  0  0  0  0
   11.0041    5.2003    2.5920 H   0  0  0  0  0
    9.7672    3.4483    1.7679 H   0  0  0  0  0
   11.8368    3.4967   -0.4325 H   0  0  0  0  0
   10.1971    4.3288   -0.4037 H   0  0  0  0  0
   10.5601    1.3466   -0.3326 H   0  0  0  0  0
    8.4165    2.2337    0.4410 H   0  0  0  0  0
    8.2464    3.1689   -1.0648 H   0  0  0  0  0
    8.2264    1.3890   -1.1150 H   0  0  0  0  0
   10.1622    3.1301   -2.7575 H   0  0  0  0  0
   11.6136    2.1687   -2.3831 H   0  0  0  0  0
   10.0740    1.3516   -2.7479 H   0  0  0  0  0
   12.8221    0.4816    3.6732 H   0  0  0  0  0
   11.9600    0.1685    5.8823 H   0  0  0  0  0
   10.3705   -0.1913    5.2951 H   0  0  0  0  0
    9.9865    1.9544    6.1775 H   0  0  0  0  0
   11.6075    2.4948    5.8518 H   0  0  0  0  0
    9.2713    2.3170    3.9374 H   0  0  0  0  0
   10.4515    3.5417    4.0461 H   0  0  0  0  0
   13.0122   -0.7998    1.9639 H   0  0  0  0  0
   10.9876   -2.1784    0.6273 H   0  0  0  0  0
   13.1823   -2.2336   -0.2781 H   0  0  0  0  0
   12.8147   -3.9312    0.1864 H   0  0  0  0  0
   14.9097   -3.2484    0.8601 H   0  0  0  0  0
   10.3089   -4.4034    0.6522 H   0  0  0  0  0
    9.2065   -5.2166    3.0859 H   0  0  0  0  0
   10.0922   -7.1774    0.9694 H   0  0  0  0  0
    8.6900   -6.0313    0.7420 H   0  0  0  0  0
    9.9273   -8.4644    3.3363 H   0  0  0  0  0
    6.6175   -6.9410    1.0922 H   0  0  0  0  0
    8.4291  -10.0707    4.4558 H   0  0  0  0  0
    5.1185   -8.5456    2.2142 H   0  0  0  0  0
    6.3587  -10.8256    4.6450 H   0  0  0  0  0
   10.6149   -5.1260    4.8121 H   0  0  0  0  0
   11.8819   -7.4814    5.5958 H   0  0  0  0  0
   14.2899   -6.0082    5.2709 H   0  0  0  0  0
   13.4600   -6.0871    3.6624 H   0  0  0  0  0
   15.4581   -7.5619    5.5399 H   0  0  0  0  0
   11.9034   -3.9578    5.6300 H   0  0  0  0  0
   12.7516   -4.0148    8.4878 H   0  0  0  0  0
   13.4335   -1.8287    8.2642 H   0  0  0  0  0
   12.2824   -1.5187    6.8826 H   0  0  0  0  0
   13.8478   -1.9442    5.4193 H   0  0  0  0  0
   14.2477   -3.5139    6.2367 H   0  0  0  0  0
   14.7658   -0.2058    6.4993 H   0  0  0  0  0
   10.1855   -2.7978    6.3234 H   0  0  0  0  0
    8.6052   -1.8500    8.6060 H   0  0  0  0  0
    8.5226   -0.6572    6.4667 H   0  0  0  0  0
    7.9080   -2.1212    5.6605 H   0  0  0  0  0
    6.9161   -1.2985    6.8895 H   0  0  0  0  0
    8.8813   -4.1524    9.5203 H   0  0  0  0  0
    6.3242   -5.5400    8.9342 H   0  0  0  0  0
    7.6659   -7.7292    9.2298 H   0  0  0  0  0
    9.0763   -6.6806    8.6857 H   0  0  0  0  0
    6.9898   -6.2823    6.8701 H   0  0  0  0  0
    9.3870   -6.1901    6.4046 H   0  0  0  0  0
    9.5184   -7.9464    6.6673 H   0  0  0  0  0
    8.5713   -7.3197    5.2957 H   0  0  0  0  0
    7.4434   -9.2326    7.4269 H   0  0  0  0  0
    5.9246   -8.3353    7.6703 H   0  0  0  0  0
    6.5724   -8.5600    6.0269 H   0  0  0  0  0
    7.1312   -3.8054   11.0675 H   0  0  0  0  0
    7.5944   -5.6527   13.3417 H   0  0  0  0  0
    7.7192   -3.5914   14.6798 H   0  0  0  0  0
    7.3632   -2.6379   13.1654 H   0  0  0  0  0
   10.0647   -5.5045   13.5582 H   0  0  0  0  0
   11.9669   -1.8822   12.3680 H   0  0  0  0  0
    5.2234   -3.3111   12.3724 H   0  0  0  0  0
  2  1  1  0  0  0
  2  5  1  0  0  0
  3  2  1  0  0  0
  3  4  2  0  0  0
  5  7  1  0  0  0
  5  6  1  0  0  0
  9  8  1  0  0  0
 10  9  1  0  0  0
 10 11  2  0  0  0
  8  3  1  0  0  0
 13 12  1  0  0  0
 13 16  1  0  0  0
 14 13  1  0  0  0
 14 15  2  0  0  0
 16 17  1  0  0  0
 17 18  1  0  0  0
 17 19  1  0  0  0
 12 10  1  0  0  0
 22 21  1  0  0  0
 21 24  1  0  0  0
 21 20  1  0  0  0
 20 26  1  0  0  0
 26 25  1  0  0  0
 24 25  1  0  0  0
 22 23  2  0  0  0
 20 14  1  0  0  0
 28 27  1  0  0  0
 28 31  1  0  0  0
 29 28  1  0  0  0
 29 30  2  0  0  0
 31 32  1  0  0  0
 27 22  1  0  0  0
 34 33  1  0  0  0
 34 37  1  0  0  0
 35 34  1  0  0  0
 35 36  2  0  0  0
 37 38  1  0  0  0
 38 39  4  0  0  0
 38 40  4  0  0  0
 40 42  4  0  0  0
 42 43  4  0  0  0
 43 44  1  0  0  0
 41 43  4  0  0  0
 39 41  4  0  0  0
 33 29  1  0  0  0
 46 45  1  0  0  0
 46 49  1  0  0  0
 47 46  1  0  0  0
 47 48  2  0  0  0
 49 50  1  0  0  0
 50 51  2  0  0  0
 50 52  1  0  0  0
 45 35  1  0  0  0
 54 53  1  0  0  0
 54 57  1  0  0  0
 55 54  1  0  0  0
 55 56  2  0  0  0
 57 58  1  0  0  0
 58 59  1  0  0  0
 59 61  2  0  0  0
 59 60  1  0  0  0
 53 47  1  0  0  0
 63 62  1  0  0  0
 63 66  1  0  0  0
 64 63  1  0  0  0
 64 65  2  0  0  0
 62 55  1  0  0  0
 68 67  1  0  0  0
 68 71  1  0  0  0
 69 68  1  0  0  0
 69 70  2  0  0  0
 71 72  1  0  0  0
 72 73  1  0  0  0
 72 74  1  0  0  0
 67 64  1  0  0  0
 75 76  1  0  0  0
 76 79  1  0  0  0
 76 77  1  0  0  0
 77 78  2  0  0  0
 79 80  1  0  0  0
 80 81  4  0  0  0
 80 82  4  0  0  0
 82 84  4  0  0  0
 84 83  4  0  0  0
 81 83  4  0  0  0
 69 75  1  0  0  0
 77 85  1  0  0  0
  1 86  1  0  0  0
  1 87  1  0  0  0
  1 88  1  0  0  0
  2 89  1  0  0  0
  5 90  1  0  0  0
  6 91  1  0  0  0
  7 92  1  0  0  0
  7 93  1  0  0  0
  7 94  1  0  0  0
  8 95  1  0  0  0
  9 96  1  0  0  0
  9 97  1  0  0  0
 12 98  1  0  0  0
 13 99  1  0  0  0
 16100  1  0  0  0
 16101  1  0  0  0
 17102  1  0  0  0
 18103  1  0  0  0
 18104  1  0  0  0
 18105  1  0  0  0
 19106  1  0  0  0
 19107  1  0  0  0
 19108  1  0  0  0
 21109  1  0  0  0
 24110  1  0  0  0
 24111  1  0  0  0
 25112  1  0  0  0
 25113  1  0  0  0
 26114  1  0  0  0
 26115  1  0  0  0
 27116  1  0  0  0
 28117  1  0  0  0
 31118  1  0  0  0
 31119  1  0  0  0
 32120  1  0  0  0
 33121  1  0  0  0
 34122  1  0  0  0
 37123  1  0  0  0
 37124  1  0  0  0
 39125  1  0  0  0
 40126  1  0  0  0
 41127  1  0  0  0
 42128  1  0  0  0
 44129  1  0  0  0
 45130  1  0  0  0
 46131  1  0  0  0
 49132  1  0  0  0
 49133  1  0  0  0
 52134  1  0  0  0
 53135  1  0  0  0
 54136  1  0  0  0
 57137  1  0  0  0
 57138  1  0  0  0
 58139  1  0  0  0
 58140  1  0  0  0
 60141  1  0  0  0
 62142  1  0  0  0
 63143  1  0  0  0
 66144  1  0  0  0
 66145  1  0  0  0
 66146  1  0  0  0
 67147  1  0  0  0
 68148  1  0  0  0
 71149  1  0  0  0
 71150  1  0  0  0
 72151  1  0  0  0
 73152  1  0  0  0
 73153  1  0  0  0
 73154  1  0  0  0
 74155  1  0  0  0
 74156  1  0  0  0
 74157  1  0  0  0
 75158  1  0  0  0
 76159  1  0  0  0
 79160  1  0  0  0
 79161  1  0  0  0
 82162  1  0  0  0
 83163  1  0  0  0
 85164  1  0  0  0
M  END
$$$$
