### 
### Created by X-TOOL on Mon Sep 10 21:12:51 2018
### 

@<TRIPOS>MOLECULE
1pi4_ligand
   33    34     1     0     0
SMALL
GAST_HUCK


@<TRIPOS>ATOM
      1 CAF        21.8970    4.8370   10.9300 C.2       1 SM3        -0.0791
      2 CAC        20.6850    5.5580   11.1030 C.2       1 SM3        -0.0924
      3 CAB        20.5410    6.0790   12.3380 C.2       1 SM3        -0.0189
      4 SAD        21.8710    5.7190   13.3310 S.3       1 SM3        -0.0419
      5 CAE        22.6510    4.8470   12.0790 C.2       1 SM3         0.0307
      6 CAG        24.0020    4.1940   12.3170 C.3       1 SM3         0.0818
      7 CAH        24.9630    5.2040   12.9440 C.2       1 SM3         0.1904
      8 OAI        25.3590    6.1960   12.3040 O.2       1 SM3        -0.3936
      9 NAJ        25.3640    4.9680   14.2360 N.am      1 SM3        -0.2815
     10 CAK        26.2740    5.8260   15.0070 C.3       1 SM3         0.0849
     11 B          26.7950    5.0610   16.3390 B         1 SM3         0.7343
     12 OAT        25.7320    4.1650   16.8630 O.3       1 SM3        -0.4949
     13 OAO        27.1730    6.0350   17.3730 O.3       1 SM3        -0.4949
     14 CAL        25.5850    7.1600   15.2880 C.ar      1 SM3        -0.0288
     15 CAQ        24.2510    7.2430   15.8210 C.ar      1 SM3        -0.0595
     16 CAM        26.2630    8.3550   14.9130 C.ar      1 SM3        -0.0595
     17 CAN        25.5880    9.5920   15.0070 C.ar      1 SM3        -0.0685
     18 CAS        24.2600    9.6640   15.4900 C.ar      1 SM3        -0.0687
     19 CAR        23.5860    8.4920   15.9070 C.ar      1 SM3        -0.0685
     20 H1         22.1906    4.3406   10.0063 H         1 SM3         0.0284
     21 H2         19.9439    5.6782   10.3141 H         1 SM3         0.0373
     22 H3         19.6776    6.6596   12.6596 H         1 SM3         0.0603
     23 H4         24.4131    3.8458   11.3580 H         1 SM3         0.0685
     24 H5         23.8788    3.3373   12.9959 H         1 SM3         0.0685
     25 H6         25.0093    4.1489   14.6869 H         1 SM3         0.1866
     26 H7         27.1573    6.0343   14.3854 H         1 SM3         0.0583
     27 H8         25.4899    3.5369   16.1926 H         1 SM3         0.1668
     28 H9         27.8527    6.6063   17.0350 H         1 SM3         0.1668
     29 H10        23.7504    6.3431   16.1595 H         1 SM3         0.0557
     30 H11        27.2868    8.3155   14.5590 H         1 SM3         0.0557
     31 H12        26.0954   10.5008   14.7043 H         1 SM3         0.0599
     32 H13        23.7562   10.6225   15.5408 H         1 SM3         0.0559
     33 H14        22.5727    8.5485   16.2879 H         1 SM3         0.0599
@<TRIPOS>BOND
     1    1    2 1  
     2    1    5 2  
     3    2    3 2  
     4    3    4 1  
     5    4    5 1  
     6    5    6 1  
     7    6    7 1  
     8    7    8 2  
     9    7    9 am 
    10    9   10 1  
    11   10   11 1  
    12   10   14 1  
    13   11   12 1  
    14   11   13 1  
    15   14   15 ar 
    16   14   16 ar 
    17   15   19 ar 
    18   16   17 ar 
    19   17   18 ar 
    20   18   19 ar 
    21    1   20 1  
    22    2   21 1  
    23    3   22 1  
    24    6   23 1  
    25    6   24 1  
    26    9   25 1  
    27   10   26 1  
    28   12   27 1  
    29   13   28 1  
    30   15   29 1  
    31   16   30 1  
    32   17   31 1  
    33   18   32 1  
    34   19   33 1  
@<TRIPOS>SUBSTRUCTURE
     1 SM3         1

