1pi4_ligand
  -I-interpret- 

 33 34  0  0  0  0  0  0  0  0999 V2000
   21.8970    4.8370   10.9300 C   0  0  0  0  0
   20.6850    5.5580   11.1030 C   0  0  0  0  0
   20.5410    6.0790   12.3380 C   0  0  0  0  0
   21.8710    5.7190   13.3310 S   0  0  0  0  0
   22.6510    4.8470   12.0790 C   0  0  0  0  0
   24.0020    4.1940   12.3170 C   0  0  0  0  0
   24.9630    5.2040   12.9440 C   0  0  0  0  0
   25.3590    6.1960   12.3040 O   0  0  0  0  0
   25.3640    4.9680   14.2360 N   0  0  0  0  0
   26.2740    5.8260   15.0070 C   0  0  0  0  0
   26.7950    5.0610   16.3390 B   0  0  0  0  0
   25.7320    4.1650   16.8630 O   0  0  0  0  0
   27.1730    6.0350   17.3730 O   0  0  0  0  0
   25.5850    7.1600   15.2880 C   0  0  0  0  0
   24.2510    7.2430   15.8210 C   0  0  0  0  0
   26.2630    8.3550   14.9130 C   0  0  0  0  0
   25.5880    9.5920   15.0070 C   0  0  0  0  0
   24.2600    9.6640   15.4900 C   0  0  0  0  0
   23.5860    8.4920   15.9070 C   0  0  0  0  0
   22.1909    4.3401   10.0054 H   0  0  0  0  0
   19.9432    5.6783   10.3134 H   0  0  0  0  0
   19.6768    6.6601   12.6598 H   0  0  0  0  0
   24.4093    3.8521   11.3655 H   0  0  0  0  0
   23.8787    3.3472   12.9922 H   0  0  0  0  0
   25.0022    4.1326   14.6959 H   0  0  0  0  0
   27.1729    6.0447   14.4306 H   0  0  0  0  0
   26.0512    3.7181   17.6504 H   0  0  0  0  0
   27.4788    5.5683   18.1542 H   0  0  0  0  0
   23.7477    6.3381   16.1614 H   0  0  0  0  0
   27.2925    8.3153   14.5570 H   0  0  0  0  0
   26.0982   10.5058   14.7026 H   0  0  0  0  0
   23.7534   10.6278   15.5411 H   0  0  0  0  0
   22.5671    8.5488   16.2900 H   0  0  0  0  0
  1  2  4  0  0  0
  1  5  4  0  0  0
  2  3  4  0  0  0
  3  4  4  0  0  0
  4  5  4  0  0  0
  5  6  1  0  0  0
  6  7  1  0  0  0
  7  8  2  0  0  0
  7  9  1  0  0  0
  9 10  1  0  0  0
 10 11  1  0  0  0
 10 14  1  0  0  0
 11 12  1  0  0  0
 11 13  1  0  0  0
 14 15  4  0  0  0
 14 16  4  0  0  0
 15 19  4  0  0  0
 16 17  4  0  0  0
 17 18  4  0  0  0
 18 19  4  0  0  0
  1 20  1  0  0  0
  2 21  1  0  0  0
  3 22  1  0  0  0
  6 23  1  0  0  0
  6 24  1  0  0  0
  9 25  1  0  0  0
 10 26  1  0  0  0
 12 27  1  0  0  0
 13 28  1  0  0  0
 15 29  1  0  0  0
 16 30  1  0  0  0
 17 31  1  0  0  0
 18 32  1  0  0  0
 19 33  1  0  0  0
M  END
$$$$
