5jas_ligand
  -I-interpret- 

 36 38  0  0  0  0  0  0  0  0999 V2000
   14.5730   10.1230   -4.1580 C   0  0  0  0  0
   15.2680   10.4400   -5.4520 C   0  0  0  0  0
   15.2520   11.7500   -5.9240 C   0  0  0  0  0
   16.5290   11.1150   -7.8330 C   0  0  0  0  0
   16.5830    9.8180   -7.3750 C   0  0  0  0  0
   15.9410    9.4530   -6.1930 C   0  0  0  0  0
   16.0580    8.0330   -5.7350 C   0  0  0  0  0
   17.5030    6.4090   -4.6700 C   0  0  0  0  0
   19.9890    6.5310   -4.3550 C   0  0  0  0  0
   22.1650    6.8630   -4.0720 C   0  0  0  0  0
   22.0310    7.2990   -5.3320 C   0  0  0  0  0
   15.0680    7.0460   -5.8940 C   0  0  0  0  0
   15.8750   12.0770   -7.1080 C   0  0  0  0  0
   17.2510    7.6950   -5.1260 C   0  0  0  0  0
   18.7280    6.1540   -4.0250 N   0  0  0  0  0
   20.9820    6.4210   -3.5100 N   0  0  0  0  0
   20.4220    7.1880   -5.9030 S   0  0  0  0  0
   16.5160    5.4420   -4.8090 C   0  0  0  0  0
   15.3140    5.7580   -5.4230 C   0  0  0  0  0
   13.7580    7.3480   -6.5710 C   0  0  0  0  0
   15.0189   10.7092   -3.3545 H   0  0  0  0  0
   13.5149   10.3698   -4.2454 H   0  0  0  0  0
   14.6828    9.0609   -3.9388 H   0  0  0  0  0
   14.7415   12.5240   -5.3509 H   0  0  0  0  0
   17.0082   11.3781   -8.7760 H   0  0  0  0  0
   17.1339    9.0683   -7.9429 H   0  0  0  0  0
   23.1167    6.8574   -3.5406 H   0  0  0  0  0
   22.8582    7.6831   -5.9290 H   0  0  0  0  0
   15.8479   13.1048   -7.4699 H   0  0  0  0  0
   18.0165    8.4607   -5.0001 H   0  0  0  0  0
   18.6562    5.5969   -3.1736 H   0  0  0  0  0
   16.6868    4.4327   -4.4346 H   0  0  0  0  0
   14.5509    4.9884   -5.5389 H   0  0  0  0  0
   13.2398    8.1345   -6.0224 H   0  0  0  0  0
   13.9461    7.6790   -7.5923 H   0  0  0  0  0
   13.1427    6.4484   -6.5868 H   0  0  0  0  0
  2  1  1  0  0  0
  2  3  4  0  0  0
  6  2  4  0  0  0
  3 13  4  0  0  0
  5  4  4  0  0  0
  4 13  4  0  0  0
  6  5  4  0  0  0
  7  6  1  0  0  0
  7 12  4  0  0  0
 14  7  4  0  0  0
  8 14  4  0  0  0
 15  8  1  0  0  0
  8 18  4  0  0  0
  9 15  1  0  0  0
 16  9  4  0  0  0
  9 17  4  0  0  0
 10 11  4  0  0  0
 10 16  4  0  0  0
 11 17  4  0  0  0
 12 19  4  0  0  0
 12 20  1  0  0  0
 18 19  4  0  0  0
  1 21  1  0  0  0
  1 22  1  0  0  0
  1 23  1  0  0  0
  3 24  1  0  0  0
  4 25  1  0  0  0
  5 26  1  0  0  0
 10 27  1  0  0  0
 11 28  1  0  0  0
 13 29  1  0  0  0
 14 30  1  0  0  0
 15 31  1  0  0  0
 18 32  1  0  0  0
 19 33  1  0  0  0
 20 34  1  0  0  0
 20 35  1  0  0  0
 20 36  1  0  0  0
M  END
$$$$
