6e9w_ligand
  -I-interpret- 

 44 47  0  0  0  0  0  0  0  0999 V2000
  -69.4510   -5.5530  -39.7750 N   0  0  0  0  0
  -65.7070  -10.3750  -49.9390 C   0  0  0  0  0
  -64.7780  -11.1030  -50.7090 C   0  0  0  0  0
  -63.4280  -10.6880  -50.7240 C   0  0  0  0  0
  -62.9780   -9.5950  -49.9690 C   0  0  0  0  0
  -60.7120  -10.1030  -50.6170 C   0  0  0  0  0
  -64.8990   -7.2160  -44.9510 C   0  0  0  0  0
  -66.7020   -6.4880  -42.9350 C   0  0  0  0  0
  -65.7310   -6.0930  -45.1380 C   0  0  0  0  0
  -67.3300   -6.4660  -40.5320 C   0  0  0  0  0
  -68.8490   -5.4720  -42.1250 C   0  0  0  0  0
  -62.7410   -7.9160  -45.5720 O   0  0  0  0  0
  -63.8500   -7.5560  -45.9410 C   0  0  0  0  0
  -66.6210   -5.7230  -44.1330 C   0  0  0  0  0
  -67.6410   -6.1250  -41.8570 C   0  0  0  0  0
  -69.7080   -5.2020  -41.0560 C   0  0  0  0  0
  -68.2690   -6.1850  -39.5420 C   0  0  0  0  0
  -65.8870   -7.6400  -42.7990 C   0  0  0  0  0
  -64.9910   -7.9840  -43.7900 C   0  0  0  0  0
  -64.1920   -7.4010  -47.2740 N   0  0  0  0  0
  -63.3100   -7.7220  -48.3800 C   0  0  0  0  0
  -63.8860   -8.8460  -49.1940 C   0  0  0  0  0
  -61.6280   -9.2560  -49.9190 O   0  0  0  0  0
  -61.3930  -10.6020  -51.8860 C   0  0  0  0  0
  -62.5540  -11.3550  -51.5360 O   0  0  0  0  0
  -65.2810   -9.2490  -49.2030 C   0  0  0  0  0
  -66.7528  -10.6812  -49.9120 H   0  0  0  0  0
  -65.0962  -11.9726  -51.2839 H   0  0  0  0  0
  -60.4296  -10.9470  -49.9877 H   0  0  0  0  0
  -59.8089   -9.5479  -50.8710 H   0  0  0  0  0
  -65.6778   -5.5185  -46.0628 H   0  0  0  0  0
  -66.3793   -6.9380  -40.2839 H   0  0  0  0  0
  -69.1135   -5.1812  -43.1417 H   0  0  0  0  0
  -67.2562   -4.8469  -44.2636 H   0  0  0  0  0
  -70.6400   -4.6777  -41.2669 H   0  0  0  0  0
  -68.0433   -6.4896  -38.5201 H   0  0  0  0  0
  -65.9689   -8.2583  -41.9051 H   0  0  0  0  0
  -64.3528   -8.8588  -43.6654 H   0  0  0  0  0
  -65.1206   -7.0391  -47.4913 H   0  0  0  0  0
  -62.3405   -8.0272  -47.9862 H   0  0  0  0  0
  -63.1989   -6.8427  -49.0144 H   0  0  0  0  0
  -60.7033  -11.2348  -52.4445 H   0  0  0  0  0
  -61.6831   -9.7510  -52.5022 H   0  0  0  0  0
  -66.0099   -8.6732  -48.6327 H   0  0  0  0  0
 16  1  4  0  0  0
 17  1  4  0  0  0
  3  2  4  0  0  0
  2 26  4  0  0  0
  4  3  4  0  0  0
  5  4  4  0  0  0
  4 25  1  0  0  0
 22  5  4  0  0  0
  5 23  1  0  0  0
 23  6  1  0  0  0
  6 24  1  0  0  0
  7  9  4  0  0  0
 13  7  1  0  0  0
  7 19  4  0  0  0
 14  8  4  0  0  0
  8 15  1  0  0  0
 18  8  4  0  0  0
  9 14  4  0  0  0
 15 10  4  0  0  0
 10 17  4  0  0  0
 15 11  4  0  0  0
 11 16  4  0  0  0
 13 12  2  0  0  0
 20 13  1  0  0  0
 19 18  4  0  0  0
 21 20  1  0  0  0
 21 22  1  0  0  0
 22 26  4  0  0  0
 24 25  1  0  0  0
  2 27  1  0  0  0
  3 28  1  0  0  0
  6 29  1  0  0  0
  6 30  1  0  0  0
  9 31  1  0  0  0
 10 32  1  0  0  0
 11 33  1  0  0  0
 14 34  1  0  0  0
 16 35  1  0  0  0
 17 36  1  0  0  0
 18 37  1  0  0  0
 19 38  1  0  0  0
 20 39  1  0  0  0
 21 40  1  0  0  0
 21 41  1  0  0  0
 24 42  1  0  0  0
 24 43  1  0  0  0
 26 44  1  0  0  0
M  END
$$$$
