4kp0_ligand
  -I-interpret- 

 47 50  0  0  0  0  0  0  0  0999 V2000
   24.2220   -6.4260  -14.5450 O   0  0  0  0  0
   23.0590   -6.6750  -14.9300 C   0  0  0  0  0
   22.0230   -6.7350  -14.2090 O   0  0  0  0  0
   22.9560   -6.9430  -16.4040 C   0  0  0  0  0
   23.6560   -8.2670  -16.7370 C   0  0  0  0  0
   22.8550   -9.5060  -16.3160 C   0  0  0  0  0
   23.0190   -9.8520  -14.5830 S   0  0  0  0  0
   24.6130   -9.4790  -13.9600 C   0  0  0  0  0
   25.7280   -9.7680  -14.6630 N   0  0  0  0  0
   26.7470   -9.3680  -13.8780 C   0  0  0  0  0
   28.1280   -9.3830  -14.0400 C   0  0  0  0  0
   28.9340   -8.8600  -13.0270 C   0  0  0  0  0
   28.3650   -8.3290  -11.8530 C   0  0  0  0  0
   26.9760   -8.2980  -11.6510 C   0  0  0  0  0
   26.1300   -8.8040  -12.6400 C   0  0  0  0  0
   24.7920   -8.9130  -12.7680 N   0  0  0  0  0
   23.7580   -8.4810  -11.8290 C   0  0  0  0  0
   23.3690   -9.5730  -10.8780 C   0  0  0  0  0
   23.8130  -10.8940  -11.0210 C   0  0  0  0  0
   23.1600  -11.8670   -9.7330 S   0  0  0  0  0
   22.3260  -10.6460   -8.9630 C   0  0  0  0  0
   21.5530  -10.8010   -7.8120 C   0  0  0  0  0
   20.9210   -9.6820   -7.2840 C   0  0  0  0  0
   21.0340   -8.4160   -7.8950 C   0  0  0  0  0
   21.7760   -8.1800   -9.0580 C   0  0  0  0  0
   22.4850   -9.3520   -9.6650 C   0  0  0  0  0
   21.8350   -6.7840   -9.6460 C   0  0  0  0  0
   21.2637   -6.9429  -14.7584 H   0  0  0  0  0
   23.4344   -6.1323  -16.9536 H   0  0  0  0  0
   21.9055   -7.0075  -16.6877 H   0  0  0  0  0
   24.5989   -8.2854  -16.1905 H   0  0  0  0  0
   23.7795   -8.3090  -17.8192 H   0  0  0  0  0
   23.2379  -10.3625  -16.8709 H   0  0  0  0  0
   21.8023   -9.3173  -16.5263 H   0  0  0  0  0
   28.5745   -9.7968  -14.9442 H   0  0  0  0  0
   30.0175   -8.8626  -13.1462 H   0  0  0  0  0
   29.0217   -7.9309  -11.0794 H   0  0  0  0  0
   26.5623   -7.8833  -10.7318 H   0  0  0  0  0
   22.8749   -8.1981  -12.4018 H   0  0  0  0  0
   24.1530   -7.6480  -11.2474 H   0  0  0  0  0
   24.4658  -11.2564  -11.8151 H   0  0  0  0  0
   21.4474  -11.7769   -7.3382 H   0  0  0  0  0
   20.3246   -9.7849   -6.3774 H   0  0  0  0  0
   20.5147   -7.5747   -7.4361 H   0  0  0  0  0
   20.8276   -6.4565   -9.9030 H   0  0  0  0  0
   22.2649   -6.1006   -8.9137 H   0  0  0  0  0
   22.4547   -6.7947  -10.5426 H   0  0  0  0  0
  1  2  2  0  0  0
  2  3  1  0  0  0
  2  4  1  0  0  0
  4  5  1  0  0  0
  5  6  1  0  0  0
  6  7  1  0  0  0
  7  8  1  0  0  0
  8  9  4  0  0  0
  8 16  4  0  0  0
  9 10  4  0  0  0
 10 11  4  0  0  0
 10 15  4  0  0  0
 11 12  4  0  0  0
 12 13  4  0  0  0
 13 14  4  0  0  0
 14 15  4  0  0  0
 15 16  4  0  0  0
 16 17  1  0  0  0
 17 18  1  0  0  0
 18 19  4  0  0  0
 18 26  4  0  0  0
 19 20  4  0  0  0
 20 21  4  0  0  0
 21 22  4  0  0  0
 21 26  4  0  0  0
 22 23  4  0  0  0
 23 24  4  0  0  0
 24 25  4  0  0  0
 25 26  4  0  0  0
 25 27  1  0  0  0
  3 28  1  0  0  0
  4 29  1  0  0  0
  4 30  1  0  0  0
  5 31  1  0  0  0
  5 32  1  0  0  0
  6 33  1  0  0  0
  6 34  1  0  0  0
 11 35  1  0  0  0
 12 36  1  0  0  0
 13 37  1  0  0  0
 14 38  1  0  0  0
 17 39  1  0  0  0
 17 40  1  0  0  0
 19 41  1  0  0  0
 22 42  1  0  0  0
 23 43  1  0  0  0
 24 44  1  0  0  0
 27 45  1  0  0  0
 27 46  1  0  0  0
 27 47  1  0  0  0
M  END
$$$$
