4iuo_ligand
  -I-interpret- 

 25 25  0  0  0  0  0  0  0  0999 V2000
    2.1610   -0.4380    0.3850 C   0  0  0  0  0
    1.1580    0.5740    0.5960 O   0  0  0  0  0
    3.4970    0.0450    0.9220 C   0  0  0  0  0
    2.5190    1.2680    2.7630 O   0  0  0  0  0
    3.4560    0.2360    2.4320 C   0  0  0  0  0
    3.0150   -0.7980    4.5500 O   0  0  0  0  0
    3.0720   -1.0510    3.1440 C   0  0  0  0  0
    1.4210   -2.7990    3.2890 O   0  0  0  0  0
    1.7370   -1.5680    2.6240 C   0  0  0  0  0
    1.8510    0.2380   -1.8660 O   0  0  0  0  0
    1.7790   -1.7410    1.0940 C   0  0  0  0  0
    2.8510   -1.7050   -1.5470 O   0  0  0  0  0
    2.2970   -0.6540   -1.1100 C   0  0  0  0  0
    1.4180    1.3798    0.1436 H   0  0  0  0  0
    3.7286    1.0042    0.4590 H   0  0  0  0  0
    4.2536   -0.7043    0.6894 H   0  0  0  0  0
    2.7649    2.0788    2.3116 H   0  0  0  0  0
    4.4542    0.5217    2.7637 H   0  0  0  0  0
    3.8672   -0.4740    4.8505 H   0  0  0  0  0
    3.8187   -1.8207    2.9487 H   0  0  0  0  0
    0.5800   -3.1297    2.9650 H   0  0  0  0  0
    0.9521   -0.8432    2.8402 H   0  0  0  0  0
    2.5296   -2.4943    0.8547 H   0  0  0  0  0
    0.7863   -2.0373    0.7551 H   0  0  0  0  0
    3.1200   -2.2548   -0.8074 H   0  0  0  0  0
  1  2  1  0  0  0
  1  3  1  0  0  0
  1 11  1  0  0  0
  1 13  1  0  0  0
  3  5  1  0  0  0
  5  4  1  0  0  0
  5  7  1  0  0  0
  7  6  1  0  0  0
  7  9  1  0  0  0
  9  8  1  0  0  0
  9 11  1  0  0  0
 13 10  2  0  0  0
 13 12  1  0  0  0
  2 14  1  0  0  0
  3 15  1  0  0  0
  3 16  1  0  0  0
  4 17  1  0  0  0
  5 18  1  0  0  0
  6 19  1  0  0  0
  7 20  1  0  0  0
  8 21  1  0  0  0
  9 22  1  0  0  0
 11 23  1  0  0  0
 11 24  1  0  0  0
 12 25  1  0  0  0
M  END
$$$$
