4mhy_ligand
  -I-interpret- 

 42 43  0  0  0  0  0  0  0  0999 V2000
  -22.3590   17.8230   -0.5950 C   0  0  0  0  0
  -25.3260   17.9570   -5.1250 C   0  0  0  0  0
  -21.7510   23.9310   -6.9020 S   0  0  0  0  0
  -15.2720   17.9050   -6.6260 C   0  0  0  0  0
  -22.0810   21.1700   -3.0850 C   0  0  0  0  0
  -22.1640   20.0800   -2.2160 C   0  0  0  0  0
  -16.1350   18.7000   -7.2610 C   0  0  0  0  0
  -15.4560   19.7320   -5.4880 C   0  0  0  0  0
  -23.7600   20.1760   -4.5240 C   0  0  0  0  0
  -18.4770   20.7570   -6.2550 C   0  0  0  0  0
  -19.3620   21.9930   -6.4270 C   0  0  0  0  0
  -17.0870   20.9810   -6.8630 C   0  0  0  0  0
  -14.8570   18.5360   -5.5220 N   0  0  0  0  0
  -20.6230   21.7760   -5.6880 N   0  0  0  0  0
  -22.8210   22.2580   -5.0870 N   0  0  0  0  0
  -23.2180   17.9280   -1.7340 O   0  0  0  0  0
  -24.6780   18.0140   -3.8480 O   0  0  0  0  0
  -21.7210   22.5460   -5.8220 C   0  0  0  0  0
  -22.8680   21.2150   -4.2440 C   0  0  0  0  0
  -23.0510   19.0380   -2.5100 C   0  0  0  0  0
  -23.8430   19.0830   -3.6570 C   0  0  0  0  0
  -16.2410   19.8290   -6.5560 N   0  0  0  0  0
  -21.3203   17.8084   -0.9250 H   0  0  0  0  0
  -22.5212   18.6783    0.0609 H   0  0  0  0  0
  -22.5833   16.9025   -0.0560 H   0  0  0  0  0
  -25.9341   18.8511   -5.2627 H   0  0  0  0  0
  -24.5728   17.9037   -5.9111 H   0  0  0  0  0
  -25.9622   17.0730   -5.1690 H   0  0  0  0  0
  -22.9466   24.5108   -6.8438 H   0  0  0  0  0
  -14.9591   16.9127   -6.9508 H   0  0  0  0  0
  -21.4000   21.9909   -2.8606 H   0  0  0  0  0
  -21.5454   20.0412   -1.3194 H   0  0  0  0  0
  -16.6592   18.4694   -8.1884 H   0  0  0  0  0
  -15.3234   20.4932   -4.7192 H   0  0  0  0  0
  -24.3878   20.2180   -5.4141 H   0  0  0  0  0
  -18.9489   19.9175   -6.7656 H   0  0  0  0  0
  -18.3625   20.5566   -5.1897 H   0  0  0  0  0
  -19.5741   22.1536   -7.4840 H   0  0  0  0  0
  -18.8503   22.8731   -6.0376 H   0  0  0  0  0
  -16.6439   21.8842   -6.4435 H   0  0  0  0  0
  -17.1730   21.0959   -7.9435 H   0  0  0  0  0
  -23.6431   22.8550   -5.1773 H   0  0  0  0  0
 16  1  1  0  0  0
 17  2  1  0  0  0
 18  3  1  0  0  0
  7  4  4  0  0  0
 13  4  4  0  0  0
  5  6  4  0  0  0
 19  5  4  0  0  0
  6 20  4  0  0  0
 22  7  4  0  0  0
  8 13  4  0  0  0
 22  8  4  0  0  0
  9 19  4  0  0  0
 21  9  4  0  0  0
 11 10  1  0  0  0
 10 12  1  0  0  0
 14 11  1  0  0  0
 12 22  1  0  0  0
 18 14  2  0  0  0
 15 18  1  0  0  0
 19 15  1  0  0  0
 20 16  1  0  0  0
 17 21  1  0  0  0
 20 21  4  0  0  0
  1 23  1  0  0  0
  1 24  1  0  0  0
  1 25  1  0  0  0
  2 26  1  0  0  0
  2 27  1  0  0  0
  2 28  1  0  0  0
  3 29  1  0  0  0
  4 30  1  0  0  0
  5 31  1  0  0  0
  6 32  1  0  0  0
  7 33  1  0  0  0
  8 34  1  0  0  0
  9 35  1  0  0  0
 10 36  1  0  0  0
 10 37  1  0  0  0
 11 38  1  0  0  0
 11 39  1  0  0  0
 12 40  1  0  0  0
 12 41  1  0  0  0
 15 42  1  0  0  0
M  END
$$$$
