### 
### Created by X-TOOL on Mon Aug  2 16:12:44 2021
### 

@<TRIPOS>MOLECULE
6c5k_ligand
  133   137     1     0     0
SMALL
GAST_HUCK


@<TRIPOS>ATOM
      1 C1B        48.5870    3.2760  -11.0320 C.3       1 GP1         0.2337
      2 C2B        49.0700    4.6810  -10.5620 C.3       1 GP1         0.0611
      3 C3B        50.4800    4.5780   -9.9640 C.3       1 GP1         0.1307
      4 C4B        50.4770    3.5720   -8.8360 C.3       1 GP1         0.1148
      5 C5B        49.9500    2.2480   -9.3870 C.3       1 GP1         0.1139
      6 C6B        49.7740    1.1720   -8.3350 C.3       1 GP1         0.0797
      7 N2B        49.0160    5.6830  -11.6450 N.4       1 GP1         0.2265
      8 O1B        49.3980    2.7670  -12.1550 O.3       1 GP1        -0.2394
      9 O3B        50.9050    5.8610   -9.4710 O.3       1 GP1        -0.3833
     10 O4B        51.8200    3.4150   -8.3570 O.3       1 GP1        -0.3864
     11 O5B        49.4990   -0.0420   -9.0520 O.3       1 GP1        -0.3437
     12 O6B        48.6060    2.3980   -9.9060 O.3       1 GP1        -0.3348
     13 O7B        47.6280    0.9670  -12.5820 O.co2     1 GP1        -0.5536
     14 P4B        49.1940    1.2830  -12.8470 P.3       1 GP1         0.2048
     15 O8B        49.4020    1.4330  -14.3030 O.co2     1 GP1        -0.5536
     16 O9B        50.0270    0.3080  -12.1060 O.co2     1 GP1        -0.5536
     17 N1         47.4800   -1.6310  -10.4460 N.4       1 GP1         0.2263
     18 P1         47.3590   -5.8290   -6.3560 P.3       1 GP1         0.2013
     19 O6         50.0590   -1.5680   -4.6000 O.3       1 GP1        -0.3441
     20 O3         47.3720   -4.3800   -9.3110 O.3       1 GP1        -0.3830
     21 C1         48.6560   -0.9430   -8.3540 C.3       1 GP1         0.2055
     22 O4         47.4020   -4.2350   -6.4240 O.3       1 GP1        -0.2674
     23 C2         48.2730   -2.1140   -9.2970 C.3       1 GP1         0.0571
     24 O5         49.4580   -1.4230   -7.2850 O.3       1 GP1        -0.3378
     25 C3         47.5160   -3.1840   -8.5090 C.3       1 GP1         0.1351
     26 O9         46.4600   -6.2710   -7.6160 O.co2     1 GP1        -0.5537
     27 C4         48.2850   -3.5470   -7.2490 C.3       1 GP1         0.1486
     28 O7         46.5610   -6.1740   -5.1510 O.co2     1 GP1        -0.5537
     29 C5         48.7440   -2.3170   -6.4640 C.3       1 GP1         0.1181
     30 O8         48.6990   -6.3900   -6.5400 O.co2     1 GP1        -0.5537
     31 C6         49.7040   -2.7550   -5.3690 C.3       1 GP1         0.0790
     32 C1         50.3660   -2.7680   -2.5180 C.2       1 GP1         0.1041
     33 O1A        49.1890   -2.4970   -2.2140 O.co2     1 GP1        -0.5426
     34 O1B        51.0060   -3.7760   -2.1520 O.co2     1 GP1        -0.5426
     35 C2         51.0100   -1.8180   -3.5210 C.3       1 GP1         0.2205
     36 C3         51.3060   -0.4960   -2.8350 C.3       1 GP1         0.0358
     37 C4         52.1440    0.3860   -3.7360 C.3       1 GP1         0.0937
     38 O4         52.5690    1.5890   -3.0450 O.3       1 GP1        -0.3407
     39 C5         53.4050   -0.3390   -4.1770 C.3       1 GP1         0.1098
     40 O5         54.1890   -0.6280   -3.0160 O.3       1 GP1        -0.3866
     41 C6         53.0140   -1.6440   -4.8620 C.3       1 GP1         0.1170
     42 O6         52.2280   -2.4370   -3.9750 O.3       1 GP1        -0.3381
     43 C7         54.2910   -2.4390   -5.2150 C.3       1 GP1         0.1067
     44 O7         55.0250   -1.6560   -6.1390 O.3       1 GP1        -0.3869
     45 C8         54.0310   -3.7960   -5.8480 C.3       1 GP1         0.0727
     46 O8         53.0840   -3.5530   -6.8910 O.3       1 GP1        -0.3924
     47 C1         52.2260    2.9820   -5.0480 C.2       1 GP1         0.1041
     48 O1A        51.2240    3.1860   -5.7610 O.co2     1 GP1        -0.5426
     49 O1B        53.3840    2.8970   -5.4600 O.co2     1 GP1        -0.5426
     50 C2         51.9940    2.8140   -3.5140 C.3       1 GP1         0.2207
     51 C3         52.6710    3.9670   -2.7580 C.3       1 GP1         0.0356
     52 C4         52.2730    3.9650   -1.2460 C.3       1 GP1         0.0880
     53 O4         52.8390    5.1190   -0.5730 O.3       1 GP1        -0.3891
     54 C5         50.7500    3.9990   -1.1200 C.3       1 GP1         0.1096
     55 O5         50.2500    5.2510   -1.5760 O.3       1 GP1        -0.3866
     56 C6         50.1260    2.8290   -1.9310 C.3       1 GP1         0.1170
     57 O6         50.5870    2.8460   -3.3080 O.3       1 GP1        -0.3381
     58 C7         48.5900    2.8380   -2.0280 C.3       1 GP1         0.1069
     59 O7         48.1050    3.8380   -2.9550 O.3       1 GP1        -0.3869
     60 C8         47.9460    3.0940   -0.6510 C.3       1 GP1         0.0783
     61 O8         46.5710    2.7350   -0.7390 O.3       1 GP1        -0.3441
     62 C1         46.1570    3.3290    1.6000 C.2       1 GP1         0.1041
     63 O1A        46.4570    2.2160    2.0780 O.co2     1 GP1        -0.5426
     64 O1B        46.1620    4.4190    2.2340 O.co2     1 GP1        -0.5426
     65 C2         45.6570    3.3610    0.1290 C.3       1 GP1         0.2205
     66 C3         44.3480    2.6340    0.0560 C.3       1 GP1         0.0356
     67 C4         43.6860    2.8300   -1.3070 C.3       1 GP1         0.0880
     68 O4         42.3780    2.2280   -1.2480 O.3       1 GP1        -0.3891
     69 C5         43.5570    4.3080   -1.6610 C.3       1 GP1         0.1096
     70 O5         42.6910    4.9560   -0.6950 O.3       1 GP1        -0.3866
     71 C6         44.9790    4.8840   -1.6670 C.3       1 GP1         0.1170
     72 O6         45.5500    4.7330   -0.3350 O.3       1 GP1        -0.3381
     73 C7         45.0030    6.3730   -1.9910 C.3       1 GP1         0.1067
     74 O7         44.3590    6.6540   -3.2460 O.3       1 GP1        -0.3869
     75 C8         46.4420    6.8760   -1.9940 C.3       1 GP1         0.0727
     76 O8         47.0750    6.3280   -3.1500 O.3       1 GP1        -0.3924
     77 H1         47.5486    3.3645  -11.3840 H         1 GP1         0.1023
     78 H2         48.3899    5.0194   -9.7664 H         1 GP1         0.0931
     79 H3         51.1790    4.2438  -10.7449 H         1 GP1         0.0679
     80 H4         49.8296    3.9204   -8.0178 H         1 GP1         0.0648
     81 H5         50.6353    1.9003  -10.1741 H         1 GP1         0.0647
     82 H6         48.9342    1.4215   -7.6699 H         1 GP1         0.0587
     83 H7         50.6933    1.0648   -7.7405 H         1 GP1         0.0587
     84 H8         48.0797    5.7267  -12.0159 H         1 GP1         0.2000
     85 H9         49.6559    5.4202  -12.3782 H         1 GP1         0.2000
     86 H10        49.2754    6.5862  -11.2804 H         1 GP1         0.2000
     87 H11        51.7818    5.7868   -9.1130 H         1 GP1         0.2102
     88 H12        51.8343    2.7638   -7.6654 H         1 GP1         0.2100
     89 H13        48.0039   -0.9287  -10.9443 H         1 GP1         0.2000
     90 H14        46.6156   -1.2328  -10.1140 H         1 GP1         0.2000
     91 H15        47.2795   -2.4019  -11.0637 H         1 GP1         0.2000
     92 H16        46.9011   -5.0385   -8.8139 H         1 GP1         0.2102
     93 H17        47.7515   -0.4408   -7.9803 H         1 GP1         0.0970
     94 H18        49.1989   -2.5623   -9.6865 H         1 GP1         0.0927
     95 H19        46.5220   -2.7992   -8.2371 H         1 GP1         0.0682
     96 H20        49.1530   -4.1711   -7.5080 H         1 GP1         0.0704
     97 H21        47.8691   -1.8118   -6.0290 H         1 GP1         0.0650
     98 H22        49.2173   -3.4944   -4.7160 H         1 GP1         0.0586
     99 H23        50.6066   -3.1977   -5.8153 H         1 GP1         0.0586
    100 H24        51.8549   -0.6865   -1.9010 H         1 GP1         0.0336
    101 H25        50.3589    0.0144   -2.6062 H         1 GP1         0.0336
    102 H26        51.5471    0.6598   -4.6185 H         1 GP1         0.0623
    103 H27        53.9796    0.2909   -4.8720 H         1 GP1         0.0646
    104 H28        54.4165    0.1841   -2.5787 H         1 GP1         0.2100
    105 H29        52.4421   -1.4258   -5.7760 H         1 GP1         0.0649
    106 H30        54.8790   -2.5884   -4.2975 H         1 GP1         0.0643
    107 H31        54.4974   -1.5061   -6.9147 H         1 GP1         0.2100
    108 H32        53.6156   -4.4937   -5.1059 H         1 GP1         0.0584
    109 H33        54.9612   -4.2122   -6.2621 H         1 GP1         0.0584
    110 H34        53.4541   -2.9419   -7.5171 H         1 GP1         0.2095
    111 H35        52.3619    4.9216   -3.2087 H         1 GP1         0.0336
    112 H36        53.7624    3.8585   -2.8415 H         1 GP1         0.0336
    113 H37        52.6565    3.0485   -0.7738 H         1 GP1         0.0621
    114 H38        53.7859    5.0929   -0.6444 H         1 GP1         0.2099
    115 H39        50.4791    3.8770   -0.0609 H         1 GP1         0.0646
    116 H40        50.4911    5.3743   -2.4866 H         1 GP1         0.2100
    117 H41        50.4410    1.8910   -1.4504 H         1 GP1         0.0649
    118 H42        48.2692    1.8487   -2.3863 H         1 GP1         0.0643
    119 H43        48.4543    3.6616   -3.8207 H         1 GP1         0.2100
    120 H44        48.0386    4.1577   -0.3867 H         1 GP1         0.0586
    121 H45        48.4442    2.4812    0.1147 H         1 GP1         0.0586
    122 H46        43.6787    3.0193    0.8393 H         1 GP1         0.0336
    123 H47        44.5235    1.5604    0.2192 H         1 GP1         0.0336
    124 H48        44.2892    2.3303   -2.0793 H         1 GP1         0.0621
    125 H49        42.4651    1.3025   -1.0520 H         1 GP1         0.2099
    126 H50        43.1159    4.4186   -2.6626 H         1 GP1         0.0646
    127 H51        43.0652    4.8672    0.1737 H         1 GP1         0.2100
    128 H52        45.5853    4.3384   -2.4050 H         1 GP1         0.0649
    129 H53        44.4524    6.9048   -1.2011 H         1 GP1         0.0643
    130 H54        44.8076    6.1884   -3.9421 H         1 GP1         0.2100
    131 H55        46.9612    6.5399   -1.0844 H         1 GP1         0.0584
    132 H56        46.4577    7.9749   -2.0404 H         1 GP1         0.0584
    133 H57        47.0511    5.3795   -3.1031 H         1 GP1         0.2095
@<TRIPOS>BOND
     1    1    2 1  
     2    1    8 1  
     3   12    1 1  
     4    3    2 1  
     5    2    7 1  
     6    4    3 1  
     7    3    9 1  
     8    5    4 1  
     9    4   10 1  
    10    6    5 1  
    11    5   12 1  
    12   11    6 1  
    13    8   14 1  
    14   21   11 1  
    15   14   13 ar 
    16   14   15 ar 
    17   14   16 ar 
    18   23   17 1  
    19   22   18 1  
    20   18   26 ar 
    21   18   28 ar 
    22   18   30 ar 
    23   19   31 1  
    24   35   19 1  
    25   25   20 1  
    26   21   23 1  
    27   24   21 1  
    28   27   22 1  
    29   25   23 1  
    30   29   24 1  
    31   27   25 1  
    32   29   27 1  
    33   31   29 1  
    34   32   33 ar 
    35   32   34 ar 
    36   35   32 1  
    37   36   35 1  
    38   35   42 1  
    39   37   36 1  
    40   38   37 1  
    41   37   39 1  
    42   50   38 1  
    43   39   40 1  
    44   39   41 1  
    45   41   42 1  
    46   41   43 1  
    47   43   44 1  
    48   43   45 1  
    49   45   46 1  
    50   47   48 ar 
    51   47   49 ar 
    52   50   47 1  
    53   50   51 1  
    54   57   50 1  
    55   52   51 1  
    56   52   53 1  
    57   54   52 1  
    58   54   55 1  
    59   56   54 1  
    60   56   57 1  
    61   58   56 1  
    62   58   59 1  
    63   60   58 1  
    64   61   60 1  
    65   65   61 1  
    66   62   63 ar 
    67   62   64 ar 
    68   62   65 1  
    69   65   66 1  
    70   65   72 1  
    71   66   67 1  
    72   67   68 1  
    73   67   69 1  
    74   69   70 1  
    75   69   71 1  
    76   71   72 1  
    77   71   73 1  
    78   73   74 1  
    79   73   75 1  
    80   75   76 1  
    81    1   77 1  
    82    2   78 1  
    83    3   79 1  
    84    4   80 1  
    85    5   81 1  
    86    6   82 1  
    87    6   83 1  
    88    7   84 1  
    89    7   85 1  
    90    7   86 1  
    91    9   87 1  
    92   10   88 1  
    93   17   89 1  
    94   17   90 1  
    95   17   91 1  
    96   20   92 1  
    97   21   93 1  
    98   23   94 1  
    99   25   95 1  
   100   27   96 1  
   101   29   97 1  
   102   31   98 1  
   103   31   99 1  
   104   36  100 1  
   105   36  101 1  
   106   37  102 1  
   107   39  103 1  
   108   40  104 1  
   109   41  105 1  
   110   43  106 1  
   111   44  107 1  
   112   45  108 1  
   113   45  109 1  
   114   46  110 1  
   115   51  111 1  
   116   51  112 1  
   117   52  113 1  
   118   53  114 1  
   119   54  115 1  
   120   55  116 1  
   121   56  117 1  
   122   58  118 1  
   123   59  119 1  
   124   60  120 1  
   125   60  121 1  
   126   66  122 1  
   127   66  123 1  
   128   67  124 1  
   129   68  125 1  
   130   69  126 1  
   131   70  127 1  
   132   71  128 1  
   133   73  129 1  
   134   74  130 1  
   135   75  131 1  
   136   75  132 1  
   137   76  133 1  
@<TRIPOS>SUBSTRUCTURE
     1 GP1         1

