6c5k_ligand
  -I-interpret- 

140144  0  0  0  0  0  0  0  0999 V2000
   48.5870    3.2760  -11.0320 C   0  0  0  0  0
   49.0700    4.6810  -10.5620 C   0  0  0  0  0
   50.4800    4.5780   -9.9640 C   0  0  0  0  0
   50.4770    3.5720   -8.8360 C   0  0  0  0  0
   49.9500    2.2480   -9.3870 C   0  0  0  0  0
   49.7740    1.1720   -8.3350 C   0  0  0  0  0
   49.0160    5.6830  -11.6450 N   0  3  0  0  0
   49.3980    2.7670  -12.1550 O   0  0  0  0  0
   50.9050    5.8610   -9.4710 O   0  0  0  0  0
   51.8200    3.4150   -8.3570 O   0  0  0  0  0
   49.4990   -0.0420   -9.0520 O   0  0  0  0  0
   48.6060    2.3980   -9.9060 O   0  0  0  0  0
   47.6280    0.9670  -12.5820 O   0  0  0  0  0
   49.1940    1.2830  -12.8470 P   0  0  0  0  0
   49.4020    1.4330  -14.3030 O   0  0  0  0  0
   50.0270    0.3080  -12.1060 O   0  0  0  0  0
   47.4800   -1.6310  -10.4460 N   0  3  0  0  0
   47.3590   -5.8290   -6.3560 P   0  0  0  0  0
   50.0590   -1.5680   -4.6000 O   0  0  0  0  0
   47.3720   -4.3800   -9.3110 O   0  0  0  0  0
   48.6560   -0.9430   -8.3540 C   0  0  0  0  0
   47.4020   -4.2350   -6.4240 O   0  0  0  0  0
   48.2730   -2.1140   -9.2970 C   0  0  0  0  0
   49.4580   -1.4230   -7.2850 O   0  0  0  0  0
   47.5160   -3.1840   -8.5090 C   0  0  0  0  0
   46.4600   -6.2710   -7.6160 O   0  0  0  0  0
   48.2850   -3.5470   -7.2490 C   0  0  0  0  0
   46.5610   -6.1740   -5.1510 O   0  0  0  0  0
   48.7440   -2.3170   -6.4640 C   0  0  0  0  0
   48.6990   -6.3900   -6.5400 O   0  0  0  0  0
   49.7040   -2.7550   -5.3690 C   0  0  0  0  0
   50.3660   -2.7680   -2.5180 C   0  0  0  0  0
   49.1890   -2.4970   -2.2140 O   0  0  0  0  0
   51.0060   -3.7760   -2.1520 O   0  0  0  0  0
   51.0100   -1.8180   -3.5210 C   0  0  0  0  0
   51.3060   -0.4960   -2.8350 C   0  0  0  0  0
   52.1440    0.3860   -3.7360 C   0  0  0  0  0
   52.5690    1.5890   -3.0450 O   0  0  0  0  0
   53.4050   -0.3390   -4.1770 C   0  0  0  0  0
   54.1890   -0.6280   -3.0160 O   0  0  0  0  0
   53.0140   -1.6440   -4.8620 C   0  0  0  0  0
   52.2280   -2.4370   -3.9750 O   0  0  0  0  0
   54.2910   -2.4390   -5.2150 C   0  0  0  0  0
   55.0250   -1.6560   -6.1390 O   0  0  0  0  0
   54.0310   -3.7960   -5.8480 C   0  0  0  0  0
   53.0840   -3.5530   -6.8910 O   0  0  0  0  0
   52.2260    2.9820   -5.0480 C   0  0  0  0  0
   51.2240    3.1860   -5.7610 O   0  0  0  0  0
   53.3840    2.8970   -5.4600 O   0  0  0  0  0
   51.9940    2.8140   -3.5140 C   0  0  0  0  0
   52.6710    3.9670   -2.7580 C   0  0  0  0  0
   52.2730    3.9650   -1.2460 C   0  0  0  0  0
   52.8390    5.1190   -0.5730 O   0  0  0  0  0
   50.7500    3.9990   -1.1200 C   0  0  0  0  0
   50.2500    5.2510   -1.5760 O   0  0  0  0  0
   50.1260    2.8290   -1.9310 C   0  0  0  0  0
   50.5870    2.8460   -3.3080 O   0  0  0  0  0
   48.5900    2.8380   -2.0280 C   0  0  0  0  0
   48.1050    3.8380   -2.9550 O   0  0  0  0  0
   47.9460    3.0940   -0.6510 C   0  0  0  0  0
   46.5710    2.7350   -0.7390 O   0  0  0  0  0
   46.1570    3.3290    1.6000 C   0  0  0  0  0
   46.4570    2.2160    2.0780 O   0  0  0  0  0
   46.1620    4.4190    2.2340 O   0  0  0  0  0
   45.6570    3.3610    0.1290 C   0  0  0  0  0
   44.3480    2.6340    0.0560 C   0  0  0  0  0
   43.6860    2.8300   -1.3070 C   0  0  0  0  0
   42.3780    2.2280   -1.2480 O   0  0  0  0  0
   43.5570    4.3080   -1.6610 C   0  0  0  0  0
   42.6910    4.9560   -0.6950 O   0  0  0  0  0
   44.9790    4.8840   -1.6670 C   0  0  0  0  0
   45.5500    4.7330   -0.3350 O   0  0  0  0  0
   45.0030    6.3730   -1.9910 C   0  0  0  0  0
   44.3590    6.6540   -3.2460 O   0  0  0  0  0
   46.4420    6.8760   -1.9940 C   0  0  0  0  0
   47.0750    6.3280   -3.1500 O   0  0  0  0  0
   47.5691    3.3438  -11.4159 H   0  0  0  0  0
   48.3848    5.0284   -9.7887 H   0  0  0  0  0
   51.1733    4.2527  -10.7397 H   0  0  0  0  0
   49.8447    3.9029   -8.0121 H   0  0  0  0  0
   50.6966    1.9704  -10.1311 H   0  0  0  0  0
   48.9625    1.4184   -7.6503 H   0  0  0  0  0
   50.6676    1.0726   -7.7188 H   0  0  0  0  0
   48.0682    5.7264  -12.0195 H   0  0  0  0  0
   49.2787    6.5964  -11.2749 H   0  0  0  0  0
   49.6639    5.4160  -12.3862 H   0  0  0  0  0
   50.9049    6.4954  -10.1915 H   0  0  0  0  0
   52.1366    4.2541   -8.0145 H   0  0  0  0  0
   47.4780    0.8670  -11.6391 H   0  0  0  0  0
   49.7821    0.3198  -11.1778 H   0  0  0  0  0
   47.2420   -2.4188  -11.0486 H   0  0  0  0  0
   46.6249   -1.1907  -10.1064 H   0  0  0  0  0
   48.0275   -0.9511  -10.9736 H   0  0  0  0  0
   46.8961   -5.0454   -8.8087 H   0  0  0  0  0
   47.7334   -0.4808   -8.0029 H   0  0  0  0  0
   49.1844   -2.5576   -9.6979 H   0  0  0  0  0
   46.5355   -2.7863   -8.2473 H   0  0  0  0  0
   45.5745   -5.9136   -7.5170 H   0  0  0  0  0
   49.1651   -4.1207   -7.5395 H   0  0  0  0  0
   45.7142   -5.7235   -5.1896 H   0  0  0  0  0
   47.8537   -1.8313   -6.0645 H   0  0  0  0  0
   49.2360   -3.5007   -4.7264 H   0  0  0  0  0
   50.5948   -3.2105   -5.8016 H   0  0  0  0  0
   51.8900   -3.7452   -2.5250 H   0  0  0  0  0
   51.8553   -0.6880   -1.9133 H   0  0  0  0  0
   50.3658    0.0099   -2.6155 H   0  0  0  0  0
   51.5198    0.6388   -4.5930 H   0  0  0  0  0
   53.9765    0.2781   -4.8703 H   0  0  0  0  0
   54.9904   -1.0868   -3.2785 H   0  0  0  0  0
   52.4455   -1.4143   -5.7632 H   0  0  0  0  0
   54.8224   -2.6325   -4.2832 H   0  0  0  0  0
   55.8292   -2.1204   -6.3824 H   0  0  0  0  0
   53.6493   -4.5111   -5.1193 H   0  0  0  0  0
   54.9483   -4.2394   -6.2354 H   0  0  0  0  0
   52.8772   -4.3798   -7.3329 H   0  0  0  0  0
   50.4392    3.2103   -5.2087 H   0  0  0  0  0
   52.3484    4.9093   -3.2008 H   0  0  0  0  0
   53.7515    3.8443   -2.8328 H   0  0  0  0  0
   52.6619    3.0593   -0.7806 H   0  0  0  0  0
   52.5863    5.1038    0.3530 H   0  0  0  0  0
   50.4740    3.8803   -0.0722 H   0  0  0  0  0
   49.2937    5.2619   -1.4927 H   0  0  0  0  0
   50.4448    1.9492   -1.3720 H   0  0  0  0  0
   48.3059    1.8514   -2.3940 H   0  0  0  0  0
   47.1459    3.8079   -2.9835 H   0  0  0  0  0
   48.0457    4.1441   -0.3764 H   0  0  0  0  0
   48.4436    2.4997    0.1154 H   0  0  0  0  0
   45.8941    5.1302    1.6475 H   0  0  0  0  0
   43.6856    3.0297    0.8259 H   0  0  0  0  0
   44.5309    1.5699    0.2054 H   0  0  0  0  0
   44.3006    2.3649   -2.0777 H   0  0  0  0  0
   41.9383    2.3370   -2.0944 H   0  0  0  0  0
   43.1039    4.4685   -2.6393 H   0  0  0  0  0
   42.6078    5.8867   -0.9152 H   0  0  0  0  0
   45.5407    4.3453   -2.4302 H   0  0  0  0  0
   44.4425    6.8999   -1.2188 H   0  0  0  0  0
   44.3927    7.5980   -3.4174 H   0  0  0  0  0
   46.9605    6.5648   -1.0871 H   0  0  0  0  0
   46.4690    7.9653   -2.0202 H   0  0  0  0  0
   47.9873    6.6249   -3.1849 H   0  0  0  0  0
  1  2  1  0  0  0
  1  8  1  0  0  0
 12  1  1  0  0  0
  3  2  1  0  0  0
  2  7  1  0  0  0
  4  3  1  0  0  0
  3  9  1  0  0  0
  5  4  1  0  0  0
  4 10  1  0  0  0
  6  5  1  0  0  0
  5 12  1  0  0  0
 11  6  1  0  0  0
  8 14  1  0  0  0
 21 11  1  0  0  0
 14 13  1  0  0  0
 14 15  2  0  0  0
 14 16  1  0  0  0
 23 17  1  0  0  0
 22 18  1  0  0  0
 18 26  1  0  0  0
 18 28  1  0  0  0
 18 30  2  0  0  0
 19 31  1  0  0  0
 35 19  1  0  0  0
 25 20  1  0  0  0
 21 23  1  0  0  0
 24 21  1  0  0  0
 27 22  1  0  0  0
 25 23  1  0  0  0
 29 24  1  0  0  0
 27 25  1  0  0  0
 29 27  1  0  0  0
 31 29  1  0  0  0
 32 33  2  0  0  0
 32 34  1  0  0  0
 35 32  1  0  0  0
 36 35  1  0  0  0
 35 42  1  0  0  0
 37 36  1  0  0  0
 38 37  1  0  0  0
 37 39  1  0  0  0
 50 38  1  0  0  0
 39 40  1  0  0  0
 39 41  1  0  0  0
 41 42  1  0  0  0
 41 43  1  0  0  0
 43 44  1  0  0  0
 43 45  1  0  0  0
 45 46  1  0  0  0
 47 48  1  0  0  0
 47 49  2  0  0  0
 50 47  1  0  0  0
 50 51  1  0  0  0
 57 50  1  0  0  0
 52 51  1  0  0  0
 52 53  1  0  0  0
 54 52  1  0  0  0
 54 55  1  0  0  0
 56 54  1  0  0  0
 56 57  1  0  0  0
 58 56  1  0  0  0
 58 59  1  0  0  0
 60 58  1  0  0  0
 61 60  1  0  0  0
 65 61  1  0  0  0
 62 63  2  0  0  0
 62 64  1  0  0  0
 62 65  1  0  0  0
 65 66  1  0  0  0
 65 72  1  0  0  0
 66 67  1  0  0  0
 67 68  1  0  0  0
 67 69  1  0  0  0
 69 70  1  0  0  0
 69 71  1  0  0  0
 71 72  1  0  0  0
 71 73  1  0  0  0
 73 74  1  0  0  0
 73 75  1  0  0  0
 75 76  1  0  0  0
  1 77  1  0  0  0
  2 78  1  0  0  0
  3 79  1  0  0  0
  4 80  1  0  0  0
  5 81  1  0  0  0
  6 82  1  0  0  0
  6 83  1  0  0  0
  7 84  1  0  0  0
  7 85  1  0  0  0
  7 86  1  0  0  0
  9 87  1  0  0  0
 10 88  1  0  0  0
 13 89  1  0  0  0
 16 90  1  0  0  0
 17 91  1  0  0  0
 17 92  1  0  0  0
 17 93  1  0  0  0
 20 94  1  0  0  0
 21 95  1  0  0  0
 23 96  1  0  0  0
 25 97  1  0  0  0
 26 98  1  0  0  0
 27 99  1  0  0  0
 28100  1  0  0  0
 29101  1  0  0  0
 31102  1  0  0  0
 31103  1  0  0  0
 34104  1  0  0  0
 36105  1  0  0  0
 36106  1  0  0  0
 37107  1  0  0  0
 39108  1  0  0  0
 40109  1  0  0  0
 41110  1  0  0  0
 43111  1  0  0  0
 44112  1  0  0  0
 45113  1  0  0  0
 45114  1  0  0  0
 46115  1  0  0  0
 48116  1  0  0  0
 51117  1  0  0  0
 51118  1  0  0  0
 52119  1  0  0  0
 53120  1  0  0  0
 54121  1  0  0  0
 55122  1  0  0  0
 56123  1  0  0  0
 58124  1  0  0  0
 59125  1  0  0  0
 60126  1  0  0  0
 60127  1  0  0  0
 64128  1  0  0  0
 66129  1  0  0  0
 66130  1  0  0  0
 67131  1  0  0  0
 68132  1  0  0  0
 69133  1  0  0  0
 70134  1  0  0  0
 71135  1  0  0  0
 73136  1  0  0  0
 74137  1  0  0  0
 75138  1  0  0  0
 75139  1  0  0  0
 76140  1  0  0  0
M  END
$$$$
