4y2v_ligand
  -I-interpret- 

 22 23  0  0  0  0  0  0  0  0999 V2000
  -16.5320  -11.0690   71.6130 C   0  0  0  0  0
  -16.7110  -11.1200   70.2450 C   0  0  0  0  0
  -16.3710   -9.8110   69.8240 C   0  0  0  0  0
  -15.3490   -7.7490   73.0160 C   0  0  0  0  0
  -16.7300   -7.8820   68.2420 C   0  0  0  0  0
  -17.7000   -8.9460   67.8110 C   0  0  0  0  0
  -16.3890   -9.3140   68.4010 C   0  0  0  0  0
  -15.7770   -9.1990   73.1740 C   0  0  0  0  0
  -16.0090   -8.9900   70.8050 N   0  0  0  0  0
  -16.1130   -9.7850   71.8850 N   0  0  0  0  0
  -14.8350   -7.2430   72.0370 O   0  0  0  0  0
  -15.6170   -6.9930   74.1110 O   0  0  0  0  0
  -17.2800  -12.5460   69.0860 Br  0  0  0  0  0
  -16.6893  -11.8761   72.3285 H   0  0  0  0  0
  -16.7258   -6.9670   68.8343 H   0  0  0  0  0
  -16.2818   -6.9711   67.8452 H   0  0  0  0  0
  -18.3120   -9.1987   66.9451 H   0  0  0  0  0
  -18.7545   -9.1946   67.9309 H   0  0  0  0  0
  -15.5776   -9.9661   68.0777 H   0  0  0  0  0
  -16.6570   -9.2366   73.8161 H   0  0  0  0  0
  -14.9522   -9.7622   73.6107 H   0  0  0  0  0
  -16.0187   -7.5429   74.7876 H   0  0  0  0  0
  1  2  4  0  0  0
 10  1  4  0  0  0
  2  3  4  0  0  0
  2 13  1  0  0  0
  3  7  1  0  0  0
  3  9  4  0  0  0
  8  4  1  0  0  0
  4 11  2  0  0  0
  4 12  1  0  0  0
  6  5  1  0  0  0
  7  5  1  0  0  0
  7  6  1  0  0  0
  8 10  1  0  0  0
  9 10  4  0  0  0
  1 14  1  0  0  0
  5 15  1  0  0  0
  5 16  1  0  0  0
  6 17  1  0  0  0
  6 18  1  0  0  0
  7 19  1  0  0  0
  8 20  1  0  0  0
  8 21  1  0  0  0
 12 22  1  0  0  0
M  END
$$$$
