3krl_ligand
  -I-interpret- 

 57 60  0  0  0  0  0  0  0  0999 V2000
    8.1660  -10.1870  -15.2590 C   0  0  0  0  0
    8.9680  -10.6690  -14.0880 N   0  3  0  0  0
    8.2890  -11.2250  -12.9100 C   0  0  0  0  0
    9.0150  -12.3240  -12.0420 C   0  0  0  0  0
   10.4400  -12.6830  -12.2400 N   0  0  0  0  0
   11.1180  -12.0050  -13.3810 C   0  0  0  0  0
   10.3990  -10.9200  -14.2730 C   0  0  0  0  0
   11.0890  -13.7670  -11.4060 C   0  0  0  0  0
   11.6190  -14.9620  -11.9140 C   0  0  0  0  0
   12.2890  -15.9300  -11.1360 C   0  0  0  0  0
   12.5060  -15.8050   -9.7490 C   0  0  0  0  0
   13.2370  -16.7340   -8.9050 N   0  0  0  0  0
   13.7550  -18.0270   -9.1080 C   0  0  0  0  0
   13.5830  -18.6950  -10.1250 O   0  0  0  0  0
   14.5520  -18.7330   -8.0300 C   0  0  0  0  0
   14.8940  -20.0650   -7.8730 C   0  0  0  0  0
   15.6480  -20.1510   -6.6460 C   0  0  0  0  0
   15.6960  -18.8620   -6.1510 C   0  0  0  0  0
   16.2480  -18.2080   -5.0220 C   0  0  0  0  0
   16.6850  -17.6520   -4.1040 N   0  0  0  0  0
   15.0290  -17.9910   -6.9830 O   0  0  0  0  0
   11.9930  -14.5890   -9.1890 C   0  0  0  0  0
   11.3160  -13.6340  -10.0040 C   0  0  0  0  0
   12.1830  -14.4650   -7.7290 N   0  0  0  0  0
   13.2100  -13.4530   -7.3840 C   0  0  0  0  0
   13.5060  -13.2160   -5.8910 C   0  0  0  0  0
   12.6010  -13.9840   -4.9440 C   0  0  0  0  0
   12.5450  -15.4330   -5.3820 C   0  0  0  0  0
   11.7700  -15.4780   -6.7140 C   0  0  0  0  0
    8.5714   -9.2378  -15.6094 H   0  0  0  0  0
    8.2173  -10.9236  -16.0608 H   0  0  0  0  0
    7.1281  -10.0503  -14.9554 H   0  0  0  0  0
    9.0497   -9.7462  -13.6611 H   0  0  0  0  0
    7.4072  -11.7259  -13.3096 H   0  0  0  0  0
    8.1653  -10.3773  -12.2361 H   0  0  0  0  0
    8.4857  -13.2407  -12.3019 H   0  0  0  0  0
    8.9985  -11.9028  -11.0368 H   0  0  0  0  0
   11.3088  -12.8192  -14.0801 H   0  0  0  0  0
   11.9197  -11.4444  -12.9002 H   0  0  0  0  0
   10.8818   -9.9793  -14.0081 H   0  0  0  0  0
   10.4845  -11.2980  -15.2918 H   0  0  0  0  0
   11.5059  -15.1559  -12.9806 H   0  0  0  0  0
   12.6596  -16.8249  -11.6359 H   0  0  0  0  0
   13.4119  -16.3732   -7.9671 H   0  0  0  0  0
   14.6432  -20.8867   -8.5439 H   0  0  0  0  0
   16.0873  -21.0447   -6.2028 H   0  0  0  0  0
   10.9431  -12.7326   -9.5177 H   0  0  0  0  0
   12.8242  -12.5053   -7.7595 H   0  0  0  0  0
   14.1414  -13.8244   -7.8113 H   0  0  0  0  0
   13.3463  -12.1553   -5.6971 H   0  0  0  0  0
   14.5248  -13.5577   -5.7082 H   0  0  0  0  0
   11.5992  -13.5549   -4.9640 H   0  0  0  0  0
   12.9935  -13.9217   -3.9290 H   0  0  0  0  0
   12.0472  -16.0426   -4.6279 H   0  0  0  0  0
   13.5504  -15.8342   -5.5095 H   0  0  0  0  0
   11.9635  -16.4563   -7.1539 H   0  0  0  0  0
   10.7269  -15.2714   -6.4745 H   0  0  0  0  0
  1  2  1  0  0  0
  2  3  1  0  0  0
  2  7  1  0  0  0
  3  4  1  0  0  0
  4  5  1  0  0  0
  5  6  1  0  0  0
  5  8  1  0  0  0
  6  7  1  0  0  0
  8  9  4  0  0  0
  8 23  4  0  0  0
  9 10  4  0  0  0
 10 11  4  0  0  0
 11 12  1  0  0  0
 11 22  4  0  0  0
 12 13  1  0  0  0
 13 14  2  0  0  0
 13 15  1  0  0  0
 15 16  4  0  0  0
 15 21  4  0  0  0
 16 17  4  0  0  0
 17 18  4  0  0  0
 18 19  1  0  0  0
 18 21  4  0  0  0
 19 20  3  0  0  0
 22 23  4  0  0  0
 22 24  1  0  0  0
 24 25  1  0  0  0
 24 29  1  0  0  0
 25 26  1  0  0  0
 26 27  1  0  0  0
 27 28  1  0  0  0
 28 29  1  0  0  0
  1 30  1  0  0  0
  1 31  1  0  0  0
  1 32  1  0  0  0
  2 33  1  0  0  0
  3 34  1  0  0  0
  3 35  1  0  0  0
  4 36  1  0  0  0
  4 37  1  0  0  0
  6 38  1  0  0  0
  6 39  1  0  0  0
  7 40  1  0  0  0
  7 41  1  0  0  0
  9 42  1  0  0  0
 10 43  1  0  0  0
 12 44  1  0  0  0
 16 45  1  0  0  0
 17 46  1  0  0  0
 23 47  1  0  0  0
 25 48  1  0  0  0
 25 49  1  0  0  0
 26 50  1  0  0  0
 26 51  1  0  0  0
 27 52  1  0  0  0
 27 53  1  0  0  0
 28 54  1  0  0  0
 28 55  1  0  0  0
 29 56  1  0  0  0
 29 57  1  0  0  0
M  END
$$$$
