3l9l_ligand
  -I-interpret- 

 50 53  0  0  0  0  0  0  0  0999 V2000
   28.9430    7.0250    6.4340 C   0  0  0  0  0
   28.6550    3.7990   11.8450 F   0  0  0  0  0
   32.0410    1.4530    6.1440 N   0  0  0  0  0
   25.3400    8.4900   10.7180 O   0  0  0  0  0
   30.4850    3.3240    7.4590 S   0  0  0  0  0
   28.0410    8.0320    6.8960 C   0  0  0  0  0
   27.3350    2.2900   12.8090 F   0  0  0  0  0
   31.9030    3.7860    5.3270 N   0  0  0  0  0
   27.5230    7.8480    8.2330 C   0  0  0  0  0
   26.4330    3.6470   11.1910 F   0  0  0  0  0
   30.5480   -1.0390    5.3660 N   0  3  0  0  0
   27.8710    6.7480    9.0430 C   0  0  0  0  0
   26.5810    8.5670    8.8350 N   0  0  0  0  0
   28.7780    5.7380    8.5770 C   0  0  0  0  0
   29.3600    5.8680    7.2270 C   0  0  0  0  0
   30.2010   -0.1500    6.5220 C   0  0  0  0  0
   26.2330    8.0430   10.0240 C   0  0  0  0  0
   30.3570    4.8600    6.7270 C   0  0  0  0  0
   31.2020    4.9580    5.5640 C   0  0  0  0  0
   31.6230    2.8360    6.2550 C   0  0  0  0  0
   31.4900    0.4680    7.0710 C   0  0  0  0  0
   27.8380    0.8960    8.2950 C   0  0  0  0  0
   27.4180    1.8890    9.2580 C   0  0  0  0  0
   28.0290    1.9740   10.5960 C   0  0  0  0  0
   29.1460    1.0400   10.8900 C   0  0  0  0  0
   29.5610    0.0230    9.9600 C   0  0  0  0  0
   28.9070    0.0330    8.6730 C   0  0  0  0  0
   27.5650    3.0040   11.6880 C   0  0  0  0  0
   29.4060   -0.9170    7.5860 C   0  0  0  0  0
   27.1220    6.8330   10.3540 C   0  0  0  0  0
   29.3464    7.1249    5.4263 H   0  0  0  0  0
   32.7109    1.1712    5.4283 H   0  0  0  0  0
   27.7609    8.8857    6.2789 H   0  0  0  0  0
   29.6958   -1.4565    4.9920 H   0  0  0  0  0
   31.0050   -0.4875    4.6397 H   0  0  0  0  0
   31.1785   -1.7757    5.6825 H   0  0  0  0  0
   26.1711    9.4145    8.4424 H   0  0  0  0  0
   29.0330    4.8882    9.2102 H   0  0  0  0  0
   29.5497    0.6593    6.1921 H   0  0  0  0  0
   31.2808    5.8502    4.9428 H   0  0  0  0  0
   31.2626    0.9666    8.0132 H   0  0  0  0  0
   32.2237   -0.3258    7.2114 H   0  0  0  0  0
   27.3571    0.8110    7.3205 H   0  0  0  0  0
   26.6301    2.5920    8.9876 H   0  0  0  0  0
   29.6690    1.1278   11.8423 H   0  0  0  0  0
   30.3249   -0.7123   10.2128 H   0  0  0  0  0
   30.0554   -1.6647    8.0413 H   0  0  0  0  0
   28.5477   -1.3923    7.1111 H   0  0  0  0  0
   27.7459    6.9410   11.2412 H   0  0  0  0  0
   26.5886    5.9283   10.6457 H   0  0  0  0  0
  1  6  4  0  0  0
 15  1  4  0  0  0
 28  2  1  0  0  0
  3 20  1  0  0  0
 21  3  1  0  0  0
 17  4  2  0  0  0
  5 18  4  0  0  0
 20  5  4  0  0  0
  6  9  4  0  0  0
 28  7  1  0  0  0
  8 19  4  0  0  0
 20  8  4  0  0  0
 12  9  4  0  0  0
  9 13  1  0  0  0
 28 10  1  0  0  0
 16 11  1  0  0  0
 14 12  4  0  0  0
 12 30  1  0  0  0
 17 13  1  0  0  0
 15 14  4  0  0  0
 18 15  1  0  0  0
 16 21  1  0  0  0
 29 16  1  0  0  0
 30 17  1  0  0  0
 19 18  4  0  0  0
 22 23  4  0  0  0
 27 22  4  0  0  0
 23 24  4  0  0  0
 25 24  4  0  0  0
 24 28  1  0  0  0
 26 25  4  0  0  0
 27 26  4  0  0  0
 27 29  1  0  0  0
  1 31  1  0  0  0
  3 32  1  0  0  0
  6 33  1  0  0  0
 11 34  1  0  0  0
 11 35  1  0  0  0
 11 36  1  0  0  0
 13 37  1  0  0  0
 14 38  1  0  0  0
 16 39  1  0  0  0
 19 40  1  0  0  0
 21 41  1  0  0  0
 21 42  1  0  0  0
 22 43  1  0  0  0
 23 44  1  0  0  0
 25 45  1  0  0  0
 26 46  1  0  0  0
 29 47  1  0  0  0
 29 48  1  0  0  0
 30 49  1  0  0  0
 30 50  1  0  0  0
M  END
$$$$
