4j3u_ligand
  -I-interpret- 

189198  0  0  0  0  0  0  0  0999 V2000
  139.4430   10.9060    1.3850 C   0  0  0  0  0
  139.1130   11.7670    0.1750 C   0  0  0  0  0
  139.5390   11.0710   -1.1090 C   0  0  0  0  0
  140.9900   10.6000   -1.0600 C   0  0  0  0  0
  141.3520    9.9190    0.2660 C   0  0  0  0  0
  142.8640    9.8140    0.4540 C   0  0  0  0  0
  137.7050   12.0250    0.1400 O   0  0  0  0  0
  139.3700   11.9820   -2.2000 O   0  0  0  0  0
  141.1840    9.6710   -2.1350 O   0  0  0  0  0
  140.8420   10.6270    1.3980 O   0  0  0  0  0
  143.3270    8.5250    0.0400 O   0  0  0  0  0
  136.2260    7.5410    3.8310 C   0  0  0  0  0
  135.5370    8.6790    3.0930 C   0  0  0  0  0
  136.4190    9.1580    1.9500 C   0  0  0  0  0
  137.8270    9.4740    2.4490 C   0  0  0  0  0
  138.4020    8.3470    3.3090 C   0  0  0  0  0
  139.7360    8.7170    3.9500 C   0  0  0  0  0
  134.2690    8.2430    2.5890 O   0  0  0  0  0
  135.8370   10.3320    1.3790 O   0  0  0  0  0
  138.6900    9.6890    1.3310 O   0  0  0  0  0
  137.4760    8.0080    4.3420 O   0  0  0  0  0
  139.6040    9.9280    4.7020 O   0  0  0  0  0
  135.7790    2.4380    2.6250 C   0  0  0  0  0
  134.5480    3.3350    2.5120 C   0  0  0  0  0
  134.9830    4.7600    2.2250 C   0  0  0  0  0
  135.9720    5.2000    3.2950 C   0  0  0  0  0
  137.1380    4.2200    3.4230 C   0  0  0  0  0
  138.1150    4.5980    4.5330 C   0  0  0  0  0
  133.6590    2.8750    1.4900 O   0  0  0  0  0
  133.8380    5.6230    2.2150 O   0  0  0  0  0
  136.4600    6.4770    2.9080 O   0  0  0  0  0
  136.6250    2.9090    3.6760 O   0  0  0  0  0
  137.4680    4.5570    5.8080 O   0  0  0  0  0
  137.8180   -0.6460   -1.1080 C   0  0  0  0  0
  138.5550   -0.3220    0.0760 O   0  0  0  0  0
  136.3230   -0.5850   -0.8100 C   0  0  0  0  0
  135.5890   -0.8090   -2.0200 O   0  0  0  0  0
  135.9490    0.7680   -0.2140 C   0  0  0  0  0
  134.5780    0.7670    0.2110 O   0  0  0  0  0
  136.8580    1.1060    0.9640 C   0  0  0  0  0
  136.5320    2.4180    1.4120 O   0  0  0  0  0
  138.3250    1.0040    0.5500 C   0  0  0  0  0
  139.3220    1.3060    1.6690 C   0  0  0  0  0
  140.9500    1.4020    0.9890 S   0  0  0  0  0
  140.2090    0.7460   -5.6530 C   0  0  0  0  0
  138.7400    0.3660   -5.8060 C   0  0  0  0  0
  137.9930    0.5450   -4.4900 C   0  0  0  0  0
  138.6970   -0.1830   -3.3470 C   0  0  0  0  0
  140.2050    0.0940   -3.3340 C   0  0  0  0  0
  140.9550   -0.8280   -2.3750 C   0  0  0  0  0
  138.1490    1.1800   -6.8200 O   0  0  0  0  0
  136.6470    0.0610   -4.6200 O   0  0  0  0  0
  138.1160    0.3010   -2.1360 O   0  0  0  0  0
  140.7740   -0.0820   -4.6360 O   0  0  0  0  0
  142.2580   -0.2910   -2.1100 O   0  0  0  0  0
  142.3590    5.6470   -6.3420 C   0  0  0  0  0
  141.3630    5.0970   -7.3600 C   0  0  0  0  0
  140.4450    4.0600   -6.7150 C   0  0  0  0  0
  141.2380    2.9250   -6.0870 C   0  0  0  0  0
  142.3670    3.4680   -5.2100 C   0  0  0  0  0
  143.3620    2.3590   -4.8930 C   0  0  0  0  0
  140.5980    6.1700   -7.9230 O   0  0  0  0  0
  139.5440    3.5150   -7.6840 O   0  0  0  0  0
  140.3320    2.1310   -5.3040 O   0  0  0  0  0
  143.1020    4.5340   -5.8310 O   0  0  0  0  0
  144.1510    2.7210   -3.7550 O   0  0  0  0  0
  142.2890    9.9180   -3.0170 C   0  0  0  0  0
  141.8040   10.0960   -4.4560 C   0  0  0  0  0
  141.2980    8.7840   -5.0520 C   0  0  0  0  0
  142.2990    7.6380   -4.8870 C   0  0  0  0  0
  142.7340    7.5650   -3.4220 C   0  0  0  0  0
  143.8330    6.5290   -3.2110 C   0  0  0  0  0
  140.7470   11.0610   -4.4830 O   0  0  0  0  0
  140.9890    8.9680   -6.4400 O   0  0  0  0  0
  141.7020    6.3880   -5.2940 O   0  0  0  0  0
  143.2210    8.8320   -2.9590 O   0  0  0  0  0
  144.1790    6.4670   -1.8210 O   0  0  0  0  0
  141.0120    2.9980    0.2090 C   0  0  0  0  0
  142.2470    3.2110   -0.6680 C   0  0  0  0  0
  143.5170    3.3860    0.1600 C   0  0  0  0  0
  143.3170    4.4520    1.2300 C   0  0  0  0  0
  142.0800    4.1230    2.0620 C   0  0  0  0  0
  141.7880    5.1610    3.1400 C   0  0  0  0  0
  142.3900    2.1230   -1.5870 O   0  0  0  0  0
  144.5990    3.7620   -0.7010 O   0  0  0  0  0
  144.4750    4.5030    2.0680 O   0  0  0  0  0
  140.9380    4.0270    1.2050 O   0  0  0  0  0
  141.7510    6.4810    2.5860 O   0  0  0  0  0
  145.3450    5.6150    1.8280 C   0  0  0  0  0
  146.7880    5.1620    2.0220 C   0  0  0  0  0
  147.0500    4.8310    3.4850 C   0  0  0  0  0
  146.6840    6.0250    4.3540 C   0  0  0  0  0
  145.2320    6.4160    4.1070 C   0  0  0  0  0
  144.8390    7.6310    4.9390 C   0  0  0  0  0
  147.0390    4.0140    1.2060 O   0  0  0  0  0
  148.4240    4.4920    3.6840 O   0  0  0  0  0
  146.8780    5.6980    5.7340 O   0  0  0  0  0
  145.0310    6.6980    2.7160 O   0  0  0  0  0
  143.5070    8.0480    4.6200 O   0  0  0  0  0
  139.1790   11.4378    2.2991 H   0  0  0  0  0
  139.6561   12.7085    0.2566 H   0  0  0  0  0
  138.9161   10.1857   -1.2373 H   0  0  0  0  0
  141.6359   11.4732   -1.1521 H   0  0  0  0  0
  140.9002    8.9287    0.2083 H   0  0  0  0  0
  143.1025    9.9564    1.5080 H   0  0  0  0  0
  143.3519   10.5786   -0.1505 H   0  0  0  0  0
  137.4410   12.4640    0.9519 H   0  0  0  0  0
  138.4572   12.2777   -2.2300 H   0  0  0  0  0
  144.2776    8.4729    0.1634 H   0  0  0  0  0
  135.6031    7.1904    4.6539 H   0  0  0  0  0
  135.3718    9.5047    3.7851 H   0  0  0  0  0
  136.4906    8.3700    1.2003 H   0  0  0  0  0
  137.7617   10.3696    3.0669 H   0  0  0  0  0
  138.5731    7.4997    2.6450 H   0  0  0  0  0
  140.4800    8.8626    3.1668 H   0  0  0  0  0
  140.0456    7.9137    4.6186 H   0  0  0  0  0
  133.8436    8.9682    2.1257 H   0  0  0  0  0
  136.3876   10.6416    0.6561 H   0  0  0  0  0
  140.4490   10.1500    5.0999 H   0  0  0  0  0
  135.4283    1.4276    2.8354 H   0  0  0  0  0
  134.0099    3.3004    3.4593 H   0  0  0  0  0
  135.4636    4.8132    1.2481 H   0  0  0  0  0
  135.4755    5.2342    4.2647 H   0  0  0  0  0
  137.6894    4.2518    2.4833 H   0  0  0  0  0
  138.4791    5.6096    4.3539 H   0  0  0  0  0
  138.9417    3.8875    4.5332 H   0  0  0  0  0
  132.8975    3.4577    1.4438 H   0  0  0  0  0
  134.1185    6.5229    2.0331 H   0  0  0  0  0
  138.0968    4.7972    6.4925 H   0  0  0  0  0
  138.0949   -1.6483   -1.4349 H   0  0  0  0  0
  136.0740   -1.3584   -0.0834 H   0  0  0  0  0
  134.6480   -0.7709   -1.8338 H   0  0  0  0  0
  136.0791    1.5270   -0.9854 H   0  0  0  0  0
  134.3589    1.6244    0.5831 H   0  0  0  0  0
  136.7063    0.3980    1.7788 H   0  0  0  0  0
  138.4926    1.7623   -0.2148 H   0  0  0  0  0
  139.2843    0.5128    2.4156 H   0  0  0  0  0
  139.0662    2.2553    2.1396 H   0  0  0  0  0
  140.7388    0.5952   -6.5936 H   0  0  0  0  0
  138.6736   -0.6840   -6.0908 H   0  0  0  0  0
  137.9769    1.6092   -4.2549 H   0  0  0  0  0
  138.5721   -1.2595   -3.4639 H   0  0  0  0  0
  140.3132    1.1272   -3.0039 H   0  0  0  0  0
  141.0554   -1.8150   -2.8264 H   0  0  0  0  0
  140.3994   -0.9072   -1.4406 H   0  0  0  0  0
  137.2238    0.9439   -6.9195 H   0  0  0  0  0
  136.1843    0.1777   -3.7870 H   0  0  0  0  0
  142.7262   -0.8731   -1.5071 H   0  0  0  0  0
  143.0326    6.3594   -6.8183 H   0  0  0  0  0
  141.9165    4.6033   -8.1588 H   0  0  0  0  0
  139.8834    4.5712   -5.9330 H   0  0  0  0  0
  141.6960    2.3175   -6.8676 H   0  0  0  0  0
  141.8859    3.8522   -4.3105 H   0  0  0  0  0
  144.0173    2.2087   -5.7510 H   0  0  0  0  0
  142.8178    1.4401   -4.6749 H   0  0  0  0  0
  139.9746    5.8163   -8.5616 H   0  0  0  0  0
  138.9759    2.8664   -7.2619 H   0  0  0  0  0
  144.7747    2.0171   -3.5625 H   0  0  0  0  0
  142.7810   10.8356   -2.6944 H   0  0  0  0  0
  142.6499   10.4348   -5.0541 H   0  0  0  0  0
  140.3986    8.5052   -4.5029 H   0  0  0  0  0
  143.1689    7.8210   -5.5177 H   0  0  0  0  0
  141.8483    7.2776   -2.8554 H   0  0  0  0  0
  144.7122    6.8123   -3.7897 H   0  0  0  0  0
  143.4763    5.5524   -3.5382 H   0  0  0  0  0
  140.4413   11.1739   -5.3860 H   0  0  0  0  0
  140.6717    8.1403   -6.8085 H   0  0  0  0  0
  144.8708    5.8138   -1.6934 H   0  0  0  0  0
  140.1521    3.0470   -0.4590 H   0  0  0  0  0
  142.1001    4.1356   -1.2263 H   0  0  0  0  0
  143.7493    2.4414    0.6517 H   0  0  0  0  0
  143.1728    5.4232    0.7567 H   0  0  0  0  0
  142.2848    3.1758    2.5610 H   0  0  0  0  0
  142.5786    5.1186    3.8892 H   0  0  0  0  0
  140.8168    4.9408    3.5832 H   0  0  0  0  0
  143.1671    2.2661   -2.1322 H   0  0  0  0  0
  145.3977    3.8720   -0.1799 H   0  0  0  0  0
  141.5660    7.1144    3.2833 H   0  0  0  0  0
  145.2108    5.9716    0.8068 H   0  0  0  0  0
  147.4576    5.9702    1.7277 H   0  0  0  0  0
  146.4360    3.9751    3.7651 H   0  0  0  0  0
  147.3261    6.8674    4.0970 H   0  0  0  0  0
  144.6017    5.5782    4.4051 H   0  0  0  0  0
  145.5274    8.4474    4.7205 H   0  0  0  0  0
  144.8836    7.3661    5.9954 H   0  0  0  0  0
  147.9474    3.7286    1.3279 H   0  0  0  0  0
  148.5709    4.2866    4.6102 H   0  0  0  0  0
  146.6455    6.4549    6.2768 H   0  0  0  0  0
  143.2763    8.8129    5.1522 H   0  0  0  0  0
  1  2  1  0  0  0
  1 10  1  0  0  0
 20  1  1  0  0  0
  2  3  1  0  0  0
  2  7  1  0  0  0
  3  4  1  0  0  0
  3  8  1  0  0  0
  5  4  1  0  0  0
  4  9  1  0  0  0
  5  6  1  0  0  0
 10  5  1  0  0  0
  6 11  1  0  0  0
  9 67  1  0  0  0
 12 13  1  0  0  0
 12 21  1  0  0  0
 31 12  1  0  0  0
 13 14  1  0  0  0
 13 18  1  0  0  0
 14 15  1  0  0  0
 14 19  1  0  0  0
 16 15  1  0  0  0
 15 20  1  0  0  0
 16 17  1  0  0  0
 21 16  1  0  0  0
 17 22  1  0  0  0
 23 24  1  0  0  0
 23 32  1  0  0  0
 41 23  1  0  0  0
 24 25  1  0  0  0
 24 29  1  0  0  0
 25 26  1  0  0  0
 25 30  1  0  0  0
 27 26  1  0  0  0
 26 31  1  0  0  0
 27 28  1  0  0  0
 32 27  1  0  0  0
 28 33  1  0  0  0
 34 35  1  0  0  0
 34 36  1  0  0  0
 53 34  1  0  0  0
 35 42  1  0  0  0
 36 37  1  0  0  0
 36 38  1  0  0  0
 38 39  1  0  0  0
 38 40  1  0  0  0
 40 41  1  0  0  0
 42 40  1  0  0  0
 42 43  1  0  0  0
 43 44  1  0  0  0
 44 78  1  0  0  0
 45 46  1  0  0  0
 45 54  1  0  0  0
 64 45  1  0  0  0
 46 47  1  0  0  0
 46 51  1  0  0  0
 47 48  1  0  0  0
 47 52  1  0  0  0
 49 48  1  0  0  0
 48 53  1  0  0  0
 49 50  1  0  0  0
 54 49  1  0  0  0
 50 55  1  0  0  0
 57 56  1  0  0  0
 56 65  1  0  0  0
 56 75  1  0  0  0
 58 57  1  0  0  0
 57 62  1  0  0  0
 59 58  1  0  0  0
 58 63  1  0  0  0
 59 60  1  0  0  0
 59 64  1  0  0  0
 60 61  1  0  0  0
 60 65  1  0  0  0
 61 66  1  0  0  0
 67 68  1  0  0  0
 67 76  1  0  0  0
 68 69  1  0  0  0
 68 73  1  0  0  0
 69 70  1  0  0  0
 69 74  1  0  0  0
 70 71  1  0  0  0
 70 75  1  0  0  0
 71 72  1  0  0  0
 71 76  1  0  0  0
 72 77  1  0  0  0
 78 79  1  0  0  0
 78 87  1  0  0  0
 79 80  1  0  0  0
 79 84  1  0  0  0
 80 81  1  0  0  0
 80 85  1  0  0  0
 81 82  1  0  0  0
 81 86  1  0  0  0
 82 83  1  0  0  0
 82 87  1  0  0  0
 83 88  1  0  0  0
 86 89  1  0  0  0
 89 90  1  0  0  0
 89 98  1  0  0  0
 90 91  1  0  0  0
 90 95  1  0  0  0
 91 92  1  0  0  0
 91 96  1  0  0  0
 92 93  1  0  0  0
 92 97  1  0  0  0
 93 94  1  0  0  0
 93 98  1  0  0  0
 94 99  1  0  0  0
  1100  1  0  0  0
  2101  1  0  0  0
  3102  1  0  0  0
  4103  1  0  0  0
  5104  1  0  0  0
  6105  1  0  0  0
  6106  1  0  0  0
  7107  1  0  0  0
  8108  1  0  0  0
 11109  1  0  0  0
 12110  1  0  0  0
 13111  1  0  0  0
 14112  1  0  0  0
 15113  1  0  0  0
 16114  1  0  0  0
 17115  1  0  0  0
 17116  1  0  0  0
 18117  1  0  0  0
 19118  1  0  0  0
 22119  1  0  0  0
 23120  1  0  0  0
 24121  1  0  0  0
 25122  1  0  0  0
 26123  1  0  0  0
 27124  1  0  0  0
 28125  1  0  0  0
 28126  1  0  0  0
 29127  1  0  0  0
 30128  1  0  0  0
 33129  1  0  0  0
 34130  1  0  0  0
 36131  1  0  0  0
 37132  1  0  0  0
 38133  1  0  0  0
 39134  1  0  0  0
 40135  1  0  0  0
 42136  1  0  0  0
 43137  1  0  0  0
 43138  1  0  0  0
 45139  1  0  0  0
 46140  1  0  0  0
 47141  1  0  0  0
 48142  1  0  0  0
 49143  1  0  0  0
 50144  1  0  0  0
 50145  1  0  0  0
 51146  1  0  0  0
 52147  1  0  0  0
 55148  1  0  0  0
 56149  1  0  0  0
 57150  1  0  0  0
 58151  1  0  0  0
 59152  1  0  0  0
 60153  1  0  0  0
 61154  1  0  0  0
 61155  1  0  0  0
 62156  1  0  0  0
 63157  1  0  0  0
 66158  1  0  0  0
 67159  1  0  0  0
 68160  1  0  0  0
 69161  1  0  0  0
 70162  1  0  0  0
 71163  1  0  0  0
 72164  1  0  0  0
 72165  1  0  0  0
 73166  1  0  0  0
 74167  1  0  0  0
 77168  1  0  0  0
 78169  1  0  0  0
 79170  1  0  0  0
 80171  1  0  0  0
 81172  1  0  0  0
 82173  1  0  0  0
 83174  1  0  0  0
 83175  1  0  0  0
 84176  1  0  0  0
 85177  1  0  0  0
 88178  1  0  0  0
 89179  1  0  0  0
 90180  1  0  0  0
 91181  1  0  0  0
 92182  1  0  0  0
 93183  1  0  0  0
 94184  1  0  0  0
 94185  1  0  0  0
 95186  1  0  0  0
 96187  1  0  0  0
 97188  1  0  0  0
 99189  1  0  0  0
M  END
$$$$
