### 
### Created by X-TOOL on Mon Sep 10 21:13:17 2018
### 

@<TRIPOS>MOLECULE
4j3u_ligand
  189   198     1     0     0
SMALL
GAST_HUCK


@<TRIPOS>ATOM
      1 C1        139.4430   10.9060    1.3850 C.3       1 GLC         0.1884
      2 C2        139.1130   11.7670    0.1750 C.3       1 GLC         0.1341
      3 C3        139.5390   11.0710   -1.1090 C.3       1 GLC         0.1144
      4 C4        140.9900   10.6000   -1.0600 C.3       1 GLC         0.1184
      5 C5        141.3520    9.9190    0.2660 C.3       1 GLC         0.1134
      6 C6        142.8640    9.8140    0.4540 C.3       1 GLC         0.0730
      7 O2        137.7050   12.0250    0.1400 O.3       1 GLC        -0.3841
      8 O3        139.3700   11.9820   -2.2000 O.3       1 GLC        -0.3864
      9 O4        141.1840    9.6710   -2.1350 O.3       1 GLC        -0.3401
     10 O5        140.8420   10.6270    1.3980 O.3       1 GLC        -0.3405
     11 O6        143.3270    8.5250    0.0400 O.3       1 GLC        -0.3924
     12 C1        136.2260    7.5410    3.8310 C.3       1 GLC         0.1884
     13 C2        135.5370    8.6790    3.0930 C.3       1 GLC         0.1341
     14 C3        136.4190    9.1580    1.9500 C.3       1 GLC         0.1144
     15 C4        137.8270    9.4740    2.4490 C.3       1 GLC         0.1184
     16 C5        138.4020    8.3470    3.3090 C.3       1 GLC         0.1134
     17 C6        139.7360    8.7170    3.9500 C.3       1 GLC         0.0730
     18 O2        134.2690    8.2430    2.5890 O.3       1 GLC        -0.3841
     19 O3        135.8370   10.3320    1.3790 O.3       1 GLC        -0.3864
     20 O4        138.6900    9.6890    1.3310 O.3       1 GLC        -0.3401
     21 O5        137.4760    8.0080    4.3420 O.3       1 GLC        -0.3405
     22 O6        139.6040    9.9280    4.7020 O.3       1 GLC        -0.3924
     23 C1        135.7790    2.4380    2.6250 C.3       1 GLC         0.1884
     24 C2        134.5480    3.3350    2.5120 C.3       1 GLC         0.1341
     25 C3        134.9830    4.7600    2.2250 C.3       1 GLC         0.1144
     26 C4        135.9720    5.2000    3.2950 C.3       1 GLC         0.1184
     27 C5        137.1380    4.2200    3.4230 C.3       1 GLC         0.1134
     28 C6        138.1150    4.5980    4.5330 C.3       1 GLC         0.0730
     29 O2        133.6590    2.8750    1.4900 O.3       1 GLC        -0.3841
     30 O3        133.8380    5.6230    2.2150 O.3       1 GLC        -0.3864
     31 O4        136.4600    6.4770    2.9080 O.3       1 GLC        -0.3401
     32 O5        136.6250    2.9090    3.6760 O.3       1 GLC        -0.3405
     33 O6        137.4680    4.5570    5.8080 O.3       1 GLC        -0.3924
     34 C1        137.8180   -0.6460   -1.1080 C.3       1 SGD         0.1884
     35 O5        138.5550   -0.3220    0.0760 O.3       1 SGD        -0.3420
     36 C2        136.3230   -0.5850   -0.8100 C.3       1 SGD         0.1341
     37 O2        135.5890   -0.8090   -2.0200 O.3       1 SGD        -0.3841
     38 C3        135.9490    0.7680   -0.2140 C.3       1 SGD         0.1144
     39 O3        134.5780    0.7670    0.2110 O.3       1 SGD        -0.3864
     40 C4        136.8580    1.1060    0.9640 C.3       1 SGD         0.1170
     41 O4        136.5320    2.4180    1.4120 O.3       1 SGD        -0.3402
     42 C5        138.3250    1.0040    0.5500 C.3       1 SGD         0.0995
     43 C6        139.3220    1.3060    1.6690 C.3       1 SGD         0.0251
     44 S1        140.9500    1.4020    0.9890 S.3       1 SGD        -0.1245
     45 C1        140.2090    0.7460   -5.6530 C.3       1 GLC         0.1884
     46 C2        138.7400    0.3660   -5.8060 C.3       1 GLC         0.1341
     47 C3        137.9930    0.5450   -4.4900 C.3       1 GLC         0.1144
     48 C4        138.6970   -0.1830   -3.3470 C.3       1 GLC         0.1184
     49 C5        140.2050    0.0940   -3.3340 C.3       1 GLC         0.1134
     50 C6        140.9550   -0.8280   -2.3750 C.3       1 GLC         0.0730
     51 O2        138.1490    1.1800   -6.8200 O.3       1 GLC        -0.3841
     52 O3        136.6470    0.0610   -4.6200 O.3       1 GLC        -0.3864
     53 O4        138.1160    0.3010   -2.1360 O.3       1 GLC        -0.3401
     54 O5        140.7740   -0.0820   -4.6360 O.3       1 GLC        -0.3405
     55 O6        142.2580   -0.2910   -2.1100 O.3       1 GLC        -0.3924
     56 C1        142.3590    5.6470   -6.3420 C.3       1 GLC         0.1884
     57 C2        141.3630    5.0970   -7.3600 C.3       1 GLC         0.1341
     58 C3        140.4450    4.0600   -6.7150 C.3       1 GLC         0.1144
     59 C4        141.2380    2.9250   -6.0870 C.3       1 GLC         0.1184
     60 C5        142.3670    3.4680   -5.2100 C.3       1 GLC         0.1134
     61 C6        143.3620    2.3590   -4.8930 C.3       1 GLC         0.0730
     62 O2        140.5980    6.1700   -7.9230 O.3       1 GLC        -0.3841
     63 O3        139.5440    3.5150   -7.6840 O.3       1 GLC        -0.3864
     64 O4        140.3320    2.1310   -5.3040 O.3       1 GLC        -0.3401
     65 O5        143.1020    4.5340   -5.8310 O.3       1 GLC        -0.3405
     66 O6        144.1510    2.7210   -3.7550 O.3       1 GLC        -0.3924
     67 C1        142.2890    9.9180   -3.0170 C.3       1 GLC         0.1884
     68 C2        141.8040   10.0960   -4.4560 C.3       1 GLC         0.1341
     69 C3        141.2980    8.7840   -5.0520 C.3       1 GLC         0.1144
     70 C4        142.2990    7.6380   -4.8870 C.3       1 GLC         0.1184
     71 C5        142.7340    7.5650   -3.4220 C.3       1 GLC         0.1134
     72 C6        143.8330    6.5290   -3.2110 C.3       1 GLC         0.0730
     73 O2        140.7470   11.0610   -4.4830 O.3       1 GLC        -0.3841
     74 O3        140.9890    8.9680   -6.4400 O.3       1 GLC        -0.3864
     75 O4        141.7020    6.3880   -5.2940 O.3       1 GLC        -0.3401
     76 O5        143.2210    8.8320   -2.9590 O.3       1 GLC        -0.3405
     77 O6        144.1790    6.4670   -1.8210 O.3       1 GLC        -0.3924
     78 C1        141.0120    2.9980    0.2090 C.3       1 GLC         0.1331
     79 C2        142.2470    3.2110   -0.6680 C.3       1 GLC         0.1189
     80 C3        143.5170    3.3860    0.1600 C.3       1 GLC         0.1129
     81 C4        143.3170    4.4520    1.2300 C.3       1 GLC         0.1183
     82 C5        142.0800    4.1230    2.0620 C.3       1 GLC         0.1118
     83 C6        141.7880    5.1610    3.1400 C.3       1 GLC         0.0730
     84 O2        142.3900    2.1230   -1.5870 O.3       1 GLC        -0.3857
     85 O3        144.5990    3.7620   -0.7010 O.3       1 GLC        -0.3864
     86 O4        144.4750    4.5030    2.0680 O.3       1 GLC        -0.3401
     87 O5        140.9380    4.0270    1.2050 O.3       1 GLC        -0.3553
     88 O6        141.7510    6.4810    2.5860 O.3       1 GLC        -0.3924
     89 C1        145.3450    5.6150    1.8280 C.3       1 GLC         0.1884
     90 C2        146.7880    5.1620    2.0220 C.3       1 GLC         0.1341
     91 C3        147.0500    4.8310    3.4850 C.3       1 GLC         0.1141
     92 C4        146.6840    6.0250    4.3540 C.3       1 GLC         0.1119
     93 C5        145.2320    6.4160    4.1070 C.3       1 GLC         0.1130
     94 C6        144.8390    7.6310    4.9390 C.3       1 GLC         0.0730
     95 O2        147.0390    4.0140    1.2060 O.3       1 GLC        -0.3841
     96 O3        148.4240    4.4920    3.6840 O.3       1 GLC        -0.3864
     97 O4        146.8780    5.6980    5.7340 O.3       1 GLC        -0.3865
     98 O5        145.0310    6.6980    2.7160 O.3       1 GLC        -0.3405
     99 O6        143.5070    8.0480    4.6200 O.3       1 GLC        -0.3924
    100 H1        139.1765   11.4519    2.3020 H         1 GLC         0.0938
    101 H2        139.6522   12.7221    0.2586 H         1 GLC         0.0671
    102 H3        138.8929   10.1946   -1.2653 H         1 GLC         0.0648
    103 H4        141.6504   11.4686   -1.1993 H         1 GLC         0.0651
    104 H5        140.9211    8.9070    0.2555 H         1 GLC         0.0647
    105 H6        143.1090    9.9638    1.5158 H         1 GLC         0.0584
    106 H7        143.3595   10.5887   -0.1496 H         1 GLC         0.0584
    107 H8        137.2356   11.2034    0.0559 H         1 GLC         0.2101
    108 H9        139.5890   11.5437   -3.0139 H         1 GLC         0.2100
    109 H10       143.1180    8.3943   -0.8775 H         1 GLC         0.2095
    110 H11       135.5917    7.1887    4.6578 H         1 GLC         0.0938
    111 H12       135.3745    9.5123    3.7925 H         1 GLC         0.0671
    112 H13       136.4783    8.3702    1.1846 H         1 GLC         0.0648
    113 H14       137.7852   10.3913    3.0546 H         1 GLC         0.0651
    114 H15       138.5577    7.4688    2.6653 H         1 GLC         0.0647
    115 H16       140.4907    8.8588    3.1624 H         1 GLC         0.0584
    116 H17       140.0542    7.9055    4.6210 H         1 GLC         0.0584
    117 H18       133.8401    8.9657    2.1460 H         1 GLC         0.2101
    118 H19       135.7928   11.0148    2.0381 H         1 GLC         0.2100
    119 H20       138.9538    9.8068    5.3838 H         1 GLC         0.2095
    120 H21       135.4483    1.4146    2.8557 H         1 GLC         0.0938
    121 H22       134.0122    3.3154    3.4725 H         1 GLC         0.0671
    122 H23       135.4723    4.8009    1.2407 H         1 GLC         0.0648
    123 H24       135.4573    5.2730    4.2644 H         1 GLC         0.0651
    124 H25       137.6867    4.2118    2.4697 H         1 GLC         0.0647
    125 H26       138.4924    5.6152    4.3516 H         1 GLC         0.0584
    126 H27       138.9561    3.8891    4.5314 H         1 GLC         0.0584
    127 H28       134.1024    2.9024    0.6503 H         1 GLC         0.2101
    128 H29       134.1153    6.5131    2.0327 H         1 GLC         0.2100
    129 H30       138.0902    4.7947    6.4854 H         1 GLC         0.2095
    130 H31       138.0893   -1.6573   -1.4450 H         1 GLC         0.0938
    131 H32       136.0707   -1.3734   -0.0856 H         1 GLC         0.0671
    132 H33       135.8148   -0.1391   -2.6546 H         1 GLC         0.2101
    133 H34       136.0768    1.5384   -0.9887 H         1 GLC         0.0648
    134 H35       134.3612    1.6155    0.5793 H         1 GLC         0.2100
    135 H36       136.6740    0.3923    1.7805 H         1 GLC         0.0650
    136 H37       138.5024    1.7194   -0.2665 H         1 GLC         0.0632
    137 H38       139.2845    0.5042    2.4211 H         1 GLC         0.0403
    138 H39       139.0642    2.2650    2.1422 H         1 GLC         0.0403
    139 H40       140.7347    0.5690   -6.6029 H         1 GLC         0.0938
    140 H41       138.6743   -0.6895   -6.1087 H         1 GLC         0.0671
    141 H42       137.9609    1.6184   -4.2517 H         1 GLC         0.0648
    142 H43       138.5309   -1.2663   -3.4407 H         1 GLC         0.0651
    143 H44       140.3574    1.1356   -3.0149 H         1 GLC         0.0647
    144 H45       141.0556   -1.8248   -2.8293 H         1 GLC         0.0584
    145 H46       140.3943   -0.9096   -1.4322 H         1 GLC         0.0584
    146 H47       138.1924    2.0921   -6.5576 H         1 GLC         0.2101
    147 H48       136.1758    0.2174   -3.8100 H         1 GLC         0.2100
    148 H49       142.1707    0.5696   -1.7174 H         1 GLC         0.2095
    149 H50       143.0517    6.3299   -6.8556 H         1 GLC         0.0938
    150 H51       141.9250    4.6068   -8.1686 H         1 GLC         0.0671
    151 H52       139.8606    4.5582   -5.9274 H         1 GLC         0.0648
    152 H53       141.6746    2.3031   -6.8824 H         1 GLC         0.0651
    153 H54       141.9258    3.8412   -4.2740 H         1 GLC         0.0647
    154 H55       144.0219    2.2028   -5.7591 H         1 GLC         0.0584
    155 H56       142.8150    1.4295   -4.6764 H         1 GLC         0.0584
    156 H57       140.0104    5.8251   -8.5851 H         1 GLC         0.2101
    157 H58       140.0394    3.0593   -8.3544 H         1 GLC         0.2100
    158 H59       144.6247    3.5231   -3.9417 H         1 GLC         0.2095
    159 H60       142.7957   10.8403   -2.6967 H         1 GLC         0.0938
    160 H61       142.6426   10.4607   -5.0673 H         1 GLC         0.0671
    161 H62       140.3745    8.5054   -4.5233 H         1 GLC         0.0648
    162 H63       143.1796    7.8341   -5.5163 H         1 GLC         0.0651
    163 H64       141.8591    7.2797   -2.8195 H         1 GLC         0.0647
    164 H65       144.7201    6.8128   -3.7962 H         1 GLC         0.0584
    165 H66       143.4748    5.5433   -3.5428 H         1 GLC         0.0584
    166 H67       140.0131   10.7395   -3.9726 H         1 GLC         0.2101
    167 H68       140.6107    8.1689   -6.7877 H         1 GLC         0.2100
    168 H69       144.4889    7.3182   -1.5347 H         1 GLC         0.2095
    169 H70       140.1281    3.0827   -0.4403 H         1 GLC         0.0740
    170 H71       142.0946    4.1329   -1.2483 H         1 GLC         0.0655
    171 H72       143.7598    2.4310    0.6489 H         1 GLC         0.0647
    172 H73       143.1765    5.4301    0.7468 H         1 GLC         0.0651
    173 H74       142.2449    3.1519    2.5517 H         1 GLC         0.0646
    174 H75       142.5756    5.1148    3.9065 H         1 GLC         0.0584
    175 H76       140.8145    4.9370    3.6006 H         1 GLC         0.0584
    176 H77       142.5559    1.3218   -1.1042 H         1 GLC         0.2100
    177 H78       144.3976    4.5921   -1.1168 H         1 GLC         0.2100
    178 H79       142.5911    6.6807    2.1901 H         1 GLC         0.2095
    179 H80       145.2126    5.9583    0.7914 H         1 GLC         0.0938
    180 H81       147.4626    5.9750    1.7154 H         1 GLC         0.0671
    181 H82       146.4260    3.9722    3.7733 H         1 GLC         0.0648
    182 H83       147.3334    6.8733    4.0920 H         1 GLC         0.0647
    183 H84       144.5888    5.5713    4.3946 H         1 GLC         0.0647
    184 H85       145.5365    8.4550    4.7281 H         1 GLC         0.0584
    185 H86       144.8909    7.3708    6.0065 H         1 GLC         0.0584
    186 H87       146.4657    3.3053    1.4735 H         1 GLC         0.2101
    187 H88       148.6471    3.7463    3.1394 H         1 GLC         0.2100
    188 H89       147.7855    5.4561    5.8764 H         1 GLC         0.2100
    189 H90       143.4597    8.2758    3.6989 H         1 GLC         0.2095
@<TRIPOS>BOND
     1    1    2 1  
     2    1   10 1  
     3   20    1 1  
     4    2    3 1  
     5    2    7 1  
     6    3    4 1  
     7    3    8 1  
     8    5    4 1  
     9    4    9 1  
    10    5    6 1  
    11   10    5 1  
    12    6   11 1  
    13    9   67 1  
    14   12   13 1  
    15   12   21 1  
    16   31   12 1  
    17   13   14 1  
    18   13   18 1  
    19   14   15 1  
    20   14   19 1  
    21   16   15 1  
    22   15   20 1  
    23   16   17 1  
    24   21   16 1  
    25   17   22 1  
    26   23   24 1  
    27   23   32 1  
    28   41   23 1  
    29   24   25 1  
    30   24   29 1  
    31   25   26 1  
    32   25   30 1  
    33   27   26 1  
    34   26   31 1  
    35   27   28 1  
    36   32   27 1  
    37   28   33 1  
    38   34   35 1  
    39   34   36 1  
    40   53   34 1  
    41   35   42 1  
    42   36   37 1  
    43   36   38 1  
    44   38   39 1  
    45   38   40 1  
    46   40   41 1  
    47   42   40 1  
    48   42   43 1  
    49   43   44 1  
    50   44   78 1  
    51   45   46 1  
    52   45   54 1  
    53   64   45 1  
    54   46   47 1  
    55   46   51 1  
    56   47   48 1  
    57   47   52 1  
    58   49   48 1  
    59   48   53 1  
    60   49   50 1  
    61   54   49 1  
    62   50   55 1  
    63   57   56 1  
    64   56   65 1  
    65   56   75 1  
    66   58   57 1  
    67   57   62 1  
    68   59   58 1  
    69   58   63 1  
    70   59   60 1  
    71   59   64 1  
    72   60   61 1  
    73   60   65 1  
    74   61   66 1  
    75   67   68 1  
    76   67   76 1  
    77   68   69 1  
    78   68   73 1  
    79   69   70 1  
    80   69   74 1  
    81   70   71 1  
    82   70   75 1  
    83   71   72 1  
    84   71   76 1  
    85   72   77 1  
    86   78   79 1  
    87   78   87 1  
    88   79   80 1  
    89   79   84 1  
    90   80   81 1  
    91   80   85 1  
    92   81   82 1  
    93   81   86 1  
    94   82   83 1  
    95   82   87 1  
    96   83   88 1  
    97   86   89 1  
    98   89   90 1  
    99   89   98 1  
   100   90   91 1  
   101   90   95 1  
   102   91   92 1  
   103   91   96 1  
   104   92   93 1  
   105   92   97 1  
   106   93   94 1  
   107   93   98 1  
   108   94   99 1  
   109    1  100 1  
   110    2  101 1  
   111    3  102 1  
   112    4  103 1  
   113    5  104 1  
   114    6  105 1  
   115    6  106 1  
   116    7  107 1  
   117    8  108 1  
   118   11  109 1  
   119   12  110 1  
   120   13  111 1  
   121   14  112 1  
   122   15  113 1  
   123   16  114 1  
   124   17  115 1  
   125   17  116 1  
   126   18  117 1  
   127   19  118 1  
   128   22  119 1  
   129   23  120 1  
   130   24  121 1  
   131   25  122 1  
   132   26  123 1  
   133   27  124 1  
   134   28  125 1  
   135   28  126 1  
   136   29  127 1  
   137   30  128 1  
   138   33  129 1  
   139   34  130 1  
   140   36  131 1  
   141   37  132 1  
   142   38  133 1  
   143   39  134 1  
   144   40  135 1  
   145   42  136 1  
   146   43  137 1  
   147   43  138 1  
   148   45  139 1  
   149   46  140 1  
   150   47  141 1  
   151   48  142 1  
   152   49  143 1  
   153   50  144 1  
   154   50  145 1  
   155   51  146 1  
   156   52  147 1  
   157   55  148 1  
   158   56  149 1  
   159   57  150 1  
   160   58  151 1  
   161   59  152 1  
   162   60  153 1  
   163   61  154 1  
   164   61  155 1  
   165   62  156 1  
   166   63  157 1  
   167   66  158 1  
   168   67  159 1  
   169   68  160 1  
   170   69  161 1  
   171   70  162 1  
   172   71  163 1  
   173   72  164 1  
   174   72  165 1  
   175   73  166 1  
   176   74  167 1  
   177   77  168 1  
   178   78  169 1  
   179   79  170 1  
   180   80  171 1  
   181   81  172 1  
   182   82  173 1  
   183   83  174 1  
   184   83  175 1  
   185   84  176 1  
   186   85  177 1  
   187   88  178 1  
   188   89  179 1  
   189   90  180 1  
   190   91  181 1  
   191   92  182 1  
   192   93  183 1  
   193   94  184 1  
   194   94  185 1  
   195   95  186 1  
   196   96  187 1  
   197   97  188 1  
   198   99  189 1  
@<TRIPOS>SUBSTRUCTURE
     1 GLC         1

