6eyb_ligand
  -I-interpret- 

 45 49  0  0  0  0  0  0  0  0999 V2000
   65.1030   33.1410   25.6100 C   0  0  0  0  0
   65.1050   33.8540   24.4180 C   0  0  0  0  0
   66.3170   34.2320   23.7890 C   0  0  0  0  0
   65.9630   35.9030   20.5420 C   0  0  0  0  0
   67.7310   36.9690   23.4400 C   0  0  0  0  0
   69.0900   37.1780   23.1490 C   0  0  0  0  0
   69.9280   37.7650   24.1040 C   0  0  0  0  0
   69.4170   38.1250   25.3540 C   0  0  0  0  0
   68.0660   37.9070   25.6490 C   0  0  0  0  0
   67.2200   37.3400   24.6980 C   0  0  0  0  0
   68.6440   32.5660   26.3210 C   0  0  0  0  0
   70.1180   32.7520   26.0280 C   0  0  0  0  0
   70.7860   30.4410   25.2230 C   0  0  0  0  0
   71.4180   29.6040   24.2990 C   0  0  0  0  0
   67.5400   33.8320   24.3200 C   0  0  0  0  0
   66.3190   35.0920   22.5820 C   0  0  0  0  0
   65.7020   34.8290   21.3940 C   0  0  0  0  0
   66.7020   36.7810   21.1690 N   0  0  0  0  0
   66.9190   36.3270   22.4730 N   0  0  0  0  0
   63.9330   34.2390   23.8710 O   0  0  0  0  0
   66.3480   32.7530   26.1600 C   0  0  0  0  0
   67.5620   33.1020   25.5110 C   0  0  0  0  0
   68.1080   32.0480   27.4080 N   0  0  0  0  0
   66.7200   32.0960   27.3130 N   0  0  0  0  0
   70.7190   31.8160   24.9990 C   0  0  0  0  0
   72.0010   30.1350   23.1500 C   0  0  0  0  0
   71.9580   31.5150   22.9310 C   0  0  0  0  0
   71.3280   32.3490   23.8600 C   0  0  0  0  0
   64.1675   32.8871   26.1085 H   0  0  0  0  0
   65.6071   35.9954   19.5159 H   0  0  0  0  0
   69.4914   36.8829   22.1795 H   0  0  0  0  0
   70.9786   37.9413   23.8730 H   0  0  0  0  0
   70.0712   38.5761   26.1001 H   0  0  0  0  0
   67.6737   38.1823   26.6280 H   0  0  0  0  0
   66.1659   37.1843   24.9275 H   0  0  0  0  0
   70.6416   32.5530   26.9630 H   0  0  0  0  0
   70.2230   33.7582   25.6223 H   0  0  0  0  0
   70.3429   30.0166   26.1239 H   0  0  0  0  0
   71.4551   28.5295   24.4782 H   0  0  0  0  0
   68.4705   34.0856   23.8121 H   0  0  0  0  0
   65.1136   33.9433   21.1544 H   0  0  0  0  0
   64.1033   34.7178   23.0566 H   0  0  0  0  0
   72.4869   29.4792   22.4275 H   0  0  0  0  0
   72.4149   31.9403   22.0374 H   0  0  0  0  0
   71.3119   33.4261   23.6938 H   0  0  0  0  0
  2  1  4  0  0  0
  1 21  4  0  0  0
  3  2  4  0  0  0
  2 20  1  0  0  0
  3 15  4  0  0  0
 16  3  1  0  0  0
 17  4  4  0  0  0
  4 18  4  0  0  0
  5  6  4  0  0  0
  5 10  4  0  0  0
 19  5  1  0  0  0
  6  7  4  0  0  0
  7  8  4  0  0  0
  9  8  4  0  0  0
 10  9  4  0  0  0
 11 12  1  0  0  0
 22 11  4  0  0  0
 11 23  4  0  0  0
 12 25  1  0  0  0
 13 14  4  0  0  0
 25 13  4  0  0  0
 14 26  4  0  0  0
 15 22  4  0  0  0
 16 17  4  0  0  0
 16 19  4  0  0  0
 18 19  4  0  0  0
 21 22  4  0  0  0
 21 24  4  0  0  0
 23 24  4  0  0  0
 25 28  4  0  0  0
 26 27  4  0  0  0
 27 28  4  0  0  0
  1 29  1  0  0  0
  4 30  1  0  0  0
  6 31  1  0  0  0
  7 32  1  0  0  0
  8 33  1  0  0  0
  9 34  1  0  0  0
 10 35  1  0  0  0
 12 36  1  0  0  0
 12 37  1  0  0  0
 13 38  1  0  0  0
 14 39  1  0  0  0
 15 40  1  0  0  0
 17 41  1  0  0  0
 20 42  1  0  0  0
 26 43  1  0  0  0
 27 44  1  0  0  0
 28 45  1  0  0  0
M  END
$$$$
