6qfg_ligand
  -I-interpret- 

 51 54  0  0  0  0  0  0  0  0999 V2000
  -20.8970   -0.1940  -19.0640 C   0  0  0  0  0
  -18.7610   -0.1260  -18.8100 C   0  0  0  0  0
  -18.6210   -1.1950  -16.4630 C   0  0  0  0  0
  -16.6040   -1.8510  -15.2940 C   0  0  0  0  0
  -19.3460   -1.4340  -15.2970 C   0  0  0  0  0
  -22.3470    2.4110  -21.1150 C   0  0  0  0  0
  -22.4800    3.6020  -21.8240 C   0  0  0  0  0
  -22.4600    4.9240  -19.7700 C   0  0  0  0  0
  -23.4690    3.5990  -17.8750 C   0  0  0  0  0
  -25.7790    3.0530  -17.9220 C   0  0  0  0  0
  -23.2540    5.8710  -23.6640 N   0  0  0  0  0
  -22.5440    4.8110  -24.0810 C   0  0  0  0  0
  -21.9690    4.8720  -25.2440 N   0  0  0  0  0
  -22.4390    3.6140  -23.2340 C   0  0  0  0  0
  -22.3490    2.3790  -23.8900 C   0  0  0  0  0
  -22.2350    1.1920  -23.1860 C   0  0  0  0  0
  -22.2780    1.1920  -21.7980 C   0  0  0  0  0
  -22.2050   -0.0050  -21.1060 N   0  0  0  0  0
  -22.2650   -0.1070  -19.6590 C   0  0  0  0  0
  -20.6520   -0.7380  -17.8520 N   0  0  0  0  0
  -19.2920   -0.6980  -17.6780 C   0  0  0  0  0
  -19.7600    0.1650  -19.6920 N   0  0  0  0  0
  -17.2350   -1.3830  -16.4410 C   0  0  0  0  0
  -17.3350   -2.0960  -14.1490 C   0  0  0  0  0
  -18.7050   -1.8940  -14.1510 C   0  0  0  0  0
  -22.6100    4.8290  -21.2010 O   0  0  0  0  0
  -23.6310    4.3010  -19.0640 C   0  0  0  0  0
  -24.5560    2.9750  -17.2860 C   0  0  0  0  0
  -25.9680    3.7130  -19.0750 N   0  0  0  0  0
  -24.9000    4.3150  -19.6160 C   0  0  0  0  0
  -17.7012    0.0660  -18.9774 H   0  0  0  0  0
  -15.5280   -2.0251  -15.2989 H   0  0  0  0  0
  -20.4218   -1.2595  -15.2828 H   0  0  0  0  0
  -22.2966    2.4285  -20.0263 H   0  0  0  0  0
  -22.4041    5.9768  -19.4931 H   0  0  0  0  0
  -21.5530    4.3950  -19.4773 H   0  0  0  0  0
  -22.4866    3.5398  -17.4065 H   0  0  0  0  0
  -26.6333    2.5537  -17.4649 H   0  0  0  0  0
  -23.3317    6.6978  -24.2563 H   0  0  0  0  0
  -23.7158    5.8498  -22.7548 H   0  0  0  0  0
  -22.0630    5.7112  -25.8160 H   0  0  0  0  0
  -22.3692    2.3521  -24.9795 H   0  0  0  0  0
  -22.1108    0.2524  -23.7244 H   0  0  0  0  0
  -22.1031   -0.8654  -21.6442 H   0  0  0  0  0
  -22.7574    0.7835  -19.2684 H   0  0  0  0  0
  -22.8155   -1.0106  -19.3973 H   0  0  0  0  0
  -16.6451   -1.1608  -17.3302 H   0  0  0  0  0
  -16.8355   -2.4473  -13.2462 H   0  0  0  0  0
  -19.2842   -2.0964  -13.2501 H   0  0  0  0  0
  -24.4488    2.4362  -16.3446 H   0  0  0  0  0
  -25.0402    4.8519  -20.5541 H   0  0  0  0  0
 19  1  1  0  0  0
  1 20  4  0  0  0
  1 22  4  0  0  0
  2 21  4  0  0  0
 22  2  4  0  0  0
  3  5  4  0  0  0
 21  3  1  0  0  0
  3 23  4  0  0  0
 23  4  4  0  0  0
  4 24  4  0  0  0
  5 25  4  0  0  0
  6  7  4  0  0  0
 17  6  4  0  0  0
  7 14  4  0  0  0
  7 26  1  0  0  0
 26  8  1  0  0  0
  8 27  1  0  0  0
 27  9  4  0  0  0
  9 28  4  0  0  0
 28 10  4  0  0  0
 10 29  4  0  0  0
 12 11  1  0  0  0
 12 13  2  0  0  0
 14 12  1  0  0  0
 15 14  4  0  0  0
 16 15  4  0  0  0
 17 16  4  0  0  0
 18 17  1  0  0  0
 18 19  1  0  0  0
 20 21  4  0  0  0
 24 25  4  0  0  0
 27 30  4  0  0  0
 29 30  4  0  0  0
  2 31  1  0  0  0
  4 32  1  0  0  0
  5 33  1  0  0  0
  6 34  1  0  0  0
  8 35  1  0  0  0
  8 36  1  0  0  0
  9 37  1  0  0  0
 10 38  1  0  0  0
 11 39  1  0  0  0
 11 40  1  0  0  0
 13 41  1  0  0  0
 15 42  1  0  0  0
 16 43  1  0  0  0
 18 44  1  0  0  0
 19 45  1  0  0  0
 19 46  1  0  0  0
 23 47  1  0  0  0
 24 48  1  0  0  0
 25 49  1  0  0  0
 28 50  1  0  0  0
 30 51  1  0  0  0
M  END
$$$$
