4dbm_ligand
  -I-interpret- 

 55 59  0  0  0  0  0  0  0  0999 V2000
  -25.2160   22.1490   -9.3570 C   0  0  0  0  0
  -25.4770   22.4260   -6.8170 C   0  0  0  0  0
  -25.9870   24.7180   -5.8880 C   0  0  0  0  0
  -26.6730   22.8920   -4.6530 C   0  0  0  0  0
  -26.4060   21.8900   -5.7140 C   0  0  0  0  0
  -27.5150   25.0130   -4.1410 C   0  0  0  0  0
  -21.8110   24.6070  -13.0760 C   0  0  0  0  0
  -21.6390   25.7430  -13.4920 O   0  0  0  0  0
  -20.6640   23.7910  -12.7260 N   0  0  0  0  0
  -19.3580   24.3280  -12.8780 C   0  0  0  0  0
  -23.2130   24.0450  -12.9240 C   0  0  0  0  0
  -23.4360   22.6870  -12.4240 C   0  0  0  0  0
  -22.2450   21.8520  -12.0680 C   0  0  0  0  0
  -22.3810   20.4330  -11.5460 C   0  0  0  0  0
  -21.1740   19.6180  -11.1940 C   0  0  0  0  0
  -19.8030   20.1840  -11.3530 C   0  0  0  0  0
  -19.6680   21.6170  -11.8740 C   0  0  0  0  0
  -20.8640   22.4270  -12.2260 C   0  0  0  0  0
  -24.7740   22.2750  -12.3150 O   0  0  0  0  0
  -25.2380   21.0230  -11.8350 C   0  0  0  0  0
  -25.4630   21.0270  -10.3240 C   0  0  0  0  0
  -25.9450   19.9420   -9.5310 N   0  0  0  0  0
  -26.0040   20.3620   -8.2070 N   0  0  0  0  0
  -25.5940   21.6070   -8.0490 N   0  0  0  0  0
  -25.4610   23.3810   -4.0960 C   0  0  0  0  0
  -24.9980   24.4210   -4.8840 C   0  0  0  0  0
  -27.0500   24.1220   -5.2050 N   0  3  0  0  0
  -28.2540   24.0040   -6.0230 C   0  0  0  0  0
  -25.6410   23.9730   -7.1010 C   0  0  0  0  0
  -24.8385   23.1471   -9.5791 H   0  0  0  0  0
  -24.4599   22.3251   -6.4383 H   0  0  0  0  0
  -26.1332   25.7486   -6.2113 H   0  0  0  0  0
  -27.3772   22.3873   -3.9916 H   0  0  0  0  0
  -25.9156   21.0342   -5.2502 H   0  0  0  0  0
  -27.3584   21.6299   -6.1759 H   0  0  0  0  0
  -27.8383   25.9587   -4.5761 H   0  0  0  0  0
  -28.3507   24.5475   -3.6184 H   0  0  0  0  0
  -26.7012   25.1940   -3.4389 H   0  0  0  0  0
  -19.1946   24.5924  -13.9227 H   0  0  0  0  0
  -19.2579   25.2180  -12.2567 H   0  0  0  0  0
  -18.6227   23.5843  -12.5708 H   0  0  0  0  0
  -24.0694   24.6638  -13.1920 H   0  0  0  0  0
  -23.3738   19.9996  -11.4252 H   0  0  0  0  0
  -21.2988   18.6024  -10.8184 H   0  0  0  0  0
  -18.9212   19.5932  -11.1049 H   0  0  0  0  0
  -18.6753   22.0522  -11.9892 H   0  0  0  0  0
  -24.4805   20.2727  -12.0616 H   0  0  0  0  0
  -26.1914   20.8086  -12.3178 H   0  0  0  0  0
  -24.9759   23.0004   -3.1971 H   0  0  0  0  0
  -24.0422   24.9311   -4.7642 H   0  0  0  0  0
  -29.0592   23.5800   -5.4230 H   0  0  0  0  0
  -28.5468   24.9911   -6.3808 H   0  0  0  0  0
  -28.0515   23.3532   -6.8736 H   0  0  0  0  0
  -26.4463   24.1041   -7.8237 H   0  0  0  0  0
  -24.6913   24.3539   -7.4765 H   0  0  0  0  0
 21  1  4  0  0  0
  1 24  4  0  0  0
  2  5  1  0  0  0
 24  2  1  0  0  0
  2 29  1  0  0  0
  3 26  1  0  0  0
  3 27  1  0  0  0
 29  3  1  0  0  0
  5  4  1  0  0  0
  4 25  1  0  0  0
  4 27  1  0  0  0
 27  6  1  0  0  0
  7  8  2  0  0  0
  7  9  1  0  0  0
 11  7  1  0  0  0
  9 10  1  0  0  0
 18  9  1  0  0  0
 12 11  2  0  0  0
 12 13  1  0  0  0
 19 12  1  0  0  0
 13 14  4  0  0  0
 13 18  4  0  0  0
 14 15  4  0  0  0
 15 16  4  0  0  0
 17 16  4  0  0  0
 18 17  4  0  0  0
 20 19  1  0  0  0
 20 21  1  0  0  0
 21 22  4  0  0  0
 22 23  4  0  0  0
 23 24  4  0  0  0
 25 26  2  0  0  0
 27 28  1  0  0  0
  1 30  1  0  0  0
  2 31  1  0  0  0
  3 32  1  0  0  0
  4 33  1  0  0  0
  5 34  1  0  0  0
  5 35  1  0  0  0
  6 36  1  0  0  0
  6 37  1  0  0  0
  6 38  1  0  0  0
 10 39  1  0  0  0
 10 40  1  0  0  0
 10 41  1  0  0  0
 11 42  1  0  0  0
 14 43  1  0  0  0
 15 44  1  0  0  0
 16 45  1  0  0  0
 17 46  1  0  0  0
 20 47  1  0  0  0
 20 48  1  0  0  0
 25 49  1  0  0  0
 26 50  1  0  0  0
 28 51  1  0  0  0
 28 52  1  0  0  0
 28 53  1  0  0  0
 29 54  1  0  0  0
 29 55  1  0  0  0
M  END
$$$$
