4ciy_ligand
  -I-interpret- 

 39 40  0  0  0  0  0  0  0  0999 V2000
  -14.5000  -29.1070    6.1440 C   0  0  0  0  0
  -13.3280  -29.0810    5.3750 C   0  0  0  0  0
  -12.0740  -29.4420    5.9110 C   0  0  0  0  0
  -11.9710  -29.8360    7.2380 C   0  0  0  0  0
  -13.1350  -29.8490    8.0090 C   0  0  0  0  0
  -14.4070  -29.4790    7.4970 C   0  0  0  0  0
  -15.5620  -29.5990    8.3410 C   0  0  0  0  0
  -16.4140  -28.3980    8.5720 C   0  0  0  0  0
  -16.0610  -27.4550    7.5760 O   0  0  0  0  0
  -17.8130  -28.7660    8.5890 C   0  0  0  0  0
  -18.5620  -28.7700    7.4080 C   0  0  0  0  0
  -19.9860  -29.0670    7.3350 C   0  0  0  0  0
  -20.2390  -29.9020    6.1590 C   0  0  0  0  0
  -20.4800  -31.1360    6.2530 O   0  0  0  0  0
  -20.2460  -29.3470    5.0550 O   0  0  0  0  0
  -20.7180  -27.7990    7.1930 O   0  0  0  0  0
  -20.5480  -29.7220    8.6140 C   0  0  0  0  0
  -19.9850  -29.0330    9.8330 C   0  0  0  0  0
  -20.4090  -29.7140   11.0880 O   0  0  0  0  0
  -18.4290  -29.0510    9.8450 C   0  0  0  0  0
  -18.1240  -28.0470   10.8290 O   0  0  0  0  0
  -15.4617  -28.8448    5.7030 H   0  0  0  0  0
  -13.3875  -28.7725    4.3313 H   0  0  0  0  0
  -11.1843  -29.4115    5.2820 H   0  0  0  0  0
  -11.0110  -30.1263    7.6650 H   0  0  0  0  0
  -13.0642  -30.1574    9.0521 H   0  0  0  0  0
  -15.1669  -29.8570    9.3236 H   0  0  0  0  0
  -16.2110  -30.3104    7.8303 H   0  0  0  0  0
  -16.2454  -27.9433    9.5482 H   0  0  0  0  0
  -16.5886  -26.6608    7.6875 H   0  0  0  0  0
  -18.0444  -28.5346    6.4781 H   0  0  0  0  0
  -20.4337  -31.4006    7.1746 H   0  0  0  0  0
  -21.6598  -27.9783    7.1435 H   0  0  0  0  0
  -20.2656  -30.7746    8.6331 H   0  0  0  0  0
  -21.6341  -29.6297    8.6180 H   0  0  0  0  0
  -20.3627  -28.0116    9.7860 H   0  0  0  0  0
  -20.0356  -29.2530   11.8428 H   0  0  0  0  0
  -18.0395  -30.0445   10.0673 H   0  0  0  0  0
  -18.5538  -28.2716   11.6575 H   0  0  0  0  0
  1  2  4  0  0  0
  1  6  4  0  0  0
  2  3  4  0  0  0
  3  4  4  0  0  0
  4  5  4  0  0  0
  5  6  4  0  0  0
  6  7  1  0  0  0
  7  8  1  0  0  0
  8  9  1  0  0  0
  8 10  1  0  0  0
 10 11  2  0  0  0
 10 20  1  0  0  0
 11 12  1  0  0  0
 12 13  1  0  0  0
 12 16  1  0  0  0
 12 17  1  0  0  0
 13 14  1  0  0  0
 13 15  2  0  0  0
 17 18  1  0  0  0
 18 19  1  0  0  0
 18 20  1  0  0  0
 20 21  1  0  0  0
  1 22  1  0  0  0
  2 23  1  0  0  0
  3 24  1  0  0  0
  4 25  1  0  0  0
  5 26  1  0  0  0
  7 27  1  0  0  0
  7 28  1  0  0  0
  8 29  1  0  0  0
  9 30  1  0  0  0
 11 31  1  0  0  0
 14 32  1  0  0  0
 16 33  1  0  0  0
 17 34  1  0  0  0
 17 35  1  0  0  0
 18 36  1  0  0  0
 19 37  1  0  0  0
 20 38  1  0  0  0
 21 39  1  0  0  0
M  END
$$$$
