4pks_ligand
  -I-interpret- 

 43 44  0  0  0  0  0  0  0  0999 V2000
   11.5560   18.9890   28.5850 O   0  0  0  0  0
   11.0780   18.4050   25.7920 C   0  0  0  0  0
    8.6940   18.7410   27.2980 C   0  0  0  0  0
    7.6010   18.1020   26.4700 C   0  0  0  0  0
    7.6850   17.9970   25.0880 C   0  0  0  0  0
    6.6360   17.3910   24.4060 C   0  0  0  0  0
    5.5420   16.9030   25.1130 C   0  0  0  0  0
    6.4860   17.5920   27.1270 C   0  0  0  0  0
    8.3930   21.9020   27.9020 C   0  0  0  0  0
    7.2910   21.5290   28.6630 C   0  0  0  0  0
    7.0850   22.0920   29.9160 C   0  0  0  0  0
   11.6020   19.8500   27.7210 C   0  0  0  0  0
   10.7800   19.7410   26.4610 C   0  0  0  0  0
   12.3790   20.9220   27.8430 N   0  0  0  0  0
   13.4380   20.8950   28.7460 O   0  0  0  0  0
    9.3450   19.9110   26.7110 N   0  0  0  0  0
    8.6200   21.2390   26.4660 S   0  0  0  0  0
    7.3530   21.0400   25.8160 O   0  0  0  0  0
    9.4340   22.1010   25.6520 O   0  0  0  0  0
    5.4900   17.0130   26.4460 N   0  0  0  0  0
    7.9760   23.0290   30.4060 C   0  0  0  0  0
    9.0800   23.4080   29.6490 C   0  0  0  0  0
    9.2870   22.8470   28.3930 C   0  0  0  0  0
    7.7670   23.5720   31.6180 F   0  0  0  0  0
    5.8920   21.6860   30.7410 C   0  0  0  0  0
   12.1387   18.3515   25.5467 H   0  0  0  0  0
   10.8198   17.5937   26.4726 H   0  0  0  0  0
   10.4879   18.3173   24.8797 H   0  0  0  0  0
    9.4709   17.9852   27.4133 H   0  0  0  0  0
    8.2192   19.0849   28.2169 H   0  0  0  0  0
    8.5525   18.3804   24.5508 H   0  0  0  0  0
    6.6707   17.2986   23.3205 H   0  0  0  0  0
    4.7206   16.4272   24.5773 H   0  0  0  0  0
    6.4226   17.6650   28.2127 H   0  0  0  0  0
    6.5868   20.7928   28.2754 H   0  0  0  0  0
   11.0610   20.5542   25.7918 H   0  0  0  0  0
   12.2011   21.7546   27.2813 H   0  0  0  0  0
   13.9014   21.7353   28.7192 H   0  0  0  0  0
    9.7824   24.1442   30.0399 H   0  0  0  0  0
   10.1477   23.1474   27.7954 H   0  0  0  0  0
    4.9779   21.9190   30.1949 H   0  0  0  0  0
    5.9359   20.6149   30.9383 H   0  0  0  0  0
    5.9019   22.2313   31.6847 H   0  0  0  0  0
 12  1  2  0  0  0
 13  2  1  0  0  0
  3  4  1  0  0  0
 16  3  1  0  0  0
  4  5  4  0  0  0
  4  8  4  0  0  0
  5  6  4  0  0  0
  6  7  4  0  0  0
 20  7  4  0  0  0
  8 20  4  0  0  0
  9 10  4  0  0  0
 17  9  1  0  0  0
  9 23  4  0  0  0
 10 11  4  0  0  0
 11 21  4  0  0  0
 11 25  1  0  0  0
 13 12  1  0  0  0
 12 14  1  0  0  0
 16 13  1  0  0  0
 14 15  1  0  0  0
 16 17  1  0  0  0
 17 18  2  0  0  0
 17 19  2  0  0  0
 21 22  4  0  0  0
 21 24  1  0  0  0
 22 23  4  0  0  0
  2 26  1  0  0  0
  2 27  1  0  0  0
  2 28  1  0  0  0
  3 29  1  0  0  0
  3 30  1  0  0  0
  5 31  1  0  0  0
  6 32  1  0  0  0
  7 33  1  0  0  0
  8 34  1  0  0  0
 10 35  1  0  0  0
 13 36  1  0  0  0
 14 37  1  0  0  0
 15 38  1  0  0  0
 22 39  1  0  0  0
 23 40  1  0  0  0
 25 41  1  0  0  0
 25 42  1  0  0  0
 25 43  1  0  0  0
M  END
$$$$
