5gwy_ligand
  -I-interpret- 

 97 99  0  0  0  0  0  0  0  0999 V2000
  -40.7100   26.5770  -34.3520 C   0  0  0  0  0
  -41.7390   26.1390  -35.0860 C   0  0  0  0  0
  -42.7820   25.1330  -34.7340 C   0  0  0  0  0
  -41.6820   26.7420  -36.2120 O   0  0  0  0  0
  -40.6320   27.6000  -36.1870 N   0  0  0  0  0
  -40.0080   27.4930  -35.0570 C   0  0  0  0  0
  -38.7500   28.2780  -34.6420 C   0  0  0  0  0
  -38.4630   28.4290  -33.4770 O   0  0  0  0  0
  -37.8900   28.8320  -35.6560 N   0  0  0  0  0
  -36.7330   29.5410  -35.2140 C   0  0  0  0  0
  -37.1180   30.9620  -34.8400 C   0  0  0  0  0
  -38.1620   31.4650  -35.2540 O   0  0  0  0  0
  -35.7640   29.6290  -36.3550 C   0  0  0  0  0
  -36.2410   31.7390  -33.9940 N   0  0  0  0  0
  -36.6370   33.1050  -33.7050 C   0  0  0  0  0
  -35.4050   33.9090  -33.9980 C   0  0  0  0  0
  -34.2850   33.3730  -33.9520 O   0  0  0  0  0
  -37.0870   33.3460  -32.2770 C   0  0  0  0  0
  -38.1810   32.3720  -31.8740 C   0  0  0  0  0
  -35.9280   33.2540  -31.3150 C   0  0  0  0  0
  -35.5280   35.3310  -34.3600 N   0  0  0  0  0
  -34.3100   36.0330  -34.6060 C   0  0  0  0  0
  -33.8440   36.4420  -33.1980 C   0  0  0  0  0
  -34.6340   36.9580  -32.4150 O   0  0  0  0  0
  -34.5890   37.2380  -35.4410 C   0  0  0  0  0
  -34.3730   36.9700  -36.9530 C   0  0  0  0  0
  -34.2620   35.4670  -37.2730 C   0  0  0  0  0
  -35.6040   37.5890  -37.7590 C   0  0  0  0  0
  -32.2100   36.6260  -31.3890 C   0  0  0  0  0
  -31.6950   38.0180  -31.4140 C   0  0  0  0  0
  -31.7480   39.3980  -31.3430 C   0  0  0  0  0
  -32.8670   40.2880  -30.8640 C   0  0  0  0  0
  -31.2940   35.6600  -30.6530 C   0  0  0  0  0
  -32.1030   34.5800  -30.2360 C   0  0  0  0  0
  -32.9950   34.9980  -29.0610 C   0  0  0  0  0
  -33.1970   33.7910  -28.4090 C   0  0  0  0  0
  -31.8600   33.0490  -28.5400 N   0  0  0  0  0
  -31.2160   33.5020  -29.5980 C   0  0  0  0  0
  -30.1090   33.1410  -30.0140 O   0  0  0  0  0
  -32.4870   36.1980  -32.7490 N   0  0  0  0  0
  -33.7790   39.8550  -30.2590 O   0  0  0  0  0
  -33.6980   42.3360  -31.8910 C   0  0  0  0  0
  -32.6810   41.6780  -31.1050 O   0  0  0  0  0
  -36.1750   43.0460  -31.5130 C   0  0  0  0  0
  -37.1640   43.7660  -30.8580 C   0  0  0  0  0
  -36.7920   44.6120  -29.8140 C   0  0  0  0  0
  -35.4650   44.7570  -29.4060 C   0  0  0  0  0
  -34.4920   44.0200  -30.0640 C   0  0  0  0  0
  -34.8310   43.1580  -31.1190 C   0  0  0  0  0
  -40.4736   26.2463  -33.3407 H   0  0  0  0  0
  -42.3049   24.1767  -34.5195 H   0  0  0  0  0
  -43.3302   25.4722  -33.8551 H   0  0  0  0  0
  -43.4705   25.0173  -35.5710 H   0  0  0  0  0
  -38.0991   28.7222  -36.6483 H   0  0  0  0  0
  -36.2990   29.0245  -34.3579 H   0  0  0  0  0
  -35.4863   28.6239  -36.6725 H   0  0  0  0  0
  -36.2303   30.1581  -37.1860 H   0  0  0  0  0
  -34.8734   30.1687  -36.0329 H   0  0  0  0  0
  -35.3799   31.3440  -33.6159 H   0  0  0  0  0
  -37.5080   33.3740  -34.3026 H   0  0  0  0  0
  -37.4917   34.3571  -32.2313 H   0  0  0  0  0
  -39.0385   32.4968  -32.5352 H   0  0  0  0  0
  -37.8049   31.3520  -31.9533 H   0  0  0  0  0
  -38.4818   32.5708  -30.8454 H   0  0  0  0  0
  -35.4842   32.2603  -31.3767 H   0  0  0  0  0
  -35.1809   34.0038  -31.5754 H   0  0  0  0  0
  -36.2846   33.4316  -30.3004 H   0  0  0  0  0
  -36.4360   35.7902  -34.4312 H   0  0  0  0  0
  -33.5639   35.4448  -35.1402 H   0  0  0  0  0
  -33.9015   38.0270  -35.1361 H   0  0  0  0  0
  -35.6321   37.5175  -35.2930 H   0  0  0  0  0
  -33.4324   37.4355  -37.2474 H   0  0  0  0  0
  -33.4166   35.0429  -36.7312 H   0  0  0  0  0
  -35.1796   34.9634  -36.9689 H   0  0  0  0  0
  -34.1116   35.3351  -38.3445 H   0  0  0  0  0
  -36.5287   37.1178  -37.4257 H   0  0  0  0  0
  -35.6546   38.6621  -37.5746 H   0  0  0  0  0
  -35.4663   37.4083  -38.8251 H   0  0  0  0  0
  -33.1368   36.6162  -30.8154 H   0  0  0  0  0
  -30.6342   37.8522  -31.6017 H   0  0  0  0  0
  -30.8517   39.9173  -31.6822 H   0  0  0  0  0
  -30.8198   36.1449  -29.7997 H   0  0  0  0  0
  -30.4875   35.3164  -31.3007 H   0  0  0  0  0
  -32.6639   34.2497  -31.1103 H   0  0  0  0  0
  -33.9213   35.4808  -29.3725 H   0  0  0  0  0
  -32.5440   35.7612  -28.4267 H   0  0  0  0  0
  -34.0203   33.2257  -28.8457 H   0  0  0  0  0
  -33.4821   33.9345  -27.3668 H   0  0  0  0  0
  -31.5232   32.3215  -27.9094 H   0  0  0  0  0
  -31.7820   35.7600  -33.3419 H   0  0  0  0  0
  -34.2252   41.5351  -32.4093 H   0  0  0  0  0
  -33.1659   43.0731  -32.4924 H   0  0  0  0  0
  -36.4429   42.3882  -32.3398 H   0  0  0  0  0
  -38.2090   43.6722  -31.1533 H   0  0  0  0  0
  -37.5654   45.1807  -29.2978 H   0  0  0  0  0
  -35.2006   45.4317  -28.5917 H   0  0  0  0  0
  -33.4498   44.1112  -29.7580 H   0  0  0  0  0
  1  2  4  0  0  0
  6  1  4  0  0  0
  2  3  1  0  0  0
  4  2  4  0  0  0
  5  4  4  0  0  0
  6  5  4  0  0  0
  7  6  1  0  0  0
  7  8  2  0  0  0
  9  7  1  0  0  0
 10  9  1  0  0  0
 11 10  1  0  0  0
 10 13  1  0  0  0
 11 12  2  0  0  0
 14 11  1  0  0  0
 15 14  1  0  0  0
 16 15  1  0  0  0
 15 18  1  0  0  0
 16 17  2  0  0  0
 21 16  1  0  0  0
 18 19  1  0  0  0
 18 20  1  0  0  0
 22 21  1  0  0  0
 23 22  1  0  0  0
 22 25  1  0  0  0
 23 24  2  0  0  0
 40 23  1  0  0  0
 25 26  1  0  0  0
 26 27  1  0  0  0
 26 28  1  0  0  0
 30 29  1  0  0  0
 29 33  1  0  0  0
 29 40  1  0  0  0
 31 30  2  0  0  0
 32 31  1  0  0  0
 32 41  2  0  0  0
 43 32  1  0  0  0
 33 34  1  0  0  0
 34 35  1  0  0  0
 34 38  1  0  0  0
 35 36  1  0  0  0
 37 36  1  0  0  0
 38 37  1  0  0  0
 38 39  2  0  0  0
 42 43  1  0  0  0
 49 42  1  0  0  0
 44 45  4  0  0  0
 44 49  4  0  0  0
 45 46  4  0  0  0
 46 47  4  0  0  0
 47 48  4  0  0  0
 48 49  4  0  0  0
  1 50  1  0  0  0
  3 51  1  0  0  0
  3 52  1  0  0  0
  3 53  1  0  0  0
  9 54  1  0  0  0
 10 55  1  0  0  0
 13 56  1  0  0  0
 13 57  1  0  0  0
 13 58  1  0  0  0
 14 59  1  0  0  0
 15 60  1  0  0  0
 18 61  1  0  0  0
 19 62  1  0  0  0
 19 63  1  0  0  0
 19 64  1  0  0  0
 20 65  1  0  0  0
 20 66  1  0  0  0
 20 67  1  0  0  0
 21 68  1  0  0  0
 22 69  1  0  0  0
 25 70  1  0  0  0
 25 71  1  0  0  0
 26 72  1  0  0  0
 27 73  1  0  0  0
 27 74  1  0  0  0
 27 75  1  0  0  0
 28 76  1  0  0  0
 28 77  1  0  0  0
 28 78  1  0  0  0
 29 79  1  0  0  0
 30 80  1  0  0  0
 31 81  1  0  0  0
 33 82  1  0  0  0
 33 83  1  0  0  0
 34 84  1  0  0  0
 35 85  1  0  0  0
 35 86  1  0  0  0
 36 87  1  0  0  0
 36 88  1  0  0  0
 37 89  1  0  0  0
 40 90  1  0  0  0
 42 91  1  0  0  0
 42 92  1  0  0  0
 44 93  1  0  0  0
 45 94  1  0  0  0
 46 95  1  0  0  0
 47 96  1  0  0  0
 48 97  1  0  0  0
M  END
$$$$
