2qlm_ligand
  -I-interpret- 

 44 45  0  0  0  0  0  0  0  0999 V2000
   36.7110   26.3810   31.9780 C   0  0  0  0  0
   37.8460   26.9110   32.5900 C   0  0  0  0  0
   37.9400   26.9330   33.9840 C   0  0  0  0  0
   39.1890   27.5220   34.6450 C   0  0  0  0  0
   36.8980   26.4310   34.7680 C   0  0  0  0  0
   35.7640   25.8990   34.1500 C   0  0  0  0  0
   35.6720   25.8650   32.7550 C   0  0  0  0  0
   34.4150   25.2890   32.0730 C   0  0  0  0  0
   33.3110   25.4100   32.6110 O   0  0  0  0  0
   34.6390   24.6880   30.8890 N   0  0  0  0  0
   33.7040   24.1170   30.1060 C   0  0  0  0  0
   32.5060   24.0960   30.4020 O   0  0  0  0  0
   34.1460   23.5700   28.9700 N   0  0  0  0  0
   33.2130   22.9080   28.0170 C   0  0  0  0  0
   33.1530   21.4650   28.2550 O   0  0  0  0  0
   32.1170   20.8330   27.4860 C   0  0  0  0  0
   32.0460   19.3570   27.9170 C   0  0  0  0  0
   33.1600   18.6250   27.3900 O   0  0  0  0  0
   32.3390   21.0300   25.9640 C   0  0  0  0  0
   31.1890   20.5620   25.2540 O   0  0  0  0  0
   32.5810   22.5140   25.6210 C   0  0  0  0  0
   32.9820   22.6380   24.2530 O   0  0  0  0  0
   33.6330   23.1360   26.5570 C   0  0  0  0  0
   33.8100   24.5400   26.2990 O   0  0  0  0  0
   36.6346   26.3694   30.8907 H   0  0  0  0  0
   38.6590   27.3077   31.9819 H   0  0  0  0  0
   40.0669   26.9612   34.3244 H   0  0  0  0  0
   39.2960   28.5661   34.3510 H   0  0  0  0  0
   39.0902   27.4566   35.7285 H   0  0  0  0  0
   36.9697   26.4544   35.8554 H   0  0  0  0  0
   34.9474   25.5088   34.7575 H   0  0  0  0  0
   35.6026   24.6630   30.5556 H   0  0  0  0  0
   35.1416   23.6066   28.7514 H   0  0  0  0  0
   32.2336   23.3558   28.1854 H   0  0  0  0  0
   31.1501   21.2962   27.6825 H   0  0  0  0  0
   31.1232   18.9208   27.5345 H   0  0  0  0  0
   32.0714   19.3047   29.0054 H   0  0  0  0  0
   33.0995   17.7082   27.6683 H   0  0  0  0  0
   33.2220   20.4624   25.6705 H   0  0  0  0  0
   31.3250   20.6833   24.3115 H   0  0  0  0  0
   31.6483   23.0591   25.7662 H   0  0  0  0  0
   33.1307   23.5638   24.0470 H   0  0  0  0  0
   34.5903   22.6496   26.3699 H   0  0  0  0  0
   34.0719   24.6655   25.3840 H   0  0  0  0  0
  1  2  4  0  0  0
  1  7  4  0  0  0
  2  3  4  0  0  0
  3  4  1  0  0  0
  3  5  4  0  0  0
  5  6  4  0  0  0
  6  7  4  0  0  0
  7  8  1  0  0  0
  8  9  2  0  0  0
  8 10  1  0  0  0
 10 11  1  0  0  0
 11 12  2  0  0  0
 11 13  1  0  0  0
 13 14  1  0  0  0
 14 15  1  0  0  0
 14 23  1  0  0  0
 15 16  1  0  0  0
 16 17  1  0  0  0
 16 19  1  0  0  0
 17 18  1  0  0  0
 19 20  1  0  0  0
 19 21  1  0  0  0
 21 22  1  0  0  0
 21 23  1  0  0  0
 23 24  1  0  0  0
  1 25  1  0  0  0
  2 26  1  0  0  0
  4 27  1  0  0  0
  4 28  1  0  0  0
  4 29  1  0  0  0
  5 30  1  0  0  0
  6 31  1  0  0  0
 10 32  1  0  0  0
 13 33  1  0  0  0
 14 34  1  0  0  0
 16 35  1  0  0  0
 17 36  1  0  0  0
 17 37  1  0  0  0
 18 38  1  0  0  0
 19 39  1  0  0  0
 20 40  1  0  0  0
 21 41  1  0  0  0
 22 42  1  0  0  0
 23 43  1  0  0  0
 24 44  1  0  0  0
M  END
$$$$
