3uxl_ligand
  -I-interpret- 

 15 15  0  0  0  0  0  0  0  0999 V2000
  -18.0860  -22.2670   17.8200 O   0  0  0  0  0
  -19.1870  -22.7410   17.5930 N   0  0  0  0  0
  -20.2360  -21.9250   17.3340 N   0  3  0  0  0
  -19.9720  -20.6580   17.2680 O   0  0  0  0  0
  -21.5850  -22.4620   17.1600 C   0  0  0  0  0
  -22.6380  -21.6890   16.6780 C   0  0  0  0  0
  -23.9250  -22.2330   16.5460 C   0  0  0  0  0
  -24.1990  -23.5500   16.8940 C   0  0  0  0  0
  -23.1560  -24.3240   17.3730 C   0  0  0  0  0
  -21.8770  -23.7830   17.4990 C   0  0  0  0  0
  -22.4609  -20.6500   16.4001 H   0  0  0  0  0
  -24.7297  -21.6067   16.1609 H   0  0  0  0  0
  -25.2036  -23.9608   16.7930 H   0  0  0  0  0
  -23.3355  -25.3620   17.6532 H   0  0  0  0  0
  -21.0747  -24.4168   17.8769 H   0  0  0  0  0
  1  2  2  0  0  0
  2  3  1  0  0  0
  3  4  2  0  0  0
  3  5  1  0  0  0
  5  6  4  0  0  0
  5 10  4  0  0  0
  6  7  4  0  0  0
  7  8  4  0  0  0
  8  9  4  0  0  0
  9 10  4  0  0  0
  6 11  1  0  0  0
  7 12  1  0  0  0
  8 13  1  0  0  0
  9 14  1  0  0  0
 10 15  1  0  0  0
M  END
$$$$
