3np9_ligand
  -I-interpret- 

 38 39  0  0  0  0  0  0  0  0999 V2000
   33.6380   23.9780   30.1330 C   0  0  0  0  0
   32.2910   24.1350   30.3350 O   0  0  0  0  0
   34.1270   23.4390   28.9460 C   0  0  0  0  0
   35.5020   23.2860   28.7630 C   0  0  0  0  0
   36.3960   23.6840   29.7580 C   0  0  0  0  0
   37.7290   23.5250   29.5380 O   0  0  0  0  0
   35.9080   24.2310   30.9460 C   0  0  0  0  0
   34.5320   24.3760   31.1220 C   0  0  0  0  0
   33.9050   25.0340   32.5820 Cl  0  0  0  0  0
   38.5320   23.6890   30.7100 C   0  0  0  0  0
   33.1460   22.9830   27.8670 C   0  0  0  0  0
   33.6100   23.1590   26.4150 C   0  0  0  0  0
   33.8650   24.5470   26.1360 O   0  0  0  0  0
   32.5490   22.5680   25.4640 C   0  0  0  0  0
   33.0070   22.6420   24.1130 O   0  0  0  0  0
   32.2430   21.1030   25.8230 C   0  0  0  0  0
   31.0830   20.6640   25.1110 O   0  0  0  0  0
   31.9980   20.9180   27.3370 C   0  0  0  0  0
   33.0380   21.5490   28.1290 O   0  0  0  0  0
   31.9260   19.4360   27.7480 C   0  0  0  0  0
   33.0400   18.7210   27.1960 O   0  0  0  0  0
   32.1412   24.5181   31.2024 H   0  0  0  0  0
   35.8801   22.8529   27.8370 H   0  0  0  0  0
   36.5975   24.5426   31.7306 H   0  0  0  0  0
   38.3873   24.6924   31.1105 H   0  0  0  0  0
   38.2369   22.9522   31.4571 H   0  0  0  0  0
   39.5816   23.5470   30.4525 H   0  0  0  0  0
   32.2346   23.5775   27.9307 H   0  0  0  0  0
   34.5454   22.6216   26.2588 H   0  0  0  0  0
   34.1540   24.6414   25.2254 H   0  0  0  0  0
   31.6348   23.1517   25.5724 H   0  0  0  0  0
   32.3404   22.2721   23.5296 H   0  0  0  0  0
   33.1134   20.5101   25.5419 H   0  0  0  0  0
   30.8963   19.7501   25.3381 H   0  0  0  0  0
   31.0359   21.3920   27.5315 H   0  0  0  0  0
   30.9992   19.0033   27.3713 H   0  0  0  0  0
   31.9552   19.3629   28.8351 H   0  0  0  0  0
   32.9877   17.7986   27.4567 H   0  0  0  0  0
  1  2  1  0  0  0
  1  3  4  0  0  0
  1  8  4  0  0  0
  3  4  4  0  0  0
  3 11  1  0  0  0
  4  5  4  0  0  0
  5  6  1  0  0  0
  5  7  4  0  0  0
  6 10  1  0  0  0
  7  8  4  0  0  0
  8  9  1  0  0  0
 11 12  1  0  0  0
 11 19  1  0  0  0
 12 13  1  0  0  0
 12 14  1  0  0  0
 14 15  1  0  0  0
 14 16  1  0  0  0
 16 17  1  0  0  0
 16 18  1  0  0  0
 18 19  1  0  0  0
 18 20  1  0  0  0
 20 21  1  0  0  0
  2 22  1  0  0  0
  4 23  1  0  0  0
  7 24  1  0  0  0
 10 25  1  0  0  0
 10 26  1  0  0  0
 10 27  1  0  0  0
 11 28  1  0  0  0
 12 29  1  0  0  0
 13 30  1  0  0  0
 14 31  1  0  0  0
 15 32  1  0  0  0
 16 33  1  0  0  0
 17 34  1  0  0  0
 18 35  1  0  0  0
 20 36  1  0  0  0
 20 37  1  0  0  0
 21 38  1  0  0  0
M  END
$$$$
