4w9p_ligand
  -I-interpret- 

 71 74  0  0  0  0  0  0  0  0999 V2000
   28.9730    1.5170  -11.4240 C   0  0  0  0  0
   28.1660    0.3270  -11.5600 O   0  0  0  0  0
   27.0370    0.4230  -12.3490 C   0  0  0  0  0
   26.6070    1.5680  -12.9800 C   0  0  0  0  0
   26.3200   -0.7380  -12.4540 C   0  0  0  0  0
   26.7830   -1.8390  -11.7850 O   0  0  0  0  0
   26.1020   -3.1020  -11.9000 C   0  0  0  0  0
   25.2000   -0.7870  -13.2610 C   0  0  0  0  0
   24.7870    0.3660  -13.9070 C   0  0  0  0  0
   25.4980    1.5450  -13.7950 C   0  0  0  0  0
   25.2280    2.7390  -14.4260 O   0  0  0  0  0
   24.1520    2.8930  -15.3910 C   0  0  0  0  0
   22.7940    2.9500  -14.7000 C   0  0  0  0  0
   22.5770    4.2290  -14.0000 N   0  0  0  0  0
   22.5700    4.2340  -12.6240 C   0  0  0  0  0
   22.8470    3.1780  -12.0160 O   0  0  0  0  0
   22.2800    5.4210  -14.8480 C   0  0  0  0  0
   20.8630    5.9850  -14.5960 C   0  0  0  0  0
   20.3920    6.8870  -15.7860 C   0  0  0  0  0
   19.9970    6.0430  -16.8500 O   0  0  0  0  0
   21.4470    7.8780  -16.2080 C   0  0  0  0  0
   20.7560    9.0870  -16.7680 O   0  0  0  0  0
   20.8810    6.8170  -13.3120 C   0  0  0  0  0
   19.6780    6.4660  -12.3890 C   0  0  0  0  0
   19.8440    5.1170  -11.7060 C   0  0  0  0  0
   21.1720    5.1270  -10.8880 C   0  0  0  0  0
   22.3590    5.3980  -11.8370 C   0  0  0  0  0
   22.1960    6.6730  -12.5980 N   0  0  0  0  0
   22.8050    8.0470  -12.0050 S   0  0  0  0  0
   23.7820    7.6330  -10.9170 O   0  0  0  0  0
   21.7740    9.0700  -11.7060 O   0  0  0  0  0
   23.7750    8.6690  -13.3460 C   0  0  0  0  0
   24.9160    8.0250  -13.7410 C   0  0  0  0  0
   25.6390    8.4830  -14.7940 C   0  0  0  0  0
   27.0290    7.6270  -15.2550 Cl  0  0  0  0  0
   25.3090    9.6220  -15.4650 C   0  0  0  0  0
   24.1650   10.2740  -15.0640 C   0  0  0  0  0
   23.6860   11.7040  -15.8750 Cl  0  0  0  0  0
   23.3960    9.8200  -14.0090 C   0  0  0  0  0
   29.3267    1.8288  -12.4067 H   0  0  0  0  0
   28.3729    2.3129  -10.9830 H   0  0  0  0  0
   29.8263    1.3042  -10.7800 H   0  0  0  0  0
   27.1497    2.5018  -12.8330 H   0  0  0  0  0
   25.0770   -2.9943  -11.5451 H   0  0  0  0  0
   26.0953   -3.4160  -12.9438 H   0  0  0  0  0
   26.6198   -3.8487  -11.2979 H   0  0  0  0  0
   24.6496   -1.7193  -13.3874 H   0  0  0  0  0
   23.8832    0.3428  -14.5158 H   0  0  0  0  0
   24.1636    2.0358  -16.0642 H   0  0  0  0  0
   24.3042    3.8249  -15.9354 H   0  0  0  0  0
   22.7560    2.1492  -13.9615 H   0  0  0  0  0
   22.0217    2.8458  -15.4621 H   0  0  0  0  0
   22.3405    5.1154  -15.8925 H   0  0  0  0  0
   23.0018    6.1994  -14.6004 H   0  0  0  0  0
   20.1687    5.1499  -14.5032 H   0  0  0  0  0
   19.5443    7.4929  -15.4661 H   0  0  0  0  0
   19.7043    6.5792  -17.5905 H   0  0  0  0  0
   22.0976    7.4350  -16.9620 H   0  0  0  0  0
   22.0609    8.1595  -15.3524 H   0  0  0  0  0
   21.4128    9.7309  -17.0429 H   0  0  0  0  0
   20.7718    7.8655  -13.5894 H   0  0  0  0  0
   18.7809    6.4227  -13.0067 H   0  0  0  0  0
   19.6136    7.2301  -11.6143 H   0  0  0  0  0
   19.8777    4.3257  -12.4549 H   0  0  0  0  0
   19.0012    4.9346  -11.0393 H   0  0  0  0  0
   21.3076    4.1600  -10.4036 H   0  0  0  0  0
   21.1263    5.9096  -10.1307 H   0  0  0  0  0
   23.2751    5.5754  -11.2737 H   0  0  0  0  0
   25.2472    7.1357  -13.2047 H   0  0  0  0  0
   25.9232    9.9998  -16.2824 H   0  0  0  0  0
   22.5017   10.3634  -13.7040 H   0  0  0  0  0
  1  2  1  0  0  0
  2  3  1  0  0  0
  3  4  4  0  0  0
  3  5  4  0  0  0
  4 10  4  0  0  0
  5  6  1  0  0  0
  5  8  4  0  0  0
  6  7  1  0  0  0
  8  9  4  0  0  0
  9 10  4  0  0  0
 10 11  1  0  0  0
 11 12  1  0  0  0
 12 13  1  0  0  0
 13 14  1  0  0  0
 14 15  1  0  0  0
 14 17  1  0  0  0
 15 16  2  0  0  0
 15 27  1  0  0  0
 17 18  1  0  0  0
 18 19  1  0  0  0
 18 23  1  0  0  0
 19 20  1  0  0  0
 19 21  1  0  0  0
 21 22  1  0  0  0
 23 24  1  0  0  0
 23 28  1  0  0  0
 24 25  1  0  0  0
 25 26  1  0  0  0
 26 27  1  0  0  0
 27 28  1  0  0  0
 28 29  1  0  0  0
 29 30  2  0  0  0
 29 31  2  0  0  0
 29 32  1  0  0  0
 32 33  4  0  0  0
 32 39  4  0  0  0
 33 34  4  0  0  0
 34 35  1  0  0  0
 34 36  4  0  0  0
 36 37  4  0  0  0
 37 38  1  0  0  0
 37 39  4  0  0  0
  1 40  1  0  0  0
  1 41  1  0  0  0
  1 42  1  0  0  0
  4 43  1  0  0  0
  7 44  1  0  0  0
  7 45  1  0  0  0
  7 46  1  0  0  0
  8 47  1  0  0  0
  9 48  1  0  0  0
 12 49  1  0  0  0
 12 50  1  0  0  0
 13 51  1  0  0  0
 13 52  1  0  0  0
 17 53  1  0  0  0
 17 54  1  0  0  0
 18 55  1  0  0  0
 19 56  1  0  0  0
 20 57  1  0  0  0
 21 58  1  0  0  0
 21 59  1  0  0  0
 22 60  1  0  0  0
 23 61  1  0  0  0
 24 62  1  0  0  0
 24 63  1  0  0  0
 25 64  1  0  0  0
 25 65  1  0  0  0
 26 66  1  0  0  0
 26 67  1  0  0  0
 27 68  1  0  0  0
 33 69  1  0  0  0
 36 70  1  0  0  0
 39 71  1  0  0  0
M  END
$$$$
