5myl_ligand
  -I-interpret- 

 34 36  0  0  0  0  0  0  0  0999 V2000
   10.5840   27.2450    3.1820 C   0  0  0  0  0
   11.8400   27.8950    3.5180 N   0  0  0  0  0
   13.0610   27.7650    2.7220 C   0  0  0  0  0
   15.1700   29.1640    2.1610 C   0  0  0  0  0
   15.7230   29.6950   -0.0840 C   0  0  0  0  0
   16.2730   29.8510    2.6120 C   0  0  0  0  0
    5.9810   25.5740    5.8900 C   0  0  0  0  0
    4.8400   25.6750    5.1050 C   0  0  0  0  0
    4.9610   26.0370    3.7760 C   0  0  0  0  0
    6.1570   26.2890    3.2710 N   0  0  0  0  0
    7.2660   26.2160    3.9910 C   0  0  0  0  0
    7.2140   25.8500    5.3220 C   0  0  0  0  0
    8.4730   26.4780    3.3740 C   0  0  0  0  0
    8.6320   26.0460    2.0710 C   0  0  0  0  0
   10.2240   26.5340    1.6550 S   0  0  0  0  0
    9.5000   27.0990    3.9380 N   0  0  0  0  0
   14.2920   28.5270    3.2160 C   0  0  0  0  0
   14.8830   29.0850    0.8150 C   0  0  0  0  0
   16.8280   30.3760    0.3750 C   0  0  0  0  0
   17.1170   30.4630    1.7180 C   0  0  0  0  0
   17.6410   30.9730   -0.5210 F   0  0  0  0  0
   13.1230   27.0700    1.7610 O   0  0  0  0  0
   11.8721   28.4749    4.3565 H   0  0  0  0  0
   15.5164   29.6404   -1.1529 H   0  0  0  0  0
   16.4776   29.9098    3.6810 H   0  0  0  0  0
    5.9076   25.2819    6.9376 H   0  0  0  0  0
    3.8583   25.4708    5.5324 H   0  0  0  0  0
    4.0741   26.1144    3.1471 H   0  0  0  0  0
    8.1263   25.7797    5.9144 H   0  0  0  0  0
    7.9106   25.5160    1.4491 H   0  0  0  0  0
   14.9172   27.7902    3.7202 H   0  0  0  0  0
   13.9114   29.3479    3.8237 H   0  0  0  0  0
   14.0013   28.5457    0.4689 H   0  0  0  0  0
   17.9965   31.0058    2.0644 H   0  0  0  0  0
  1  2  1  0  0  0
  1 15  4  0  0  0
 16  1  4  0  0  0
  2  3  1  0  0  0
  3 17  1  0  0  0
  3 22  2  0  0  0
  4  6  4  0  0  0
 17  4  1  0  0  0
  4 18  4  0  0  0
 18  5  4  0  0  0
  5 19  4  0  0  0
  6 20  4  0  0  0
  7  8  4  0  0  0
 12  7  4  0  0  0
  9  8  4  0  0  0
 10  9  4  0  0  0
 11 10  4  0  0  0
 11 12  4  0  0  0
 13 11  1  0  0  0
 13 14  4  0  0  0
 13 16  4  0  0  0
 14 15  4  0  0  0
 19 20  4  0  0  0
 19 21  1  0  0  0
  2 23  1  0  0  0
  5 24  1  0  0  0
  6 25  1  0  0  0
  7 26  1  0  0  0
  8 27  1  0  0  0
  9 28  1  0  0  0
 12 29  1  0  0  0
 14 30  1  0  0  0
 17 31  1  0  0  0
 17 32  1  0  0  0
 18 33  1  0  0  0
 20 34  1  0  0  0
M  END
$$$$
