### 
### Created by X-TOOL on Mon Sep 10 21:13:19 2018
### 

@<TRIPOS>MOLECULE
4mdr_ligand
  132   134     1     0     0
SMALL
GAST_HUCK


@<TRIPOS>ATOM
      1 N         -24.1530    8.1570   35.7950 N.4       1 THR         0.2398
      2 CA        -22.7240    7.8370   36.1440 C.3       1 THR         0.0911
      3 C         -21.9410    7.2890   34.8970 C.2       1 THR         0.2294
      4 O         -20.7340    7.4640   34.7850 O.2       1 THR        -0.3906
      5 CB        -22.6360    6.9670   37.4730 C.3       1 THR         0.1120
      6 OG1       -21.3580    6.3200   37.6040 O.3       1 THR        -0.3840
      7 CG2       -23.7640    5.9170   37.5580 C.3       1 THR        -0.0314
      8 N         -22.6550    6.6970   33.9470 N.am      1 TYR        -0.2593
      9 CA        -22.0490    6.1200   32.7280 C.3       1 TYR         0.1391
     10 C         -22.5690    6.8040   31.4790 C.2       1 TYR         0.2057
     11 O         -23.6900    7.2590   31.4540 O.2       1 TYR        -0.3942
     12 CB        -22.3540    4.6360   32.6380 C.3       1 TYR         0.0164
     13 CG        -21.7860    3.7830   33.7520 C.ar      1 TYR        -0.0493
     14 CD1       -20.4080    3.6110   33.8980 C.ar      1 TYR        -0.0685
     15 CD2       -22.6480    3.1130   34.6420 C.ar      1 TYR        -0.0685
     16 CE1       -19.8890    2.7990   34.9140 C.ar      1 TYR        -0.0398
     17 CE2       -22.1620    2.2960   35.6620 C.ar      1 TYR        -0.0398
     18 CZ        -20.7810    2.1440   35.8070 C.ar      1 TYR         0.0805
     19 OH        -20.3130    1.3260   36.8170 O.3       1 TYR        -0.3376
     20 N         -21.7570    6.8980   30.4320 N.am      1 LYS        -0.2636
     21 CA        -22.2610    7.5000   29.2070 C.3       1 LYS         0.1310
     22 C         -22.7580    6.4230   28.2600 C.2       1 LYS         0.2040
     23 O         -22.1130    5.3430   28.1310 O.2       1 LYS        -0.3944
     24 CB        -21.1790    8.3190   28.5600 C.3       1 LYS        -0.0122
     25 CG        -21.6470    9.1050   27.3810 C.3       1 LYS        -0.0440
     26 CD        -21.0130   10.5120   27.3650 C.3       1 LYS        -0.0124
     27 CE        -20.8710   10.9830   25.9300 C.3       1 LYS        -0.0354
     28 NZ        -19.6610   11.8790   25.7460 N.4       1 LYS         0.2185
     29 N         -23.8880    6.7130   27.6200 N.am      1 PHE        -0.2619
     30 CA        -24.5140    5.8250   26.6690 C.3       1 PHE         0.1404
     31 C         -24.6260    6.4100   25.2790 C.2       1 PHE         0.2061
     32 O         -24.6860    7.6380   25.0830 O.2       1 PHE        -0.3942
     33 CB        -25.8770    5.3160   27.1170 C.3       1 PHE         0.0214
     34 CG        -25.8230    4.4520   28.3250 C.ar      1 PHE        -0.0386
     35 CD1       -25.8240    5.0150   29.6220 C.ar      1 PHE        -0.0601
     36 CD2       -25.8440    3.0770   28.2090 C.ar      1 PHE        -0.0601
     37 CE1       -25.7740    4.1780   30.7840 C.ar      1 PHE        -0.0686
     38 CE2       -25.7920    2.2600   29.3550 C.ar      1 PHE        -0.0686
     39 CZ        -25.7560    2.8220   30.6340 C.ar      1 PHE        -0.0687
     40 N         -24.6680    5.5400   24.2920 N.am      1 PHE        -0.2618
     41 CA        -24.9040    5.9760   22.9060 C.3       1 PHE         0.1404
     42 C         -25.9710    5.0920   22.2940 C.2       1 PHE         0.2060
     43 O         -26.1530    3.9610   22.7380 O.2       1 PHE        -0.3942
     44 CB        -23.5740    5.9260   22.1000 C.3       1 PHE         0.0214
     45 CG        -22.8550    4.5400   22.1230 C.ar      1 PHE        -0.0386
     46 CD1       -23.2520    3.5300   21.2860 C.ar      1 PHE        -0.0601
     47 CD2       -21.7340    4.3370   22.9070 C.ar      1 PHE        -0.0601
     48 CE1       -22.5690    2.2840   21.2600 C.ar      1 PHE        -0.0686
     49 CE2       -21.0720    3.0870   22.9210 C.ar      1 PHE        -0.0686
     50 CZ        -21.5210    2.0700   22.0820 C.ar      1 PHE        -0.0687
     51 N         -26.6200    5.5890   21.2500 N.am      1 GLU        -0.2635
     52 CA        -27.6520    4.8550   20.5570 C.3       1 GLU         0.1324
     53 C         -27.1190    4.0390   19.3710 C.2       1 GLU         0.2035
     54 O         -27.6800    3.0020   19.0150 O.2       1 GLU        -0.3944
     55 CB        -28.7520    5.8020   20.0930 C.3       1 GLU        -0.0008
     56 CG        -29.4380    6.5640   21.2600 C.3       1 GLU         0.0044
     57 CD        -30.1540    5.6160   22.2520 C.2       1 GLU         0.0350
     58 OE1       -30.8100    4.6560   21.7940 O.co2     1 GLU        -0.5690
     59 OE2       -30.0650    5.8400   23.4820 O.co2     1 GLU        -0.5690
     60 N         -26.0330    4.4940   18.7760 N.am      1 GLN        -0.2693
     61 CA        -25.3260    3.6300   17.8000 C.3       1 GLN         0.0964
     62 C         -23.8100    3.9520   17.8120 C.2       1 GLN         0.0602
     63 O         -22.9980    3.0930   17.3790 O.co2     1 GLN        -0.5666
     64 CB        -25.9090    3.8090   16.3760 C.3       1 GLN        -0.0010
     65 CG        -25.8040    5.2510   15.8390 C.3       1 GLN         0.0407
     66 CD        -26.2610    5.4010   14.3880 C.2       1 GLN         0.1737
     67 OE1       -26.2700    4.4230   13.6000 O.2       1 GLN        -0.3973
     68 NE2       -26.6470    6.6190   14.0230 N.am      1 GLN        -0.3009
     69 OXT       -23.3820    5.0710   18.2280 O.co2     1 GLN        -0.5666
     70 H         -24.1775    8.7075   34.9510 H         1 THR         0.2016
     71 H         -24.5743    8.6779   36.5482 H         1 THR         0.2016
     72 H         -24.6640    7.3000   35.6521 H         1 THR         0.2016
     73 H         -22.2435    8.7952   36.3911 H         1 THR         0.1125
     74 H         -22.7537    7.6547   38.3234 H         1 THR         0.0674
     75 H         -21.3425    5.8115   38.4063 H         1 THR         0.2102
     76 H         -23.6609    5.3428   38.4906 H         1 THR         0.0258
     77 H         -23.6955    5.2347   36.6979 H         1 THR         0.0258
     78 H         -24.7396    6.4251   37.5462 H         1 THR         0.0258
     79 H         -23.6468    6.6388   34.0610 H         1 TYR         0.1886
     80 H         -20.9591    6.2587   32.7806 H         1 TYR         0.0821
     81 H         -21.9474    4.2640   31.6860 H         1 TYR         0.0453
     82 H         -23.4472    4.5143   32.6424 H         1 TYR         0.0453
     83 H         -19.7311    4.1126   33.2159 H         1 TYR         0.0530
     84 H         -23.7192    3.2360   34.5308 H         1 TYR         0.0530
     85 H         -18.8177    2.6710   35.0187 H         1 TYR         0.0525
     86 H         -22.8452    1.7867   36.3320 H         1 TYR         0.0525
     87 H         -19.3632    1.3149   36.7995 H         1 TYR         0.2458
     88 H         -20.8169    6.5613   30.4847 H         1 LYS         0.1883
     89 H         -23.1024    8.1626   29.4578 H         1 LYS         0.0800
     90 H         -20.3795    7.6396   28.2295 H         1 LYS         0.0312
     91 H         -20.7791    9.0194   29.3080 H         1 LYS         0.0312
     92 H         -22.7415    9.2046   27.4269 H         1 LYS         0.0269
     93 H         -21.3655    8.5735   26.4600 H         1 LYS         0.0269
     94 H         -20.0209   10.4732   27.8386 H         1 LYS         0.0317
     95 H         -21.6567   11.2112   27.9189 H         1 LYS         0.0317
     96 H         -21.7746   11.5436   25.6486 H         1 LYS         0.0813
     97 H         -20.7658   10.1047   25.2762 H         1 LYS         0.0813
     98 H         -19.6017   12.1699   24.7827 H         1 LYS         0.1994
     99 H         -18.8264   11.3720   25.9958 H         1 LYS         0.1994
    100 H         -19.7508   12.6905   26.3371 H         1 LYS         0.1994
    101 H         -24.3266    7.5919   27.8075 H         1 PHE         0.1885
    102 H         -23.8553    4.9473   26.5933 H         1 PHE         0.0823
    103 H         -26.3189    4.7353   26.2939 H         1 PHE         0.0474
    104 H         -26.5163    6.1833   27.3384 H         1 PHE         0.0474
    105 H         -25.8630    6.0920   29.7386 H         1 PHE         0.0557
    106 H         -25.9010    2.6217   27.2269 H         1 PHE         0.0557
    107 H         -25.7507    4.6186   31.7742 H         1 PHE         0.0599
    108 H         -25.7797    1.1818   29.2436 H         1 PHE         0.0599
    109 H         -25.7138    2.1806   31.5069 H         1 PHE         0.0559
    110 H         -24.5376    4.5679   24.4868 H         1 PHE         0.1885
    111 H         -25.2678    7.0141   22.9126 H         1 PHE         0.0823
    112 H         -22.8883    6.6758   22.5215 H         1 PHE         0.0474
    113 H         -23.7968    6.1802   21.0532 H         1 PHE         0.0474
    114 H         -24.1025    3.6844   20.6319 H         1 PHE         0.0557
    115 H         -21.3570    5.1478   23.5199 H         1 PHE         0.0557
    116 H         -22.8906    1.5045   20.5788 H         1 PHE         0.0599
    117 H         -20.2250    2.9225   23.5772 H         1 PHE         0.0599
    118 H         -21.0275    1.1049   22.0895 H         1 PHE         0.0559
    119 H         -26.3857    6.5072   20.9305 H         1 GLU         0.1883
    120 H         -28.0921    4.1467   21.2743 H         1 GLU         0.0801
    121 H         -29.5162    5.2160   19.5614 H         1 GLU         0.0330
    122 H         -28.3114    6.5392   19.4057 H         1 GLU         0.0330
    123 H         -30.1799    7.2586   20.8391 H         1 GLU         0.0433
    124 H         -28.6721    7.1330   21.8074 H         1 GLU         0.0433
    125 H         -25.6905    5.4109   18.9808 H         1 GLN         0.1875
    126 H         -25.4631    2.5807   18.1004 H         1 GLN         0.0727
    127 H         -26.9709    3.5230   16.3972 H         1 GLN         0.0330
    128 H         -25.3634    3.1431   15.6913 H         1 GLN         0.0330
    129 H         -24.7539    5.5714   15.9072 H         1 GLN         0.0504
    130 H         -26.4278    5.9024   16.4687 H         1 GLN         0.0504
    131 H         -26.9578    6.7856   13.0872 H         1 GLN         0.1814
    132 H         -26.6267    7.3690   14.6841 H         1 GLN         0.1814
@<TRIPOS>BOND
     1    1    2 1  
     2    2    3 1  
     3    2    5 1  
     4    3    4 2  
     5    3    8 am 
     6    5    6 1  
     7    5    7 1  
     8    8    9 1  
     9    9   10 1  
    10    9   12 1  
    11   10   11 2  
    12   10   20 am 
    13   12   13 1  
    14   13   14 ar 
    15   13   15 ar 
    16   14   16 ar 
    17   15   17 ar 
    18   16   18 ar 
    19   17   18 ar 
    20   18   19 1  
    21   20   21 1  
    22   21   22 1  
    23   21   24 1  
    24   22   23 2  
    25   22   29 am 
    26   24   25 1  
    27   25   26 1  
    28   26   27 1  
    29   27   28 1  
    30   29   30 1  
    31   30   31 1  
    32   30   33 1  
    33   31   32 2  
    34   31   40 am 
    35   33   34 1  
    36   34   35 ar 
    37   34   36 ar 
    38   35   37 ar 
    39   36   38 ar 
    40   37   39 ar 
    41   38   39 ar 
    42   40   41 1  
    43   41   42 1  
    44   41   44 1  
    45   42   43 2  
    46   42   51 am 
    47   44   45 1  
    48   45   46 ar 
    49   45   47 ar 
    50   46   48 ar 
    51   47   49 ar 
    52   48   50 ar 
    53   49   50 ar 
    54   51   52 1  
    55   52   53 1  
    56   52   55 1  
    57   53   54 2  
    58   53   60 am 
    59   55   56 1  
    60   56   57 1  
    61   57   58 ar 
    62   57   59 ar 
    63   60   61 1  
    64   61   62 1  
    65   61   64 1  
    66   62   63 ar 
    67   62   69 ar 
    68   64   65 1  
    69   65   66 1  
    70   66   67 2  
    71   66   68 am 
    72    1   70 1  
    73    1   71 1  
    74    1   72 1  
    75    2   73 1  
    76    5   74 1  
    77    6   75 1  
    78    7   76 1  
    79    7   77 1  
    80    7   78 1  
    81    8   79 1  
    82    9   80 1  
    83   12   81 1  
    84   12   82 1  
    85   14   83 1  
    86   15   84 1  
    87   16   85 1  
    88   17   86 1  
    89   19   87 1  
    90   20   88 1  
    91   21   89 1  
    92   24   90 1  
    93   24   91 1  
    94   25   92 1  
    95   25   93 1  
    96   26   94 1  
    97   26   95 1  
    98   27   96 1  
    99   27   97 1  
   100   28   98 1  
   101   28   99 1  
   102   28  100 1  
   103   29  101 1  
   104   30  102 1  
   105   33  103 1  
   106   33  104 1  
   107   35  105 1  
   108   36  106 1  
   109   37  107 1  
   110   38  108 1  
   111   39  109 1  
   112   40  110 1  
   113   41  111 1  
   114   44  112 1  
   115   44  113 1  
   116   46  114 1  
   117   47  115 1  
   118   48  116 1  
   119   49  117 1  
   120   50  118 1  
   121   51  119 1  
   122   52  120 1  
   123   55  121 1  
   124   55  122 1  
   125   56  123 1  
   126   56  124 1  
   127   60  125 1  
   128   61  126 1  
   129   64  127 1  
   130   64  128 1  
   131   65  129 1  
   132   65  130 1  
   133   68  131 1  
   134   68  132 1  
@<TRIPOS>SUBSTRUCTURE
     1 THR         1

