1pxp_ligand
  -I-interpret- 

 42 44  0  0  0  0  0  0  0  0999 V2000
   25.8400   38.9330    7.6930 C   0  0  0  0  0
   24.8070   39.6250    7.1580 N   0  0  0  0  0
   24.6340   40.8890    7.5400 C   0  0  0  0  0
   25.4070   41.5310    8.4140 N   0  0  0  0  0
   26.4580   40.9120    8.9870 C   0  0  0  0  0
   26.7260   39.5300    8.6380 C   0  0  0  0  0
   27.2300   41.7030    9.9210 C   0  0  0  0  0
   28.4880   41.5580   10.5510 C   0  0  0  0  0
   28.8380   42.5880   11.3930 N   0  0  0  0  0
   27.8800   43.5160   11.4230 C   0  0  0  0  0
   26.5200   43.2120   10.4510 S   0  0  0  0  0
   29.4860   40.4140   10.4090 C   0  0  0  0  0
   27.9500   44.7810   12.2540 C   0  0  0  0  0
   23.5220   41.5710    6.9430 N   0  0  0  0  0
   22.9310   42.8980    7.0440 C   0  0  0  0  0
   23.4270   43.9110    7.9250 C   0  0  0  0  0
   22.8120   45.1810    7.9760 C   0  0  0  0  0
   21.6760   45.4890    7.1470 C   0  0  0  0  0
   21.1900   44.4540    6.2710 C   0  0  0  0  0
   21.8070   43.1830    6.2250 C   0  0  0  0  0
   21.0260   46.8450    7.1980 N   0  0  0  0  0
   19.8470   47.2080    6.3560 C   0  0  0  0  0
   21.5130   47.9360    8.0960 C   0  0  0  0  0
   25.9983   37.8965    7.3950 H   0  0  0  0  0
   27.5587   38.9780    9.0739 H   0  0  0  0  0
   29.0167   39.4827   10.7261 H   0  0  0  0  0
   29.7950   40.3303    9.3671 H   0  0  0  0  0
   30.3572   40.6141   11.0327 H   0  0  0  0  0
   28.0385   44.5174   13.3079 H   0  0  0  0  0
   28.8181   45.3661   11.9504 H   0  0  0  0  0
   27.0436   45.3664   12.0994 H   0  0  0  0  0
   23.0196   40.9780    6.2825 H   0  0  0  0  0
   24.2863   43.7004    8.5616 H   0  0  0  0  0
   23.2034   45.9399    8.6535 H   0  0  0  0  0
   20.3303   44.6546    5.6316 H   0  0  0  0  0
   21.4169   42.4161    5.5558 H   0  0  0  0  0
   20.1108   47.1117    5.3028 H   0  0  0  0  0
   19.0177   46.5394    6.5868 H   0  0  0  0  0
   19.5551   48.2370    6.5661 H   0  0  0  0  0
   21.4555   47.6043    9.1327 H   0  0  0  0  0
   22.5467   48.1758    7.8467 H   0  0  0  0  0
   20.8908   48.8207    7.9612 H   0  0  0  0  0
  1  2  4  0  0  0
  1  6  4  0  0  0
  2  3  4  0  0  0
  3  4  4  0  0  0
  3 14  1  0  0  0
  4  5  4  0  0  0
  5  6  4  0  0  0
  5  7  1  0  0  0
  7  8  4  0  0  0
  7 11  4  0  0  0
  8  9  4  0  0  0
  8 12  1  0  0  0
  9 10  4  0  0  0
 10 11  4  0  0  0
 10 13  1  0  0  0
 14 15  1  0  0  0
 15 16  4  0  0  0
 15 20  4  0  0  0
 16 17  4  0  0  0
 17 18  4  0  0  0
 18 19  4  0  0  0
 18 21  1  0  0  0
 19 20  4  0  0  0
 21 22  1  0  0  0
 21 23  1  0  0  0
  1 24  1  0  0  0
  6 25  1  0  0  0
 12 26  1  0  0  0
 12 27  1  0  0  0
 12 28  1  0  0  0
 13 29  1  0  0  0
 13 30  1  0  0  0
 13 31  1  0  0  0
 14 32  1  0  0  0
 16 33  1  0  0  0
 17 34  1  0  0  0
 19 35  1  0  0  0
 20 36  1  0  0  0
 22 37  1  0  0  0
 22 38  1  0  0  0
 22 39  1  0  0  0
 23 40  1  0  0  0
 23 41  1  0  0  0
 23 42  1  0  0  0
M  END
$$$$
