4og4_ligand
  -I-interpret- 

 66 69  0  0  0  0  0  0  0  0999 V2000
   10.7800   19.2970   13.2690 C   0  0  0  0  0
   10.1910   20.4340   13.7900 C   0  0  0  0  0
    8.8250   20.4460   14.0140 C   0  0  0  0  0
    8.2630   21.5820   14.5300 C   0  0  0  0  0
    7.8580   22.4490   14.9200 N   0  0  0  0  0
    8.0410   19.3340   13.7230 C   0  0  0  0  0
    8.6320   18.1900   13.2000 C   0  0  0  0  0
   10.0030   18.1850   12.9780 C   0  0  0  0  0
   10.6430   17.1090   12.4710 O   0  0  0  0  0
    9.9070   15.9210   12.2250 C   0  0  0  0  0
   10.8330   15.0130   11.4090 C   0  0  0  0  0
   11.7990   14.2570   12.3340 C   0  0  0  0  0
   12.8270   13.5110   11.5810 N   0  3  0  0  0
   13.8550   13.0410   12.5280 C   0  0  0  0  0
   14.9160   12.1630   11.8590 C   0  0  0  0  0
   12.2070   12.3480   10.9180 C   0  0  0  0  0
   13.2340   11.4500   10.2150 C   0  0  0  0  0
   14.2520   10.9440   11.2320 C   0  0  0  0  0
   15.3080    9.9870   10.6230 C   0  0  0  0  0
   16.2590    9.4810   11.7210 C   0  0  0  0  0
   17.3930    8.6100   11.1580 C   0  0  0  0  0
   17.8540    7.7450   12.3470 C   0  0  0  0  0
   16.8770    8.0590   13.4320 C   0  0  0  0  0
   15.6310    8.5370   12.7110 C   0  0  0  0  0
   16.0830   10.7150    9.7440 O   0  0  0  0  0
   14.6870    8.8820    9.9280 C   0  0  0  0  0
   13.5540    8.2850   10.4620 C   0  0  0  0  0
   12.9670    7.2110    9.8050 C   0  0  0  0  0
   13.4910    6.7120    8.6220 C   0  0  0  0  0
   14.6300    7.2950    8.0890 C   0  0  0  0  0
   15.2250    8.3750    8.7450 C   0  0  0  0  0
   11.8544   19.2741   13.0869 H   0  0  0  0  0
   10.7953   21.3110   14.0218 H   0  0  0  0  0
    6.9666   19.3600   13.9047 H   0  0  0  0  0
    8.0298   17.3116   12.9680 H   0  0  0  0  0
    8.9844   16.1326   11.6845 H   0  0  0  0  0
    9.6055   15.4428   13.1570 H   0  0  0  0  0
   11.4117   15.6267   10.7187 H   0  0  0  0  0
   10.2276   14.2898   10.8626 H   0  0  0  0  0
   11.2192   13.5404   12.9157 H   0  0  0  0  0
   12.3053   14.9879   12.9644 H   0  0  0  0  0
   13.2480   14.1153   10.8753 H   0  0  0  0  0
   13.3583   12.4429   13.2920 H   0  0  0  0  0
   14.3562   13.9168   12.9403 H   0  0  0  0  0
   15.6388   11.8364   12.6067 H   0  0  0  0  0
   15.4237   12.7369   11.0838 H   0  0  0  0  0
   11.5167   12.7224   10.1620 H   0  0  0  0  0
   11.7098   11.7522   11.6834 H   0  0  0  0  0
   13.7474   12.0227    9.4427 H   0  0  0  0  0
   12.7225   10.6011    9.7613 H   0  0  0  0  0
   13.7313   10.3485   11.9820 H   0  0  0  0  0
   16.5809   10.4167   12.1780 H   0  0  0  0  0
   18.2068    9.2139   10.7565 H   0  0  0  0  0
   17.0575    8.0002   10.3191 H   0  0  0  0  0
   18.8799    7.9658   12.6419 H   0  0  0  0  0
   17.8673    6.6831   12.1013 H   0  0  0  0  0
   17.2625    8.8142   14.1169 H   0  0  0  0  0
   16.6738    7.1895   14.0571 H   0  0  0  0  0
   15.0327    7.7430   12.2641 H   0  0  0  0  0
   14.8792    8.9909   13.3567 H   0  0  0  0  0
   16.7462   10.1414    9.3532 H   0  0  0  0  0
   13.1264    8.6571   11.3930 H   0  0  0  0  0
   12.0747    6.7502   10.2288 H   0  0  0  0  0
   13.0133    5.8720    8.1177 H   0  0  0  0  0
   15.0591    6.9126    7.1628 H   0  0  0  0  0
   16.1233    8.8286    8.3262 H   0  0  0  0  0
  1  2  4  0  0  0
  1  8  4  0  0  0
  2  3  4  0  0  0
  3  4  1  0  0  0
  3  6  4  0  0  0
  4  5  3  0  0  0
  6  7  4  0  0  0
  7  8  4  0  0  0
  8  9  1  0  0  0
  9 10  1  0  0  0
 10 11  1  0  0  0
 11 12  1  0  0  0
 12 13  1  0  0  0
 13 14  1  0  0  0
 13 16  1  0  0  0
 14 15  1  0  0  0
 15 18  1  0  0  0
 16 17  1  0  0  0
 17 18  1  0  0  0
 18 19  1  0  0  0
 19 20  1  0  0  0
 19 25  1  0  0  0
 19 26  1  0  0  0
 20 21  1  0  0  0
 20 24  1  0  0  0
 21 22  1  0  0  0
 22 23  1  0  0  0
 23 24  1  0  0  0
 26 27  4  0  0  0
 26 31  4  0  0  0
 27 28  4  0  0  0
 28 29  4  0  0  0
 29 30  4  0  0  0
 30 31  4  0  0  0
  1 32  1  0  0  0
  2 33  1  0  0  0
  6 34  1  0  0  0
  7 35  1  0  0  0
 10 36  1  0  0  0
 10 37  1  0  0  0
 11 38  1  0  0  0
 11 39  1  0  0  0
 12 40  1  0  0  0
 12 41  1  0  0  0
 13 42  1  0  0  0
 14 43  1  0  0  0
 14 44  1  0  0  0
 15 45  1  0  0  0
 15 46  1  0  0  0
 16 47  1  0  0  0
 16 48  1  0  0  0
 17 49  1  0  0  0
 17 50  1  0  0  0
 18 51  1  0  0  0
 20 52  1  0  0  0
 21 53  1  0  0  0
 21 54  1  0  0  0
 22 55  1  0  0  0
 22 56  1  0  0  0
 23 57  1  0  0  0
 23 58  1  0  0  0
 24 59  1  0  0  0
 24 60  1  0  0  0
 25 61  1  0  0  0
 27 62  1  0  0  0
 28 63  1  0  0  0
 29 64  1  0  0  0
 30 65  1  0  0  0
 31 66  1  0  0  0
M  END
$$$$
