5xfj_ligand
  -I-interpret- 

 50 53  0  0  0  0  0  0  0  0999 V2000
  -40.7010  -14.5820  377.7930 C   0  0  0  0  0
  -38.0040  -16.1550  374.9400 C   0  0  0  0  0
  -40.3970  -13.3580  378.3910 C   0  0  0  0  0
  -38.5510  -14.5200  376.6260 C   0  0  0  0  0
  -42.0190  -14.9230  378.3070 C   0  0  0  0  0
  -39.7650  -15.1650  376.9100 C   0  0  0  0  0
  -39.0120  -15.8140  373.8360 C   0  0  0  0  0
  -39.1730  -12.7080  378.1100 C   0  0  0  0  0
  -38.2580  -13.2860  377.2350 C   0  0  0  0  0
  -36.7510  -16.6730  374.2760 C   0  0  0  0  0
  -42.8930  -16.1530  378.0310 C   0  0  0  0  0
  -43.8120  -17.9810  376.6190 C   0  0  0  0  0
  -42.7350  -16.8940  376.7010 C   0  0  0  0  0
  -45.2720  -21.1950  375.7670 C   0  0  0  0  0
  -43.7410  -19.2700  376.0350 C   0  0  0  0  0
  -38.9200  -14.6540  373.0750 C   0  0  0  0  0
  -40.0610  -16.6860  373.5670 C   0  0  0  0  0
  -41.4360  -13.0230  379.1820 N   0  0  0  0  0
  -42.3760  -13.9530  379.1190 N   0  0  0  0  0
  -44.9080  -19.8540  376.2060 N   0  0  0  0  0
  -45.7130  -19.0290  376.8720 N   0  0  0  0  0
  -40.8560  -15.2700  371.8820 N   0  0  0  0  0
  -37.6050  -15.0730  375.7460 O   0  0  0  0  0
  -44.8940  -22.4790  373.8350 O   0  0  0  0  0
  -45.1180  -17.8970  377.1500 C   0  0  0  0  0
  -45.0400  -21.3840  374.2690 C   0  0  0  0  0
  -39.8750  -14.4160  372.0950 C   0  0  0  0  0
  -40.9740  -16.3800  372.5760 C   0  0  0  0  0
  -37.5990  -13.4800  373.3500 Cl  0  0  0  0  0
  -40.2540  -18.1990  374.4910 Cl  0  0  0  0  0
  -38.5081  -16.8714  375.5886 H   0  0  0  0  0
  -39.9877  -16.1252  376.4446 H   0  0  0  0  0
  -38.9454  -11.7513  378.5802 H   0  0  0  0  0
  -37.3149  -12.7829  377.0216 H   0  0  0  0  0
  -36.3054  -15.8802  373.6752 H   0  0  0  0  0
  -36.0426  -16.9936  375.0398 H   0  0  0  0  0
  -37.0036  -17.5179  373.6353 H   0  0  0  0  0
  -43.9150  -15.7741  378.0211 H   0  0  0  0  0
  -42.6046  -16.8782  378.7919 H   0  0  0  0  0
  -41.7449  -17.3461  376.6423 H   0  0  0  0  0
  -42.8465  -16.1964  375.8709 H   0  0  0  0  0
  -46.3319  -21.3465  375.9714 H   0  0  0  0  0
  -44.6499  -21.9117  376.3032 H   0  0  0  0  0
  -42.8745  -19.7010  375.5336 H   0  0  0  0  0
  -44.7597  -22.4305  372.8857 H   0  0  0  0  0
  -45.5477  -17.0519  377.6879 H   0  0  0  0  0
  -44.0954  -20.8783  374.0688 H   0  0  0  0  0
  -45.9531  -21.0190  373.7989 H   0  0  0  0  0
  -39.8122  -13.5094  371.4931 H   0  0  0  0  0
  -41.7973  -17.0635  372.3684 H   0  0  0  0  0
  1  3  4  0  0  0
  5  1  4  0  0  0
  1  6  4  0  0  0
  2  7  1  0  0  0
  2 10  1  0  0  0
 23  2  1  0  0  0
  3  8  4  0  0  0
  3 18  4  0  0  0
  6  4  4  0  0  0
  4  9  4  0  0  0
  4 23  1  0  0  0
 11  5  1  0  0  0
  5 19  4  0  0  0
  7 16  4  0  0  0
  7 17  4  0  0  0
  8  9  4  0  0  0
 13 11  1  0  0  0
 12 13  1  0  0  0
 15 12  4  0  0  0
 12 25  4  0  0  0
 20 14  1  0  0  0
 14 26  1  0  0  0
 15 20  4  0  0  0
 16 27  4  0  0  0
 16 29  1  0  0  0
 17 28  4  0  0  0
 17 30  1  0  0  0
 18 19  4  0  0  0
 20 21  4  0  0  0
 21 25  4  0  0  0
 27 22  4  0  0  0
 22 28  4  0  0  0
 26 24  1  0  0  0
  2 31  1  0  0  0
  6 32  1  0  0  0
  8 33  1  0  0  0
  9 34  1  0  0  0
 10 35  1  0  0  0
 10 36  1  0  0  0
 10 37  1  0  0  0
 11 38  1  0  0  0
 11 39  1  0  0  0
 13 40  1  0  0  0
 13 41  1  0  0  0
 14 42  1  0  0  0
 14 43  1  0  0  0
 15 44  1  0  0  0
 24 45  1  0  0  0
 25 46  1  0  0  0
 26 47  1  0  0  0
 26 48  1  0  0  0
 27 49  1  0  0  0
 28 50  1  0  0  0
M  END
$$$$
