1uml_ligand
  -I-interpret- 

 60 63  0  0  0  0  0  0  0  0999 V2000
   51.8290   54.6770   20.8590 C   0  0  0  0  0
   51.8880   55.6880   21.9190 N   0  0  0  0  0
   51.8600   55.1000   23.1260 C   0  0  0  0  0
   51.7790   53.7750   22.9620 N   0  0  0  0  0
   51.7350   53.5200   21.5290 C   0  0  0  0  0
   51.6070   52.1810   20.9160 C   0  0  0  0  0
   51.3610   52.1210   19.7260 O   0  0  0  0  0
   51.7490   51.0960   21.6820 N   0  0  0  0  0
   51.9880   57.1300   21.7230 C   0  0  0  0  0
   53.4550   57.5680   21.5660 C   0  0  0  0  0
   54.2510   57.2110   22.6660 O   0  0  0  0  0
   51.1060   57.6310   20.5640 C   0  0  0  0  0
   49.6510   57.1520   20.6020 C   0  0  0  0  0
   49.0410   57.3030   19.2790 N   0  0  0  0  0
   48.5480   58.4350   18.7040 C   0  0  0  0  0
   48.0910   58.1640   17.4100 C   0  0  0  0  0
   48.3220   56.7580   17.2020 C   0  0  0  0  0
   48.9180   56.2500   18.3940 C   0  0  0  0  0
   48.0750   55.9260   16.1420 C   0  0  0  0  0
   48.4170   54.5770   16.2390 C   0  0  0  0  0
   49.0150   54.0720   17.4080 C   0  0  0  0  0
   49.2570   54.9300   18.4840 C   0  0  0  0  0
   49.3960   52.7740   17.5440 N   0  0  0  0  0
   49.1610   51.7710   16.6630 C   0  0  0  0  0
   48.5250   51.8600   15.6130 O   0  0  0  0  0
   49.8040   50.4740   17.1270 C   0  0  0  0  0
   49.1790   49.2540   16.4430 C   0  0  0  0  0
   47.5840   48.9190   18.3820 C   0  0  0  0  0
   47.8190   48.8890   17.0080 C   0  0  0  0  0
   46.8090   48.4760   16.1420 C   0  0  0  0  0
   45.5800   48.0760   16.6460 C   0  0  0  0  0
   45.3560   48.0770   18.0230 C   0  0  0  0  0
   46.3550   48.5030   18.8860 C   0  0  0  0  0
   51.8554   54.8302   19.7801 H   0  0  0  0  0
   51.8972   55.6185   24.0841 H   0  0  0  0  0
   51.6512   50.1667   21.2731 H   0  0  0  0  0
   51.9552   51.1968   22.6758 H   0  0  0  0  0
   51.5977   57.6037   22.6238 H   0  0  0  0  0
   53.4713   58.6546   21.4812 H   0  0  0  0  0
   53.8597   57.0688   20.6856 H   0  0  0  0  0
   55.1521   57.5065   22.5168 H   0  0  0  0  0
   51.5420   57.2389   19.6451 H   0  0  0  0  0
   51.0808   58.7184   20.6356 H   0  0  0  0  0
   49.0948   57.7495   21.3243 H   0  0  0  0  0
   49.6261   56.1014   20.8913 H   0  0  0  0  0
   48.5143   59.4131   19.1839 H   0  0  0  0  0
   47.6515   58.8702   16.7056 H   0  0  0  0  0
   47.6162   56.3139   15.2326 H   0  0  0  0  0
   48.2191   53.9081   15.4014 H   0  0  0  0  0
   49.7162   54.5460   19.3949 H   0  0  0  0  0
   49.9087   52.5313   18.3917 H   0  0  0  0  0
   49.6506   50.3805   18.2021 H   0  0  0  0  0
   50.8631   50.5055   16.8713 H   0  0  0  0  0
   49.8441   48.4058   16.6048 H   0  0  0  0  0
   49.0462   49.4964   15.3886 H   0  0  0  0  0
   48.3621   49.2679   19.0609 H   0  0  0  0  0
   46.9847   48.4671   15.0663 H   0  0  0  0  0
   44.7888   47.7607   15.9657 H   0  0  0  0  0
   44.3973   47.7435   18.4202 H   0  0  0  0  0
   46.1772   48.5120   19.9614 H   0  0  0  0  0
  1  2  4  0  0  0
  1  5  4  0  0  0
  2  3  4  0  0  0
  2  9  1  0  0  0
  3  4  4  0  0  0
  4  5  4  0  0  0
  5  6  1  0  0  0
  6  7  2  0  0  0
  6  8  1  0  0  0
  9 10  1  0  0  0
  9 12  1  0  0  0
 10 11  1  0  0  0
 12 13  1  0  0  0
 13 14  1  0  0  0
 14 15  4  0  0  0
 14 18  4  0  0  0
 15 16  4  0  0  0
 16 17  4  0  0  0
 17 18  4  0  0  0
 17 19  4  0  0  0
 18 22  4  0  0  0
 19 20  4  0  0  0
 20 21  4  0  0  0
 21 22  4  0  0  0
 21 23  1  0  0  0
 23 24  1  0  0  0
 24 25  2  0  0  0
 24 26  1  0  0  0
 26 27  1  0  0  0
 27 29  1  0  0  0
 29 28  4  0  0  0
 28 33  4  0  0  0
 29 30  4  0  0  0
 30 31  4  0  0  0
 31 32  4  0  0  0
 32 33  4  0  0  0
  1 34  1  0  0  0
  3 35  1  0  0  0
  8 36  1  0  0  0
  8 37  1  0  0  0
  9 38  1  0  0  0
 10 39  1  0  0  0
 10 40  1  0  0  0
 11 41  1  0  0  0
 12 42  1  0  0  0
 12 43  1  0  0  0
 13 44  1  0  0  0
 13 45  1  0  0  0
 15 46  1  0  0  0
 16 47  1  0  0  0
 19 48  1  0  0  0
 20 49  1  0  0  0
 22 50  1  0  0  0
 23 51  1  0  0  0
 26 52  1  0  0  0
 26 53  1  0  0  0
 27 54  1  0  0  0
 27 55  1  0  0  0
 28 56  1  0  0  0
 30 57  1  0  0  0
 31 58  1  0  0  0
 32 59  1  0  0  0
 33 60  1  0  0  0
M  END
$$$$
