3zdv_ligand
  -I-interpret- 

 50 51  0  0  0  0  0  0  0  0999 V2000
   -5.4500   18.4130   23.8760 C   0  0  0  0  0
   -4.6730   17.8180   22.7410 C   0  0  0  0  0
   -5.5570   17.5100   21.5500 C   0  0  0  0  0
   -6.7470   16.7060   21.9710 C   0  0  0  0  0
   -7.5090   17.5130   23.0480 C   0  0  0  0  0
   -8.7570   16.8290   23.5720 C   0  0  0  0  0
   -6.4580   20.4930   24.4840 C   0  0  0  0  0
   -5.7840   19.7210   23.4610 O   0  0  0  0  0
   -4.0810   16.5800   23.1670 O   0  0  0  0  0
   -4.7870   16.8080   20.5600 O   0  0  0  0  0
   -7.5560   16.3780   20.8400 O   0  0  0  0  0
   -6.6140   17.6430   24.1670 O   0  0  0  0  0
   -9.8900   17.0470   22.6850 N   0  0  0  0  0
  -11.0320   18.1240   23.1550 S   0  0  0  0  0
  -12.1470   17.9850   22.2550 O   0  0  0  0  0
  -10.3600   19.3800   23.2440 O   0  0  0  0  0
  -11.4890   17.6320   24.7080 C   0  0  0  0  0
  -11.1450   18.3610   25.9460 C   0  0  0  0  0
  -11.4790   17.8300   27.1830 C   0  0  0  0  0
  -12.1840   16.6580   27.3020 C   0  0  0  0  0
  -12.5320   15.9020   26.1960 C   0  0  0  0  0
  -12.2110   16.3680   24.9190 C   0  0  0  0  0
  -10.3880   19.6610   25.9560 C   0  0  0  0  0
  -12.5850   15.5280   23.7340 C   0  0  0  0  0
  -12.5620   16.1720   28.6720 C   0  0  0  0  0
   -4.8684   18.4250   24.7978 H   0  0  0  0  0
   -3.9186   18.5483   22.4484 H   0  0  0  0  0
   -5.9244   18.4421   21.1207 H   0  0  0  0  0
   -6.4438   15.7527   22.4038 H   0  0  0  0  0
   -7.8200   18.4534   22.5931 H   0  0  0  0  0
   -8.9966   17.2454   24.5504 H   0  0  0  0  0
   -8.5658   15.7577   23.6345 H   0  0  0  0  0
   -7.3838   19.9911   24.7653 H   0  0  0  0  0
   -5.8110   20.5804   25.3568 H   0  0  0  0  0
   -6.6848   21.4865   24.0973 H   0  0  0  0  0
   -3.5126   16.7420   23.9235 H   0  0  0  0  0
   -4.0309   17.3423   20.3063 H   0  0  0  0  0
   -7.0331   15.8798   20.2076 H   0  0  0  0  0
   -9.9705   16.5460   21.8002 H   0  0  0  0  0
  -11.1731   18.3581   28.0861 H   0  0  0  0  0
  -13.0517   14.9520   26.3204 H   0  0  0  0  0
   -9.4110   19.5146   25.4953 H   0  0  0  0  0
  -10.9471   20.4099   25.3950 H   0  0  0  0  0
  -10.2593   19.9971   26.9849 H   0  0  0  0  0
  -13.2335   16.1029   23.0729 H   0  0  0  0  0
  -11.6822   15.2374   23.1968 H   0  0  0  0  0
  -13.1101   14.6354   24.0742 H   0  0  0  0  0
  -11.6590   16.0098   29.2606 H   0  0  0  0  0
  -13.1870   16.9189   29.1615 H   0  0  0  0  0
  -13.1133   15.2358   28.5847 H   0  0  0  0  0
  1  2  1  0  0  0
  1  8  1  0  0  0
  1 12  1  0  0  0
  2  3  1  0  0  0
  2  9  1  0  0  0
  3  4  1  0  0  0
  3 10  1  0  0  0
  4  5  1  0  0  0
  4 11  1  0  0  0
  5  6  1  0  0  0
  5 12  1  0  0  0
  6 13  1  0  0  0
  8  7  1  0  0  0
 13 14  1  0  0  0
 14 15  2  0  0  0
 14 16  2  0  0  0
 14 17  1  0  0  0
 17 18  4  0  0  0
 17 22  4  0  0  0
 18 19  4  0  0  0
 18 23  1  0  0  0
 19 20  4  0  0  0
 20 21  4  0  0  0
 20 25  1  0  0  0
 21 22  4  0  0  0
 22 24  1  0  0  0
  1 26  1  0  0  0
  2 27  1  0  0  0
  3 28  1  0  0  0
  4 29  1  0  0  0
  5 30  1  0  0  0
  6 31  1  0  0  0
  6 32  1  0  0  0
  7 33  1  0  0  0
  7 34  1  0  0  0
  7 35  1  0  0  0
  9 36  1  0  0  0
 10 37  1  0  0  0
 11 38  1  0  0  0
 13 39  1  0  0  0
 19 40  1  0  0  0
 21 41  1  0  0  0
 23 42  1  0  0  0
 23 43  1  0  0  0
 23 44  1  0  0  0
 24 45  1  0  0  0
 24 46  1  0  0  0
 24 47  1  0  0  0
 25 48  1  0  0  0
 25 49  1  0  0  0
 25 50  1  0  0  0
M  END
$$$$
