4oym_ligand
  -I-interpret- 

 25 26  0  0  0  0  0  0  0  0999 V2000
   17.1090   28.0100   -1.9230 C   0  0  0  0  0
   18.4060   26.8820   -0.2480 C   0  0  0  0  0
   19.9110   25.8450    1.3050 C   0  0  0  0  0
   19.2690   24.6330    1.1240 C   0  0  0  0  0
   18.1810   24.5340    0.2650 C   0  0  0  0  0
   17.7560   25.6700   -0.4170 C   0  0  0  0  0
   17.9430   21.9350    0.4340 C   0  0  0  0  0
   17.1330   20.7790    0.5150 C   0  0  0  0  0
   18.0720   28.0560   -0.8710 O   0  0  0  0  0
   19.4860   26.9670    0.6210 C   0  0  0  0  0
   17.4500   23.2600    0.0020 C   0  0  0  0  0
   16.3920   23.2930   -0.6200 O   0  0  0  0  0
   19.1680   21.6100    0.7380 N   0  0  0  0  0
   19.1120   20.2570    1.0280 O   0  0  0  0  0
   17.8550   19.7650    0.8860 N   0  0  0  0  0
   15.8100   20.7060    0.2800 N   0  0  0  0  0
   17.4737   27.3615   -2.7196 H   0  0  0  0  0
   16.1683   27.6183   -1.5359 H   0  0  0  0  0
   16.9519   29.0152   -2.3143 H   0  0  0  0  0
   20.7558   25.9147    1.9903 H   0  0  0  0  0
   19.6188   23.7499    1.6586 H   0  0  0  0  0
   16.9023   25.6057   -1.0917 H   0  0  0  0  0
   19.9979   27.9187    0.7631 H   0  0  0  0  0
   15.2925   21.5434    0.0129 H   0  0  0  0  0
   15.3247   19.8133    0.3690 H   0  0  0  0  0
  9  1  1  0  0  0
  6  2  4  0  0  0
  2  9  1  0  0  0
  2 10  4  0  0  0
  4  3  4  0  0  0
  3 10  4  0  0  0
  5  4  4  0  0  0
  5  6  4  0  0  0
 11  5  1  0  0  0
  7  8  4  0  0  0
  7 11  1  0  0  0
  7 13  4  0  0  0
  8 15  4  0  0  0
  8 16  1  0  0  0
 11 12  2  0  0  0
 13 14  4  0  0  0
 14 15  4  0  0  0
  1 17  1  0  0  0
  1 18  1  0  0  0
  1 19  1  0  0  0
  3 20  1  0  0  0
  4 21  1  0  0  0
  6 22  1  0  0  0
 10 23  1  0  0  0
 16 24  1  0  0  0
 16 25  1  0  0  0
M  END
$$$$
