### 
### Created by X-TOOL on Mon Sep 10 21:13:25 2018
### 

@<TRIPOS>MOLECULE
4z89_ligand
  191   194     1     0     0
SMALL
GAST_HUCK


@<TRIPOS>ATOM
      1 N         -30.4290    8.7140    0.5320 N.4       1 GLY         0.2357
      2 CA        -29.9730    8.5440   -0.8350 C.3       1 GLY         0.0545
      3 C         -28.7450    9.3810   -1.1240 C.2       1 GLY         0.2236
      4 O         -27.6520    9.0690   -0.6550 O.2       1 GLY        -0.3910
      5 N         -28.9170   10.4400   -1.9070 N.am      1 ARG        -0.2613
      6 CA        -27.7910   11.2870   -2.2710 C.3       1 ARG         0.1312
      7 C         -27.5070   12.1790   -1.0830 C.2       1 ARG         0.2039
      8 O         -28.4290   12.7490   -0.5030 O.2       1 ARG        -0.3944
      9 CB        -28.1080   12.1260   -3.5050 C.3       1 ARG        -0.0092
     10 CG        -26.9110   12.7600   -4.1690 C.3       1 ARG        -0.0156
     11 CD        -27.3220   13.3410   -5.5090 C.3       1 ARG         0.0627
     12 NE        -26.1790   13.7850   -6.2950 N.pl3     1 ARG        -0.2723
     13 CZ        -25.4930   12.9980   -7.1140 C.cat     1 ARG         0.2882
     14 NH1       -25.8450   11.7290   -7.2760 N.pl3     1 ARG        -0.2849
     15 NH2       -24.4650   13.4890   -7.7830 N.pl3     1 ARG        -0.2849
     16 N         -26.2410   12.3190   -0.7180 N.am      1 ARG        -0.2637
     17 CA        -25.9190   13.0650    0.4880 C.3       1 ARG         0.1311
     18 C         -25.3880   14.4700    0.2390 C.2       1 ARG         0.2039
     19 O         -24.6780   14.7270   -0.7320 O.2       1 ARG        -0.3944
     20 CB        -24.9340   12.2710    1.3460 C.3       1 ARG        -0.0092
     21 CG        -25.4950   10.9170    1.7690 C.3       1 ARG        -0.0156
     22 CD        -26.7650   11.1380    2.5900 C.3       1 ARG         0.0627
     23 NE        -27.3800    9.9050    3.0790 N.pl3     1 ARG        -0.2723
     24 CZ        -28.6040    9.8370    3.5950 C.cat     1 ARG         0.2882
     25 NH1       -29.3490   10.9310    3.6730 N.pl3     1 ARG        -0.2849
     26 NH2       -29.0850    8.6750    4.0200 N.pl3     1 ARG        -0.2849
     27 N         -25.7600   15.3710    1.1420 N.am      1 LEU        -0.2637
     28 CA        -25.3340   16.7630    1.1010 C.3       1 LEU         0.1314
     29 C         -23.9490   16.9200    1.7150 C.2       1 LEU         0.2064
     30 O         -23.5920   16.1900    2.6450 O.2       1 LEU        -0.3942
     31 CB        -26.3300   17.6530    1.8540 C.3       1 LEU        -0.0101
     32 CG        -27.6410   18.1110    1.2070 C.3       1 LEU        -0.0425
     33 CD1       -28.5130   18.8200    2.2190 C.3       1 LEU        -0.0625
     34 CD2       -27.3610   19.0510    0.0450 C.3       1 LEU        -0.0625
     35 N         -23.1410   17.8420    1.1710 N.am      1 PRO        -0.2498
     36 CA        -21.8870   18.1570    1.8530 C.3       1 PRO         0.1340
     37 C         -22.2230   19.0050    3.0740 C.2       1 PRO         0.2066
     38 O         -23.3060   19.5890    3.1190 O.2       1 PRO        -0.3942
     39 CB        -21.1060   18.9500    0.8080 C.3       1 PRO        -0.0104
     40 CG        -22.1840   19.6190    0.0030 C.3       1 PRO        -0.0281
     41 CD        -23.2930   18.6030   -0.0810 C.3       1 PRO         0.0369
     42 N         -21.3270   19.0580    4.0650 N.am      1 PRO        -0.2498
     43 CA        -21.5450   19.9140    5.2380 C.3       1 PRO         0.1338
     44 C         -21.6150   21.4080    4.8960 C.2       1 PRO         0.2042
     45 O         -20.9070   21.8610    3.9890 O.2       1 PRO        -0.3944
     46 CB        -20.3270   19.6150    6.1240 C.3       1 PRO        -0.0104
     47 CG        -19.2950   19.0650    5.1920 C.3       1 PRO        -0.0281
     48 CD        -20.0630   18.3060    4.1540 C.3       1 PRO         0.0369
     49 N         -22.4750   22.1520    5.5930 N.am      1 THR        -0.2613
     50 CA        -22.4950   23.6080    5.4740 C.3       1 THR         0.1567
     51 C         -21.3340   24.1400    6.3210 C.2       1 THR         0.2090
     52 O         -21.2290   23.8110    7.5050 O.2       1 THR        -0.3941
     53 CB        -23.8410   24.2160    5.9290 C.3       1 THR         0.0924
     54 OG1       -24.9270   23.4400    5.4030 O.3       1 THR        -0.3874
     55 CG2       -23.9710   25.6560    5.4390 C.3       1 THR        -0.0346
     56 N         -20.4520   24.9560    5.7140 N.am      1 PRO        -0.2498
     57 CA        -19.1510   25.3140    6.3070 C.3       1 PRO         0.1338
     58 C         -19.1450   26.2730    7.5070 C.2       1 PRO         0.2042
     59 O         -19.9470   26.1500    8.4330 O.2       1 PRO        -0.3944
     60 CB        -18.4010   25.9730    5.1350 C.3       1 PRO        -0.0104
     61 CG        -19.1590   25.6040    3.9090 C.3       1 PRO        -0.0281
     62 CD        -20.5780   25.4550    4.3350 C.3       1 PRO         0.0369
     63 N         -18.2030   27.2160    7.4720 N.am      1 SER        -0.2616
     64 CA        -18.0000   28.1960    8.5400 C.3       1 SER         0.1539
     65 C         -18.7650   29.5230    8.4570 C.2       1 SER         0.2062
     66 O         -19.6580   29.7780    9.2680 O.2       1 SER        -0.3943
     67 CB        -16.5120   28.5250    8.6220 C.3       1 SER         0.0843
     68 OG        -16.1630   29.4830    7.6380 O.3       1 SER        -0.3903
     69 N         -18.4430   30.3430    7.4570 N.am      1 LYS        -0.2637
     70 CA        -18.9800   31.7020    7.3730 C.3       1 LYS         0.1312
     71 C         -19.0280   32.2170    5.9260 C.2       1 LYS         0.2064
     72 O         -18.1640   31.8860    5.1170 O.2       1 LYS        -0.3942
     73 CB        -18.1360   32.6310    8.2660 C.3       1 LYS        -0.0122
     74 CG        -18.1160   34.1020    7.8880 C.3       1 LYS        -0.0440
     75 CD        -17.4300   34.9360    8.9690 C.3       1 LYS        -0.0124
     76 CE        -17.6340   36.4260    8.7250 C.3       1 LYS        -0.0354
     77 NZ        -17.5210   37.2420    9.9620 N.4       1 LYS         0.2185
     78 N         -20.0640   33.0180    5.6030 N.am      1 PRO        -0.2498
     79 CA        -20.5450   33.3060    4.2490 C.3       1 PRO         0.1337
     80 C         -19.5400   33.7070    3.1760 C.2       1 PRO         0.2036
     81 O         -19.5080   33.0400    2.1430 O.2       1 PRO        -0.3944
     82 CB        -21.4820   34.4960    4.4890 C.3       1 PRO        -0.0104
     83 CG        -21.9550   34.3390    5.9350 C.3       1 PRO        -0.0281
     84 CD        -21.1870   33.1810    6.5410 C.3       1 PRO         0.0369
     85 N         -18.7530   34.7550    3.4030 N.am      1 SER        -0.2672
     86 CA        -17.9020   35.3090    2.3500 C.3       1 SER         0.1173
     87 C         -16.4240   35.2920    2.7270 C.2       1 SER         0.0623
     88 O         -15.5650   35.1020    1.8690 O.co2     1 SER        -0.5665
     89 CB        -18.3300   36.7410    2.0140 C.3       1 SER         0.0789
     90 OG        -17.8280   37.1470    0.7500 O.3       1 SER        -0.3910
     91 OXT       -16.0770   35.4680    3.8930 O.co2     1 SER        -0.5665
     92 H1        -31.2454    8.1435    0.6872 H         1 GLY         0.2012
     93 H2        -30.6605    9.6821    0.6911 H         1 GLY         0.2012
     94 H3        -29.6980    8.4345    1.1673 H         1 GLY         0.2012
     95 H4        -30.7792    8.8457   -1.5198 H         1 GLY         0.1061
     96 H5        -29.7289    7.4842   -1.0002 H         1 GLY         0.1061
     97 H6        -29.8306   10.6578   -2.2503 H         1 ARG         0.1884
     98 H7        -26.9121   10.6604   -2.4830 H         1 ARG         0.0800
     99 H8        -28.7966   12.9293   -3.2040 H         1 ARG         0.0313
    100 H9        -28.6026   11.4760   -4.2418 H         1 ARG         0.0313
    101 H10       -26.1319   11.9990   -4.3233 H         1 ARG         0.0301
    102 H11       -26.5181   13.5622   -3.5270 H         1 ARG         0.0301
    103 H12       -27.9852   14.2008   -5.3330 H         1 ARG         0.0689
    104 H13       -27.8636   12.5704   -6.0772 H         1 ARG         0.0689
    105 H14       -25.8857   14.7687   -6.2100 H         1 ARG         0.2642
    106 H15       -25.3085   11.1231   -7.9132 H         1 ARG         0.2615
    107 H16       -26.6547   11.3498   -6.7646 H         1 ARG         0.2615
    108 H17       -24.1918   14.4741   -7.6572 H         1 ARG         0.2615
    109 H18       -23.9368   12.8867   -8.4304 H         1 ARG         0.2615
    110 H19       -25.5111   11.9140   -1.2687 H         1 ARG         0.1883
    111 H20       -26.8531   13.1719    1.0590 H         1 ARG         0.0800
    112 H21       -24.7008   12.8548    2.2487 H         1 ARG         0.0313
    113 H22       -24.0131   12.1070    0.7672 H         1 ARG         0.0313
    114 H23       -24.7505   10.3835    2.3782 H         1 ARG         0.0301
    115 H24       -25.7328   10.3211    0.8755 H         1 ARG         0.0301
    116 H25       -27.4974   11.6631    1.9593 H         1 ARG         0.0689
    117 H26       -26.5113   11.7653    3.4572 H         1 ARG         0.0689
    118 H27       -26.8314    9.0352    3.0203 H         1 ARG         0.2642
    119 H28       -30.2972   10.8810    4.0722 H         1 ARG         0.2615
    120 H29       -28.9796   11.8309    3.3344 H         1 ARG         0.2615
    121 H30       -28.5064    7.8250    3.9595 H         1 ARG         0.2615
    122 H31       -30.0368    8.6234    4.4103 H         1 ARG         0.2615
    123 H32       -26.3615   15.0791    1.8856 H         1 LEU         0.1883
    124 H33       -25.2941   17.0860    0.0503 H         1 LEU         0.0800
    125 H34       -25.7834   18.5672    2.1287 H         1 LEU         0.0315
    126 H35       -26.6088   17.1045    2.7658 H         1 LEU         0.0315
    127 H36       -28.1764   17.2268    0.8308 H         1 LEU         0.0298
    128 H37       -29.4480   19.1408    1.7365 H         1 LEU         0.0232
    129 H38       -27.9809   19.7003    2.6088 H         1 LEU         0.0232
    130 H39       -28.7444   18.1347    3.0477 H         1 LEU         0.0232
    131 H40       -26.7268   18.5406   -0.6948 H         1 LEU         0.0232
    132 H41       -26.8430   19.9479    0.4155 H         1 LEU         0.0232
    133 H42       -28.3106   19.3444   -0.4263 H         1 LEU         0.0232
    134 H43       -21.3413   17.2508    2.1547 H         1 PRO         0.0802
    135 H44       -20.5011   18.2817    0.1776 H         1 PRO         0.0313
    136 H45       -20.4522   19.6943    1.2861 H         1 PRO         0.0313
    137 H46       -21.8153   19.8732   -1.0017 H         1 PRO         0.0287
    138 H47       -22.5332   20.5321    0.5073 H         1 PRO         0.0287
    139 H48       -24.2762   19.0940   -0.1283 H         1 PRO         0.0524
    140 H49       -23.1662   17.9510   -0.9578 H         1 PRO         0.0524
    141 H50       -22.4759   19.6260    5.7484 H         1 PRO         0.0802
    142 H51       -20.5834   18.8752    6.8966 H         1 PRO         0.0313
    143 H52       -19.9630   20.5354    6.6040 H         1 PRO         0.0313
    144 H53       -18.6084   18.3947    5.7298 H         1 PRO         0.0287
    145 H54       -18.7219   19.8808    4.7272 H         1 PRO         0.0287
    146 H55       -19.5331   18.3070    3.1901 H         1 PRO         0.0524
    147 H56       -20.2412   17.2686    4.4734 H         1 PRO         0.0524
    148 H57       -23.1206   21.7032    6.2109 H         1 THR         0.1884
    149 H58       -22.3323   23.8837    4.4216 H         1 THR         0.0826
    150 H59       -23.8856   24.2043    7.0280 H         1 THR         0.0639
    151 H60       -25.7512   23.8183    5.6859 H         1 THR         0.2101
    152 H61       -24.9337   26.0711    5.7721 H         1 THR         0.0257
    153 H62       -23.9240   25.6751    4.3402 H         1 THR         0.0257
    154 H63       -23.1491   26.2594    5.8517 H         1 THR         0.0257
    155 H64       -18.6416   24.3904    6.6191 H         1 PRO         0.0802
    156 H65       -17.3706   25.5922    5.0772 H         1 PRO         0.0313
    157 H66       -18.3817   27.0658    5.2588 H         1 PRO         0.0313
    158 H67       -18.7819   24.6564    3.4969 H         1 PRO         0.0287
    159 H68       -19.0685   26.3956    3.1506 H         1 PRO         0.0287
    160 H69       -21.1032   26.4212    4.3094 H         1 PRO         0.0524
    161 H70       -21.1092   24.7319    3.6986 H         1 PRO         0.0524
    162 H71       -17.6029   27.2558    6.6731 H         1 SER         0.1884
    163 H72       -18.3069   27.7091    9.4774 H         1 SER         0.0823
    164 H73       -15.9283   27.6073    8.4575 H         1 SER         0.0606
    165 H74       -16.2848   28.9303    9.6190 H         1 SER         0.0606
    166 H75       -15.2352   29.6771    7.7017 H         1 SER         0.2097
    167 H76       -17.8182   30.0214    6.7455 H         1 LYS         0.1883
    168 H77       -20.0097   31.6895    7.7598 H         1 LYS         0.0800
    169 H78       -17.0987   32.2658    8.2416 H         1 LYS         0.0312
    170 H79       -18.5275   32.5550    9.2912 H         1 LYS         0.0312
    171 H80       -19.1502   34.4554    7.7632 H         1 LYS         0.0269
    172 H81       -17.5705   34.2225    6.9405 H         1 LYS         0.0269
    173 H82       -16.3524   34.7154    8.9630 H         1 LYS         0.0317
    174 H83       -17.8531   34.6714    9.9493 H         1 LYS         0.0317
    175 H84       -18.6362   36.5764    8.2972 H         1 LYS         0.0813
    176 H85       -16.8739   36.7703    8.0083 H         1 LYS         0.0813
    177 H86       -17.6648   38.2141    9.7375 H         1 LYS         0.1994
    178 H87       -16.6033   37.1216   10.3613 H         1 LYS         0.1994
    179 H88       -18.2182   36.9438   10.6261 H         1 LYS         0.1994
    180 H89       -21.1006   32.4326    3.8769 H         1 PRO         0.0802
    181 H90       -22.3361   34.4619    3.7966 H         1 PRO         0.0313
    182 H91       -20.9425   35.4458    4.3593 H         1 PRO         0.0313
    183 H92       -23.0341   34.1265    5.9565 H         1 PRO         0.0287
    184 H93       -21.7515   35.2611    6.4992 H         1 PRO         0.0287
    185 H94       -20.8285   33.4271    7.5514 H         1 PRO         0.0524
    186 H95       -21.8054   32.2723    6.5825 H         1 PRO         0.0524
    187 H96       -18.7429   35.1725    4.3116 H         1 SER         0.1876
    188 H97       -18.0308   34.6882    1.4511 H         1 SER         0.0749
    189 H98       -17.9442   37.4210    2.7878 H         1 SER         0.0599
    190 H99       -19.4287   36.7916    1.9960 H         1 SER         0.0599
    191 H100      -18.1090   38.0364    0.5697 H         1 SER         0.2096
@<TRIPOS>BOND
     1    1    2 1  
     2    2    3 1  
     3    3    4 2  
     4    3    5 am 
     5    5    6 1  
     6    6    7 1  
     7    6    9 1  
     8    7    8 2  
     9    7   16 am 
    10    9   10 1  
    11   10   11 1  
    12   11   12 1  
    13   12   13 ar 
    14   13   14 ar 
    15   13   15 ar 
    16   16   17 1  
    17   17   18 1  
    18   17   20 1  
    19   18   19 2  
    20   18   27 am 
    21   20   21 1  
    22   21   22 1  
    23   22   23 1  
    24   23   24 ar 
    25   24   25 ar 
    26   24   26 ar 
    27   27   28 1  
    28   28   29 1  
    29   28   31 1  
    30   29   30 2  
    31   29   35 am 
    32   31   32 1  
    33   32   33 1  
    34   32   34 1  
    35   35   36 1  
    36   35   41 1  
    37   36   37 1  
    38   36   39 1  
    39   37   38 2  
    40   37   42 am 
    41   39   40 1  
    42   40   41 1  
    43   42   43 1  
    44   42   48 1  
    45   43   44 1  
    46   43   46 1  
    47   44   45 2  
    48   44   49 am 
    49   46   47 1  
    50   47   48 1  
    51   49   50 1  
    52   50   51 1  
    53   50   53 1  
    54   51   52 2  
    55   51   56 am 
    56   53   54 1  
    57   53   55 1  
    58   56   57 1  
    59   56   62 1  
    60   57   58 1  
    61   57   60 1  
    62   58   59 2  
    63   58   63 am 
    64   60   61 1  
    65   61   62 1  
    66   63   64 1  
    67   64   65 1  
    68   64   67 1  
    69   65   66 2  
    70   65   69 am 
    71   67   68 1  
    72   69   70 1  
    73   70   71 1  
    74   70   73 1  
    75   71   72 2  
    76   71   78 am 
    77   73   74 1  
    78   74   75 1  
    79   75   76 1  
    80   76   77 1  
    81   78   79 1  
    82   78   84 1  
    83   79   80 1  
    84   79   82 1  
    85   80   81 2  
    86   80   85 am 
    87   82   83 1  
    88   83   84 1  
    89   85   86 1  
    90   86   87 1  
    91   86   89 1  
    92   87   88 ar 
    93   87   91 ar 
    94   89   90 1  
    95    1   92 1  
    96    1   93 1  
    97    1   94 1  
    98    2   95 1  
    99    2   96 1  
   100    5   97 1  
   101    6   98 1  
   102    9   99 1  
   103    9  100 1  
   104   10  101 1  
   105   10  102 1  
   106   11  103 1  
   107   11  104 1  
   108   12  105 1  
   109   14  106 1  
   110   14  107 1  
   111   15  108 1  
   112   15  109 1  
   113   16  110 1  
   114   17  111 1  
   115   20  112 1  
   116   20  113 1  
   117   21  114 1  
   118   21  115 1  
   119   22  116 1  
   120   22  117 1  
   121   23  118 1  
   122   25  119 1  
   123   25  120 1  
   124   26  121 1  
   125   26  122 1  
   126   27  123 1  
   127   28  124 1  
   128   31  125 1  
   129   31  126 1  
   130   32  127 1  
   131   33  128 1  
   132   33  129 1  
   133   33  130 1  
   134   34  131 1  
   135   34  132 1  
   136   34  133 1  
   137   36  134 1  
   138   39  135 1  
   139   39  136 1  
   140   40  137 1  
   141   40  138 1  
   142   41  139 1  
   143   41  140 1  
   144   43  141 1  
   145   46  142 1  
   146   46  143 1  
   147   47  144 1  
   148   47  145 1  
   149   48  146 1  
   150   48  147 1  
   151   49  148 1  
   152   50  149 1  
   153   53  150 1  
   154   54  151 1  
   155   55  152 1  
   156   55  153 1  
   157   55  154 1  
   158   57  155 1  
   159   60  156 1  
   160   60  157 1  
   161   61  158 1  
   162   61  159 1  
   163   62  160 1  
   164   62  161 1  
   165   63  162 1  
   166   64  163 1  
   167   67  164 1  
   168   67  165 1  
   169   68  166 1  
   170   69  167 1  
   171   70  168 1  
   172   73  169 1  
   173   73  170 1  
   174   74  171 1  
   175   74  172 1  
   176   75  173 1  
   177   75  174 1  
   178   76  175 1  
   179   76  176 1  
   180   77  177 1  
   181   77  178 1  
   182   77  179 1  
   183   79  180 1  
   184   82  181 1  
   185   82  182 1  
   186   83  183 1  
   187   83  184 1  
   188   84  185 1  
   189   84  186 1  
   190   85  187 1  
   191   86  188 1  
   192   89  189 1  
   193   89  190 1  
   194   90  191 1  
@<TRIPOS>SUBSTRUCTURE
     1 GLY         1

