4z89_ligand
  -I-interpret- 

190193  0  0  0  0  0  0  0  0999 V2000
  -30.4290    8.7140    0.5320 N   0  3  0  0  0
  -29.9730    8.5440   -0.8350 C   0  0  0  0  0
  -28.7450    9.3810   -1.1240 C   0  0  0  0  0
  -27.6520    9.0690   -0.6550 O   0  0  0  0  0
  -28.9170   10.4400   -1.9070 N   0  0  0  0  0
  -27.7910   11.2870   -2.2710 C   0  0  0  0  0
  -27.5070   12.1790   -1.0830 C   0  0  0  0  0
  -28.4290   12.7490   -0.5030 O   0  0  0  0  0
  -28.1080   12.1260   -3.5050 C   0  0  0  0  0
  -26.9110   12.7600   -4.1690 C   0  0  0  0  0
  -27.3220   13.3410   -5.5090 C   0  0  0  0  0
  -26.1790   13.7850   -6.2950 N   0  0  0  0  0
  -25.4930   12.9980   -7.1140 C   0  0  0  0  0
  -25.8450   11.7290   -7.2760 N   0  0  0  0  0
  -24.4650   13.4890   -7.7830 N   0  0  0  0  0
  -26.2410   12.3190   -0.7180 N   0  0  0  0  0
  -25.9190   13.0650    0.4880 C   0  0  0  0  0
  -25.3880   14.4700    0.2390 C   0  0  0  0  0
  -24.6780   14.7270   -0.7320 O   0  0  0  0  0
  -24.9340   12.2710    1.3460 C   0  0  0  0  0
  -25.4950   10.9170    1.7690 C   0  0  0  0  0
  -26.7650   11.1380    2.5900 C   0  0  0  0  0
  -27.3800    9.9050    3.0790 N   0  0  0  0  0
  -28.6040    9.8370    3.5950 C   0  0  0  0  0
  -29.3490   10.9310    3.6730 N   0  0  0  0  0
  -29.0850    8.6750    4.0200 N   0  0  0  0  0
  -25.7600   15.3710    1.1420 N   0  0  0  0  0
  -25.3340   16.7630    1.1010 C   0  0  0  0  0
  -23.9490   16.9200    1.7150 C   0  0  0  0  0
  -23.5920   16.1900    2.6450 O   0  0  0  0  0
  -26.3300   17.6530    1.8540 C   0  0  0  0  0
  -27.6410   18.1110    1.2070 C   0  0  0  0  0
  -28.5130   18.8200    2.2190 C   0  0  0  0  0
  -27.3610   19.0510    0.0450 C   0  0  0  0  0
  -23.1410   17.8420    1.1710 N   0  0  0  0  0
  -21.8870   18.1570    1.8530 C   0  0  0  0  0
  -22.2230   19.0050    3.0740 C   0  0  0  0  0
  -23.3060   19.5890    3.1190 O   0  0  0  0  0
  -21.1060   18.9500    0.8080 C   0  0  0  0  0
  -22.1840   19.6190    0.0030 C   0  0  0  0  0
  -23.2930   18.6030   -0.0810 C   0  0  0  0  0
  -21.3270   19.0580    4.0650 N   0  0  0  0  0
  -21.5450   19.9140    5.2380 C   0  0  0  0  0
  -21.6150   21.4080    4.8960 C   0  0  0  0  0
  -20.9070   21.8610    3.9890 O   0  0  0  0  0
  -20.3270   19.6150    6.1240 C   0  0  0  0  0
  -19.2950   19.0650    5.1920 C   0  0  0  0  0
  -20.0630   18.3060    4.1540 C   0  0  0  0  0
  -22.4750   22.1520    5.5930 N   0  0  0  0  0
  -22.4950   23.6080    5.4740 C   0  0  0  0  0
  -21.3340   24.1400    6.3210 C   0  0  0  0  0
  -21.2290   23.8110    7.5050 O   0  0  0  0  0
  -23.8410   24.2160    5.9290 C   0  0  0  0  0
  -24.9270   23.4400    5.4030 O   0  0  0  0  0
  -23.9710   25.6560    5.4390 C   0  0  0  0  0
  -20.4520   24.9560    5.7140 N   0  0  0  0  0
  -19.1510   25.3140    6.3070 C   0  0  0  0  0
  -19.1450   26.2730    7.5070 C   0  0  0  0  0
  -19.9470   26.1500    8.4330 O   0  0  0  0  0
  -18.4010   25.9730    5.1350 C   0  0  0  0  0
  -19.1590   25.6040    3.9090 C   0  0  0  0  0
  -20.5780   25.4550    4.3350 C   0  0  0  0  0
  -18.2030   27.2160    7.4720 N   0  0  0  0  0
  -18.0000   28.1960    8.5400 C   0  0  0  0  0
  -18.7650   29.5230    8.4570 C   0  0  0  0  0
  -19.6580   29.7780    9.2680 O   0  0  0  0  0
  -16.5120   28.5250    8.6220 C   0  0  0  0  0
  -16.1630   29.4830    7.6380 O   0  0  0  0  0
  -18.4430   30.3430    7.4570 N   0  0  0  0  0
  -18.9800   31.7020    7.3730 C   0  0  0  0  0
  -19.0280   32.2170    5.9260 C   0  0  0  0  0
  -18.1640   31.8860    5.1170 O   0  0  0  0  0
  -18.1360   32.6310    8.2660 C   0  0  0  0  0
  -18.1160   34.1020    7.8880 C   0  0  0  0  0
  -17.4300   34.9360    8.9690 C   0  0  0  0  0
  -17.6340   36.4260    8.7250 C   0  0  0  0  0
  -17.5210   37.2420    9.9620 N   0  3  0  0  0
  -20.0640   33.0180    5.6030 N   0  0  0  0  0
  -20.5450   33.3060    4.2490 C   0  0  0  0  0
  -19.5400   33.7070    3.1760 C   0  0  0  0  0
  -19.5080   33.0400    2.1430 O   0  0  0  0  0
  -21.4820   34.4960    4.4890 C   0  0  0  0  0
  -21.9550   34.3390    5.9350 C   0  0  0  0  0
  -21.1870   33.1810    6.5410 C   0  0  0  0  0
  -18.7530   34.7550    3.4030 N   0  0  0  0  0
  -17.9020   35.3090    2.3500 C   0  0  0  0  0
  -16.4240   35.2920    2.7270 C   0  0  0  0  0
  -15.5650   35.1020    1.8690 O   0  0  0  0  0
  -18.3300   36.7410    2.0140 C   0  0  0  0  0
  -17.8280   37.1470    0.7500 O   0  0  0  0  0
  -16.0770   35.4680    3.8930 O   0  0  0  0  0
  -31.2550    8.1363    0.6879 H   0  0  0  0  0
  -29.6885    8.4309    1.1738 H   0  0  0  0  0
  -30.6628    9.6939    0.6918 H   0  0  0  0  0
  -30.7712    8.8626   -1.5054 H   0  0  0  0  0
  -29.7163    7.4951   -0.9834 H   0  0  0  0  0
  -29.8489   10.6621   -2.2572 H   0  0  0  0  0
  -26.9225   10.6768   -2.5190 H   0  0  0  0  0
  -28.7530   12.9403   -3.1749 H   0  0  0  0  0
  -28.5544   11.4530   -4.2371 H   0  0  0  0  0
  -26.1394   12.0055   -4.3223 H   0  0  0  0  0
  -26.5224   13.5552   -3.5329 H   0  0  0  0  0
  -27.9586   14.2056   -5.3210 H   0  0  0  0  0
  -27.8360   12.5615   -6.0714 H   0  0  0  0  0
  -25.8885   14.7591   -6.2109 H   0  0  0  0  0
  -25.3219   11.1325   -7.9171 H   0  0  0  0  0
  -26.6387   11.3500   -6.7595 H   0  0  0  0  0
  -24.2026   14.4680   -7.6684 H   0  0  0  0  0
  -25.4965   11.9059   -1.2797 H   0  0  0  0  0
  -26.8631   13.1991    1.0160 H   0  0  0  0  0
  -24.7290   12.8485    2.2474 H   0  0  0  0  0
  -24.0358   12.0948    0.7541 H   0  0  0  0  0
  -24.7572   10.3853    2.3699 H   0  0  0  0  0
  -25.7279   10.3236    0.8849 H   0  0  0  0  0
  -27.4906   11.6244    1.9380 H   0  0  0  0  0
  -26.4867   11.7284    3.4629 H   0  0  0  0  0
  -26.8368    9.0437    3.0208 H   0  0  0  0  0
  -28.9831   11.8221    3.3377 H   0  0  0  0  0
  -30.0276    8.6239    4.4065 H   0  0  0  0  0
  -28.5120    7.8333    3.9601 H   0  0  0  0  0
  -26.3736   15.0733    1.9005 H   0  0  0  0  0
  -25.2969   17.0715    0.0562 H   0  0  0  0  0
  -25.7807   18.5807    2.0146 H   0  0  0  0  0
  -26.6546   17.0321    2.6890 H   0  0  0  0  0
  -28.1611   17.2264    0.8396 H   0  0  0  0  0
  -28.7415   18.1399    3.0396 H   0  0  0  0  0
  -27.9846   19.6920    2.6045 H   0  0  0  0  0
  -29.4391   19.1373    1.7397 H   0  0  0  0  0
  -26.8204   19.9249    0.4084 H   0  0  0  0  0
  -26.7584   18.5340   -0.7018 H   0  0  0  0  0
  -28.3042   19.3655   -0.4017 H   0  0  0  0  0
  -21.3192   17.2951    2.2035 H   0  0  0  0  0
  -20.4595   18.3179    0.1992 H   0  0  0  0  0
  -20.4129   19.6629    1.2547 H   0  0  0  0  0
  -21.8283   19.9122   -0.9847 H   0  0  0  0  0
  -22.5193   20.5463    0.4675 H   0  0  0  0  0
  -24.2776   19.0598   -0.1807 H   0  0  0  0  0
  -23.2233   17.9741   -0.9686 H   0  0  0  0  0
  -22.5031   19.7043    5.7136 H   0  0  0  0  0
  -20.5696   18.9099    6.9191 H   0  0  0  0  0
  -19.9721   20.5087    6.6372 H   0  0  0  0  0
  -18.5847   18.4237    5.7138 H   0  0  0  0  0
  -18.6942   19.8577    4.7463 H   0  0  0  0  0
  -19.5389   18.2444    3.2003 H   0  0  0  0  0
  -20.2110   17.2589    4.4182 H   0  0  0  0  0
  -23.1335   21.6942    6.2232 H   0  0  0  0  0
  -22.3828   23.8962    4.4288 H   0  0  0  0  0
  -23.8730   24.2061    7.0185 H   0  0  0  0  0
  -25.7599   23.8223    5.6889 H   0  0  0  0  0
  -23.1560   26.2528    5.8486 H   0  0  0  0  0
  -23.9242   25.6735    4.3501 H   0  0  0  0  0
  -24.9252   26.0662    5.7696 H   0  0  0  0  0
  -18.7141   24.4111    6.7336 H   0  0  0  0  0
  -17.3684   25.6281    5.0813 H   0  0  0  0  0
  -18.3473   27.0548    5.2571 H   0  0  0  0  0
  -18.7785   24.6809    3.4717 H   0  0  0  0  0
  -19.0561   26.3658    3.1363 H   0  0  0  0  0
  -21.1412   26.3859    4.2698 H   0  0  0  0  0
  -21.1468   24.7845    3.6908 H   0  0  0  0  0
  -17.5909   27.2566    6.6571 H   0  0  0  0  0
  -18.4074   27.6999    9.4210 H   0  0  0  0  0
  -15.9372   27.6148    8.4510 H   0  0  0  0  0
  -16.2925   28.9332    9.6085 H   0  0  0  0  0
  -15.2255   29.6792    7.7023 H   0  0  0  0  0
  -17.8057   30.0150    6.7313 H   0  0  0  0  0
  -20.0104   31.6906    7.7282 H   0  0  0  0  0
  -17.1071   32.2826    8.1758 H   0  0  0  0  0
  -18.5820   32.5811    9.2593 H   0  0  0  0  0
  -19.1435   34.4488    7.7783 H   0  0  0  0  0
  -17.5635   34.2159    6.9553 H   0  0  0  0  0
  -16.3613   34.7225    8.9483 H   0  0  0  0  0
  -17.8634   34.6785    9.9354 H   0  0  0  0  0
  -18.6410   36.5615    8.3304 H   0  0  0  0  0
  -16.8558   36.7580    8.0378 H   0  0  0  0  0
  -17.6667   38.2254    9.7337 H   0  0  0  0  0
  -18.2269   36.9394   10.6332 H   0  0  0  0  0
  -16.5921   37.1193   10.3651 H   0  0  0  0  0
  -20.9570   32.3846    3.8375 H   0  0  0  0  0
  -22.3169   34.5015    3.7883 H   0  0  0  0  0
  -20.9760   35.4482    4.3298 H   0  0  0  0  0
  -23.0270   34.1444    5.9669 H   0  0  0  0  0
  -21.7723   35.2544    6.4979 H   0  0  0  0  0
  -20.8643   33.3715    7.5646 H   0  0  0  0  0
  -21.7889   32.2785    6.6476 H   0  0  0  0  0
  -18.7427   35.1809    4.3298 H   0  0  0  0  0
  -18.0281   34.6713    1.4751 H   0  0  0  0  0
  -17.9312   37.4100    2.7766 H   0  0  0  0  0
  -19.4189   36.7791    1.9831 H   0  0  0  0  0
  -18.1120   38.0458    0.5679 H   0  0  0  0  0
  -16.8543   35.6016    4.4403 H   0  0  0  0  0
  1  2  1  0  0  0
  2  3  1  0  0  0
  3  4  2  0  0  0
  3  5  1  0  0  0
  5  6  1  0  0  0
  6  7  1  0  0  0
  6  9  1  0  0  0
  7  8  2  0  0  0
  7 16  1  0  0  0
  9 10  1  0  0  0
 10 11  1  0  0  0
 11 12  1  0  0  0
 12 13  1  0  0  0
 13 14  1  0  0  0
 13 15  2  0  0  0
 16 17  1  0  0  0
 17 18  1  0  0  0
 17 20  1  0  0  0
 18 19  2  0  0  0
 18 27  1  0  0  0
 20 21  1  0  0  0
 21 22  1  0  0  0
 22 23  1  0  0  0
 23 24  1  0  0  0
 24 25  2  0  0  0
 24 26  1  0  0  0
 27 28  1  0  0  0
 28 29  1  0  0  0
 28 31  1  0  0  0
 29 30  2  0  0  0
 29 35  1  0  0  0
 31 32  1  0  0  0
 32 33  1  0  0  0
 32 34  1  0  0  0
 35 36  1  0  0  0
 35 41  1  0  0  0
 36 37  1  0  0  0
 36 39  1  0  0  0
 37 38  2  0  0  0
 37 42  1  0  0  0
 39 40  1  0  0  0
 40 41  1  0  0  0
 42 43  1  0  0  0
 42 48  1  0  0  0
 43 44  1  0  0  0
 43 46  1  0  0  0
 44 45  2  0  0  0
 44 49  1  0  0  0
 46 47  1  0  0  0
 47 48  1  0  0  0
 49 50  1  0  0  0
 50 51  1  0  0  0
 50 53  1  0  0  0
 51 52  2  0  0  0
 51 56  1  0  0  0
 53 54  1  0  0  0
 53 55  1  0  0  0
 56 57  1  0  0  0
 56 62  1  0  0  0
 57 58  1  0  0  0
 57 60  1  0  0  0
 58 59  2  0  0  0
 58 63  1  0  0  0
 60 61  1  0  0  0
 61 62  1  0  0  0
 63 64  1  0  0  0
 64 65  1  0  0  0
 64 67  1  0  0  0
 65 66  2  0  0  0
 65 69  1  0  0  0
 67 68  1  0  0  0
 69 70  1  0  0  0
 70 71  1  0  0  0
 70 73  1  0  0  0
 71 72  2  0  0  0
 71 78  1  0  0  0
 73 74  1  0  0  0
 74 75  1  0  0  0
 75 76  1  0  0  0
 76 77  1  0  0  0
 78 79  1  0  0  0
 78 84  1  0  0  0
 79 80  1  0  0  0
 79 82  1  0  0  0
 80 81  2  0  0  0
 80 85  1  0  0  0
 82 83  1  0  0  0
 83 84  1  0  0  0
 85 86  1  0  0  0
 86 87  1  0  0  0
 86 89  1  0  0  0
 87 88  2  0  0  0
 87 91  1  0  0  0
 89 90  1  0  0  0
  1 92  1  0  0  0
  1 93  1  0  0  0
  1 94  1  0  0  0
  2 95  1  0  0  0
  2 96  1  0  0  0
  5 97  1  0  0  0
  6 98  1  0  0  0
  9 99  1  0  0  0
  9100  1  0  0  0
 10101  1  0  0  0
 10102  1  0  0  0
 11103  1  0  0  0
 11104  1  0  0  0
 12105  1  0  0  0
 14106  1  0  0  0
 14107  1  0  0  0
 15108  1  0  0  0
 16109  1  0  0  0
 17110  1  0  0  0
 20111  1  0  0  0
 20112  1  0  0  0
 21113  1  0  0  0
 21114  1  0  0  0
 22115  1  0  0  0
 22116  1  0  0  0
 23117  1  0  0  0
 25118  1  0  0  0
 26119  1  0  0  0
 26120  1  0  0  0
 27121  1  0  0  0
 28122  1  0  0  0
 31123  1  0  0  0
 31124  1  0  0  0
 32125  1  0  0  0
 33126  1  0  0  0
 33127  1  0  0  0
 33128  1  0  0  0
 34129  1  0  0  0
 34130  1  0  0  0
 34131  1  0  0  0
 36132  1  0  0  0
 39133  1  0  0  0
 39134  1  0  0  0
 40135  1  0  0  0
 40136  1  0  0  0
 41137  1  0  0  0
 41138  1  0  0  0
 43139  1  0  0  0
 46140  1  0  0  0
 46141  1  0  0  0
 47142  1  0  0  0
 47143  1  0  0  0
 48144  1  0  0  0
 48145  1  0  0  0
 49146  1  0  0  0
 50147  1  0  0  0
 53148  1  0  0  0
 54149  1  0  0  0
 55150  1  0  0  0
 55151  1  0  0  0
 55152  1  0  0  0
 57153  1  0  0  0
 60154  1  0  0  0
 60155  1  0  0  0
 61156  1  0  0  0
 61157  1  0  0  0
 62158  1  0  0  0
 62159  1  0  0  0
 63160  1  0  0  0
 64161  1  0  0  0
 67162  1  0  0  0
 67163  1  0  0  0
 68164  1  0  0  0
 69165  1  0  0  0
 70166  1  0  0  0
 73167  1  0  0  0
 73168  1  0  0  0
 74169  1  0  0  0
 74170  1  0  0  0
 75171  1  0  0  0
 75172  1  0  0  0
 76173  1  0  0  0
 76174  1  0  0  0
 77175  1  0  0  0
 77176  1  0  0  0
 77177  1  0  0  0
 79178  1  0  0  0
 82179  1  0  0  0
 82180  1  0  0  0
 83181  1  0  0  0
 83182  1  0  0  0
 84183  1  0  0  0
 84184  1  0  0  0
 85185  1  0  0  0
 86186  1  0  0  0
 89187  1  0  0  0
 89188  1  0  0  0
 90189  1  0  0  0
 91190  1  0  0  0
M  END
$$$$
