### 
### Created by X-TOOL on Sun Sep  9 21:50:43 2018
### 

@<TRIPOS>MOLECULE
3bar_ligand
   32    33     1     0     0
SMALL
GAST_HUCK


@<TRIPOS>ATOM
      1 N1         23.7790    9.8500   13.4060 N.am      1 NON        -0.1592
      2 C2         23.7390    8.5750   12.9920 C.2       1 NON         0.3328
      3 N3         22.6890    8.1670   12.3050 N.am      1 NON        -0.1865
      4 C4         21.7000    8.9620   11.9430 C.2       1 NON         0.1822
      5 C5         21.7150   10.2990   12.3430 C.2       1 NON         0.0062
      6 C6         22.7940   10.7570   13.0770 C.2       1 NON         0.0591
      7 O2         24.6010    7.7340   13.2410 O.2       1 NON        -0.3815
      8 O4         20.8280    8.4630   11.2810 O.2       1 NON        -0.4124
      9 C1'        24.9870   10.2450   14.0620 C.3       1 NON         0.2059
     10 C2'        25.4580    9.7060   15.3900 C.3       1 NON         0.1387
     11 O2'        24.8400   10.4230   16.3930 O.3       1 NON        -0.3836
     12 C3'        26.9710    9.9550   15.2680 C.3       1 NON         0.1149
     13 C4'        27.1990    9.6570   13.7970 C.3       1 NON         0.1182
     14 O3'        27.2910   11.3140   15.5340 O.3       1 NON        -0.3864
     15 O4'        26.0560   10.1010   13.1390 O.3       1 NON        -0.3363
     16 C5'        27.6190    8.2020   13.4940 C.3       1 NON         0.1072
     17 O5'        28.9190    7.8820   13.8850 O.3       1 NON        -0.2734
     18 P          29.6090    6.4390   13.8560 P.3       1 NON         0.2008
     19 O1P        30.4280    6.4970   14.9930 O.co2     1 NON        -0.5537
     20 O2P        28.5450    5.5270   13.9220 O.co2     1 NON        -0.5537
     21 O3P        30.3800    6.3690   12.7300 O.co2     1 NON        -0.5537
     22 H1         22.6400    7.2028   12.0445 H         1 NON         0.2259
     23 H2         20.8951   10.9669   12.0829 H         1 NON         0.0258
     24 H3         22.8633   11.7993   13.3849 H         1 NON         0.1178
     25 H4         24.8511   11.3214   14.2433 H         1 NON         0.0997
     26 H5         25.2395    8.6348   15.5117 H         1 NON         0.0676
     27 H6         23.8982   10.3248   16.3168 H         1 NON         0.2101
     28 H7         27.5521    9.2903   15.9241 H         1 NON         0.0648
     29 H8         28.0367   10.2842   13.4579 H         1 NON         0.0650
     30 H9         28.2022   11.4720   15.3168 H         1 NON         0.2100
     31 H10        27.5367    8.0394   12.4092 H         1 NON         0.0639
     32 H11        26.9265    7.5280   14.0194 H         1 NON         0.0639
@<TRIPOS>BOND
     1    1    2 am 
     2    1    6 1  
     3    1    9 1  
     4    2    3 am 
     5    2    7 2  
     6    3    4 am 
     7    4    5 1  
     8    4    8 2  
     9    5    6 2  
    10    9   10 1  
    11    9   15 1  
    12   10   11 1  
    13   10   12 1  
    14   12   13 1  
    15   12   14 1  
    16   13   15 1  
    17   13   16 1  
    18   16   17 1  
    19   17   18 1  
    20   18   19 ar 
    21   18   20 ar 
    22   18   21 ar 
    23    3   22 1  
    24    5   23 1  
    25    6   24 1  
    26    9   25 1  
    27   10   26 1  
    28   11   27 1  
    29   12   28 1  
    30   13   29 1  
    31   14   30 1  
    32   16   31 1  
    33   16   32 1  
@<TRIPOS>SUBSTRUCTURE
     1 NON         1

