3bar_ligand
  -I-interpret- 

 34 35  0  0  0  0  0  0  0  0999 V2000
   23.7790    9.8500   13.4060 N   0  0  0  0  0
   23.7390    8.5750   12.9920 C   0  0  0  0  0
   22.6890    8.1670   12.3050 N   0  0  0  0  0
   21.7000    8.9620   11.9430 C   0  0  0  0  0
   21.7150   10.2990   12.3430 C   0  0  0  0  0
   22.7940   10.7570   13.0770 C   0  0  0  0  0
   24.6010    7.7340   13.2410 O   0  0  0  0  0
   20.8280    8.4630   11.2810 O   0  0  0  0  0
   24.9870   10.2450   14.0620 C   0  0  0  0  0
   25.4580    9.7060   15.3900 C   0  0  0  0  0
   24.8400   10.4230   16.3930 O   0  0  0  0  0
   26.9710    9.9550   15.2680 C   0  0  0  0  0
   27.1990    9.6570   13.7970 C   0  0  0  0  0
   27.2910   11.3140   15.5340 O   0  0  0  0  0
   26.0560   10.1010   13.1390 O   0  0  0  0  0
   27.6190    8.2020   13.4940 C   0  0  0  0  0
   28.9190    7.8820   13.8850 O   0  0  0  0  0
   29.6090    6.4390   13.8560 P   0  0  0  0  0
   30.4280    6.4970   14.9930 O   0  0  0  0  0
   28.5450    5.5270   13.9220 O   0  0  0  0  0
   30.3800    6.3690   12.7300 O   0  0  0  0  0
   22.6391    7.1835   12.0393 H   0  0  0  0  0
   20.8944   10.9675   12.0827 H   0  0  0  0  0
   22.8634   11.8002   13.3851 H   0  0  0  0  0
   24.6867   11.2455   14.3732 H   0  0  0  0  0
   25.2343    8.6649   15.6228 H   0  0  0  0  0
   25.1294   10.0920   17.2464 H   0  0  0  0  0
   27.5710    9.3651   15.9609 H   0  0  0  0  0
   28.0728   10.1900   13.4223 H   0  0  0  0  0
   28.2390   11.4405   15.4510 H   0  0  0  0  0
   27.5706    8.0746   12.4126 H   0  0  0  0  0
   26.9478    7.5526   14.0560 H   0  0  0  0  0
   29.8792    6.5460   15.7791 H   0  0  0  0  0
   28.0665    5.6543   14.7445 H   0  0  0  0  0
  1  2  1  0  0  0
  1  6  1  0  0  0
  1  9  1  0  0  0
  2  3  1  0  0  0
  2  7  2  0  0  0
  3  4  1  0  0  0
  4  5  1  0  0  0
  4  8  2  0  0  0
  5  6  2  0  0  0
  9 10  1  0  0  0
  9 15  1  0  0  0
 10 11  1  0  0  0
 10 12  1  0  0  0
 12 13  1  0  0  0
 12 14  1  0  0  0
 13 15  1  0  0  0
 13 16  1  0  0  0
 16 17  1  0  0  0
 17 18  1  0  0  0
 18 19  1  0  0  0
 18 20  1  0  0  0
 18 21  2  0  0  0
  3 22  1  0  0  0
  5 23  1  0  0  0
  6 24  1  0  0  0
  9 25  1  0  0  0
 10 26  1  0  0  0
 11 27  1  0  0  0
 12 28  1  0  0  0
 13 29  1  0  0  0
 14 30  1  0  0  0
 16 31  1  0  0  0
 16 32  1  0  0  0
 19 33  1  0  0  0
 20 34  1  0  0  0
M  END
$$$$
