2viw_ligand
  -I-interpret- 

 64 66  0  0  0  0  0  0  0  0999 V2000
   22.3980   12.5370   29.2640 N   0  0  0  0  0
   21.6380   13.7920   29.2710 C   0  0  0  0  0
   20.5380   13.7550   28.2210 C   0  0  0  0  0
   19.6090   12.5740   28.4470 C   0  0  0  0  0
   20.3980   11.2830   28.5750 C   0  0  0  0  0
   21.5070   11.4220   29.6070 C   0  0  0  0  0
   23.6920   12.4940   29.8640 C   0  0  0  0  0
   23.9320   13.1210   31.0800 C   0  0  0  0  0
   25.1860   13.0570   31.6720 C   0  0  0  0  0
   25.4520   13.8390   33.1940 Cl  0  0  0  0  0
   26.2190   12.3390   31.0560 C   0  0  0  0  0
   25.9880   11.7180   29.8320 C   0  0  0  0  0
   27.0480   11.0010   29.2510 N   0  0  0  0  0
   27.2980   10.8090   27.9530 C   0  0  0  0  0
   26.7970   11.4760   27.0800 O   0  0  0  0  0
   28.2220    9.6830   27.6380 C   0  0  0  0  0
   27.9790    8.4350   28.2040 C   0  0  0  0  0
   28.7950    7.3490   27.9200 C   0  0  0  0  0
   29.6670   13.2840   31.9400 C   0  0  0  0  0
   28.5230    6.0020   28.5350 C   0  0  0  0  0
   29.8760    7.5340   27.0490 C   0  0  0  0  0
   30.7020    6.4720   26.7840 O   0  0  0  0  0
   31.6910    6.1440   27.7720 C   0  0  0  0  0
   31.8350    4.6350   27.8070 C   0  0  0  0  0
   33.1180    4.2180   27.1750 N   0  3  0  0  0
   30.1380    8.7930   26.4730 C   0  0  0  0  0
   31.3080    8.9850   25.5460 C   0  0  0  0  0
   29.2980    9.8570   26.7760 C   0  0  0  0  0
   24.7260   11.7880   29.2590 C   0  0  0  0  0
   27.4860   12.2800   31.5860 O   0  0  0  0  0
   28.4710   13.2160   31.0450 C   0  0  0  0  0
   22.3144   14.6167   29.0462 H   0  0  0  0  0
   21.1853   13.9262   30.2534 H   0  0  0  0  0
   20.9968   13.6558   27.2373 H   0  0  0  0  0
   19.9574   14.6749   28.2902 H   0  0  0  0  0
   18.9341   12.4901   27.5952 H   0  0  0  0  0
   19.0511   12.7375   29.3690 H   0  0  0  0  0
   20.8463   11.0499   27.6092 H   0  0  0  0  0
   19.7215   10.4898   28.8933 H   0  0  0  0  0
   21.0591   11.6158   30.5817 H   0  0  0  0  0
   22.0879   10.4999   29.6265 H   0  0  0  0  0
   23.1288   13.6680   31.5737 H   0  0  0  0  0
   27.7082   10.5744   29.9011 H   0  0  0  0  0
   27.1343    8.3085   28.8812 H   0  0  0  0  0
   29.3598   13.6218   32.9298 H   0  0  0  0  0
   30.1189   12.2950   32.0162 H   0  0  0  0  0
   30.3911   13.9846   31.5241 H   0  0  0  0  0
   28.5715    6.0833   29.6209 H   0  0  0  0  0
   27.5305    5.6625   28.2388 H   0  0  0  0  0
   29.2708    5.2884   28.1890 H   0  0  0  0  0
   31.3848    6.5161   28.7497 H   0  0  0  0  0
   32.6445    6.6077   27.5191 H   0  0  0  0  0
   31.0074    4.1876   27.2565 H   0  0  0  0  0
   31.8274    4.3027   28.8451 H   0  0  0  0  0
   33.1972    3.2016   27.2078 H   0  0  0  0  0
   33.1347    4.5304   26.2042 H   0  0  0  0  0
   33.8974    4.6375   27.6819 H   0  0  0  0  0
   32.2312    8.7465   26.0740 H   0  0  0  0  0
   31.1997    8.3256   24.6849 H   0  0  0  0  0
   31.3375   10.0215   25.2101 H   0  0  0  0  0
   29.4843   10.8359   26.3342 H   0  0  0  0  0
   24.5411   11.2781   28.3135 H   0  0  0  0  0
   28.7834   12.8737   30.0584 H   0  0  0  0  0
   28.0209   14.2063   30.9760 H   0  0  0  0  0
  1  2  1  0  0  0
  1  6  1  0  0  0
  7  1  1  0  0  0
  2  3  1  0  0  0
  3  4  1  0  0  0
  5  4  1  0  0  0
  6  5  1  0  0  0
  8  7  4  0  0  0
 29  7  4  0  0  0
  9  8  4  0  0  0
  9 10  1  0  0  0
 11  9  4  0  0  0
 11 12  4  0  0  0
 30 11  1  0  0  0
 12 13  1  0  0  0
 12 29  4  0  0  0
 13 14  1  0  0  0
 14 15  2  0  0  0
 14 16  1  0  0  0
 16 17  4  0  0  0
 16 28  4  0  0  0
 17 18  4  0  0  0
 18 20  1  0  0  0
 18 21  4  0  0  0
 31 19  1  0  0  0
 21 22  1  0  0  0
 26 21  4  0  0  0
 22 23  1  0  0  0
 23 24  1  0  0  0
 24 25  1  0  0  0
 26 27  1  0  0  0
 28 26  4  0  0  0
 30 31  1  0  0  0
  2 32  1  0  0  0
  2 33  1  0  0  0
  3 34  1  0  0  0
  3 35  1  0  0  0
  4 36  1  0  0  0
  4 37  1  0  0  0
  5 38  1  0  0  0
  5 39  1  0  0  0
  6 40  1  0  0  0
  6 41  1  0  0  0
  8 42  1  0  0  0
 13 43  1  0  0  0
 17 44  1  0  0  0
 19 45  1  0  0  0
 19 46  1  0  0  0
 19 47  1  0  0  0
 20 48  1  0  0  0
 20 49  1  0  0  0
 20 50  1  0  0  0
 23 51  1  0  0  0
 23 52  1  0  0  0
 24 53  1  0  0  0
 24 54  1  0  0  0
 25 55  1  0  0  0
 25 56  1  0  0  0
 25 57  1  0  0  0
 27 58  1  0  0  0
 27 59  1  0  0  0
 27 60  1  0  0  0
 28 61  1  0  0  0
 29 62  1  0  0  0
 31 63  1  0  0  0
 31 64  1  0  0  0
M  END
$$$$
