1o49_ligand
  -I-interpret- 

 81 84  0  0  0  0  0  0  0  0999 V2000
   17.9950   24.7810   19.7560 C   0  0  0  0  0
   16.9630   25.3480   19.0580 C   0  0  0  0  0
   17.2960   26.4740   18.3550 C   0  0  0  0  0
   18.6110   27.0000   18.2810 C   0  0  0  0  0
   19.6710   26.4390   19.0430 C   0  0  0  0  0
   19.2790   25.3190   19.7630 C   0  0  0  0  0
   16.0200   28.0840   17.0160 C   0  0  0  0  0
   15.1300   29.0820   17.6980 C   0  0  0  0  0
   20.1580   24.5360   20.6750 C   0  0  0  0  0
   19.7200   25.0560   21.9730 C   0  0  0  0  0
   20.3640   24.2650   23.0800 C   0  0  0  0  0
   19.6560   23.2710   23.6450 N   0  0  0  0  0
   20.2420   26.4830   22.0420 N   0  0  0  0  0
   19.5540   27.4340   22.6320 C   0  0  0  0  0
   19.9200   28.7660   21.8800 C   0  0  0  0  0
   18.6860   27.1840   23.4560 O   0  0  0  0  0
   21.4780   24.5410   23.4150 O   0  0  0  0  0
   20.3090   22.2960   24.4390 C   0  0  0  0  0
   19.1850   21.4990   24.9430 C   0  0  0  0  0
   19.4960   20.7240   26.2170 C   0  0  0  0  0
   20.7210   19.7890   26.1940 C   0  0  0  0  0
   22.1180   20.3880   25.8710 C   0  0  0  0  0
   22.3370   20.6630   24.4090 N   0  0  0  0  0
   21.3700   21.4480   23.6410 C   0  0  0  0  0
   23.3700   19.7860   23.6880 C   0  0  0  0  0
   22.7690   18.4000   23.3840 C   0  0  0  0  0
   21.4100   21.4690   22.3490 O   0  0  0  0  0
   16.1340   26.9460   17.8710 O   0  0  0  0  0
   23.2550   17.2490   23.9650 C   0  0  0  0  0
   22.6330   16.0070   23.7130 C   0  0  0  0  0
   21.4920   15.8870   22.8340 C   0  0  0  0  0
   20.9040   17.0700   22.3200 C   0  0  0  0  0
   21.5490   18.3500   22.5790 C   0  0  0  0  0
   20.8760   14.5980   22.4400 C   0  0  0  0  0
   19.4760   14.4650   22.2470 C   0  0  0  0  0
   18.7350   13.3050   22.1580 C   0  0  0  0  0
   19.4900   12.1570   22.2020 C   0  0  0  0  0
   20.8410   12.1450   22.2260 C   0  0  0  0  0
   21.5750   13.3940   22.3830 C   0  0  0  0  0
   18.9540   28.4970   17.2660 P   0  0  0  0  0
   20.4880   28.8870   17.2560 O   0  0  0  0  0
   18.0130   29.6500   18.1210 O   0  0  0  0  0
   18.1370   28.2590   15.6050 O   0  0  0  0  0
   14.3170   29.4790   16.7160 O   0  0  0  0  0
   15.1300   29.4220   18.8570 O   0  0  0  0  0
   17.8041   23.8733   20.3284 H   0  0  0  0  0
   15.9544   24.9348   19.0618 H   0  0  0  0  0
   20.6827   26.8444   19.0603 H   0  0  0  0  0
   17.0025   28.5178   16.8299 H   0  0  0  0  0
   15.5968   27.7942   16.0542 H   0  0  0  0  0
   21.2239   24.6567   20.4815 H   0  0  0  0  0
   20.0614   23.4553   20.5705 H   0  0  0  0  0
   18.6368   24.9975   22.0794 H   0  0  0  0  0
   18.6475   23.2189   23.5017 H   0  0  0  0  0
   21.1443   26.7060   21.6218 H   0  0  0  0  0
   19.0624   29.0991   21.2955 H   0  0  0  0  0
   20.1844   29.5323   22.6087 H   0  0  0  0  0
   20.7660   28.5865   21.2165 H   0  0  0  0  0
   20.9170   22.7282   25.2338 H   0  0  0  0  0
   18.9361   20.7686   24.1732 H   0  0  0  0  0
   18.3763   22.1919   25.1756 H   0  0  0  0  0
   18.6347   20.0779   26.3871 H   0  0  0  0  0
   19.7134   21.4768   26.9747 H   0  0  0  0  0
   20.5228   19.0855   25.3854 H   0  0  0  0  0
   20.8057   19.4111   27.2129 H   0  0  0  0  0
   22.8647   19.6563   26.1796 H   0  0  0  0  0
   22.1925   21.3405   26.3957 H   0  0  0  0  0
   24.2441   19.6641   24.3276 H   0  0  0  0  0
   23.6545   20.2655   22.7514 H   0  0  0  0  0
   24.1234   17.2976   24.6220 H   0  0  0  0  0
   23.0250   15.1118   24.1958 H   0  0  0  0  0
   19.9827   17.0225   21.7395 H   0  0  0  0  0
   21.1236   19.2682   22.1739 H   0  0  0  0  0
   18.9164   15.3962   22.1580 H   0  0  0  0  0
   17.6493   13.2991   22.0615 H   0  0  0  0  0
   18.9682   11.2002   22.2185 H   0  0  0  0  0
   21.3806   11.2030   22.1281 H   0  0  0  0  0
   22.6626   13.3865   22.4553 H   0  0  0  0  0
   17.0911   29.3827   18.1069 H   0  0  0  0  0
   17.2145   28.0267   15.7338 H   0  0  0  0  0
   14.5608   29.0344   15.9008 H   0  0  0  0  0
  2  1  4  0  0  0
  1  6  4  0  0  0
  3  2  4  0  0  0
  3  4  4  0  0  0
 28  3  1  0  0  0
  4  5  4  0  0  0
  4 40  1  0  0  0
  5  6  4  0  0  0
  6  9  1  0  0  0
  7  8  1  0  0  0
  7 28  1  0  0  0
  8 44  1  0  0  0
  8 45  2  0  0  0
  9 10  1  0  0  0
 10 11  1  0  0  0
 10 13  1  0  0  0
 11 12  1  0  0  0
 11 17  2  0  0  0
 12 18  1  0  0  0
 13 14  1  0  0  0
 14 15  1  0  0  0
 14 16  2  0  0  0
 18 19  1  0  0  0
 18 24  1  0  0  0
 19 20  1  0  0  0
 20 21  1  0  0  0
 21 22  1  0  0  0
 22 23  1  0  0  0
 23 24  1  0  0  0
 23 25  1  0  0  0
 24 27  2  0  0  0
 25 26  1  0  0  0
 26 29  4  0  0  0
 26 33  4  0  0  0
 29 30  4  0  0  0
 30 31  4  0  0  0
 31 32  4  0  0  0
 31 34  1  0  0  0
 32 33  4  0  0  0
 34 35  4  0  0  0
 34 39  4  0  0  0
 35 36  4  0  0  0
 36 37  4  0  0  0
 37 38  4  0  0  0
 38 39  4  0  0  0
 40 41  2  0  0  0
 40 42  1  0  0  0
 40 43  1  0  0  0
  1 46  1  0  0  0
  2 47  1  0  0  0
  5 48  1  0  0  0
  7 49  1  0  0  0
  7 50  1  0  0  0
  9 51  1  0  0  0
  9 52  1  0  0  0
 10 53  1  0  0  0
 12 54  1  0  0  0
 13 55  1  0  0  0
 15 56  1  0  0  0
 15 57  1  0  0  0
 15 58  1  0  0  0
 18 59  1  0  0  0
 19 60  1  0  0  0
 19 61  1  0  0  0
 20 62  1  0  0  0
 20 63  1  0  0  0
 21 64  1  0  0  0
 21 65  1  0  0  0
 22 66  1  0  0  0
 22 67  1  0  0  0
 25 68  1  0  0  0
 25 69  1  0  0  0
 29 70  1  0  0  0
 30 71  1  0  0  0
 32 72  1  0  0  0
 33 73  1  0  0  0
 35 74  1  0  0  0
 36 75  1  0  0  0
 37 76  1  0  0  0
 38 77  1  0  0  0
 39 78  1  0  0  0
 42 79  1  0  0  0
 43 80  1  0  0  0
 44 81  1  0  0  0
M  END
$$$$
