### 
### Created by X-TOOL on Mon Sep 10 21:12:51 2018
### 

@<TRIPOS>MOLECULE
1o49_ligand
   78    81     1     0     0
SMALL
GAST_HUCK


@<TRIPOS>ATOM
      1 C1         17.9950   24.7810   19.7560 C.ar      1 493        -0.0212
      2 C2         16.9630   25.3480   19.0580 C.ar      1 493         0.0124
      3 C3         17.2960   26.4740   18.3550 C.ar      1 493         0.1651
      4 C4         18.6110   27.0000   18.2810 C.ar      1 493         0.0843
      5 C5         19.6710   26.4390   19.0430 C.ar      1 493        -0.0055
      6 C6         19.2790   25.3190   19.7630 C.ar      1 493         0.0037
      7 C7         16.0200   28.0840   17.0160 C.3       1 493         0.1382
      8 C8         15.1300   29.0820   17.6980 C.2       1 493         0.0689
      9 C9         20.1580   24.5360   20.6750 C.3       1 493         0.0406
     10 C10        19.7200   25.0560   21.9730 C.3       1 493         0.1467
     11 C11        20.3640   24.2650   23.0800 C.2       1 493         0.2074
     12 N12        19.6560   23.2710   23.6450 N.am      1 493        -0.2635
     13 N13        20.2420   26.4830   22.0420 N.am      1 493        -0.2628
     14 C14        19.5540   27.4340   22.6320 C.2       1 493         0.1753
     15 C15        19.9200   28.7660   21.8800 C.3       1 493         0.0258
     16 O16        18.6860   27.1840   23.4560 O.2       1 493        -0.3972
     17 O17        21.4780   24.5410   23.4150 O.2       1 493        -0.3941
     18 C18        20.3090   22.2960   24.4390 C.3       1 493         0.1312
     19 C19        19.1850   21.4990   24.9430 C.3       1 493        -0.0123
     20 C20        19.4960   20.7240   26.2170 C.3       1 493        -0.0470
     21 C21        20.7210   19.7890   26.1940 C.3       1 493        -0.0321
     22 C22        22.1180   20.3880   25.8710 C.3       1 493         0.0362
     23 N23        22.3370   20.6630   24.4090 N.am      1 493        -0.2598
     24 C24        21.3700   21.4480   23.6410 C.2       1 493         0.2060
     25 C25        23.3700   19.7860   23.6880 C.3       1 493         0.0680
     26 C26        22.7690   18.4000   23.3840 C.ar      1 493        -0.0198
     27 O27        21.4100   21.4690   22.3490 O.2       1 493        -0.3942
     28 O28        16.1340   26.9460   17.8710 O.3       1 493        -0.2646
     29 C49        23.2550   17.2490   23.9650 C.ar      1 493        -0.0570
     30 C50        22.6330   16.0070   23.7130 C.ar      1 493        -0.0600
     31 C51        21.4920   15.8870   22.8340 C.ar      1 493        -0.0242
     32 C52        20.9040   17.0700   22.3200 C.ar      1 493        -0.0600
     33 C53        21.5490   18.3500   22.5790 C.ar      1 493        -0.0570
     34 C58        20.8760   14.5980   22.4400 C.ar      1 493        -0.0221
     35 C59        19.4760   14.4650   22.2470 C.ar      1 493        -0.0557
     36 C60        18.7350   13.3050   22.1580 C.ar      1 493        -0.0622
     37 C61        19.4900   12.1570   22.2020 C.ar      1 493        -0.0627
     38 C62        20.8410   12.1450   22.2260 C.ar      1 493        -0.0622
     39 C63        21.5750   13.3940   22.3830 C.ar      1 493        -0.0557
     40 P71        18.9540   28.4970   17.2660 P.3       1 493        -0.0235
     41 O72        20.4880   28.8870   17.2560 O.co2     1 493        -0.6805
     42 O73        18.0130   29.6500   18.1210 O.co2     1 493        -0.6805
     43 O74        18.1370   28.2590   15.6050 O.co2     1 493        -0.6805
     44 O79        14.3170   29.4790   16.7160 O.co2     1 493        -0.5660
     45 O80        15.1300   29.4220   18.8570 O.co2     1 493        -0.5660
     46 H1         17.8052   23.8782   20.3253 H         1 493         0.0730
     47 H2         15.9599   24.9371   19.0618 H         1 493         0.0738
     48 H3         20.6771   26.8422   19.0602 H         1 493         0.0745
     49 H4         17.0134   28.5241   16.8443 H         1 493         0.0824
     50 H5         15.5795   27.7861   16.0531 H         1 493         0.0824
     51 H6         21.2225   24.7439   20.4918 H         1 493         0.0584
     52 H7         19.9751   23.4549   20.5873 H         1 493         0.0584
     53 H8         18.6241   25.0250   22.0625 H         1 493         0.0840
     54 H9         18.6672   23.2199   23.5045 H         1 493         0.1883
     55 H10        21.1266   26.7016   21.6300 H         1 493         0.1885
     56 H11        19.3707   29.6050   22.3320 H         1 493         0.0467
     57 H12        19.6437   28.6760   20.8191 H         1 493         0.0467
     58 H13        21.0015   28.9487   21.9630 H         1 493         0.0467
     59 H14        20.8295   22.7822   25.2772 H         1 493         0.0800
     60 H15        18.8940   20.7798   24.1632 H         1 493         0.0312
     61 H16        18.3442   22.1779   25.1479 H         1 493         0.0312
     62 H17        18.6152   20.1088   26.4530 H         1 493         0.0268
     63 H18        19.6560   21.4586   27.0200 H         1 493         0.0268
     64 H19        20.5206   19.0131   25.4405 H         1 493         0.0285
     65 H20        20.7912   19.3247   27.1887 H         1 493         0.0285
     66 H21        22.8866   19.6775   26.2092 H         1 493         0.0524
     67 H22        22.2255   21.3341   26.4217 H         1 493         0.0524
     68 H23        24.2557   19.6656   24.3291 H         1 493         0.0689
     69 H24        23.6631   20.2701   22.7448 H         1 493         0.0689
     70 H25        24.1186   17.2974   24.6184 H         1 493         0.0561
     71 H26        23.0228   15.1167   24.1931 H         1 493         0.0609
     72 H27        19.9878   17.0227   21.7427 H         1 493         0.0609
     73 H28        21.1259   19.2631   22.1762 H         1 493         0.0561
     74 H29        18.9195   15.3910   22.1585 H         1 493         0.0615
     75 H30        17.6553   13.2991   22.0621 H         1 493         0.0615
     76 H31        18.9710   11.2054   22.2184 H         1 493         0.0610
     77 H32        21.3776   11.2082   22.1287 H         1 493         0.0615
     78 H33        22.6566   13.3865   22.4549 H         1 493         0.0615
@<TRIPOS>BOND
     1    2    1 ar 
     2    1    6 ar 
     3    3    2 ar 
     4    3    4 ar 
     5   28    3 1  
     6    4    5 ar 
     7    4   40 1  
     8    5    6 ar 
     9    6    9 1  
    10    7    8 1  
    11    7   28 1  
    12    8   44 ar 
    13    8   45 ar 
    14    9   10 1  
    15   10   11 1  
    16   10   13 1  
    17   11   12 am 
    18   11   17 2  
    19   12   18 1  
    20   13   14 am 
    21   14   15 1  
    22   14   16 2  
    23   18   19 1  
    24   18   24 1  
    25   19   20 1  
    26   20   21 1  
    27   21   22 1  
    28   22   23 1  
    29   23   24 am 
    30   23   25 1  
    31   24   27 2  
    32   25   26 1  
    33   26   29 ar 
    34   26   33 ar 
    35   29   30 ar 
    36   30   31 ar 
    37   31   32 ar 
    38   31   34 1  
    39   32   33 ar 
    40   34   35 ar 
    41   34   39 ar 
    42   35   36 ar 
    43   36   37 ar 
    44   37   38 ar 
    45   38   39 ar 
    46   40   41 ar 
    47   40   42 ar 
    48   40   43 ar 
    49    1   46 1  
    50    2   47 1  
    51    5   48 1  
    52    7   49 1  
    53    7   50 1  
    54    9   51 1  
    55    9   52 1  
    56   10   53 1  
    57   12   54 1  
    58   13   55 1  
    59   15   56 1  
    60   15   57 1  
    61   15   58 1  
    62   18   59 1  
    63   19   60 1  
    64   19   61 1  
    65   20   62 1  
    66   20   63 1  
    67   21   64 1  
    68   21   65 1  
    69   22   66 1  
    70   22   67 1  
    71   25   68 1  
    72   25   69 1  
    73   29   70 1  
    74   30   71 1  
    75   32   72 1  
    76   33   73 1  
    77   35   74 1  
    78   36   75 1  
    79   37   76 1  
    80   38   77 1  
    81   39   78 1  
@<TRIPOS>SUBSTRUCTURE
     1 493         1

