5eci_ligand
  -I-interpret- 

 35 35  0  0  0  0  0  0  0  0999 V2000
  -40.4540   36.4910   50.7080 O   0  0  0  0  0
  -43.9430   32.2460   49.2210 O   0  0  0  0  0
  -43.2030   30.2660   49.5080 O   0  0  0  0  0
  -41.7040   33.2400   50.5690 C   0  0  0  0  0
  -40.4690   34.2710   50.1940 C   0  0  0  0  0
  -41.7080   33.2550   51.8010 C   0  0  0  0  0
  -41.8880   34.7990   51.9380 C   0  0  0  0  0
  -40.8180   35.3520   50.8530 C   0  0  0  0  0
  -40.8680   34.0610   48.7780 C   0  0  0  0  0
  -41.7360   31.8430   50.1730 C   0  0  0  0  0
  -39.8090   34.2700   47.7900 C   0  0  0  0  0
  -43.0500   31.4670   49.5900 C   0  0  0  0  0
  -40.1160   33.5580   46.7630 C   0  0  0  0  0
  -41.2830   34.0850   46.0230 C   0  0  0  0  0
  -41.8800   33.0780   45.2130 C   0  0  0  0  0
  -43.6530   33.1510   49.3571 H   0  0  0  0  0
  -42.5443   33.6187   49.9871 H   0  0  0  0  0
  -39.3963   34.2227   50.3815 H   0  0  0  0  0
  -40.8439   32.8159   52.2996 H   0  0  0  0  0
  -42.4499   32.6289   52.2966 H   0  0  0  0  0
  -41.7131   35.1689   52.9483 H   0  0  0  0  0
  -42.9080   35.1357   51.7530 H   0  0  0  0  0
  -41.6448   34.7943   48.5615 H   0  0  0  0  0
  -41.1726   33.0180   48.6919 H   0  0  0  0  0
  -41.5655   31.2310   51.0587 H   0  0  0  0  0
  -40.9666   31.6824   49.4178 H   0  0  0  0  0
  -38.8395   33.9751   48.1914 H   0  0  0  0  0
  -39.7297   35.3237   47.5226 H   0  0  0  0  0
  -40.3700   32.5584   47.1157 H   0  0  0  0  0
  -39.2619   33.5661   46.0858 H   0  0  0  0  0
  -40.9467   34.8958   45.3768 H   0  0  0  0  0
  -42.0223   34.4337   46.7440 H   0  0  0  0  0
  -41.1485   32.7119   44.4926 H   0  0  0  0  0
  -42.2126   32.2548   45.8453 H   0  0  0  0  0
  -42.7344   33.4990   44.6831 H   0  0  0  0  0
  8  1  2  0  0  0
 12  2  1  0  0  0
 12  3  2  0  0  0
  4  5  1  0  0  0
  4  6  1  0  0  0
 10  4  1  0  0  0
  5  8  1  0  0  0
  5  9  1  0  0  0
  6  7  1  0  0  0
  7  8  1  0  0  0
  9 11  1  0  0  0
 10 12  1  0  0  0
 11 13  1  0  0  0
 13 14  1  0  0  0
 14 15  1  0  0  0
  2 16  1  0  0  0
  4 17  1  0  0  0
  5 18  1  0  0  0
  6 19  1  0  0  0
  6 20  1  0  0  0
  7 21  1  0  0  0
  7 22  1  0  0  0
  9 23  1  0  0  0
  9 24  1  0  0  0
 10 25  1  0  0  0
 10 26  1  0  0  0
 11 27  1  0  0  0
 11 28  1  0  0  0
 13 29  1  0  0  0
 13 30  1  0  0  0
 14 31  1  0  0  0
 14 32  1  0  0  0
 15 33  1  0  0  0
 15 34  1  0  0  0
 15 35  1  0  0  0
M  END
$$$$
