4w9g_ligand
  -I-interpret- 

 58 60  0  0  0  0  0  0  0  0999 V2000
   11.5140   51.7650   94.0140 C   0  0  0  0  0
   12.8260   52.5330   93.8180 C   0  0  0  0  0
   13.7650   51.7170   92.9150 C   0  0  0  0  0
   13.4650   52.7160   95.1970 C   0  0  0  0  0
   12.5370   53.9230   93.2720 C   0  0  0  0  0
   12.1490   53.8620   91.7690 C   0  0  0  0  0
   10.9790   53.6250   91.4660 O   0  0  0  0  0
   13.0940   54.1460   90.8380 N   0  0  0  0  0
   14.5440   54.5150   90.9840 C   0  0  0  0  0
   14.9190   55.2490   89.7170 C   0  0  0  0  0
   14.6100   56.6420   89.8390 O   0  0  0  0  0
   14.0430   54.6210   88.6620 C   0  0  0  0  0
   12.7510   54.2040   89.3700 C   0  0  0  0  0
   12.3170   52.9980   88.8180 C   0  0  0  0  0
   12.8070   51.9320   89.1870 O   0  0  0  0  0
   11.3870   53.1030   87.8410 N   0  0  0  0  0
   10.8910   51.9310   87.1270 C   0  0  0  0  0
   11.6850   51.7730   85.9620 C   0  0  0  0  0
   11.7050   50.5260   85.3410 C   0  0  0  0  0
   12.4730   50.2860   84.2010 C   0  0  0  0  0
   12.4190   48.9930   83.6620 C   0  0  0  0  0
   12.4620   52.7980   85.4050 C   0  0  0  0  0
   13.2300   52.5730   84.2640 C   0  0  0  0  0
   13.2490   51.3270   83.6410 C   0  0  0  0  0
   14.0180   51.1800   82.5440 C   0  0  0  0  0
   15.6020   51.6610   82.4150 S   0  0  0  0  0
   15.8050   51.1480   80.8630 C   0  0  0  0  0
   14.6420   50.6190   80.4640 N   0  0  0  0  0
   13.6480   50.6340   81.3770 C   0  0  0  0  0
   10.8809   52.3039   94.7189 H   0  0  0  0  0
   11.0002   51.6758   93.0568 H   0  0  0  0  0
   11.7312   50.7711   94.4052 H   0  0  0  0  0
   13.3098   51.5994   91.9316 H   0  0  0  0  0
   14.7166   52.2393   92.8162 H   0  0  0  0  0
   13.9321   50.7357   93.3592 H   0  0  0  0  0
   14.3865   53.2894   95.0958 H   0  0  0  0  0
   12.7732   53.2497   95.8487 H   0  0  0  0  0
   13.6887   51.7388   95.6249 H   0  0  0  0  0
   13.4342   54.5331   93.3768 H   0  0  0  0  0
   11.7050   54.3518   93.8305 H   0  0  0  0  0
   15.1637   53.6294   91.1244 H   0  0  0  0  0
   14.7052   55.1389   91.8632 H   0  0  0  0  0
   15.9825   55.1770   89.4890 H   0  0  0  0  0
   14.8532   57.0948   89.0282 H   0  0  0  0  0
   14.5343   53.7624   88.2042 H   0  0  0  0  0
   13.8384   55.3226   87.8533 H   0  0  0  0  0
   11.9176   54.8950   89.2438 H   0  0  0  0  0
   11.0235   54.0244   87.5974 H   0  0  0  0  0
    9.8429   52.0638   86.8586 H   0  0  0  0  0
   10.9585   51.0442   87.7572 H   0  0  0  0  0
   11.1049   49.7165   85.7566 H   0  0  0  0  0
   12.7639   48.2756   84.4067 H   0  0  0  0  0
   11.3920   48.7608   83.3803 H   0  0  0  0  0
   13.0593   48.9408   82.7814 H   0  0  0  0  0
   12.4656   53.7837   85.8702 H   0  0  0  0  0
   13.8266   53.3866   83.8515 H   0  0  0  0  0
   16.7169   51.2250   80.2709 H   0  0  0  0  0
   12.6488   50.2430   81.1854 H   0  0  0  0  0
  1  2  1  0  0  0
  2  3  1  0  0  0
  2  4  1  0  0  0
  2  5  1  0  0  0
  5  6  1  0  0  0
  6  7  2  0  0  0
  6  8  1  0  0  0
  8  9  1  0  0  0
  8 13  1  0  0  0
  9 10  1  0  0  0
 10 11  1  0  0  0
 10 12  1  0  0  0
 12 13  1  0  0  0
 13 14  1  0  0  0
 14 15  2  0  0  0
 14 16  1  0  0  0
 16 17  1  0  0  0
 17 18  1  0  0  0
 18 19  4  0  0  0
 18 22  4  0  0  0
 19 20  4  0  0  0
 20 21  1  0  0  0
 20 24  4  0  0  0
 22 23  4  0  0  0
 23 24  4  0  0  0
 24 25  1  0  0  0
 25 26  4  0  0  0
 25 29  4  0  0  0
 26 27  4  0  0  0
 27 28  4  0  0  0
 28 29  4  0  0  0
  1 30  1  0  0  0
  1 31  1  0  0  0
  1 32  1  0  0  0
  3 33  1  0  0  0
  3 34  1  0  0  0
  3 35  1  0  0  0
  4 36  1  0  0  0
  4 37  1  0  0  0
  4 38  1  0  0  0
  5 39  1  0  0  0
  5 40  1  0  0  0
  9 41  1  0  0  0
  9 42  1  0  0  0
 10 43  1  0  0  0
 11 44  1  0  0  0
 12 45  1  0  0  0
 12 46  1  0  0  0
 13 47  1  0  0  0
 16 48  1  0  0  0
 17 49  1  0  0  0
 17 50  1  0  0  0
 19 51  1  0  0  0
 21 52  1  0  0  0
 21 53  1  0  0  0
 21 54  1  0  0  0
 22 55  1  0  0  0
 23 56  1  0  0  0
 27 57  1  0  0  0
 29 58  1  0  0  0
M  END
$$$$
