3o6m_ligand
  -I-interpret- 

164169  0  0  0  0  0  0  0  0999 V2000
   52.0060   13.1810  -12.5830 N   0  3  0  0  0
   51.1800   12.0290  -12.1440 C   0  0  0  0  0
   51.7030   11.3570  -10.8710 C   0  0  0  0  0
   52.9050   11.0130  -10.7730 O   0  0  0  0  0
   51.2350   11.0670  -13.3390 C   0  0  0  0  0
   52.6230   11.3440  -13.9640 C   0  0  0  0  0
   52.8770   12.8600  -13.7390 C   0  0  0  0  0
   50.7920   11.1850   -9.9160 N   0  0  0  0  0
   51.1100   10.6900   -8.5670 C   0  0  0  0  0
   50.3380    9.3730   -8.3740 C   0  0  0  0  0
   49.3690    9.2830   -7.5920 O   0  0  0  0  0
   50.6990   11.7370   -7.5160 C   0  0  0  0  0
   51.3250   13.1440   -7.7060 C   0  0  0  0  0
   50.8840   14.1760   -6.6430 C   0  0  0  0  0
   51.7540   15.4200   -6.6740 C   0  0  0  0  0
   50.9620   16.6720   -6.4560 N   0  3  0  0  0
   50.7390    8.3810   -9.1590 N   0  0  0  0  0
   49.9490    7.1900   -9.3660 C   0  0  0  0  0
   50.5210    6.0590   -8.5350 C   0  0  0  0  0
   51.6510    6.1300   -8.1150 O   0  0  0  0  0
   49.9360    6.8040  -10.8470 C   0  0  0  0  0
   49.3690    7.7320  -11.9410 C   0  0  0  0  0
   49.3910    7.0470  -13.2950 C   0  0  0  0  0
   47.9690    8.2440  -11.6360 C   0  0  0  0  0
   49.7270    5.0260   -8.2710 N   0  0  0  0  0
   50.2350    3.8170   -7.6250 C   0  0  0  0  0
   51.1450    3.0130   -8.5840 C   0  0  0  0  0
   51.0050    3.1370   -9.7880 O   0  0  0  0  0
   49.0530    2.9480   -7.1960 C   0  0  0  0  0
   48.4610    3.3170   -5.8620 C   0  0  0  0  0
   46.9380    3.1620   -5.8630 C   0  0  0  0  0
   46.3590    2.8000   -4.8240 O   0  0  0  0  0
   46.3410    3.4100   -6.9160 O   0  0  0  0  0
   52.0260    2.1330   -8.0520 N   0  0  0  0  0
   53.0210    1.4850   -8.9140 C   0  0  0  0  0
   52.4430    0.6640  -10.0670 C   0  0  0  0  0
   52.9880    0.7040  -11.1670 O   0  0  0  0  0
   53.7790    0.6010   -7.9590 C   0  0  0  0  0
   53.5570    1.1860   -6.5940 C   0  0  0  0  0
   52.1760    1.7410   -6.6390 C   0  0  0  0  0
   51.3180   -0.0280   -9.8470 N   0  0  0  0  0
   50.7200   -0.8910  -10.8890 C   0  0  0  0  0
   50.0350   -0.1090  -12.0100 C   0  0  0  0  0
   49.6430   -0.6890  -13.0320 O   0  0  0  0  0
   49.7460   -1.8800  -10.2670 C   0  0  0  0  0
   48.7600   -1.2540   -9.2930 C   0  0  0  0  0
   48.9090   -1.1650   -7.9540 C   0  0  0  0  0
   47.4630   -0.6850   -9.5980 C   0  0  0  0  0
   47.8130   -0.5530   -7.3940 N   0  0  0  0  0
   46.9030   -0.2550   -8.3760 C   0  0  0  0  0
   46.7240   -0.5040  -10.7830 C   0  0  0  0  0
   45.6250    0.3820   -8.2880 C   0  0  0  0  0
   45.3990    0.1340  -10.7000 C   0  0  0  0  0
   44.8860    0.5390   -9.4590 C   0  0  0  0  0
   49.9010    1.2150  -11.8330 N   0  0  0  0  0
   49.3480    2.0510  -12.8860 C   0  0  0  0  0
   50.2710    2.1470  -14.1030 C   0  0  0  0  0
   51.4860    2.0660  -13.9700 O   0  0  0  0  0
   49.0640    3.4710  -12.3620 C   0  0  0  0  0
   47.8200    3.6140  -11.5020 C   0  0  0  0  0
   46.5480    3.2340  -12.2520 C   0  0  0  0  0
   45.3290    3.4900  -11.3820 C   0  0  0  0  0
   45.0300    4.9130  -11.1370 N   0  3  0  0  0
   49.6830    2.3870  -15.2740 N   0  0  0  0  0
   50.4680    2.6050  -16.4860 C   0  0  0  0  0
   51.2490    3.9500  -16.4770 C   0  0  0  0  0
   50.6310    5.0370  -16.3440 O   0  0  0  0  0
   49.5680    2.4870  -17.7260 C   0  0  0  0  0
   50.3210    2.1870  -18.9830 C   0  0  0  0  0
   51.0200    3.1510  -19.6820 N   0  0  0  0  0
   50.5100    1.0200  -19.6520 C   0  0  0  0  0
   51.6100    2.5920  -20.7230 C   0  0  0  0  0
   51.3130    1.3010  -20.7330 N   0  0  0  0  0
   52.6020    3.8870  -16.6230 N   0  0  0  0  0
   53.4510    5.1050  -16.7140 C   0  0  0  0  0
   53.0230    6.1390  -17.7870 C   0  0  0  0  0
   51.9415    6.0060  -18.4197 O   0  0  0  0  0
   54.8580    4.5550  -17.0350 C   0  0  0  0  0
   54.6590    3.1150  -17.4330 C   0  0  0  0  0
   53.4210    2.6600  -16.6830 C   0  0  0  0  0
   53.7672    7.1263  -18.0299 O   0  0  0  0  0
   52.6082   13.4471  -11.8039 H   0  0  0  0  0
   51.3723   13.9276  -12.8685 H   0  0  0  0  0
   50.1695   12.3418  -11.8810 H   0  0  0  0  0
   50.4199   11.2303  -14.0440 H   0  0  0  0  0
   51.1114   10.0255  -13.0422 H   0  0  0  0  0
   52.6457   11.0857  -15.0227 H   0  0  0  0  0
   53.4000   10.7338  -13.5035 H   0  0  0  0  0
   53.9263   13.0873  -13.5510 H   0  0  0  0  0
   52.6463   13.4603  -14.6190 H   0  0  0  0  0
   49.8203   11.4085  -10.1309 H   0  0  0  0  0
   52.1795   10.5156   -8.4492 H   0  0  0  0  0
   51.0478   11.3667   -6.5520 H   0  0  0  0  0
   49.6194   11.8603   -7.6023 H   0  0  0  0  0
   50.9950   13.5169   -8.6756 H   0  0  0  0  0
   52.4057   13.0318   -7.6194 H   0  0  0  0  0
   50.9763   13.7165   -5.6589 H   0  0  0  0  0
   49.8561   14.4701   -6.8553 H   0  0  0  0  0
   52.2212   15.4819   -7.6569 H   0  0  0  0  0
   52.4879   15.3398   -5.8721 H   0  0  0  0  0
   51.5869   17.4776   -6.4853 H   0  0  0  0  0
   50.2580   16.7595   -7.1889 H   0  0  0  0  0
   50.5035   16.6287   -5.5459 H   0  0  0  0  0
   51.6382    8.4628   -9.6336 H   0  0  0  0  0
   48.9221    7.3848   -9.0566 H   0  0  0  0  0
   49.2691    5.9423  -10.8770 H   0  0  0  0  0
   50.9943    6.7350  -11.0987 H   0  0  0  0  0
   50.0234    8.6034  -11.9622 H   0  0  0  0  0
   50.4177    6.7865  -13.5523 H   0  0  0  0  0
   48.7849    6.1420  -13.2528 H   0  0  0  0  0
   48.9862    7.7221  -14.0489 H   0  0  0  0  0
   47.2877    7.3988  -11.5384 H   0  0  0  0  0
   47.9851    8.8088  -10.7039 H   0  0  0  0  0
   47.6348    8.8899  -12.4479 H   0  0  0  0  0
   48.7405    5.0782   -8.5250 H   0  0  0  0  0
   50.8270    4.1072   -6.7570 H   0  0  0  0  0
   49.4221    1.9260   -7.1102 H   0  0  0  0  0
   48.2696    3.0831   -7.9418 H   0  0  0  0  0
   48.7022    4.3593   -5.6532 H   0  0  0  0  0
   48.8756    2.6523   -5.1041 H   0  0  0  0  0
   47.0071    2.6619   -4.1294 H   0  0  0  0  0
   53.6267    2.2326   -9.4262 H   0  0  0  0  0
   54.8397    0.5672   -8.2077 H   0  0  0  0  0
   53.4280   -0.4297   -8.0100 H   0  0  0  0  0
   54.2949    1.9520   -6.3555 H   0  0  0  0  0
   53.6688    0.4384   -5.8087 H   0  0  0  0  0
   51.4207    1.0248   -6.3155 H   0  0  0  0  0
   52.0313    2.5736   -5.9506 H   0  0  0  0  0
   50.8616    0.0417   -8.9375 H   0  0  0  0  0
   51.5484   -1.4295  -11.3493 H   0  0  0  0  0
   50.3368   -2.6041   -9.7060 H   0  0  0  0  0
   49.1639   -2.3133  -11.0803 H   0  0  0  0  0
   49.7737   -1.5264   -7.3974 H   0  0  0  0  0
   47.1247   -0.8297  -11.7429 H   0  0  0  0  0
   45.2399    0.7348   -7.3313 H   0  0  0  0  0
   44.8148    0.2920  -11.6066 H   0  0  0  0  0
   43.8923    0.9842   -9.4097 H   0  0  0  0  0
   50.1900    1.6385  -10.9512 H   0  0  0  0  0
   48.4190    1.5746  -13.1992 H   0  0  0  0  0
   48.9094    4.1002  -13.2385 H   0  0  0  0  0
   49.9102    3.7443  -11.7317 H   0  0  0  0  0
   47.7355    4.6586  -11.2023 H   0  0  0  0  0
   47.9212    2.9437  -10.6485 H   0  0  0  0  0
   46.5876    2.1752  -12.5077 H   0  0  0  0  0
   46.4736    3.8375  -13.1566 H   0  0  0  0  0
   45.5334    3.0385  -10.4112 H   0  0  0  0  0
   44.4711    3.0733  -11.9098 H   0  0  0  0  0
   44.2010    4.9884  -10.5476 H   0  0  0  0  0
   45.8232    5.3499  -10.6676 H   0  0  0  0  0
   44.8597    5.3815  -12.0269 H   0  0  0  0  0
   48.6648    2.4191  -15.3251 H   0  0  0  0  0
   51.2275    1.8239  -16.5212 H   0  0  0  0  0
   49.0712    3.4475  -17.8629 H   0  0  0  0  0
   48.8777    1.6615  -17.5526 H   0  0  0  0  0
   50.1025    0.0454  -19.3832 H   0  0  0  0  0
   52.2363    3.1066  -21.4517 H   0  0  0  0  0
   53.3798    5.6685  -15.7837 H   0  0  0  0  0
   51.4934    5.2110  -18.1216 H   0  0  0  0  0
   55.5211    4.6390  -16.1740 H   0  0  0  0  0
   55.3319    5.1242  -17.8347 H   0  0  0  0  0
   55.5271    2.5056  -17.1817 H   0  0  0  0  0
   54.5364    3.0099  -18.5110 H   0  0  0  0  0
   52.9087    1.8328  -17.1743 H   0  0  0  0  0
   53.6486    2.2545  -15.6972 H   0  0  0  0  0
  1  2  1  0  0  0
  1  7  1  0  0  0
  2  3  1  0  0  0
  2  5  1  0  0  0
  3  4  2  0  0  0
  3  8  1  0  0  0
  5  6  1  0  0  0
  6  7  1  0  0  0
  8  9  1  0  0  0
  9 10  1  0  0  0
  9 12  1  0  0  0
 10 11  2  0  0  0
 10 17  1  0  0  0
 12 13  1  0  0  0
 13 14  1  0  0  0
 14 15  1  0  0  0
 15 16  1  0  0  0
 17 18  1  0  0  0
 18 19  1  0  0  0
 18 21  1  0  0  0
 19 20  2  0  0  0
 19 25  1  0  0  0
 21 22  1  0  0  0
 22 23  1  0  0  0
 22 24  1  0  0  0
 25 26  1  0  0  0
 26 27  1  0  0  0
 26 29  1  0  0  0
 27 28  2  0  0  0
 27 34  1  0  0  0
 29 30  1  0  0  0
 30 31  1  0  0  0
 31 32  1  0  0  0
 31 33  2  0  0  0
 34 35  1  0  0  0
 34 40  1  0  0  0
 35 36  1  0  0  0
 35 38  1  0  0  0
 36 37  2  0  0  0
 36 41  1  0  0  0
 38 39  1  0  0  0
 39 40  1  0  0  0
 41 42  1  0  0  0
 42 43  1  0  0  0
 42 45  1  0  0  0
 43 44  2  0  0  0
 43 55  1  0  0  0
 45 46  1  0  0  0
 46 47  4  0  0  0
 46 48  4  0  0  0
 47 49  4  0  0  0
 48 50  4  0  0  0
 48 51  4  0  0  0
 49 50  4  0  0  0
 50 52  4  0  0  0
 51 53  4  0  0  0
 52 54  4  0  0  0
 53 54  4  0  0  0
 55 56  1  0  0  0
 56 57  1  0  0  0
 56 59  1  0  0  0
 57 58  2  0  0  0
 57 64  1  0  0  0
 59 60  1  0  0  0
 60 61  1  0  0  0
 61 62  1  0  0  0
 62 63  1  0  0  0
 64 65  1  0  0  0
 65 66  1  0  0  0
 65 68  1  0  0  0
 66 67  2  0  0  0
 66 74  1  0  0  0
 68 69  1  0  0  0
 69 70  4  0  0  0
 69 71  4  0  0  0
 70 72  4  0  0  0
 71 73  4  0  0  0
 72 73  4  0  0  0
 74 75  1  0  0  0
 74 80  1  0  0  0
 75 76  1  0  0  0
 75 78  1  0  0  0
 76 77  1  0  0  0
 78 79  1  0  0  0
 79 80  1  0  0  0
 76 81  2  0  0  0
  1 82  1  0  0  0
  1 83  1  0  0  0
  2 84  1  0  0  0
  5 85  1  0  0  0
  5 86  1  0  0  0
  6 87  1  0  0  0
  6 88  1  0  0  0
  7 89  1  0  0  0
  7 90  1  0  0  0
  8 91  1  0  0  0
  9 92  1  0  0  0
 12 93  1  0  0  0
 12 94  1  0  0  0
 13 95  1  0  0  0
 13 96  1  0  0  0
 14 97  1  0  0  0
 14 98  1  0  0  0
 15 99  1  0  0  0
 15100  1  0  0  0
 16101  1  0  0  0
 16102  1  0  0  0
 16103  1  0  0  0
 17104  1  0  0  0
 18105  1  0  0  0
 21106  1  0  0  0
 21107  1  0  0  0
 22108  1  0  0  0
 23109  1  0  0  0
 23110  1  0  0  0
 23111  1  0  0  0
 24112  1  0  0  0
 24113  1  0  0  0
 24114  1  0  0  0
 25115  1  0  0  0
 26116  1  0  0  0
 29117  1  0  0  0
 29118  1  0  0  0
 30119  1  0  0  0
 30120  1  0  0  0
 32121  1  0  0  0
 35122  1  0  0  0
 38123  1  0  0  0
 38124  1  0  0  0
 39125  1  0  0  0
 39126  1  0  0  0
 40127  1  0  0  0
 40128  1  0  0  0
 41129  1  0  0  0
 42130  1  0  0  0
 45131  1  0  0  0
 45132  1  0  0  0
 47133  1  0  0  0
 51134  1  0  0  0
 52135  1  0  0  0
 53136  1  0  0  0
 54137  1  0  0  0
 55138  1  0  0  0
 56139  1  0  0  0
 59140  1  0  0  0
 59141  1  0  0  0
 60142  1  0  0  0
 60143  1  0  0  0
 61144  1  0  0  0
 61145  1  0  0  0
 62146  1  0  0  0
 62147  1  0  0  0
 63148  1  0  0  0
 63149  1  0  0  0
 63150  1  0  0  0
 64151  1  0  0  0
 65152  1  0  0  0
 68153  1  0  0  0
 68154  1  0  0  0
 71155  1  0  0  0
 72156  1  0  0  0
 75157  1  0  0  0
 77158  1  0  0  0
 78159  1  0  0  0
 78160  1  0  0  0
 79161  1  0  0  0
 79162  1  0  0  0
 80163  1  0  0  0
 80164  1  0  0  0
M  END
$$$$
