### 
### Created by X-TOOL on Mon Sep 10 21:13:04 2018
### 

@<TRIPOS>MOLECULE
3o6m_ligand
  164   169     1     0     0
SMALL
GAST_HUCK


@<TRIPOS>ATOM
      1 N          52.0060   13.1810  -12.5830 N.4       1 PRO         0.2461
      2 CA         51.1800   12.0290  -12.1440 C.3       1 PRO         0.0670
      3 C          51.7030   11.3570  -10.8710 C.2       1 PRO         0.2268
      4 O          52.9050   11.0130  -10.7730 O.2       1 PRO        -0.3907
      5 CB         51.2350   11.0670  -13.3390 C.3       1 PRO         0.0127
      6 CG         52.6230   11.3440  -13.9640 C.3       1 PRO        -0.0053
      7 CD         52.8770   12.8600  -13.7390 C.3       1 PRO        -0.0313
      8 N          50.7920   11.1850   -9.9160 N.am      1 LYS        -0.2610
      9 CA         51.1100   10.6900   -8.5670 C.3       1 LYS         0.1311
     10 C          50.3380    9.3730   -8.3740 C.2       1 LYS         0.2039
     11 O          49.3690    9.2830   -7.5920 O.2       1 LYS        -0.3944
     12 CB         50.6990   11.7370   -7.5160 C.3       1 LYS        -0.0122
     13 CG         51.3250   13.1440   -7.7060 C.3       1 LYS        -0.0440
     14 CD         50.8840   14.1760   -6.6430 C.3       1 LYS        -0.0124
     15 CE         51.7540   15.4200   -6.6740 C.3       1 LYS        -0.0354
     16 NZ         50.9620   16.6720   -6.4560 N.4       1 LYS         0.2185
     17 N          50.7390    8.3810   -9.1590 N.am      1 LEU        -0.2637
     18 CA         49.9490    7.1900   -9.3660 C.3       1 LEU         0.1312
     19 C          50.5210    6.0590   -8.5350 C.2       1 LEU         0.2039
     20 O          51.6510    6.1300   -8.1150 O.2       1 LEU        -0.3944
     21 CB         49.9360    6.8040  -10.8470 C.3       1 LEU        -0.0101
     22 CG         49.3690    7.7320  -11.9410 C.3       1 LEU        -0.0425
     23 CD1        49.3910    7.0470  -13.2950 C.3       1 LEU        -0.0625
     24 CD2        47.9690    8.2440  -11.6360 C.3       1 LEU        -0.0625
     25 N          49.7270    5.0260   -8.2710 N.am      1 GLU        -0.2636
     26 CA         50.2350    3.8170   -7.6250 C.3       1 GLU         0.1327
     27 C          51.1450    3.0130   -8.5840 C.2       1 GLU         0.2065
     28 O          51.0050    3.1370   -9.7880 O.2       1 GLU        -0.3942
     29 CB         49.0530    2.9480   -7.1960 C.3       1 GLU        -0.0008
     30 CG         48.4610    3.3170   -5.8620 C.3       1 GLU         0.0044
     31 CD         46.9380    3.1620   -5.8630 C.2       1 GLU         0.0350
     32 OE1        46.3590    2.8000   -4.8240 O.co2     1 GLU        -0.5690
     33 OE2        46.3410    3.4100   -6.9160 O.co2     1 GLU        -0.5690
     34 N          52.0260    2.1330   -8.0520 N.am      1 PRO        -0.2498
     35 CA         53.0210    1.4850   -8.9140 C.3       1 PRO         0.1338
     36 C          52.4430    0.6640  -10.0670 C.2       1 PRO         0.2042
     37 O          52.9880    0.7040  -11.1670 O.2       1 PRO        -0.3944
     38 CB         53.7790    0.6010   -7.9590 C.3       1 PRO        -0.0104
     39 CG         53.5570    1.1860   -6.5940 C.3       1 PRO        -0.0281
     40 CD         52.1760    1.7410   -6.6390 C.3       1 PRO         0.0369
     41 N          51.3180   -0.0280   -9.8470 N.am      1 TRP        -0.2627
     42 CA         50.7200   -0.8910  -10.8890 C.3       1 TRP         0.1352
     43 C          50.0350   -0.1090  -12.0100 C.2       1 TRP         0.2052
     44 O          49.6430   -0.6890  -13.0320 O.2       1 TRP        -0.3942
     45 CB         49.7460   -1.8800  -10.2670 C.3       1 TRP         0.0042
     46 CG         48.7600   -1.2540   -9.2930 C.2       1 TRP        -0.0418
     47 CD1        48.9090   -1.1650   -7.9540 C.2       1 TRP         0.0167
     48 CD2        47.4630   -0.6850   -9.5980 C.ar      1 TRP        -0.0214
     49 NE1        47.8130   -0.5530   -7.3940 N.pl3     1 TRP        -0.2890
     50 CE2        46.9030   -0.2550   -8.3760 C.ar      1 TRP         0.0603
     51 CE3        46.7240   -0.5040  -10.7830 C.ar      1 TRP        -0.0747
     52 CZ2        45.6250    0.3820   -8.2880 C.ar      1 TRP        -0.0443
     53 CZ3        45.3990    0.1340  -10.7000 C.ar      1 TRP        -0.0792
     54 CH2        44.8860    0.5390   -9.4590 C.ar      1 TRP        -0.0768
     55 N          49.9010    1.2150  -11.8330 N.am      1 LYS        -0.2636
     56 CA         49.3480    2.0510  -12.8860 C.3       1 LYS         0.1310
     57 C          50.2710    2.1470  -14.1030 C.2       1 LYS         0.2040
     58 O          51.4860    2.0660  -13.9700 O.2       1 LYS        -0.3944
     59 CB         49.0640    3.4710  -12.3620 C.3       1 LYS        -0.0122
     60 CG         47.8200    3.6140  -11.5020 C.3       1 LYS        -0.0440
     61 CD         46.5480    3.2340  -12.2520 C.3       1 LYS        -0.0124
     62 CE         45.3290    3.4900  -11.3820 C.3       1 LYS        -0.0354
     63 NZ         45.0300    4.9130  -11.1370 N.4       1 LYS         0.2185
     64 N          49.6830    2.3870  -15.2740 N.am      1 HIS        -0.2625
     65 CA         50.4680    2.6050  -16.4860 C.3       1 HIS         0.1371
     66 C          51.2490    3.9500  -16.4770 C.2       1 HIS         0.2073
     67 O          50.6310    5.0370  -16.3440 O.2       1 HIS        -0.3941
     68 CB         49.5680    2.4870  -17.7260 C.3       1 HIS         0.0145
     69 CG         50.3210    2.1870  -18.9830 C.2       1 HIS        -0.0027
     70 ND1        51.0200    3.1510  -19.6820 N.2       1 HIS        -0.3252
     71 CD2        50.5100    1.0200  -19.6520 C.2       1 HIS         0.0291
     72 CE1        51.6100    2.5920  -20.7230 C.2       1 HIS         0.0907
     73 NE2        51.3130    1.3010  -20.7330 N.pl3     1 HIS        -0.2752
     74 N          52.6020    3.8870  -16.6230 N.am      1 PRO        -0.2555
     75 CA         53.4510    5.1050  -16.7140 C.3       1 PRO         0.0972
     76 C          53.0230    6.1390  -17.7870 C.2       1 PRO         0.0603
     77 O          51.9415    6.0060  -18.4197 O.co2     1 PRO        -0.5666
     78 CB         54.8580    4.5550  -17.0350 C.3       1 PRO        -0.0159
     79 CG         54.6590    3.1150  -17.4330 C.3       1 PRO        -0.0288
     80 CD         53.4210    2.6600  -16.6830 C.3       1 PRO         0.0362
     81 O          53.7672    7.1263  -18.0299 O.co2     1 PRO        -0.5666
     82 H1         52.5879   13.4714  -11.8129 H         1 PRO         0.2035
     83 H2         51.3916   13.9365  -12.8434 H         1 PRO         0.2035
     84 H3         50.1456   12.3572  -11.9644 H         1 PRO         0.1099
     85 H4         50.4304   11.2853  -14.0566 H         1 PRO         0.0347
     86 H5         51.1557   10.0217  -13.0059 H         1 PRO         0.0347
     87 H6         52.6156   11.1097  -15.0387 H         1 PRO         0.0320
     88 H7         53.3978   10.7448  -13.4634 H         1 PRO         0.0320
     89 H8         53.9339   13.0520  -13.5020 H         1 PRO         0.0814
     90 H9         52.5879   13.4442  -14.6251 H         1 PRO         0.0814
     91 H10        49.8393   11.4041  -10.1266 H         1 LYS         0.1884
     92 H11        52.1903   10.5006   -8.4825 H         1 LYS         0.0800
     93 H12        50.9989   11.3619   -6.5264 H         1 LYS         0.0312
     94 H13        49.6048   11.8437   -7.5516 H         1 LYS         0.0312
     95 H14        51.0331   13.5217   -8.6970 H         1 LYS         0.0269
     96 H15        52.4195   13.0451   -7.6591 H         1 LYS         0.0269
     97 H16        50.9564   13.7150   -5.6469 H         1 LYS         0.0317
     98 H17        49.8409   14.4655   -6.8382 H         1 LYS         0.0317
     99 H18        52.2496   15.4810   -7.6541 H         1 LYS         0.0813
    100 H19        52.5142   15.3400   -5.8830 H         1 LYS         0.0813
    101 H20        51.5786   17.4689   -6.4847 H         1 LYS         0.1994
    102 H21        50.5084   16.6304   -5.5568 H         1 LYS         0.1994
    103 H22        50.2659   16.7596   -7.1798 H         1 LYS         0.1994
    104 H23        51.6205    8.4612   -9.6242 H         1 LEU         0.1883
    105 H24        48.9161    7.3858   -9.0423 H         1 LEU         0.0800
    106 H25        49.3625    5.8677  -10.9135 H         1 LEU         0.0315
    107 H26        50.9837    6.6126  -11.1219 H         1 LEU         0.0315
    108 H27        50.0315    8.6083  -11.9973 H         1 LEU         0.0298
    109 H28        48.9827    7.7274  -14.0568 H         1 LEU         0.0232
    110 H29        48.7796    6.1335  -13.2538 H         1 LEU         0.0232
    111 H30        50.4266    6.7836  -13.5559 H         1 LEU         0.0232
    112 H31        47.9653    8.7381  -10.6532 H         1 LEU         0.0232
    113 H32        47.2642    7.3996  -11.6245 H         1 LEU         0.0232
    114 H33        47.6654    8.9646  -12.4097 H         1 LEU         0.0232
    115 H34        48.7599    5.0771   -8.5201 H         1 GLU         0.1883
    116 H35        50.8176    4.1032   -6.7370 H         1 GLU         0.0801
    117 H36        49.3950    1.9038   -7.1435 H         1 GLU         0.0330
    118 H37        48.2653    3.0380   -7.9585 H         1 GLU         0.0330
    119 H38        48.7138    4.3634   -5.6357 H         1 GLU         0.0433
    120 H39        48.8866    2.6613   -5.0881 H         1 GLU         0.0433
    121 H40        53.6883    2.2481   -9.3409 H         1 PRO         0.0802
    122 H41        54.8509    0.6013   -8.2058 H         1 PRO         0.0313
    123 H42        53.3931   -0.4282   -8.0017 H         1 PRO         0.0313
    124 H43        54.2882    1.9820   -6.3898 H         1 PRO         0.0287
    125 H44        53.6369    0.4076   -5.8209 H         1 PRO         0.0287
    126 H45        51.4338    0.9792   -6.3585 H         1 PRO         0.0524
    127 H46        52.0773    2.6116   -5.9739 H         1 PRO         0.0524
    128 H47        50.8705    0.0404   -8.9553 H         1 TRP         0.1884
    129 H48        51.5394   -1.4658  -11.3453 H         1 TRP         0.0815
    130 H49        50.3263   -2.6432   -9.7278 H         1 TRP         0.0397
    131 H50        49.1750   -2.3577  -11.0768 H         1 TRP         0.0397
    132 H51        49.7729   -1.5260   -7.3979 H         1 TRP         0.0795
    133 H52        47.6935   -0.3495   -6.3914 H         1 TRP         0.2216
    134 H53        47.1225   -0.8279  -11.7376 H         1 TRP         0.0540
    135 H54        45.2420    0.7329   -7.3365 H         1 TRP         0.0541
    136 H55        44.8181    0.2911  -11.6016 H         1 TRP         0.0510
    137 H56        43.8977    0.9817   -9.4099 H         1 TRP         0.0530
    138 H57        50.1843    1.6302  -10.9685 H         1 LYS         0.1883
    139 H58        48.3980    1.6009  -13.2099 H         1 LYS         0.0800
    140 H59        48.9540    4.1370  -13.2305 H         1 LYS         0.0312
    141 H60        49.9291    3.7903  -11.7623 H         1 LYS         0.0312
    142 H61        47.7366    4.6602  -11.1726 H         1 LYS         0.0269
    143 H62        47.9208    2.9598  -10.6234 H         1 LYS         0.0269
    144 H63        46.5875    2.1671  -12.5170 H         1 LYS         0.0317
    145 H64        46.4730    3.8371  -13.1689 H         1 LYS         0.0317
    146 H65        45.4946    3.0032  -10.4096 H         1 LYS         0.0813
    147 H66        44.4560    3.0372  -11.8748 H         1 LYS         0.0813
    148 H67        44.2108    4.9887  -10.5546 H         1 LYS         0.1994
    149 H68        44.8615    5.3771  -12.0158 H         1 LYS         0.1994
    150 H69        45.8132    5.3459  -10.6731 H         1 LYS         0.1994
    151 H70        48.6847    2.4185  -15.3241 H         1 HIS         0.1885
    152 H71        51.2154    1.7998  -16.5397 H         1 HIS         0.0817
    153 H72        49.0326    3.4386  -17.8595 H         1 HIS         0.0420
    154 H73        48.8420    1.6788  -17.5537 H         1 HIS         0.0420
    155 H74        50.1029    0.0463  -19.3834 H         1 HIS         0.0729
    156 H75        52.2357    3.1061  -21.4511 H         1 HIS         0.1199
    157 H76        51.6315    0.6187  -21.4358 H         1 HIS         0.2361
    158 H77        53.4559    5.6132  -15.7385 H         1 PRO         0.0728
    159 H78        55.5057    4.6206  -16.1484 H         1 PRO         0.0306
    160 H79        55.3104    5.1214  -17.8624 H         1 PRO         0.0306
    161 H80        55.5303    2.5105  -17.1409 H         1 PRO         0.0286
    162 H81        54.5034    3.0333  -18.5189 H         1 PRO         0.0286
    163 H82        52.8982    1.8616  -17.2299 H         1 PRO         0.0524
    164 H83        53.6777    2.3058  -15.6737 H         1 PRO         0.0524
@<TRIPOS>BOND
     1    1    2 1  
     2    1    7 1  
     3    2    3 1  
     4    2    5 1  
     5    3    4 2  
     6    3    8 am 
     7    5    6 1  
     8    6    7 1  
     9    8    9 1  
    10    9   10 1  
    11    9   12 1  
    12   10   11 2  
    13   10   17 am 
    14   12   13 1  
    15   13   14 1  
    16   14   15 1  
    17   15   16 1  
    18   17   18 1  
    19   18   19 1  
    20   18   21 1  
    21   19   20 2  
    22   19   25 am 
    23   21   22 1  
    24   22   23 1  
    25   22   24 1  
    26   25   26 1  
    27   26   27 1  
    28   26   29 1  
    29   27   28 2  
    30   27   34 am 
    31   29   30 1  
    32   30   31 1  
    33   31   32 ar 
    34   31   33 ar 
    35   34   35 1  
    36   34   40 1  
    37   35   36 1  
    38   35   38 1  
    39   36   37 2  
    40   36   41 am 
    41   38   39 1  
    42   39   40 1  
    43   41   42 1  
    44   42   43 1  
    45   42   45 1  
    46   43   44 2  
    47   43   55 am 
    48   45   46 1  
    49   46   47 2  
    50   46   48 1  
    51   47   49 1  
    52   48   50 ar 
    53   48   51 ar 
    54   49   50 1  
    55   50   52 ar 
    56   51   53 ar 
    57   52   54 ar 
    58   53   54 ar 
    59   55   56 1  
    60   56   57 1  
    61   56   59 1  
    62   57   58 2  
    63   57   64 am 
    64   59   60 1  
    65   60   61 1  
    66   61   62 1  
    67   62   63 1  
    68   64   65 1  
    69   65   66 1  
    70   65   68 1  
    71   66   67 2  
    72   66   74 am 
    73   68   69 1  
    74   69   70 1  
    75   69   71 2  
    76   70   72 2  
    77   71   73 1  
    78   72   73 1  
    79   74   75 1  
    80   74   80 1  
    81   75   76 1  
    82   75   78 1  
    83   76   77 ar 
    84   78   79 1  
    85   79   80 1  
    86   76   81 ar 
    87    1   82 1  
    88    1   83 1  
    89    2   84 1  
    90    5   85 1  
    91    5   86 1  
    92    6   87 1  
    93    6   88 1  
    94    7   89 1  
    95    7   90 1  
    96    8   91 1  
    97    9   92 1  
    98   12   93 1  
    99   12   94 1  
   100   13   95 1  
   101   13   96 1  
   102   14   97 1  
   103   14   98 1  
   104   15   99 1  
   105   15  100 1  
   106   16  101 1  
   107   16  102 1  
   108   16  103 1  
   109   17  104 1  
   110   18  105 1  
   111   21  106 1  
   112   21  107 1  
   113   22  108 1  
   114   23  109 1  
   115   23  110 1  
   116   23  111 1  
   117   24  112 1  
   118   24  113 1  
   119   24  114 1  
   120   25  115 1  
   121   26  116 1  
   122   29  117 1  
   123   29  118 1  
   124   30  119 1  
   125   30  120 1  
   126   35  121 1  
   127   38  122 1  
   128   38  123 1  
   129   39  124 1  
   130   39  125 1  
   131   40  126 1  
   132   40  127 1  
   133   41  128 1  
   134   42  129 1  
   135   45  130 1  
   136   45  131 1  
   137   47  132 1  
   138   49  133 1  
   139   51  134 1  
   140   52  135 1  
   141   53  136 1  
   142   54  137 1  
   143   55  138 1  
   144   56  139 1  
   145   59  140 1  
   146   59  141 1  
   147   60  142 1  
   148   60  143 1  
   149   61  144 1  
   150   61  145 1  
   151   62  146 1  
   152   62  147 1  
   153   63  148 1  
   154   63  149 1  
   155   63  150 1  
   156   64  151 1  
   157   65  152 1  
   158   68  153 1  
   159   68  154 1  
   160   71  155 1  
   161   72  156 1  
   162   73  157 1  
   163   75  158 1  
   164   78  159 1  
   165   78  160 1  
   166   79  161 1  
   167   79  162 1  
   168   80  163 1  
   169   80  164 1  
@<TRIPOS>SUBSTRUCTURE
     1 PRO         1

