5l98_ligand
  -I-interpret- 

 38 40  0  0  0  0  0  0  0  0999 V2000
  -29.0760  -11.4590   -1.6090 C   0  0  0  0  0
  -28.6980  -10.2020   -0.8830 C   0  0  0  0  0
  -27.5000  -10.4040   -0.0910 N   0  0  0  0  0
  -26.6820   -9.3010    0.2960 C   0  0  0  0  0
  -25.3540   -9.4790    0.7840 C   0  0  0  0  0
  -24.7710  -10.8650    0.9170 C   0  0  0  0  0
  -24.6020   -8.4830    1.1390 N   0  0  0  0  0
  -25.0570   -7.2040    1.0470 C   0  0  0  0  0
  -26.3300   -6.9060    0.5870 C   0  0  0  0  0
  -27.1740   -7.9580    0.2000 C   0  0  0  0  0
  -29.7930   -9.7820    0.0550 C   0  0  0  0  0
  -30.7650   -8.8780   -0.3280 C   0  0  0  0  0
  -31.8070   -8.4860    0.6330 C   0  0  0  0  0
  -31.8030   -9.0100    1.8920 C   0  0  0  0  0
  -32.7700   -8.6900    2.8880 O   0  0  0  0  0
  -33.9160   -8.0730    2.3770 C   0  0  0  0  0
  -33.6070   -7.0230    1.2900 C   0  0  0  0  0
  -32.8240   -7.5430    0.2120 O   0  0  0  0  0
  -30.7860   -9.9440    2.2940 C   0  0  0  0  0
  -29.7900  -10.3210    1.3810 C   0  0  0  0  0
  -29.2474  -12.2568   -0.8864 H   0  0  0  0  0
  -29.9860  -11.2856   -2.1834 H   0  0  0  0  0
  -28.2683  -11.7447   -2.2829 H   0  0  0  0  0
  -28.5274   -9.4348   -1.6382 H   0  0  0  0  0
  -27.2385  -11.3480    0.1934 H   0  0  0  0  0
  -25.3823  -11.4506    1.6037 H   0  0  0  0  0
  -24.7569  -11.3472   -0.0604 H   0  0  0  0  0
  -23.7542  -10.7945    1.3035 H   0  0  0  0  0
  -24.3992   -6.3875    1.3447 H   0  0  0  0  0
  -26.6697   -5.8720    0.5269 H   0  0  0  0  0
  -28.1813   -7.7585   -0.1655 H   0  0  0  0  0
  -30.7596   -8.4588   -1.3341 H   0  0  0  0  0
  -34.4103   -7.5593    3.2016 H   0  0  0  0  0
  -34.5334   -8.8476    1.9222 H   0  0  0  0  0
  -33.0350   -6.2215    1.7575 H   0  0  0  0  0
  -34.5574   -6.6862    0.8759 H   0  0  0  0  0
  -30.7891  -10.3568    3.3028 H   0  0  0  0  0
  -29.0136  -11.0246    1.6814 H   0  0  0  0  0
  1  2  1  0  0  0
  2  3  1  0  0  0
  2 11  1  0  0  0
  3  4  1  0  0  0
  4  5  4  0  0  0
  4 10  4  0  0  0
  5  6  1  0  0  0
  5  7  4  0  0  0
  7  8  4  0  0  0
  8  9  4  0  0  0
  9 10  4  0  0  0
 11 12  4  0  0  0
 11 20  4  0  0  0
 12 13  4  0  0  0
 13 14  4  0  0  0
 13 18  1  0  0  0
 14 15  1  0  0  0
 14 19  4  0  0  0
 15 16  1  0  0  0
 16 17  1  0  0  0
 17 18  1  0  0  0
 19 20  4  0  0  0
  1 21  1  0  0  0
  1 22  1  0  0  0
  1 23  1  0  0  0
  2 24  1  0  0  0
  3 25  1  0  0  0
  6 26  1  0  0  0
  6 27  1  0  0  0
  6 28  1  0  0  0
  8 29  1  0  0  0
  9 30  1  0  0  0
 10 31  1  0  0  0
 12 32  1  0  0  0
 16 33  1  0  0  0
 16 34  1  0  0  0
 17 35  1  0  0  0
 17 36  1  0  0  0
 19 37  1  0  0  0
 20 38  1  0  0  0
M  END
$$$$
