2zxb_ligand
  -I-interpret- 

 34 35  0  0  0  0  0  0  0  0999 V2000
   -4.2660   27.4860   28.8870 C   0  0  0  0  0
   -5.6410   27.2930   29.0070 C   0  0  0  0  0
   -6.4280   27.1420   27.8660 C   0  0  0  0  0
   -5.8410   27.1860   26.5990 C   0  0  0  0  0
   -4.4650   27.3870   26.4770 C   0  0  0  0  0
   -3.6810   27.5410   27.6220 C   0  0  0  0  0
   -2.1820   27.8590   27.5220 C   0  0  0  0  0
   -1.4720   27.3490   26.2580 C   0  0  0  0  0
   -0.1710   28.0480   26.2380 N   0  3  0  0  0
    0.6340   27.5940   25.0940 C   0  0  0  0  0
   -0.0490   28.0930   23.8220 C   0  0  0  0  0
    0.6490   27.5630   22.6920 O   0  0  0  0  0
   -1.4640   27.5300   23.7200 C   0  0  0  0  0
   -2.0590   28.3240   22.6870 O   0  0  0  0  0
   -2.2320   27.8180   25.0140 C   0  0  0  0  0
   -2.3250   29.2470   25.1400 O   0  0  0  0  0
   -3.6494   27.5937   29.7793 H   0  0  0  0  0
   -6.1018   27.2601   29.9942 H   0  0  0  0  0
   -7.5029   26.9894   27.9627 H   0  0  0  0  0
   -6.4562   27.0636   25.7076 H   0  0  0  0  0
   -4.0037   27.4236   25.4901 H   0  0  0  0  0
   -1.7048   27.3598   28.3653 H   0  0  0  0  0
   -2.0987   28.9457   27.5042 H   0  0  0  0  0
   -1.3962   26.2616   26.2613 H   0  0  0  0  0
    0.3313   27.8421   27.1016 H   0  0  0  0  0
   -0.3331   29.0515   26.1541 H   0  0  0  0  0
    0.7044   26.5063   25.0863 H   0  0  0  0  0
    1.6476   27.9892   25.1615 H   0  0  0  0  0
   -0.0573   29.1827   23.8469 H   0  0  0  0  0
    0.2289   27.8697   21.8851 H   0  0  0  0  0
   -1.4740   26.4557   23.5361 H   0  0  0  0  0
   -2.9654   28.0397   22.5484 H   0  0  0  0  0
   -3.1915   27.3039   24.9570 H   0  0  0  0  0
   -2.7956   29.6039   24.3832 H   0  0  0  0  0
  1  2  4  0  0  0
  1  6  4  0  0  0
  2  3  4  0  0  0
  3  4  4  0  0  0
  4  5  4  0  0  0
  5  6  4  0  0  0
  6  7  1  0  0  0
  7  8  1  0  0  0
  8  9  1  0  0  0
  8 15  1  0  0  0
  9 10  1  0  0  0
 10 11  1  0  0  0
 11 12  1  0  0  0
 11 13  1  0  0  0
 13 14  1  0  0  0
 13 15  1  0  0  0
 15 16  1  0  0  0
  1 17  1  0  0  0
  2 18  1  0  0  0
  3 19  1  0  0  0
  4 20  1  0  0  0
  5 21  1  0  0  0
  7 22  1  0  0  0
  7 23  1  0  0  0
  8 24  1  0  0  0
  9 25  1  0  0  0
  9 26  1  0  0  0
 10 27  1  0  0  0
 10 28  1  0  0  0
 11 29  1  0  0  0
 12 30  1  0  0  0
 13 31  1  0  0  0
 14 32  1  0  0  0
 15 33  1  0  0  0
 16 34  1  0  0  0
M  END
$$$$
