4zji_ligand
  -I-interpret- 

 49 52  0  0  0  0  0  0  0  0999 V2000
   13.0360   47.2140   46.8810 C   0  0  0  0  0
   11.0250   45.9840   46.0370 C   0  0  0  0  0
   10.5110   45.8030   47.3270 C   0  0  0  0  0
   10.7390   50.1360   43.4240 C   0  0  0  0  0
   11.1680   50.3800   44.7080 C   0  0  0  0  0
   11.6340   49.3260   45.4760 C   0  0  0  0  0
   11.6780   48.0270   44.9600 C   0  0  0  0  0
   12.9000   47.0450   41.2760 C   0  0  0  0  0
   14.0830   46.1380   41.5550 C   0  0  0  0  0
   15.1060   44.0010   41.0960 C   0  0  0  0  0
   12.7040   44.2120   41.2090 C   0  0  0  0  0
   11.5070   45.1120   40.9400 C   0  0  0  0  0
    9.9980   51.4150   42.5160 Cl  0  0  0  0  0
   10.7980   48.8770   42.8690 C   0  0  0  0  0
   12.0710   46.9360   45.7990 N   0  0  0  0  0
   13.9170   46.0040   47.2680 C   0  0  0  0  0
   11.2610   47.8050   43.6330 C   0  0  0  0  0
   11.2470   46.4460   43.0290 C   0  0  0  0  0
   11.6560   46.3760   41.6800 N   0  0  0  0  0
   13.9520   44.8740   40.8320 N   0  3  0  0  0
   10.8940   45.3580   43.6200 N   0  0  0  0  0
   10.4410   45.2890   44.9550 C   0  0  0  0  0
    9.3590   44.4330   45.1920 C   0  0  0  0  0
    8.9100   44.2790   46.4810 C   0  0  0  0  0
    7.9070   43.3900   46.7040 F   0  0  0  0  0
    9.4520   44.9410   47.5540 C   0  0  0  0  0
   12.4595   47.4886   47.7644 H   0  0  0  0  0
   13.7039   47.9978   46.5237 H   0  0  0  0  0
   10.9503   46.3477   48.1627 H   0  0  0  0  0
   11.1415   51.3904   45.1159 H   0  0  0  0  0
   11.9709   49.5113   46.4959 H   0  0  0  0  0
   12.8599   47.2685   40.2099 H   0  0  0  0  0
   13.0128   47.9698   41.8418 H   0  0  0  0  0
   14.1201   45.9285   42.6240 H   0  0  0  0  0
   14.9938   46.6379   41.2255 H   0  0  0  0  0
   16.0191   44.4999   40.7713 H   0  0  0  0  0
   15.1648   43.7918   42.1641 H   0  0  0  0  0
   14.9862   43.0667   40.5475 H   0  0  0  0  0
   12.5979   43.3026   40.6176 H   0  0  0  0  0
   12.7373   43.9832   42.2742 H   0  0  0  0  0
   10.5972   44.6085   41.2669 H   0  0  0  0  0
   11.4490   45.3244   39.8725 H   0  0  0  0  0
   10.4843   48.7185   41.8372 H   0  0  0  0  0
   13.2807   45.1866   47.6072 H   0  0  0  0  0
   14.4919   45.6823   46.3996 H   0  0  0  0  0
   14.5974   46.2930   48.0690 H   0  0  0  0  0
   13.9299   45.0692   39.8311 H   0  0  0  0  0
    8.8822   43.8992   44.3699 H   0  0  0  0  0
    9.0586   44.7918   48.5595 H   0  0  0  0  0
 15  1  1  0  0  0
  1 16  1  0  0  0
  2  3  4  0  0  0
 15  2  1  0  0  0
  2 22  4  0  0  0
  3 26  4  0  0  0
  4  5  4  0  0  0
  4 13  1  0  0  0
 14  4  4  0  0  0
  6  5  4  0  0  0
  7  6  4  0  0  0
  7 15  1  0  0  0
 17  7  4  0  0  0
  8  9  1  0  0  0
 19  8  1  0  0  0
  9 20  1  0  0  0
 20 10  1  0  0  0
 12 11  1  0  0  0
 11 20  1  0  0  0
 19 12  1  0  0  0
 17 14  4  0  0  0
 18 17  1  0  0  0
 18 19  1  0  0  0
 18 21  2  0  0  0
 21 22  1  0  0  0
 22 23  4  0  0  0
 23 24  4  0  0  0
 24 25  1  0  0  0
 24 26  4  0  0  0
  1 27  1  0  0  0
  1 28  1  0  0  0
  3 29  1  0  0  0
  5 30  1  0  0  0
  6 31  1  0  0  0
  8 32  1  0  0  0
  8 33  1  0  0  0
  9 34  1  0  0  0
  9 35  1  0  0  0
 10 36  1  0  0  0
 10 37  1  0  0  0
 10 38  1  0  0  0
 11 39  1  0  0  0
 11 40  1  0  0  0
 12 41  1  0  0  0
 12 42  1  0  0  0
 14 43  1  0  0  0
 16 44  1  0  0  0
 16 45  1  0  0  0
 16 46  1  0  0  0
 20 47  1  0  0  0
 23 48  1  0  0  0
 26 49  1  0  0  0
M  END
$$$$
