4pzw_ligand
  -I-interpret- 

 44 48  0  0  0  0  0  0  0  0999 V2000
   21.0370   11.5910    7.1000 C   0  0  0  0  0
   21.6840   10.6070    7.9060 O   0  0  0  0  0
   23.1070   10.6170    7.9140 C   0  0  0  0  0
   23.5970   11.9770    8.4570 C   0  0  0  0  0
   22.9150   13.1750    7.7430 C   0  0  0  0  0
   21.3770   13.0070    7.6140 C   0  0  0  0  0
   24.9970   12.0430    8.2330 O   0  0  0  0  0
   25.6180   13.2160    8.5680 C   0  0  0  0  0
   24.8960   14.4400    8.6430 C   0  0  0  0  0
   23.3930   14.5310    8.3170 C   0  0  0  0  0
   27.0080   13.1670    8.8530 C   0  0  0  0  0
   27.6960   14.3500    9.2170 C   0  0  0  0  0
   26.9820   15.5760    9.2890 C   0  0  0  0  0
   25.5890   15.6170    9.0070 C   0  0  0  0  0
   22.6100   14.8450    9.4980 N   0  0  0  0  0
   22.0510   16.0510    9.3650 C   0  0  0  0  0
   22.2210   16.6090    8.1390 O   0  0  0  0  0
   23.1000   15.7490    7.4020 C   0  0  0  0  0
   27.6240   16.7770    9.6540 C   0  0  0  0  0
   26.9870   17.6560   10.5690 C   0  0  0  0  0
   27.6390   18.8670   10.9060 C   0  0  0  0  0
   28.9070   19.1440   10.3340 C   0  0  0  0  0
   29.5050   18.2990    9.4650 N   0  0  0  0  0
   28.8900   17.1440    9.1250 C   0  0  0  0  0
   21.1760   16.6120   10.2070 N   0  0  0  0  0
   26.9070   19.9690   11.9970 Cl  0  0  0  0  0
   19.9585   11.4418    7.1510 H   0  0  0  0  0
   21.3814   11.4923    6.0705 H   0  0  0  0  0
   23.4814   10.4691    6.9010 H   0  0  0  0  0
   23.4767    9.8125    8.5498 H   0  0  0  0  0
   23.3461   12.0453    9.5155 H   0  0  0  0  0
   23.2514   13.1805    6.7062 H   0  0  0  0  0
   20.9188   13.1512    8.5925 H   0  0  0  0  0
   20.9953   13.7443    6.9078 H   0  0  0  0  0
   27.5447   12.2203    8.7917 H   0  0  0  0  0
   28.7626   14.3202    9.4397 H   0  0  0  0  0
   25.0515   16.5630    9.0720 H   0  0  0  0  0
   22.5025   14.2356   10.3088 H   0  0  0  0  0
   22.6415   15.4323    6.4652 H   0  0  0  0  0
   24.0209   16.2677    7.1356 H   0  0  0  0  0
   26.0188   17.4046   11.0019 H   0  0  0  0  0
   29.4161   20.0691   10.6042 H   0  0  0  0  0
   29.3820   16.4722    8.4216 H   0  0  0  0  0
   20.8782   16.1090   11.0429 H   0  0  0  0  0
  1  2  1  0  0  0
  1  6  1  0  0  0
  2  3  1  0  0  0
  3  4  1  0  0  0
  4  5  1  0  0  0
  4  7  1  0  0  0
  5  6  1  0  0  0
  5 10  1  0  0  0
  7  8  1  0  0  0
  8  9  4  0  0  0
  8 11  4  0  0  0
  9 10  1  0  0  0
  9 14  4  0  0  0
 10 15  1  0  0  0
 10 18  1  0  0  0
 11 12  4  0  0  0
 12 13  4  0  0  0
 13 14  4  0  0  0
 13 19  1  0  0  0
 15 16  1  0  0  0
 16 17  1  0  0  0
 16 25  2  0  0  0
 17 18  1  0  0  0
 19 20  4  0  0  0
 19 24  4  0  0  0
 20 21  4  0  0  0
 21 22  4  0  0  0
 21 26  1  0  0  0
 22 23  4  0  0  0
 23 24  4  0  0  0
  1 27  1  0  0  0
  1 28  1  0  0  0
  3 29  1  0  0  0
  3 30  1  0  0  0
  4 31  1  0  0  0
  5 32  1  0  0  0
  6 33  1  0  0  0
  6 34  1  0  0  0
 11 35  1  0  0  0
 12 36  1  0  0  0
 14 37  1  0  0  0
 15 38  1  0  0  0
 18 39  1  0  0  0
 18 40  1  0  0  0
 20 41  1  0  0  0
 22 42  1  0  0  0
 24 43  1  0  0  0
 25 44  1  0  0  0
M  END
$$$$
