1xlz_ligand
  -I-interpret- 

 44 45  0  0  0  0  0  0  0  0999 V2000
    6.5760    3.1870   -7.0220 O   0  0  0  0  0
    6.5170    2.8530   -8.2060 C   0  0  0  0  0
    7.4940    2.1760   -8.8220 N   0  0  0  0  0
    5.3120    3.2080   -8.9550 O   0  0  0  0  0
    4.0190    3.1740   -8.3150 N   0  3  0  0  0
    3.3610    1.9280   -7.9340 C   0  0  0  0  0
    4.2130    0.7060   -8.2580 C   0  0  0  0  0
    2.0380    1.8280   -8.6130 C   0  0  0  0  0
    0.8720    2.0680   -7.8950 C   0  0  0  0  0
   -0.3680    1.9920   -8.5070 C   0  0  0  0  0
   -0.4670    1.6670   -9.8500 C   0  0  0  0  0
   -1.6970    1.5790  -10.4530 O   0  0  0  0  0
   -2.9020    2.1440   -9.9420 C   0  0  0  0  0
    0.7060    1.4250  -10.5830 C   0  0  0  0  0
    1.9510    1.5090   -9.9600 C   0  0  0  0  0
    0.6080    1.1050  -11.9060 O   0  0  0  0  0
    1.7240    1.0960  -12.7980 C   0  0  0  0  0
    1.9170   -0.2950  -13.3580 C   0  0  0  0  0
    1.0070   -0.3610  -14.5680 C   0  0  0  0  0
    0.8700    1.0630  -15.0700 C   0  0  0  0  0
    1.3770    1.9720  -13.9680 C   0  0  0  0  0
    8.3351    1.9137   -8.3081 H   0  0  0  0  0
    7.3972    1.9225   -9.8052 H   0  0  0  0  0
    3.3960    3.5612   -9.0238 H   0  0  0  0  0
    4.1879    3.6334   -7.4201 H   0  0  0  0  0
    3.2191    1.9455   -6.8534 H   0  0  0  0  0
    3.7019   -0.1932   -7.9141 H   0  0  0  0  0
    4.3678    0.6479   -9.3354 H   0  0  0  0  0
    5.1763    0.7927   -7.7554 H   0  0  0  0  0
    0.9346    2.3193   -6.8362 H   0  0  0  0  0
   -1.2708    2.1889   -7.9289 H   0  0  0  0  0
   -3.1146    1.7174   -8.9617 H   0  0  0  0  0
   -2.7859    3.2241   -9.8523 H   0  0  0  0  0
   -3.7236    1.9209  -10.6227 H   0  0  0  0  0
    2.8590    1.3233  -10.5338 H   0  0  0  0  0
    2.6164    1.4296  -12.2684 H   0  0  0  0  0
    1.6705   -1.0631  -12.6250 H   0  0  0  0  0
    2.9572   -0.4823  -13.6244 H   0  0  0  0  0
    0.0358   -0.7817  -14.3076 H   0  0  0  0  0
    1.4222   -1.0115  -15.3378 H   0  0  0  0  0
   -0.1691    1.2894  -15.3092 H   0  0  0  0  0
    1.4460    1.2068  -15.9841 H   0  0  0  0  0
    2.2506    2.5317  -14.3022 H   0  0  0  0  0
    0.6162    2.7015  -13.6903 H   0  0  0  0  0
  1  2  2  0  0  0
  2  3  1  0  0  0
  2  4  1  0  0  0
  4  5  1  0  0  0
  5  6  1  0  0  0
  6  7  1  0  0  0
  6  8  1  0  0  0
  8  9  4  0  0  0
  8 15  4  0  0  0
  9 10  4  0  0  0
 10 11  4  0  0  0
 11 12  1  0  0  0
 11 14  4  0  0  0
 12 13  1  0  0  0
 14 15  4  0  0  0
 14 16  1  0  0  0
 16 17  1  0  0  0
 17 18  1  0  0  0
 17 21  1  0  0  0
 18 19  1  0  0  0
 19 20  1  0  0  0
 20 21  1  0  0  0
  3 22  1  0  0  0
  3 23  1  0  0  0
  5 24  1  0  0  0
  5 25  1  0  0  0
  6 26  1  0  0  0
  7 27  1  0  0  0
  7 28  1  0  0  0
  7 29  1  0  0  0
  9 30  1  0  0  0
 10 31  1  0  0  0
 13 32  1  0  0  0
 13 33  1  0  0  0
 13 34  1  0  0  0
 15 35  1  0  0  0
 17 36  1  0  0  0
 18 37  1  0  0  0
 18 38  1  0  0  0
 19 39  1  0  0  0
 19 40  1  0  0  0
 20 41  1  0  0  0
 20 42  1  0  0  0
 21 43  1  0  0  0
 21 44  1  0  0  0
M  END
$$$$
