### 
### Created by X-TOOL on Mon Sep 10 21:13:17 2018
### 

@<TRIPOS>MOLECULE
4clp_ligand
   33    36     1     0     0
SMALL
GAST_HUCK


@<TRIPOS>ATOM
      1 P         -32.6410  -18.9260   21.8030 P.3       1 CMP         0.2557
      2 O1P       -33.2070  -18.0840   20.6780 O.co2     1 CMP        -0.6177
      3 O2P       -32.6390  -20.4100   21.6450 O.co2     1 CMP        -0.6177
      4 O5'       -33.6550  -18.7120   23.0410 O.3       1 CMP        -0.2514
      5 C5'       -33.2680  -18.7950   24.3980 C.3       1 CMP         0.1128
      6 C4'       -32.3220  -17.6520   24.3010 C.3       1 CMP         0.1242
      7 O4'       -31.9180  -17.0500   25.5230 O.3       1 CMP        -0.3360
      8 C3'       -31.0120  -18.0530   23.6170 C.3       1 CMP         0.1540
      9 O3'       -31.1810  -18.3360   22.2130 O.3       1 CMP        -0.2453
     10 C2'       -30.1660  -16.8700   23.9830 C.3       1 CMP         0.1439
     11 O2'       -29.7350  -16.2650   22.7900 O.3       1 CMP        -0.3832
     12 C1'       -31.1990  -16.0740   24.7600 C.3       1 CMP         0.2014
     13 N9        -30.8980  -14.7620   25.3540 N.pl3     1 CMP        -0.1919
     14 C8        -31.8080  -13.8230   25.0140 C.2       1 CMP         0.1123
     15 N7        -31.5130  -12.6400   25.5190 N.2       1 CMP        -0.2958
     16 C5        -30.3780  -12.7670   26.1800 C.ar      1 CMP         0.1045
     17 C6        -29.5860  -11.8190   26.9370 C.ar      1 CMP         0.1298
     18 N6        -30.0220  -10.5490   27.0010 N.pl3     1 CMP        -0.3152
     19 N1        -28.4560  -12.2860   27.5510 N.ar      1 CMP        -0.2698
     20 C2        -28.0970  -13.5800   27.4350 C.ar      1 CMP         0.0533
     21 N3        -28.8200  -14.5160   26.7470 N.ar      1 CMP        -0.2714
     22 C4        -29.9440  -14.1800   26.0890 C.ar      1 CMP         0.1613
     23 H         -32.7756  -19.7454   24.6514 H         1 CMP         0.0647
     24 H         -34.0973  -18.6137   25.0976 H         1 CMP         0.0647
     25 H         -32.8212  -16.8828   23.6934 H         1 CMP         0.0655
     26 H         -30.5967  -18.9596   24.0812 H         1 CMP         0.0712
     27 H         -29.2993  -17.1324   24.6075 H         1 CMP         0.0680
     28 H         -29.2283  -16.8897   22.2846 H         1 CMP         0.2101
     29 H         -31.9172  -15.7759   23.9820 H         1 CMP         0.0996
     30 H         -32.6826  -14.0194   24.3956 H         1 CMP         0.1349
     31 H         -29.4857   -9.8464   27.5299 H         1 CMP         0.1820
     32 H         -30.8923  -10.2785   26.5212 H         1 CMP         0.1820
     33 H         -27.1794  -13.8986   27.9162 H         1 CMP         0.0996
@<TRIPOS>BOND
     1    1    2 ar 
     2    1    3 ar 
     3    1    4 1  
     4    1    9 1  
     5    4    5 1  
     6    5    6 1  
     7    6    7 1  
     8    6    8 1  
     9    7   12 1  
    10    8    9 1  
    11    8   10 1  
    12   10   11 1  
    13   10   12 1  
    14   12   13 1  
    15   13   14 1  
    16   13   22 1  
    17   14   15 2  
    18   15   16 1  
    19   16   17 ar 
    20   16   22 ar 
    21   17   18 1  
    22   17   19 ar 
    23   19   20 ar 
    24   20   21 ar 
    25   21   22 ar 
    26    5   23 1  
    27    5   24 1  
    28    6   25 1  
    29    8   26 1  
    30   10   27 1  
    31   11   28 1  
    32   12   29 1  
    33   14   30 1  
    34   18   31 1  
    35   18   32 1  
    36   20   33 1  
@<TRIPOS>SUBSTRUCTURE
     1 CMP         1

