4clp_ligand
  -I-interpret- 

 34 37  0  0  0  0  0  0  0  0999 V2000
  -32.6410  -18.9260   21.8030 P   0  0  0  0  0
  -33.2070  -18.0840   20.6780 O   0  0  0  0  0
  -32.6390  -20.4100   21.6450 O   0  0  0  0  0
  -33.6550  -18.7120   23.0410 O   0  0  0  0  0
  -33.2680  -18.7950   24.3980 C   0  0  0  0  0
  -32.3220  -17.6520   24.3010 C   0  0  0  0  0
  -31.9180  -17.0500   25.5230 O   0  0  0  0  0
  -31.0120  -18.0530   23.6170 C   0  0  0  0  0
  -31.1810  -18.3360   22.2130 O   0  0  0  0  0
  -30.1660  -16.8700   23.9830 C   0  0  0  0  0
  -29.7350  -16.2650   22.7900 O   0  0  0  0  0
  -31.1990  -16.0740   24.7600 C   0  0  0  0  0
  -30.8980  -14.7620   25.3540 N   0  0  0  0  0
  -31.8080  -13.8230   25.0140 C   0  0  0  0  0
  -31.5130  -12.6400   25.5190 N   0  0  0  0  0
  -30.3780  -12.7670   26.1800 C   0  0  0  0  0
  -29.5860  -11.8190   26.9370 C   0  0  0  0  0
  -30.0220  -10.5490   27.0010 N   0  0  0  0  0
  -28.4560  -12.2860   27.5510 N   0  0  0  0  0
  -28.0970  -13.5800   27.4350 C   0  0  0  0  0
  -28.8200  -14.5160   26.7470 N   0  0  0  0  0
  -29.9440  -14.1800   26.0890 C   0  0  0  0  0
  -33.1451  -17.1552   20.9126 H   0  0  0  0  0
  -32.8799  -19.7474   24.7591 H   0  0  0  0  0
  -34.0512  -18.7445   25.1544 H   0  0  0  0  0
  -32.9170  -16.9349   23.7355 H   0  0  0  0  0
  -30.5614  -18.9953   23.9289 H   0  0  0  0  0
  -29.2497  -17.0322   24.5507 H   0  0  0  0  0
  -29.1899  -15.5026   22.9979 H   0  0  0  0  0
  -31.8391  -15.5493   24.0507 H   0  0  0  0  0
  -32.6834  -14.0196   24.3950 H   0  0  0  0  0
  -30.8839  -10.2811   26.5258 H   0  0  0  0  0
  -29.4909   -9.8532   27.5247 H   0  0  0  0  0
  -27.1743  -13.9004   27.9189 H   0  0  0  0  0
  1  2  1  0  0  0
  1  3  2  0  0  0
  1  4  1  0  0  0
  1  9  1  0  0  0
  4  5  1  0  0  0
  5  6  1  0  0  0
  6  7  1  0  0  0
  6  8  1  0  0  0
  7 12  1  0  0  0
  8  9  1  0  0  0
  8 10  1  0  0  0
 10 11  1  0  0  0
 10 12  1  0  0  0
 12 13  1  0  0  0
 13 14  4  0  0  0
 13 22  4  0  0  0
 14 15  4  0  0  0
 15 16  4  0  0  0
 16 17  4  0  0  0
 16 22  4  0  0  0
 17 18  1  0  0  0
 17 19  4  0  0  0
 19 20  4  0  0  0
 20 21  4  0  0  0
 21 22  4  0  0  0
  2 23  1  0  0  0
  5 24  1  0  0  0
  5 25  1  0  0  0
  6 26  1  0  0  0
  8 27  1  0  0  0
 10 28  1  0  0  0
 11 29  1  0  0  0
 12 30  1  0  0  0
 14 31  1  0  0  0
 18 32  1  0  0  0
 18 33  1  0  0  0
 20 34  1  0  0  0
M  END
$$$$
