1n0s_ligand
  -I-interpret- 

 37 40  0  0  0  0  0  0  0  0999 V2000
    6.5950   75.0230   53.2010 C   0  0  0  0  0
    6.2580   74.2370   54.1230 O   0  0  0  0  0
    6.4230   74.6230   51.8730 C   0  0  0  0  0
    6.7730   75.4750   50.8730 C   0  0  0  0  0
    6.5590   74.9870   49.5890 O   0  0  0  0  0
    6.8010   75.7850   48.5050 C   0  0  0  0  0
    6.5470   75.1990   47.2800 C   0  0  0  0  0
    6.7500   75.9420   46.1210 C   0  0  0  0  0
    6.5000   75.4000   44.9420 O   0  0  0  0  0
    7.2500   77.2670   46.2690 C   0  0  0  0  0
    7.4870   77.8420   47.5020 C   0  0  0  0  0
    7.2630   77.1010   48.6970 C   0  0  0  0  0
    7.5400   77.5860   50.0160 C   0  0  0  0  0
    7.2480   76.7810   51.0990 C   0  0  0  0  0
    7.4190   77.1740   52.4810 C   0  0  0  0  0
    7.0810   76.3450   53.4880 C   0  0  0  0  0
    7.9550   79.0250   50.1830 C   0  0  0  0  0
    6.9800   79.9180   50.5880 C   0  0  0  0  0
    7.2780   81.2620   50.7380 C   0  0  0  0  0
    8.5120   81.7690   50.4130 C   0  0  0  0  0
    9.4790   80.8850   49.9720 C   0  0  0  0  0
    9.2090   79.5260   49.8470 C   0  0  0  0  0
   10.2710   78.6140   49.3530 C   0  0  0  0  0
   11.0030   79.0420   48.4680 O   0  0  0  0  0
   10.3220   77.4870   49.8490 O   0  0  0  0  0
    6.0132   73.6398   51.6418 H   0  0  0  0  0
    6.1928   74.1698   47.2221 H   0  0  0  0  0
    6.6898   76.0386   44.2508 H   0  0  0  0  0
    7.4541   77.8516   45.3720 H   0  0  0  0  0
    7.8476   78.8689   47.5607 H   0  0  0  0  0
    7.8283   78.1576   52.7114 H   0  0  0  0  0
    7.1762   76.6773   54.5217 H   0  0  0  0  0
    5.9700   79.5616   50.7906 H   0  0  0  0  0
    6.5127   81.9352   51.1243 H   0  0  0  0  0
    8.7225   82.8349   50.5000 H   0  0  0  0  0
   10.4706   81.2594   49.7177 H   0  0  0  0  0
    9.6412   77.4031   50.5206 H   0  0  0  0  0
  1  2  2  0  0  0
  1  3  1  0  0  0
  1 16  1  0  0  0
  3  4  2  0  0  0
  4  5  1  0  0  0
  4 14  1  0  0  0
  5  6  1  0  0  0
  6  7  4  0  0  0
  6 12  4  0  0  0
  7  8  4  0  0  0
  8  9  1  0  0  0
  8 10  4  0  0  0
 10 11  4  0  0  0
 11 12  4  0  0  0
 12 13  1  0  0  0
 13 14  2  0  0  0
 13 17  1  0  0  0
 14 15  1  0  0  0
 15 16  2  0  0  0
 17 18  4  0  0  0
 17 22  4  0  0  0
 18 19  4  0  0  0
 19 20  4  0  0  0
 20 21  4  0  0  0
 21 22  4  0  0  0
 22 23  1  0  0  0
 23 24  2  0  0  0
 23 25  1  0  0  0
  3 26  1  0  0  0
  7 27  1  0  0  0
  9 28  1  0  0  0
 10 29  1  0  0  0
 11 30  1  0  0  0
 15 31  1  0  0  0
 16 32  1  0  0  0
 18 33  1  0  0  0
 19 34  1  0  0  0
 20 35  1  0  0  0
 21 36  1  0  0  0
 25 37  1  0  0  0
M  END
$$$$
