4lh5_ligand
  -I-interpret- 

 61 64  0  0  0  0  0  0  0  0999 V2000
    9.7180  -47.1960  -15.9090 C   0  0  0  0  0
   11.1530  -47.5360  -15.7370 C   0  0  0  0  0
   11.5990  -48.9550  -15.9160 C   0  0  0  0  0
   10.7070  -49.9190  -16.0900 N   0  0  0  0  0
    9.4000  -49.7130  -16.1360 C   0  0  0  0  0
    8.8150  -48.3690  -16.0050 C   0  0  0  0  0
    9.1510  -45.7970  -15.8080 C   0  0  0  0  0
    9.2240  -45.8800  -14.5230 C   0  0  0  0  0
    8.8650  -44.9760  -13.7110 C   0  0  0  0  0
    8.4470  -43.8420  -14.0840 C   0  0  0  0  0
    8.3010  -43.5730  -15.4230 C   0  0  0  0  0
    8.6570  -44.5790  -16.4600 C   0  0  0  0  0
    7.3220  -48.1590  -16.1030 C   0  0  0  0  0
    6.6120  -49.4450  -15.6980 C   0  0  0  0  0
    7.0840  -50.5850  -16.5850 C   0  0  0  0  0
    8.5570  -50.9570  -16.3610 C   0  0  0  0  0
   13.0410  -49.4290  -15.8270 C   0  0  0  0  0
   12.1240  -46.4500  -15.4950 C   0  0  0  0  0
   12.6760  -46.5450  -14.0710 C   0  0  0  0  0
   13.7760  -46.1250  -13.7790 O   0  0  0  0  0
   11.9560  -47.0200  -13.0730 O   0  0  0  0  0
   13.2420  -46.4540  -16.3270 O   0  0  0  0  0
   13.0700  -45.7790  -17.5810 C   0  0  0  0  0
   12.5850  -44.3370  -17.4120 C   0  0  0  0  0
   12.1330  -46.5650  -18.4740 C   0  0  0  0  0
   14.4580  -45.8230  -18.2270 C   0  0  0  0  0
    8.1500  -43.2490  -12.8250 O   0  0  0  0  0
    7.4710  -42.0320  -12.8210 C   0  0  0  0  0
    8.0640  -41.4730  -14.1050 C   0  0  0  0  0
    7.7460  -42.2560  -15.3240 C   0  0  0  0  0
    9.6266  -46.8013  -14.1020 H   0  0  0  0  0
    8.9188  -45.1851  -12.6426 H   0  0  0  0  0
    8.5651  -44.4337  -17.5364 H   0  0  0  0  0
    7.0541  -47.8982  -17.1269 H   0  0  0  0  0
    7.0207  -47.3484  -15.4395 H   0  0  0  0  0
    5.5356  -49.3173  -15.8124 H   0  0  0  0  0
    6.8420  -49.6749  -14.6576 H   0  0  0  0  0
    6.9790  -50.2624  -17.6209 H   0  0  0  0  0
    6.4821  -51.4613  -16.3444 H   0  0  0  0  0
    8.6283  -51.5939  -15.4793 H   0  0  0  0  0
    8.9265  -51.4765  -17.2451 H   0  0  0  0  0
   13.6372  -48.9186  -16.5834 H   0  0  0  0  0
   13.4363  -49.2021  -14.8369 H   0  0  0  0  0
   13.0796  -50.5049  -15.9972 H   0  0  0  0  0
   11.5511  -45.5429  -15.6874 H   0  0  0  0  0
   11.1093  -47.3248  -13.4074 H   0  0  0  0  0
   11.6247  -44.3361  -16.8964 H   0  0  0  0  0
   13.3137  -43.7762  -16.8267 H   0  0  0  0  0
   12.4725  -43.8755  -18.3931 H   0  0  0  0  0
   12.5513  -47.5550  -18.6555 H   0  0  0  0  0
   11.1638  -46.6628  -17.9849 H   0  0  0  0  0
   12.0118  -46.0410  -19.4220 H   0  0  0  0  0
   15.1736  -45.3125  -17.5826 H   0  0  0  0  0
   14.7628  -46.8611  -18.3598 H   0  0  0  0  0
   14.4219  -45.3267  -19.1968 H   0  0  0  0  0
    7.6026  -41.4177  -11.9303 H   0  0  0  0  0
    6.3833  -42.0951  -12.7883 H   0  0  0  0  0
    9.1477  -41.4908  -13.9891 H   0  0  0  0  0
    7.6390  -40.4791  -14.2454 H   0  0  0  0  0
    6.6645  -42.3918  -15.3134 H   0  0  0  0  0
    8.1715  -41.6935  -16.1551 H   0  0  0  0  0
  1  2  4  0  0  0
  1  6  4  0  0  0
  1  7  1  0  0  0
  2  3  4  0  0  0
  2 18  1  0  0  0
  3  4  4  0  0  0
  3 17  1  0  0  0
  4  5  4  0  0  0
  5  6  4  0  0  0
  5 16  1  0  0  0
  6 13  1  0  0  0
  7  8  4  0  0  0
  7 12  4  0  0  0
  8  9  4  0  0  0
  9 10  4  0  0  0
 10 11  4  0  0  0
 10 27  1  0  0  0
 11 12  4  0  0  0
 11 30  1  0  0  0
 13 14  1  0  0  0
 14 15  1  0  0  0
 15 16  1  0  0  0
 18 19  1  0  0  0
 18 22  1  0  0  0
 19 20  2  0  0  0
 19 21  1  0  0  0
 22 23  1  0  0  0
 23 24  1  0  0  0
 23 25  1  0  0  0
 23 26  1  0  0  0
 27 28  1  0  0  0
 28 29  1  0  0  0
 29 30  1  0  0  0
  8 31  1  0  0  0
  9 32  1  0  0  0
 12 33  1  0  0  0
 13 34  1  0  0  0
 13 35  1  0  0  0
 14 36  1  0  0  0
 14 37  1  0  0  0
 15 38  1  0  0  0
 15 39  1  0  0  0
 16 40  1  0  0  0
 16 41  1  0  0  0
 17 42  1  0  0  0
 17 43  1  0  0  0
 17 44  1  0  0  0
 18 45  1  0  0  0
 21 46  1  0  0  0
 24 47  1  0  0  0
 24 48  1  0  0  0
 24 49  1  0  0  0
 25 50  1  0  0  0
 25 51  1  0  0  0
 25 52  1  0  0  0
 26 53  1  0  0  0
 26 54  1  0  0  0
 26 55  1  0  0  0
 28 56  1  0  0  0
 28 57  1  0  0  0
 29 58  1  0  0  0
 29 59  1  0  0  0
 30 60  1  0  0  0
 30 61  1  0  0  0
M  END
$$$$
