5v3y_ligand
  -I-interpret- 

 53 56  0  0  0  0  0  0  0  0999 V2000
    2.1320   28.5690    8.2460 C   0  0  0  0  0
    1.3190   27.7260    8.9920 C   0  0  0  0  0
    1.6010   26.3780    9.0730 C   0  0  0  0  0
    2.6960   25.8460    8.4110 C   0  0  0  0  0
    4.8290   20.7960    7.2780 C   0  0  0  0  0
    6.2020   20.7290    7.0390 C   0  0  0  0  0
    4.5870   25.7740    7.1130 C   0  0  0  0  0
    5.7060   26.1480    6.2300 C   0  0  0  0  0
    6.9690   25.7640    4.1860 C   0  0  0  0  0
    3.5370   26.6850    7.6540 C   0  0  0  0  0
    6.1900   30.2400    6.8230 C   0  0  0  0  0
    7.3880   30.7100    7.6520 C   0  0  0  0  0
    6.8680   31.6760    8.7250 C   0  0  0  0  0
    1.8300   29.9030    8.1850 O   0  0  0  0  0
    4.2730   24.4990    7.5810 C   0  0  0  0  0
    4.9640   23.2060    7.3730 C   0  0  0  0  0
    4.2120   22.0200    7.4490 C   0  0  0  0  0
    6.9580   21.8950    6.9720 C   0  0  0  0  0
    6.3440   23.1210    7.1420 C   0  0  0  0  0
    3.2440   28.0640    7.5780 C   0  0  0  0  0
    4.1070   29.0360    6.8090 C   0  0  0  0  0
    3.1700   24.5850    8.3330 O   0  0  0  0  0
    6.8030   19.5220    6.8750 O   0  0  0  0  0
    5.8690   25.4400    5.0990 N   0  0  0  0  0
    6.4450   27.0900    6.4770 O   0  0  0  0  0
    5.2590   29.4620    7.6630 N   0  3  0  0  0
    5.9730   30.8710    9.6690 C   0  0  0  0  0
    4.8290   30.2450    8.8470 C   0  0  0  0  0
    0.4536   28.1314    9.5163 H   0  0  0  0  0
    0.9569   25.7258    9.6628 H   0  0  0  0  0
    4.2413   19.8795    7.3299 H   0  0  0  0  0
    6.8627   26.7927    3.8417 H   0  0  0  0  0
    7.9187   25.6508    4.7088 H   0  0  0  0  0
    6.9407   25.0886    3.3309 H   0  0  0  0  0
    6.5464   29.6090    6.0088 H   0  0  0  0  0
    5.6682   31.1110    6.4265 H   0  0  0  0  0
    8.1160   31.2107    7.0137 H   0  0  0  0  0
    7.8824   29.8578    8.1184 H   0  0  0  0  0
    6.3061   32.4899    8.2668 H   0  0  0  0  0
    7.6982   32.1218    9.2728 H   0  0  0  0  0
    2.4776   30.3518    7.6365 H   0  0  0  0  0
    3.1405   22.0667    7.6432 H   0  0  0  0  0
    8.0307   21.8415    6.7861 H   0  0  0  0  0
    6.9396   24.0327    7.0960 H   0  0  0  0  0
    3.5153   29.9093    6.5344 H   0  0  0  0  0
    4.4822   28.5538    5.9063 H   0  0  0  0  0
    7.7416   19.6515    6.7205 H   0  0  0  0  0
    5.2281   24.6783    4.8764 H   0  0  0  0  0
    5.7218   28.6311    8.0317 H   0  0  0  0  0
    5.5625   31.5245   10.4387 H   0  0  0  0  0
    6.5547   30.0865   10.1531 H   0  0  0  0  0
    4.3099   29.5522    9.5093 H   0  0  0  0  0
    4.2232   31.0706    8.4736 H   0  0  0  0  0
  1  2  4  0  0  0
  1 14  1  0  0  0
 20  1  4  0  0  0
  2  3  4  0  0  0
  4  3  4  0  0  0
 10  4  4  0  0  0
  4 22  4  0  0  0
  5  6  4  0  0  0
 17  5  4  0  0  0
 18  6  4  0  0  0
  6 23  1  0  0  0
  7  8  1  0  0  0
 10  7  4  0  0  0
  7 15  4  0  0  0
  8 24  1  0  0  0
  8 25  2  0  0  0
 24  9  1  0  0  0
 20 10  4  0  0  0
 11 12  1  0  0  0
 26 11  1  0  0  0
 12 13  1  0  0  0
 13 27  1  0  0  0
 15 16  1  0  0  0
 15 22  4  0  0  0
 16 17  4  0  0  0
 16 19  4  0  0  0
 19 18  4  0  0  0
 21 20  1  0  0  0
 21 26  1  0  0  0
 26 28  1  0  0  0
 27 28  1  0  0  0
  2 29  1  0  0  0
  3 30  1  0  0  0
  5 31  1  0  0  0
  9 32  1  0  0  0
  9 33  1  0  0  0
  9 34  1  0  0  0
 11 35  1  0  0  0
 11 36  1  0  0  0
 12 37  1  0  0  0
 12 38  1  0  0  0
 13 39  1  0  0  0
 13 40  1  0  0  0
 14 41  1  0  0  0
 17 42  1  0  0  0
 18 43  1  0  0  0
 19 44  1  0  0  0
 21 45  1  0  0  0
 21 46  1  0  0  0
 23 47  1  0  0  0
 24 48  1  0  0  0
 26 49  1  0  0  0
 27 50  1  0  0  0
 27 51  1  0  0  0
 28 52  1  0  0  0
 28 53  1  0  0  0
M  END
$$$$
