5om3_ligand
  -I-interpret- 

 59 62  0  0  0  0  0  0  0  0999 V2000
   -2.2350   16.2960  -15.9050 C   0  0  0  0  0
   -1.1540   16.8630  -15.8970 O   0  0  0  0  0
   -2.6350   15.3230  -16.9100 C   0  0  0  0  0
   -0.6960   15.8140  -18.3020 O   0  0  0  0  0
   -1.7700   15.2330  -18.1410 C   0  0  0  0  0
   -2.3130   14.4090  -19.1210 N   0  0  0  0  0
   -3.8360   14.7100  -16.9710 C   0  0  0  0  0
   -4.4710   14.4660  -18.1380 O   0  0  0  0  0
   -4.8510   14.7920  -15.8490 C   0  0  0  0  0
   -4.8970   13.4560  -14.9910 N   0  3  0  0  0
   -3.6670   13.2490  -14.1580 C   0  0  0  0  0
   -5.0070   12.2640  -15.9060 C   0  0  0  0  0
   -4.7090   16.1440  -15.0380 C   0  0  0  0  0
   -5.6230   17.1970  -15.7580 C   0  0  0  0  0
   -6.9240   16.6820  -15.8710 O   0  0  0  0  0
   -5.6150   18.6220  -15.1100 C   0  0  0  0  0
   -6.1680   19.7760  -16.0290 C   0  0  0  0  0
   -7.5550   19.5120  -16.5630 C   0  0  0  0  0
   -6.1380   21.1000  -15.3240 C   0  0  0  0  0
   -7.0950   22.0740  -15.5770 C   0  0  0  0  0
   -7.0680   23.3110  -14.9280 C   0  0  0  0  0
   -6.0880   23.6060  -14.0040 C   0  0  0  0  0
   -5.1150   22.6220  -13.7410 C   0  0  0  0  0
   -4.1780   22.9760  -12.8190 O   0  0  0  0  0
   -5.1340   21.3760  -14.3950 C   0  0  0  0  0
   -4.1080   20.3770  -14.0960 C   0  0  0  0  0
   -3.1300   20.6440  -13.3730 O   0  0  0  0  0
   -4.2390   19.0230  -14.6620 C   0  0  0  0  0
   -3.2070   18.1620  -14.4760 C   0  0  0  0  0
   -2.1110   18.4150  -13.7530 O   0  0  0  0  0
   -3.2190   16.6370  -14.7600 C   0  0  0  0  0
   -2.7600   16.0400  -13.5910 O   0  0  0  0  0
   -2.4447   14.6028  -16.1142 H   0  0  0  0  0
   -1.8195   14.2722  -20.0031 H   0  0  0  0  0
   -3.2047   13.9415  -18.9576 H   0  0  0  0  0
   -3.1861   13.8589  -16.7677 H   0  0  0  0  0
   -3.8261   14.4145  -18.8472 H   0  0  0  0  0
   -5.8521   14.8483  -16.2765 H   0  0  0  0  0
   -5.7047   13.5477  -14.3748 H   0  0  0  0  0
   -2.7941   13.1945  -14.8085 H   0  0  0  0  0
   -3.5541   14.0832  -13.4655 H   0  0  0  0  0
   -3.7621   12.3195  -13.5967 H   0  0  0  0  0
   -5.9191   12.3444  -16.4973 H   0  0  0  0  0
   -4.1432   12.2365  -16.5702 H   0  0  0  0  0
   -5.0380   11.3518  -15.3101 H   0  0  0  0  0
   -5.0465   15.9818  -14.0143 H   0  0  0  0  0
   -5.1986   17.3566  -16.7492 H   0  0  0  0  0
   -7.4844   17.3252  -16.3113 H   0  0  0  0  0
   -6.2934   18.5139  -14.2637 H   0  0  0  0  0
   -5.4962   19.8065  -16.8868 H   0  0  0  0  0
   -7.5464   18.5982  -17.1571 H   0  0  0  0  0
   -8.2483   19.3986  -15.7296 H   0  0  0  0  0
   -7.8683   20.3493  -17.1866 H   0  0  0  0  0
   -7.8856   21.8687  -16.2987 H   0  0  0  0  0
   -7.8328   24.0536  -15.1554 H   0  0  0  0  0
   -6.0669   24.5690  -13.4938 H   0  0  0  0  0
   -3.5579   22.2528  -12.7007 H   0  0  0  0  0
   -1.5310   17.6503  -13.7749 H   0  0  0  0  0
   -1.8623   16.3314  -13.4154 H   0  0  0  0  0
  1  2  2  0  0  0
  1  3  1  0  0  0
  1 31  1  0  0  0
  3  5  1  0  0  0
  3  7  1  0  0  0
  5  4  2  0  0  0
  5  6  1  0  0  0
  7  8  1  0  0  0
  7  9  1  0  0  0
  9 10  1  0  0  0
  9 13  1  0  0  0
 10 11  1  0  0  0
 10 12  1  0  0  0
 13 14  1  0  0  0
 13 31  1  0  0  0
 14 15  1  0  0  0
 14 16  1  0  0  0
 16 17  1  0  0  0
 16 28  1  0  0  0
 17 18  1  0  0  0
 17 19  1  0  0  0
 19 20  4  0  0  0
 19 25  4  0  0  0
 20 21  4  0  0  0
 21 22  4  0  0  0
 22 23  4  0  0  0
 23 24  1  0  0  0
 23 25  4  0  0  0
 25 26  1  0  0  0
 26 27  2  0  0  0
 26 28  1  0  0  0
 28 29  2  0  0  0
 29 30  1  0  0  0
 29 31  1  0  0  0
 31 32  1  0  0  0
  3 33  1  0  0  0
  6 34  1  0  0  0
  6 35  1  0  0  0
  7 36  1  0  0  0
  8 37  1  0  0  0
  9 38  1  0  0  0
 10 39  1  0  0  0
 11 40  1  0  0  0
 11 41  1  0  0  0
 11 42  1  0  0  0
 12 43  1  0  0  0
 12 44  1  0  0  0
 12 45  1  0  0  0
 13 46  1  0  0  0
 14 47  1  0  0  0
 15 48  1  0  0  0
 16 49  1  0  0  0
 17 50  1  0  0  0
 18 51  1  0  0  0
 18 52  1  0  0  0
 18 53  1  0  0  0
 20 54  1  0  0  0
 21 55  1  0  0  0
 22 56  1  0  0  0
 24 57  1  0  0  0
 30 58  1  0  0  0
 32 59  1  0  0  0
M  END
$$$$
