4nwd_ligand
  -I-interpret- 

 33 32  0  0  0  0  0  0  0  0999 V2000
   -1.0890   30.8760  -13.9390 O   0  0  0  0  0
   -2.2190   31.1580  -13.4500 C   0  0  0  0  0
   -2.4940   32.1900  -12.7830 O   0  0  0  0  0
   -3.3550   30.1580  -13.6710 C   0  0  0  0  0
   -4.5560   30.6520  -12.9950 N   0  3  0  0  0
   -3.5980   29.8990  -15.1760 C   0  0  0  0  0
   -4.3130   28.5590  -15.4780 C   0  0  0  0  0
   -3.6190   27.3810  -14.7910 C   0  0  0  0  0
   -2.3580   27.3680  -14.8570 O   0  0  0  0  0
   -4.3700   26.5340  -14.2470 O   0  0  0  0  0
   -4.3790   28.2400  -16.9910 C   0  0  0  0  0
   -5.6670   28.7240  -17.6560 C   0  0  0  0  0
   -6.8840   28.6660  -16.7360 C   0  0  0  0  0
   -7.3070   27.5800  -16.2940 O   0  0  0  0  0
   -7.4100   29.8880  -16.4750 N   0  0  0  0  0
   -8.6010   29.9590  -15.5970 C   0  0  0  0  0
   -1.1421   30.0363  -14.4012 H   0  0  0  0  0
   -3.0804   29.1945  -13.2417 H   0  0  0  0  0
   -4.3495   30.8082  -12.0084 H   0  0  0  0  0
   -4.8503   31.5289  -13.4249 H   0  0  0  0  0
   -5.3020   29.9619  -13.0823 H   0  0  0  0  0
   -2.6216   29.8601  -15.6589 H   0  0  0  0  0
   -4.2425   30.6985  -15.5414 H   0  0  0  0  0
   -5.3241   28.6872  -15.0915 H   0  0  0  0  0
   -2.0556   28.1447  -15.3333 H   0  0  0  0  0
   -4.3389   27.1563  -17.1009 H   0  0  0  0  0
   -3.5469   28.7538  -17.4723 H   0  0  0  0  0
   -5.8650   28.0685  -18.5041 H   0  0  0  0  0
   -5.5188   29.7661  -17.9391 H   0  0  0  0  0
   -6.9981   30.7329  -16.8712 H   0  0  0  0  0
   -9.4152   29.3890  -16.0445 H   0  0  0  0  0
   -8.3565   29.5406  -14.6207 H   0  0  0  0  0
   -8.9046   30.9995  -15.4821 H   0  0  0  0  0
  1  2  1  0  0  0
  2  3  2  0  0  0
  2  4  1  0  0  0
  4  5  1  0  0  0
  4  6  1  0  0  0
  6  7  1  0  0  0
  7  8  1  0  0  0
  7 11  1  0  0  0
  8  9  1  0  0  0
  8 10  2  0  0  0
 11 12  1  0  0  0
 12 13  1  0  0  0
 13 14  2  0  0  0
 13 15  1  0  0  0
 15 16  1  0  0  0
  1 17  1  0  0  0
  4 18  1  0  0  0
  5 19  1  0  0  0
  5 20  1  0  0  0
  5 21  1  0  0  0
  6 22  1  0  0  0
  6 23  1  0  0  0
  7 24  1  0  0  0
  9 25  1  0  0  0
 11 26  1  0  0  0
 11 27  1  0  0  0
 12 28  1  0  0  0
 12 29  1  0  0  0
 15 30  1  0  0  0
 16 31  1  0  0  0
 16 32  1  0  0  0
 16 33  1  0  0  0
M  END
$$$$
