### 
### Created by X-TOOL on Wed Jan  1 15:39:37 2020
### 

@<TRIPOS>MOLECULE
5yc3_ligand
  166   165     1     0     0
SMALL
GAST_HUCK


@<TRIPOS>ATOM
      1 N          20.7430   -8.3580   17.9540 N.4       1 ALA         0.2377
      2 CA         19.8630   -7.6290   17.0500 C.3       1 ALA         0.0621
      3 C          18.4350   -7.6160   17.5780 C.2       1 ALA         0.2264
      4 O          18.0860   -8.3970   18.4630 O.2       1 ALA        -0.3907
      5 CB         19.9080   -8.2400   15.6520 C.3       1 ALA        -0.0040
      6 N          17.6110   -6.7260   17.0340 N.am      1 ARG        -0.2610
      7 CA         16.2120   -6.6650   17.4310 C.3       1 ARG         0.1312
      8 C          15.4140   -7.7470   16.7160 C.2       1 ARG         0.2040
      9 O          15.1050   -7.6210   15.5330 O.2       1 ARG        -0.3944
     10 CB         15.6100   -5.2930   17.1370 C.3       1 ARG        -0.0092
     11 CG         14.2010   -5.1570   17.6790 C.3       1 ARG        -0.0156
     12 CD         13.5360   -3.8690   17.2520 C.3       1 ARG         0.0627
     13 NE         12.2490   -3.7070   17.9200 N.pl3     1 ARG        -0.2723
     14 CZ         11.2370   -2.9930   17.4400 C.cat     1 ARG         0.2882
     15 NH1        11.3520   -2.3710   16.2740 N.pl3     1 ARG        -0.2849
     16 NH2        10.1070   -2.9060   18.1270 N.pl3     1 ARG        -0.2849
     17 N          15.0830   -8.8110   17.4390 N.am      1 THR        -0.2613
     18 CA         14.3750   -9.9440   16.8520 C.3       1 THR         0.1565
     19 C          13.1190  -10.2960   17.6380 C.2       1 THR         0.2065
     20 O          12.8710   -9.7500   18.7130 O.2       1 THR        -0.3943
     21 CB         15.2720  -11.1920   16.7810 C.3       1 THR         0.0924
     22 OG1        15.5180  -11.6850   18.1050 O.3       1 THR        -0.3874
     23 CG2        16.5970  -10.8650   16.1040 C.3       1 THR        -0.0346
     24 N          12.3290  -11.2150   17.0940 N.am      1 MLY        -0.2637
     25 CA         11.1560  -11.7240   17.7910 C.3       1 MLY         0.1310
     26 CB          9.9910  -10.7360   17.6930 C.3       1 MLY        -0.0122
     27 CG          9.3870  -10.6440   16.3060 C.3       1 MLY        -0.0440
     28 CD          8.2370   -9.6550   16.2300 C.3       1 MLY        -0.0123
     29 CE          7.6520   -9.6470   14.8210 C.3       1 MLY        -0.0324
     30 NZ          6.4610   -8.7710   14.6640 N.4       1 MLY         0.2309
     31 CH1         6.9540   -7.3930   14.5370 C.3       1 MLY        -0.0433
     32 CH2         5.8570   -9.1320   13.3740 C.3       1 MLY        -0.0433
     33 C          10.7450  -13.0690   17.2080 C.2       1 MLY         0.2039
     34 O          11.0040  -13.3570   16.0390 O.2       1 MLY        -0.3944
     35 N          10.1140  -13.8920   18.0350 N.am      1 GLN        -0.2636
     36 CA          9.5290  -15.1470   17.5850 C.3       1 GLN         0.1330
     37 C           8.0480  -15.1350   17.9370 C.2       1 GLN         0.2041
     38 O           7.6880  -14.9330   19.0960 O.2       1 GLN        -0.3944
     39 CB         10.2340  -16.3450   18.2280 C.3       1 GLN         0.0045
     40 CG          9.6540  -17.7040   17.8420 C.3       1 GLN         0.0412
     41 CD         10.1860  -18.2280   16.5200 C.2       1 GLN         0.1737
     42 OE1        11.3060  -17.9150   16.1190 O.2       1 GLN        -0.3973
     43 NE2         9.3850  -19.0380   15.8400 N.am      1 GLN        -0.3009
     44 N           7.1920  -15.3340   16.9410 N.am      1 THR        -0.2613
     45 CA          5.7520  -15.3090   17.1760 C.3       1 THR         0.1565
     46 C           5.3000  -16.5980   17.8530 C.2       1 THR         0.2065
     47 O           5.9800  -17.6220   17.7750 O.2       1 THR        -0.3943
     48 CB          4.9610  -15.1060   15.8670 C.3       1 THR         0.0924
     49 OG1         5.1090  -16.2570   15.0240 O.3       1 THR        -0.3874
     50 CG2         5.4570  -13.8660   15.1330 C.3       1 THR        -0.0346
     51 N           4.1540  -16.5410   18.5220 N.am      1 ALA        -0.2639
     52 CA          3.6250  -17.6960   19.2380 C.3       1 ALA         0.1282
     53 C           3.0480  -18.7440   18.2930 C.2       1 ALA         0.2036
     54 O           2.8780  -18.4970   17.0980 O.2       1 ALA        -0.3944
     55 CB          2.5650  -17.2520   20.2290 C.3       1 ALA        -0.0244
     56 N           2.7410  -19.9150   18.8400 N.am      1 ARG        -0.2637
     57 CA          2.0230  -20.9390   18.0920 C.3       1 ARG         0.1310
     58 C           0.5190  -20.6720   18.1460 C.2       1 ARG         0.2033
     59 O           0.0720  -19.7200   18.7870 O.2       1 ARG        -0.3944
     60 CB          2.3420  -22.3310   18.6390 C.3       1 ARG        -0.0092
     61 CG          3.7890  -22.7460   18.4450 C.3       1 ARG        -0.0156
     62 CD          4.1360  -23.9610   19.2870 C.3       1 ARG         0.0627
     63 NE          5.4920  -24.4320   19.0260 N.pl3     1 ARG        -0.2723
     64 CZ          5.7930  -25.4220   18.1900 C.cat     1 ARG         0.2882
     65 NH1         4.8290  -26.0560   17.5350 N.pl3     1 ARG        -0.2849
     66 NH2         7.0580  -25.7810   18.0130 N.pl3     1 ARG        -0.2849
     67 N          -0.2580  -21.5160   17.4760 N.am      1 LYS        -0.2695
     68 CA         -1.7040  -21.3250   17.3950 C.3       1 LYS         0.0944
     69 C          -2.4330  -21.8440   18.6350 C.2       1 LYS         0.0601
     70 O          -2.0960  -22.8960   19.1770 O.co2     1 LYS        -0.5666
     71 CB         -2.2490  -22.0070   16.1390 C.3       1 LYS        -0.0177
     72 CG         -1.6570  -21.4490   14.8530 C.3       1 LYS        -0.0446
     73 CD         -2.0430  -22.2710   13.6370 C.3       1 LYS        -0.0125
     74 CE         -1.4200  -21.6920   12.3750 C.3       1 LYS        -0.0354
     75 NZ         -1.7870  -22.4600   11.1520 N.4       1 LYS         0.2185
     76 OXT        -3.3760  -21.2240   19.1240 O.co2     1 LYS        -0.5666
     77 H1         21.6812   -8.3539   17.5855 H         1 ALA         0.2015
     78 H2         20.4209   -9.3090   18.0422 H         1 ALA         0.2015
     79 H3         20.7358   -7.9154   18.8596 H         1 ALA         0.2015
     80 H4         20.2176   -6.5897   16.9860 H         1 ALA         0.1095
     81 H5         19.2387   -7.6776   14.9844 H         1 ALA         0.0310
     82 H6         19.5813   -9.2893   15.6997 H         1 ALA         0.0310
     83 H7         20.9364   -8.1934   15.2644 H         1 ALA         0.0310
     84 H8         17.9565   -6.0905   16.3435 H         1 ARG         0.1884
     85 H9         16.1524   -6.8442   18.5147 H         1 ARG         0.0800
     86 H10        15.5863   -5.1428   16.0476 H         1 ARG         0.0313
     87 H11        16.2433   -4.5219   17.5998 H         1 ARG         0.0313
     88 H12        14.2420   -5.1848   18.7779 H         1 ARG         0.0301
     89 H13        13.5996   -6.0022   17.3130 H         1 ARG         0.0301
     90 H14        13.3780   -3.8877   16.1636 H         1 ARG         0.0689
     91 H15        14.1876   -3.0222   17.5135 H         1 ARG         0.0689
     92 H16        12.1161   -4.1787   18.8260 H         1 ARG         0.2642
     93 H17        10.5649   -1.8183   15.9053 H         1 ARG         0.2615
     94 H18        12.2284   -2.4407   15.7374 H         1 ARG         0.2615
     95 H19        10.0164   -3.3885   19.0325 H         1 ARG         0.2615
     96 H20         9.3194   -2.3559   17.7554 H         1 ARG         0.2615
     97 H21        15.3248   -8.8362   18.4090 H         1 THR         0.1884
     98 H22        14.0802   -9.6658   15.8294 H         1 THR         0.0826
     99 H23        14.7559  -11.9687   16.1976 H         1 THR         0.0639
    100 H24        16.0720  -12.4553   18.0570 H         1 THR         0.2101
    101 H25        17.2214  -11.7697   16.0641 H         1 THR         0.0257
    102 H26        17.1188  -10.0844   16.6771 H         1 THR         0.0257
    103 H27        16.4076  -10.5049   15.0820 H         1 THR         0.0257
    104 H28        12.5452  -11.5661   16.1830 H         1 MLY         0.1883
    105 H29        11.4112  -11.8614   18.8521 H         1 MLY         0.0800
    106 H30        10.3559   -9.7388   17.9799 H         1 MLY         0.0312
    107 H31         9.2052  -11.0546   18.3938 H         1 MLY         0.0312
    108 H32         9.0152  -11.6383   16.0178 H         1 MLY         0.0269
    109 H33        10.1703  -10.3271   15.6017 H         1 MLY         0.0269
    110 H34         8.6045   -8.6483   16.4781 H         1 MLY         0.0317
    111 H35         7.4562   -9.9475   16.9475 H         1 MLY         0.0317
    112 H36         7.3609  -10.6756   14.5618 H         1 MLY         0.0814
    113 H37         8.4304   -9.2998   14.1256 H         1 MLY         0.0814
    114 H38         5.8121   -8.8706   15.4289 H         1 MLY         0.2028
    115 H39         6.1015   -6.7081   14.4182 H         1 MLY         0.0777
    116 H40         7.6100   -7.3178   13.6572 H         1 MLY         0.0777
    117 H41         7.5196   -7.1212   15.4404 H         1 MLY         0.0777
    118 H42         5.4727  -10.1615   13.4244 H         1 MLY         0.0777
    119 H43         6.6164   -9.0625   12.5813 H         1 MLY         0.0777
    120 H44         5.0297   -8.4424   13.1507 H         1 MLY         0.0777
    121 H45        10.0375  -13.6420   19.0002 H         1 GLN         0.1883
    122 H46         9.6382  -15.2226   16.4931 H         1 GLN         0.0801
    123 H47        10.1633  -16.2393   19.3206 H         1 GLN         0.0337
    124 H48        11.2913  -16.3244   17.9253 H         1 GLN         0.0337
    125 H49         8.5608  -17.6086   17.7657 H         1 GLN         0.0504
    126 H50         9.9047  -18.4280   18.6313 H         1 GLN         0.0504
    127 H51         9.6822  -19.4140   14.9623 H         1 GLN         0.1814
    128 H52         8.4840  -19.2725   16.2051 H         1 GLN         0.1814
    129 H53         7.5388  -15.5031   16.0184 H         1 THR         0.1884
    130 H54         5.5301  -14.4658   17.8467 H         1 THR         0.0826
    131 H55         3.8965  -14.9744   16.1110 H         1 THR         0.0639
    132 H56         4.6196  -16.1247   14.2206 H         1 THR         0.2101
    133 H57         4.8833  -13.7362   14.2035 H         1 THR         0.0257
    134 H58         6.5237  -13.9847   14.8920 H         1 THR         0.0257
    135 H59         5.3219  -12.9821   15.7737 H         1 THR         0.0257
    136 H60         3.6402  -15.6832   18.5350 H         1 ALA         0.1883
    137 H61         4.4521  -18.1589   19.7962 H         1 ALA         0.0797
    138 H62         2.1724  -18.1295   20.7636 H         1 ALA         0.0277
    139 H63         1.7453  -16.7538   19.6906 H         1 ALA         0.0277
    140 H64         3.0088  -16.5510   20.9512 H         1 ALA         0.0277
    141 H65         3.0085  -20.0979   19.7860 H         1 ARG         0.1883
    142 H66         2.3477  -20.8960   17.0419 H         1 ARG         0.0800
    143 H67         1.6995  -23.0615   18.1257 H         1 ARG         0.0313
    144 H68         2.1196  -22.3402   19.7162 H         1 ARG         0.0313
    145 H69         4.4428  -21.9107   18.7361 H         1 ARG         0.0301
    146 H70         3.9527  -22.9874   17.3844 H         1 ARG         0.0301
    147 H71         3.4274  -24.7695   19.0544 H         1 ARG         0.0689
    148 H72         4.0507  -23.6933   20.3505 H         1 ARG         0.0689
    149 H73         6.2666  -23.9677   19.5213 H         1 ARG         0.2642
    150 H74         5.0638  -26.8223   16.8881 H         1 ARG         0.2615
    151 H75         3.8458  -25.7819   17.6734 H         1 ARG         0.2615
    152 H76         7.8083  -25.2905   18.5202 H         1 ARG         0.2615
    153 H77         7.2897  -26.5502   17.3684 H         1 ARG         0.2615
    154 H78         0.1570  -22.3010   17.0160 H         1 LYS         0.1875
    155 H79        -1.8990  -20.2453   17.3160 H         1 LYS         0.0726
    156 H80        -3.3399  -21.8691   16.1110 H         1 LYS         0.0305
    157 H81        -2.0164  -23.0807   16.1945 H         1 LYS         0.0305
    158 H82        -0.5606  -21.4424   14.9420 H         1 LYS         0.0269
    159 H83        -2.0198  -20.4199   14.7139 H         1 LYS         0.0269
    160 H84        -3.1380  -22.2687   13.5326 H         1 LYS         0.0317
    161 H85        -1.6897  -23.3039   13.7726 H         1 LYS         0.0317
    162 H86        -0.3255  -21.7050   12.4842 H         1 LYS         0.0813
    163 H87        -1.7644  -20.6541   12.2560 H         1 LYS         0.0813
    164 H88        -1.3512  -22.0381   10.3469 H         1 LYS         0.1994
    165 H89        -2.7883  -22.4492   11.0363 H         1 LYS         0.1994
    166 H90        -1.4698  -23.4122   11.2454 H         1 LYS         0.1994
@<TRIPOS>BOND
     1    1    2 1  
     2    2    3 1  
     3    2    5 1  
     4    3    4 2  
     5    3    6 am 
     6    6    7 1  
     7    7    8 1  
     8    7   10 1  
     9    8    9 2  
    10    8   17 am 
    11   10   11 1  
    12   11   12 1  
    13   12   13 1  
    14   13   14 ar 
    15   14   15 ar 
    16   14   16 ar 
    17   17   18 1  
    18   18   19 1  
    19   18   21 1  
    20   19   20 2  
    21   19   24 am 
    22   21   22 1  
    23   21   23 1  
    24   24   25 1  
    25   25   26 1  
    26   25   33 1  
    27   26   27 1  
    28   27   28 1  
    29   28   29 1  
    30   29   30 1  
    31   30   31 1  
    32   30   32 1  
    33   33   34 2  
    34   33   35 am 
    35   35   36 1  
    36   36   37 1  
    37   36   39 1  
    38   37   38 2  
    39   37   44 am 
    40   39   40 1  
    41   40   41 1  
    42   41   42 2  
    43   41   43 am 
    44   44   45 1  
    45   45   46 1  
    46   45   48 1  
    47   46   47 2  
    48   46   51 am 
    49   48   49 1  
    50   48   50 1  
    51   51   52 1  
    52   52   53 1  
    53   52   55 1  
    54   53   54 2  
    55   53   56 am 
    56   56   57 1  
    57   57   58 1  
    58   57   60 1  
    59   58   59 2  
    60   58   67 am 
    61   60   61 1  
    62   61   62 1  
    63   62   63 1  
    64   63   64 ar 
    65   64   65 ar 
    66   64   66 ar 
    67   67   68 1  
    68   68   69 1  
    69   68   71 1  
    70   69   70 ar 
    71   69   76 ar 
    72   71   72 1  
    73   72   73 1  
    74   73   74 1  
    75   74   75 1  
    76    1   77 1  
    77    1   78 1  
    78    1   79 1  
    79    2   80 1  
    80    5   81 1  
    81    5   82 1  
    82    5   83 1  
    83    6   84 1  
    84    7   85 1  
    85   10   86 1  
    86   10   87 1  
    87   11   88 1  
    88   11   89 1  
    89   12   90 1  
    90   12   91 1  
    91   13   92 1  
    92   15   93 1  
    93   15   94 1  
    94   16   95 1  
    95   16   96 1  
    96   17   97 1  
    97   18   98 1  
    98   21   99 1  
    99   22  100 1  
   100   23  101 1  
   101   23  102 1  
   102   23  103 1  
   103   24  104 1  
   104   25  105 1  
   105   26  106 1  
   106   26  107 1  
   107   27  108 1  
   108   27  109 1  
   109   28  110 1  
   110   28  111 1  
   111   29  112 1  
   112   29  113 1  
   113   30  114 1  
   114   31  115 1  
   115   31  116 1  
   116   31  117 1  
   117   32  118 1  
   118   32  119 1  
   119   32  120 1  
   120   35  121 1  
   121   36  122 1  
   122   39  123 1  
   123   39  124 1  
   124   40  125 1  
   125   40  126 1  
   126   43  127 1  
   127   43  128 1  
   128   44  129 1  
   129   45  130 1  
   130   48  131 1  
   131   49  132 1  
   132   50  133 1  
   133   50  134 1  
   134   50  135 1  
   135   51  136 1  
   136   52  137 1  
   137   55  138 1  
   138   55  139 1  
   139   55  140 1  
   140   56  141 1  
   141   57  142 1  
   142   60  143 1  
   143   60  144 1  
   144   61  145 1  
   145   61  146 1  
   146   62  147 1  
   147   62  148 1  
   148   63  149 1  
   149   65  150 1  
   150   65  151 1  
   151   66  152 1  
   152   66  153 1  
   153   67  154 1  
   154   68  155 1  
   155   71  156 1  
   156   71  157 1  
   157   72  158 1  
   158   72  159 1  
   159   73  160 1  
   160   73  161 1  
   161   74  162 1  
   162   74  163 1  
   163   75  164 1  
   164   75  165 1  
   165   75  166 1  
@<TRIPOS>SUBSTRUCTURE
     1 ALA         1

