5yc3_ligand
  -I-interpret- 

165164  0  0  0  0  0  0  0  0999 V2000
   20.7430   -8.3580   17.9540 N   0  3  0  0  0
   19.8630   -7.6290   17.0500 C   0  0  0  0  0
   18.4350   -7.6160   17.5780 C   0  0  0  0  0
   18.0860   -8.3970   18.4630 O   0  0  0  0  0
   19.9080   -8.2400   15.6520 C   0  0  0  0  0
   17.6110   -6.7260   17.0340 N   0  0  0  0  0
   16.2120   -6.6650   17.4310 C   0  0  0  0  0
   15.4140   -7.7470   16.7160 C   0  0  0  0  0
   15.1050   -7.6210   15.5330 O   0  0  0  0  0
   15.6100   -5.2930   17.1370 C   0  0  0  0  0
   14.2010   -5.1570   17.6790 C   0  0  0  0  0
   13.5360   -3.8690   17.2520 C   0  0  0  0  0
   12.2490   -3.7070   17.9200 N   0  0  0  0  0
   11.2370   -2.9930   17.4400 C   0  0  0  0  0
   11.3520   -2.3710   16.2740 N   0  0  0  0  0
   10.1070   -2.9060   18.1270 N   0  0  0  0  0
   15.0830   -8.8110   17.4390 N   0  0  0  0  0
   14.3750   -9.9440   16.8520 C   0  0  0  0  0
   13.1190  -10.2960   17.6380 C   0  0  0  0  0
   12.8710   -9.7500   18.7130 O   0  0  0  0  0
   15.2720  -11.1920   16.7810 C   0  0  0  0  0
   15.5180  -11.6850   18.1050 O   0  0  0  0  0
   16.5970  -10.8650   16.1040 C   0  0  0  0  0
   12.3290  -11.2150   17.0940 N   0  0  0  0  0
   11.1560  -11.7240   17.7910 C   0  0  0  0  0
    9.9910  -10.7360   17.6930 C   0  0  0  0  0
    9.3870  -10.6440   16.3060 C   0  0  0  0  0
    8.2370   -9.6550   16.2300 C   0  0  0  0  0
    7.6520   -9.6470   14.8210 C   0  0  0  0  0
    6.4610   -8.7710   14.6640 N   0  3  0  0  0
    6.9540   -7.3930   14.5370 C   0  0  0  0  0
    5.8570   -9.1320   13.3740 C   0  0  0  0  0
   10.7450  -13.0690   17.2080 C   0  0  0  0  0
   11.0040  -13.3570   16.0390 O   0  0  0  0  0
   10.1140  -13.8920   18.0350 N   0  0  0  0  0
    9.5290  -15.1470   17.5850 C   0  0  0  0  0
    8.0480  -15.1350   17.9370 C   0  0  0  0  0
    7.6880  -14.9330   19.0960 O   0  0  0  0  0
   10.2340  -16.3450   18.2280 C   0  0  0  0  0
    9.6540  -17.7040   17.8420 C   0  0  0  0  0
   10.1860  -18.2280   16.5200 C   0  0  0  0  0
   11.3060  -17.9150   16.1190 O   0  0  0  0  0
    9.3850  -19.0380   15.8400 N   0  0  0  0  0
    7.1920  -15.3340   16.9410 N   0  0  0  0  0
    5.7520  -15.3090   17.1760 C   0  0  0  0  0
    5.3000  -16.5980   17.8530 C   0  0  0  0  0
    5.9800  -17.6220   17.7750 O   0  0  0  0  0
    4.9610  -15.1060   15.8670 C   0  0  0  0  0
    5.1090  -16.2570   15.0240 O   0  0  0  0  0
    5.4570  -13.8660   15.1330 C   0  0  0  0  0
    4.1540  -16.5410   18.5220 N   0  0  0  0  0
    3.6250  -17.6960   19.2380 C   0  0  0  0  0
    3.0480  -18.7440   18.2930 C   0  0  0  0  0
    2.8780  -18.4970   17.0980 O   0  0  0  0  0
    2.5650  -17.2520   20.2290 C   0  0  0  0  0
    2.7410  -19.9150   18.8400 N   0  0  0  0  0
    2.0230  -20.9390   18.0920 C   0  0  0  0  0
    0.5190  -20.6720   18.1460 C   0  0  0  0  0
    0.0720  -19.7200   18.7870 O   0  0  0  0  0
    2.3420  -22.3310   18.6390 C   0  0  0  0  0
    3.7890  -22.7460   18.4450 C   0  0  0  0  0
    4.1360  -23.9610   19.2870 C   0  0  0  0  0
    5.4920  -24.4320   19.0260 N   0  0  0  0  0
    5.7930  -25.4220   18.1900 C   0  0  0  0  0
    4.8290  -26.0560   17.5350 N   0  0  0  0  0
    7.0580  -25.7810   18.0130 N   0  0  0  0  0
   -0.2580  -21.5160   17.4760 N   0  0  0  0  0
   -1.7040  -21.3250   17.3950 C   0  0  0  0  0
   -2.4330  -21.8440   18.6350 C   0  0  0  0  0
   -2.0960  -22.8960   19.1770 O   0  0  0  0  0
   -2.2490  -22.0070   16.1390 C   0  0  0  0  0
   -1.6570  -21.4490   14.8530 C   0  0  0  0  0
   -2.0430  -22.2710   13.6370 C   0  0  0  0  0
   -1.4200  -21.6920   12.3750 C   0  0  0  0  0
   -1.7870  -22.4600   11.1520 N   0  3  0  0  0
   -3.3760  -21.2240   19.1240 O   0  0  0  0  0
   20.7001   -7.9364   18.8818 H   0  0  0  0  0
   20.4428   -9.3314   18.0073 H   0  0  0  0  0
   21.6999   -8.3147   17.6035 H   0  0  0  0  0
   20.2146   -6.5990   16.9908 H   0  0  0  0  0
   19.5343   -9.2632   15.6919 H   0  0  0  0  0
   19.2854   -7.6504   14.9790 H   0  0  0  0  0
   20.9362   -8.2412   15.2903 H   0  0  0  0  0
   17.9635   -6.0778   16.3297 H   0  0  0  0  0
   16.1627   -6.8332   18.5068 H   0  0  0  0  0
   15.5708   -5.1649   16.0553 H   0  0  0  0  0
   16.2327   -4.5394   17.6191 H   0  0  0  0  0
   14.2586   -5.1600   18.7675 H   0  0  0  0  0
   13.6099   -5.9853   17.2883 H   0  0  0  0  0
   13.3728   -3.8970   16.1747 H   0  0  0  0  0
   14.1810   -3.0329   17.5223 H   0  0  0  0  0
   12.1174   -4.1741   18.8172 H   0  0  0  0  0
   10.5713   -1.8266   15.9072 H   0  0  0  0  0
   12.2211   -2.4371   15.7442 H   0  0  0  0  0
   10.0160   -3.3867   19.0220 H   0  0  0  0  0
   15.3297   -8.8367   18.4284 H   0  0  0  0  0
   14.0938   -9.6369   15.8446 H   0  0  0  0  0
   14.7597  -11.9544   16.1941 H   0  0  0  0  0
   16.0778  -12.4634   18.0565 H   0  0  0  0  0
   16.4079  -10.5082   15.0915 H   0  0  0  0  0
   17.1130  -10.0914   16.6728 H   0  0  0  0  0
   17.2148  -11.7622   16.0650 H   0  0  0  0  0
   12.5495  -11.5732   16.1648 H   0  0  0  0  0
   11.4124  -11.8507   18.8428 H   0  0  0  0  0
   10.3778   -9.7490   17.9467 H   0  0  0  0  0
    9.2090  -11.0856   18.3670 H   0  0  0  0  0
    8.9988  -11.6284   16.0448 H   0  0  0  0  0
   10.1662  -10.3032   15.6243 H   0  0  0  0  0
    8.6036   -8.6577   16.4729 H   0  0  0  0  0
    7.4629   -9.9482   16.9392 H   0  0  0  0  0
    7.3352  -10.6657   14.5973 H   0  0  0  0  0
    8.4240   -9.2648   14.1532 H   0  0  0  0  0
    5.8054   -8.8642   15.4398 H   0  0  0  0  0
    7.5142   -7.1249   15.4327 H   0  0  0  0  0
    7.6039   -7.3199   13.6650 H   0  0  0  0  0
    6.1084   -6.7153   14.4194 H   0  0  0  0  0
    6.5792   -8.9612   12.5756 H   0  0  0  0  0
    5.5724  -10.1841   13.3892 H   0  0  0  0  0
    4.9729   -8.5176   13.2036 H   0  0  0  0  0
   10.0360  -13.6370   19.0195 H   0  0  0  0  0
    9.6534  -15.2455   16.5066 H   0  0  0  0  0
   10.1161  -16.2429   19.3068 H   0  0  0  0  0
   11.2676  -16.3298   17.8823 H   0  0  0  0  0
    8.5752  -17.5858   17.7403 H   0  0  0  0  0
    9.9369  -18.4160   18.6173 H   0  0  0  0  0
    9.6908  -19.4269   14.9480 H   0  0  0  0  0
    8.4633  -19.2718   16.2092 H   0  0  0  0  0
    7.5457  -15.5065   16.0000 H   0  0  0  0  0
    5.5463  -14.4623   17.8308 H   0  0  0  0  0
    3.9080  -14.9714   16.1142 H   0  0  0  0  0
    4.6144  -16.1233   14.2121 H   0  0  0  0  0
    5.3227  -12.9909   15.7688 H   0  0  0  0  0
    6.5140  -13.9848   14.8948 H   0  0  0  0  0
    4.8879  -13.7384   14.2122 H   0  0  0  0  0
    3.6300  -15.6660   18.5353 H   0  0  0  0  0
    4.4561  -18.1582   19.7707 H   0  0  0  0  0
    3.0060  -16.5574   20.9440 H   0  0  0  0  0
    1.7535  -16.7585   19.6943 H   0  0  0  0  0
    2.1768  -18.1223   20.7581 H   0  0  0  0  0
    3.0139  -20.1015   19.8050 H   0  0  0  0  0
    2.3474  -20.9013   17.0521 H   0  0  0  0  0
    1.7227  -23.0445   18.0955 H   0  0  0  0  0
    2.1495  -22.3116   19.7117 H   0  0  0  0  0
    4.4298  -21.9190   18.7510 H   0  0  0  0  0
    3.9383  -22.9988   17.3953 H   0  0  0  0  0
    3.4408  -24.7620   19.0354 H   0  0  0  0  0
    4.0672  -23.6804   20.3380 H   0  0  0  0  0
    6.2591  -23.9723   19.5165 H   0  0  0  0  0
    3.8554  -25.7845   17.6721 H   0  0  0  0  0
    7.2874  -26.5427   17.3746 H   0  0  0  0  0
    7.8011  -25.2953   18.5153 H   0  0  0  0  0
    0.1653  -22.3167   17.0068 H   0  0  0  0  0
   -1.8877  -20.2519   17.3420 H   0  0  0  0  0
   -1.3547  -23.2769   18.7006 H   0  0  0  0  0
   -3.3252  -21.8365   16.1098 H   0  0  0  0  0
   -1.9852  -23.0632   16.1944 H   0  0  0  0  0
   -0.5710  -21.4693   14.9440 H   0  0  0  0  0
   -2.0417  -20.4386   14.7142 H   0  0  0  0  0
   -3.1279  -22.2567   13.5324 H   0  0  0  0  0
   -1.6816  -23.2904   13.7721 H   0  0  0  0  0
   -0.3364  -21.7342   12.4855 H   0  0  0  0  0
   -1.7889  -20.6733   12.2552 H   0  0  0  0  0
   -1.3455  -22.0322   10.3381 H   0  0  0  0  0
   -1.4655  -23.4233   11.2477 H   0  0  0  0  0
   -2.8003  -22.4484   11.0360 H   0  0  0  0  0
  1  2  1  0  0  0
  2  3  1  0  0  0
  2  5  1  0  0  0
  3  4  2  0  0  0
  3  6  1  0  0  0
  6  7  1  0  0  0
  7  8  1  0  0  0
  7 10  1  0  0  0
  8  9  2  0  0  0
  8 17  1  0  0  0
 10 11  1  0  0  0
 11 12  1  0  0  0
 12 13  1  0  0  0
 13 14  1  0  0  0
 14 15  1  0  0  0
 14 16  2  0  0  0
 17 18  1  0  0  0
 18 19  1  0  0  0
 18 21  1  0  0  0
 19 20  2  0  0  0
 19 24  1  0  0  0
 21 22  1  0  0  0
 21 23  1  0  0  0
 24 25  1  0  0  0
 25 26  1  0  0  0
 25 33  1  0  0  0
 26 27  1  0  0  0
 27 28  1  0  0  0
 28 29  1  0  0  0
 29 30  1  0  0  0
 30 31  1  0  0  0
 30 32  1  0  0  0
 33 34  2  0  0  0
 33 35  1  0  0  0
 35 36  1  0  0  0
 36 37  1  0  0  0
 36 39  1  0  0  0
 37 38  2  0  0  0
 37 44  1  0  0  0
 39 40  1  0  0  0
 40 41  1  0  0  0
 41 42  2  0  0  0
 41 43  1  0  0  0
 44 45  1  0  0  0
 45 46  1  0  0  0
 45 48  1  0  0  0
 46 47  2  0  0  0
 46 51  1  0  0  0
 48 49  1  0  0  0
 48 50  1  0  0  0
 51 52  1  0  0  0
 52 53  1  0  0  0
 52 55  1  0  0  0
 53 54  2  0  0  0
 53 56  1  0  0  0
 56 57  1  0  0  0
 57 58  1  0  0  0
 57 60  1  0  0  0
 58 59  2  0  0  0
 58 67  1  0  0  0
 60 61  1  0  0  0
 61 62  1  0  0  0
 62 63  1  0  0  0
 63 64  1  0  0  0
 64 65  2  0  0  0
 64 66  1  0  0  0
 67 68  1  0  0  0
 68 69  1  0  0  0
 68 71  1  0  0  0
 69 70  1  0  0  0
 69 76  2  0  0  0
 71 72  1  0  0  0
 72 73  1  0  0  0
 73 74  1  0  0  0
 74 75  1  0  0  0
  1 77  1  0  0  0
  1 78  1  0  0  0
  1 79  1  0  0  0
  2 80  1  0  0  0
  5 81  1  0  0  0
  5 82  1  0  0  0
  5 83  1  0  0  0
  6 84  1  0  0  0
  7 85  1  0  0  0
 10 86  1  0  0  0
 10 87  1  0  0  0
 11 88  1  0  0  0
 11 89  1  0  0  0
 12 90  1  0  0  0
 12 91  1  0  0  0
 13 92  1  0  0  0
 15 93  1  0  0  0
 15 94  1  0  0  0
 16 95  1  0  0  0
 17 96  1  0  0  0
 18 97  1  0  0  0
 21 98  1  0  0  0
 22 99  1  0  0  0
 23100  1  0  0  0
 23101  1  0  0  0
 23102  1  0  0  0
 24103  1  0  0  0
 25104  1  0  0  0
 26105  1  0  0  0
 26106  1  0  0  0
 27107  1  0  0  0
 27108  1  0  0  0
 28109  1  0  0  0
 28110  1  0  0  0
 29111  1  0  0  0
 29112  1  0  0  0
 30113  1  0  0  0
 31114  1  0  0  0
 31115  1  0  0  0
 31116  1  0  0  0
 32117  1  0  0  0
 32118  1  0  0  0
 32119  1  0  0  0
 35120  1  0  0  0
 36121  1  0  0  0
 39122  1  0  0  0
 39123  1  0  0  0
 40124  1  0  0  0
 40125  1  0  0  0
 43126  1  0  0  0
 43127  1  0  0  0
 44128  1  0  0  0
 45129  1  0  0  0
 48130  1  0  0  0
 49131  1  0  0  0
 50132  1  0  0  0
 50133  1  0  0  0
 50134  1  0  0  0
 51135  1  0  0  0
 52136  1  0  0  0
 55137  1  0  0  0
 55138  1  0  0  0
 55139  1  0  0  0
 56140  1  0  0  0
 57141  1  0  0  0
 60142  1  0  0  0
 60143  1  0  0  0
 61144  1  0  0  0
 61145  1  0  0  0
 62146  1  0  0  0
 62147  1  0  0  0
 63148  1  0  0  0
 65149  1  0  0  0
 66150  1  0  0  0
 66151  1  0  0  0
 67152  1  0  0  0
 68153  1  0  0  0
 70154  1  0  0  0
 71155  1  0  0  0
 71156  1  0  0  0
 72157  1  0  0  0
 72158  1  0  0  0
 73159  1  0  0  0
 73160  1  0  0  0
 74161  1  0  0  0
 74162  1  0  0  0
 75163  1  0  0  0
 75164  1  0  0  0
 75165  1  0  0  0
M  END
$$$$
