2pgj_ligand
  -I-interpret- 

 53 57  0  0  0  0  0  0  0  0999 V2000
    5.5610    3.5100    3.3870 O   0  0  0  0  0
    4.1620    4.1010    3.4810 P   0  0  0  0  0
    3.6290    3.9540    4.9900 O   0  0  0  0  0
    3.8740    5.5440    3.0580 O   0  0  0  0  0
    3.1650    3.1570    2.6320 O   0  0  0  0  0
    1.7560    3.3960    2.6900 C   0  0  0  0  0
    1.1920    3.6620    1.2870 C   0  0  0  0  0
   -0.3070    3.4630    1.2690 C   0  0  0  0  0
   -0.8900    4.5840    0.5910 O   0  0  0  0  0
   -0.5400    2.1560    0.5270 C   0  0  0  0  0
   -1.3500    2.4160   -0.6240 O   0  0  0  0  0
    1.6900    2.7430    0.3050 O   0  0  0  0  0
    0.8310    1.6120    0.1250 C   0  0  0  0  0
    1.3060    0.5800    1.0650 N   0  0  0  0  0
    0.4220   -0.3510    1.6720 C   0  0  0  0  0
   -0.7950   -0.3960    1.4040 O   0  0  0  0  0
    0.9950   -1.3270    2.6280 C   0  0  0  0  0
    0.4540   -2.3190    3.3690 N   0  0  0  0  0
    1.4640   -2.8810    4.0690 C   0  0  0  0  0
    2.6140    0.5350    1.3900 C   0  0  0  0  0
    3.1270   -0.3500    2.2630 N   0  0  0  0  0
    2.3500   -1.2740    2.8930 C   0  0  0  0  0
    2.6100   -2.2510    3.7710 N   0  0  0  0  0
    3.9150   -2.5960    4.3890 C   0  0  0  0  0
    4.0050   -1.7400    5.5350 O   0  0  0  0  0
    5.1370   -2.3060    3.5260 C   0  0  0  0  0
    6.0650   -3.3830    3.7110 O   0  0  0  0  0
    5.7000   -1.0820    4.1610 C   0  0  0  0  0
    6.7950   -0.4600    3.7320 O   0  0  0  0  0
    4.9960   -0.7360    5.2210 C   0  0  0  0  0
    5.1750    0.5350    6.0220 C   0  0  0  0  0
    4.4730    1.6110    5.3930 O   0  0  0  0  0
    4.4190    3.0660    6.0790 P   0  0  0  0  0
    5.8320    3.5850    6.2400 O   0  0  0  0  0
    3.5060    3.0060    7.2780 O   0  0  0  0  0
    2.9422    5.7346    3.1886 H   0  0  0  0  0
    1.5725    4.2700    3.3149 H   0  0  0  0  0
    1.2662    2.5153    3.1053 H   0  0  0  0  0
    1.4909    4.6836    1.0524 H   0  0  0  0  0
   -0.7576    3.4066    2.2599 H   0  0  0  0  0
   -1.8441    4.4808    0.5664 H   0  0  0  0  0
   -1.0575    1.4234    1.1463 H   0  0  0  0  0
   -1.5022    1.5956   -1.0987 H   0  0  0  0  0
    0.8063    1.1776   -0.8744 H   0  0  0  0  0
    1.3634   -3.7138    4.7650 H   0  0  0  0  0
    3.2890    1.2515    0.9219 H   0  0  0  0  0
    3.9301   -3.6688    4.5815 H   0  0  0  0  0
    4.9253   -2.1925    2.4628 H   0  0  0  0  0
    6.8470   -3.2254    3.1769 H   0  0  0  0  0
    7.1237   -0.8998    2.9445 H   0  0  0  0  0
    6.2358    0.7802    6.0742 H   0  0  0  0  0
    4.7781    0.3856    7.0261 H   0  0  0  0  0
    6.2798    3.5593    5.3912 H   0  0  0  0  0
  1  2  2  0  0  0
  2  3  1  0  0  0
  2  4  1  0  0  0
  2  5  1  0  0  0
  3 33  1  0  0  0
  5  6  1  0  0  0
  6  7  1  0  0  0
  7  8  1  0  0  0
  7 12  1  0  0  0
  8  9  1  0  0  0
  8 10  1  0  0  0
 10 11  1  0  0  0
 10 13  1  0  0  0
 12 13  1  0  0  0
 13 14  1  0  0  0
 14 15  1  0  0  0
 14 20  1  0  0  0
 15 16  2  0  0  0
 15 17  1  0  0  0
 17 18  4  0  0  0
 17 22  4  0  0  0
 18 19  4  0  0  0
 19 23  4  0  0  0
 20 21  2  0  0  0
 21 22  1  0  0  0
 22 23  4  0  0  0
 23 24  1  0  0  0
 24 25  1  0  0  0
 24 26  1  0  0  0
 25 30  1  0  0  0
 26 27  1  0  0  0
 26 28  1  0  0  0
 28 29  1  0  0  0
 28 30  2  0  0  0
 30 31  1  0  0  0
 31 32  1  0  0  0
 32 33  1  0  0  0
 33 34  1  0  0  0
 33 35  2  0  0  0
  4 36  1  0  0  0
  6 37  1  0  0  0
  6 38  1  0  0  0
  7 39  1  0  0  0
  8 40  1  0  0  0
  9 41  1  0  0  0
 10 42  1  0  0  0
 11 43  1  0  0  0
 13 44  1  0  0  0
 19 45  1  0  0  0
 20 46  1  0  0  0
 24 47  1  0  0  0
 26 48  1  0  0  0
 27 49  1  0  0  0
 29 50  1  0  0  0
 31 51  1  0  0  0
 31 52  1  0  0  0
 34 53  1  0  0  0
M  END
$$$$
