### 
### Created by X-TOOL on Mon Sep 10 21:12:55 2018
### 

@<TRIPOS>MOLECULE
2pgj_ligand
   51    55     1     0     0
SMALL
GAST_HUCK


@<TRIPOS>ATOM
      1 O1B         5.5610    3.5100    3.3870 O.co2     1 N1C        -0.6127
      2 PB          4.1620    4.1010    3.4810 P.3       1 N1C         0.2972
      3 O3A         3.6290    3.9540    4.9900 O.3       1 N1C        -0.1318
      4 O2B         3.8740    5.5440    3.0580 O.co2     1 N1C        -0.6127
      5 O5D         3.1650    3.1570    2.6320 O.3       1 N1C        -0.2476
      6 C5D         1.7560    3.3960    2.6900 C.3       1 N1C         0.1128
      7 C4D         1.1920    3.6620    1.2870 C.3       1 N1C         0.1190
      8 C3D        -0.3070    3.4630    1.2690 C.3       1 N1C         0.1151
      9 O3D        -0.8900    4.5840    0.5910 O.3       1 N1C        -0.3864
     10 C2D        -0.5400    2.1560    0.5270 C.3       1 N1C         0.1403
     11 O2D        -1.3500    2.4160   -0.6240 O.3       1 N1C        -0.3834
     12 O4D         1.6900    2.7430    0.3050 O.3       1 N1C        -0.3350
     13 C1D         0.8310    1.6120    0.1250 C.3       1 N1C         0.2106
     14 N1          1.3060    0.5800    1.0650 N.am      1 N1C        -0.1598
     15 C6          0.4220   -0.3510    1.6720 C.2       1 N1C         0.2247
     16 O6         -0.7950   -0.3960    1.4040 O.2       1 N1C        -0.4063
     17 C5          0.9950   -1.3270    2.6280 C.2       1 N1C         0.1046
     18 N7          0.4540   -2.3190    3.3690 N.2       1 N1C        -0.3155
     19 C8          1.4640   -2.8810    4.0690 C.2       1 N1C         0.1008
     20 C2          2.6140    0.5350    1.3900 C.2       1 N1C         0.1328
     21 N3          3.1270   -0.3500    2.2630 N.2       1 N1C        -0.2681
     22 C4          2.3500   -1.2740    2.8930 C.2       1 N1C         0.1358
     23 N9          2.6100   -2.2510    3.7710 N.pl3     1 N1C        -0.2005
     24 C1'         3.9150   -2.5960    4.3890 C.3       1 N1C         0.2163
     25 O4'         4.0050   -1.7400    5.5350 O.3       1 N1C        -0.3098
     26 C2'         5.1370   -2.3060    3.5260 C.3       1 N1C         0.1541
     27 O2'         6.0650   -3.3830    3.7110 O.3       1 N1C        -0.3775
     28 C3'         5.7000   -1.0820    4.1610 C.2       1 N1C         0.0948
     29 O3'         6.7950   -0.4600    3.7320 O.3       1 N1C        -0.3619
     30 C4'         4.9960   -0.7360    5.2210 C.2       1 N1C         0.0987
     31 C5'         5.1750    0.5350    6.0220 C.3       1 N1C         0.1248
     32 O5'         4.4730    1.6110    5.3930 O.3       1 N1C        -0.2415
     33 PA          4.4190    3.0660    6.0790 P.3       1 N1C         0.2985
     34 O1A         5.8320    3.5850    6.2400 O.co2     1 N1C        -0.6127
     35 O2A         3.5060    3.0060    7.2780 O.co2     1 N1C        -0.6127
     36 H1          1.5642    4.2713    3.3280 H         1 N1C         0.0648
     37 H2          1.2575    2.5139    3.1181 H         1 N1C         0.0648
     38 H3          1.4437    4.6924    0.9958 H         1 N1C         0.0651
     39 H4         -0.7095    3.3960    2.2905 H         1 N1C         0.0648
     40 H5         -0.5521    4.6270   -0.2958 H         1 N1C         0.2100
     41 H6         -1.0510    1.4330    1.1797 H         1 N1C         0.0678
     42 H7         -0.9032    3.0333   -1.1914 H         1 N1C         0.2101
     43 H8          0.8318    1.2353   -0.9085 H         1 N1C         0.1018
     44 H9          1.3635   -3.7130    4.7644 H         1 N1C         0.1213
     45 H10         3.2883    1.2509    0.9223 H         1 N1C         0.1496
     46 H11         3.9192   -3.6572    4.6785 H         1 N1C         0.1059
     47 H12         4.8882   -2.1594    2.4646 H         1 N1C         0.0765
     48 H13         6.8389   -3.2271    3.1824 H         1 N1C         0.2123
     49 H14         6.9671    0.2932    4.2848 H         1 N1C         0.2342
     50 H15         6.2453    0.7822    6.0792 H         1 N1C         0.0732
     51 H16         4.7785    0.3851    7.0370 H         1 N1C         0.0732
@<TRIPOS>BOND
     1    1    2 ar 
     2    2    3 1  
     3    2    4 ar 
     4    2    5 1  
     5    3   33 1  
     6    5    6 1  
     7    6    7 1  
     8    7    8 1  
     9    7   12 1  
    10    8    9 1  
    11    8   10 1  
    12   10   11 1  
    13   10   13 1  
    14   12   13 1  
    15   13   14 1  
    16   14   15 am 
    17   14   20 1  
    18   15   16 2  
    19   15   17 1  
    20   17   18 1  
    21   17   22 2  
    22   18   19 2  
    23   19   23 1  
    24   20   21 2  
    25   21   22 1  
    26   22   23 1  
    27   23   24 1  
    28   24   25 1  
    29   24   26 1  
    30   25   30 1  
    31   26   27 1  
    32   26   28 1  
    33   28   29 1  
    34   28   30 2  
    35   30   31 1  
    36   31   32 1  
    37   32   33 1  
    38   33   34 ar 
    39   33   35 ar 
    40    6   36 1  
    41    6   37 1  
    42    7   38 1  
    43    8   39 1  
    44    9   40 1  
    45   10   41 1  
    46   11   42 1  
    47   13   43 1  
    48   19   44 1  
    49   20   45 1  
    50   24   46 1  
    51   26   47 1  
    52   27   48 1  
    53   29   49 1  
    54   31   50 1  
    55   31   51 1  
@<TRIPOS>SUBSTRUCTURE
     1 N1C         1

