2xix_ligand
  -I-interpret- 

 11 11  0  0  0  0  0  0  0  0999 V2000
  -21.9010  -35.5170   -1.1330 N   0  0  0  0  0
  -22.2900  -36.5810   -0.6270 N   0  0  0  0  0
  -22.9500  -37.2780    1.5330 N   0  0  0  0  0
  -21.8610  -34.5620   -0.1850 C   0  0  0  0  0
  -22.2530  -35.0680    0.9850 N   0  0  0  0  0
  -21.4820  -33.2940   -0.3950 N   0  0  0  0  0
  -22.5150  -36.3480    0.6760 C   0  0  0  0  0
  -23.1299  -38.2276    1.2070 H   0  0  0  0  0
  -23.1019  -37.0377    2.5126 H   0  0  0  0  0
  -21.1967  -32.9948   -1.3274 H   0  0  0  0  0
  -21.4788  -32.6280    0.3776 H   0  0  0  0  0
  1  2  4  0  0  0
  1  4  4  0  0  0
  2  7  4  0  0  0
  7  3  1  0  0  0
  4  5  4  0  0  0
  4  6  1  0  0  0
  5  7  4  0  0  0
  3  8  1  0  0  0
  3  9  1  0  0  0
  6 10  1  0  0  0
  6 11  1  0  0  0
M  END
$$$$
