3s2p_ligand
  -I-interpret- 

 46 48  0  0  0  0  0  0  0  0999 V2000
   28.1550   27.2940   25.7680 C   0  0  0  0  0
   26.8950   28.0530   25.7380 N   0  0  0  0  0
   24.1860   29.9110   30.2760 O   0  0  0  0  0
   24.8130   29.3990   29.1590 C   0  0  0  0  0
   27.2950   27.6400   22.2250 O   0  0  0  0  0
   25.9950   30.0720   28.7280 C   0  0  0  0  0
   29.8170   27.2000   23.9610 O   0  0  0  0  0
   26.7150   29.6280   27.5810 C   0  0  0  0  0
   26.2390   28.4970   26.8680 C   0  0  0  0  0
   25.0640   27.8360   27.3110 C   0  0  0  0  0
   24.3120   28.2590   28.4620 C   0  0  0  0  0
   26.3760   28.3090   24.3870 C   0  0  0  0  0
   28.4370   27.0560   24.2720 C   0  0  0  0  0
   27.6130   28.1200   23.5210 C   0  0  0  0  0
   20.7810   24.5320   28.0600 C   0  0  0  0  0
   21.6720   24.0380   26.9030 C   0  0  0  0  0
   23.0500   27.5360   28.9200 C   0  0  0  0  0
   22.3120   27.9370   30.0520 N   0  0  0  0  0
   21.2040   27.2700   30.4450 C   0  0  0  0  0
   19.3550   24.8320   27.5650 C   0  0  0  0  0
   20.7080   26.1960   29.8210 N   0  0  0  0  0
   21.3740   25.7630   28.7230 C   0  0  0  0  0
   22.5520   26.4080   28.2400 C   0  0  0  0  0
   20.5300   27.6530   31.5160 N   0  0  0  0  0
   28.0831   26.3697   26.3412 H   0  0  0  0  0
   28.9609   27.8243   26.2753 H   0  0  0  0  0
   23.4081   29.3846   30.4744 H   0  0  0  0  0
   28.1025   27.5363   21.7163 H   0  0  0  0  0
   26.3526   30.9385   29.2842 H   0  0  0  0  0
   30.3215   26.5335   24.4331 H   0  0  0  0  0
   27.6162   30.1484   27.2568 H   0  0  0  0  0
   24.7150   26.9671   26.7530 H   0  0  0  0  0
   25.9260   29.2961   24.2812 H   0  0  0  0  0
   25.5551   27.6471   24.1112 H   0  0  0  0  0
   28.1654   26.0395   23.9874 H   0  0  0  0  0
   28.1373   29.0640   23.3723 H   0  0  0  0  0
   20.7322   23.7338   28.8006 H   0  0  0  0  0
   21.2472   23.1265   26.4826 H   0  0  0  0  0
   21.7225   24.8063   26.1314 H   0  0  0  0  0
   22.6741   23.8332   27.2797 H   0  0  0  0  0
   19.3934   25.6044   26.7969 H   0  0  0  0  0
   18.9181   23.9246   27.1481 H   0  0  0  0  0
   18.7471   25.1787   28.4007 H   0  0  0  0  0
   23.0613   26.0310   27.3531 H   0  0  0  0  0
   20.8448   28.4596   32.0552 H   0  0  0  0  0
   19.6953   27.1419   31.8030 H   0  0  0  0  0
  2  1  1  0  0  0
  1 13  1  0  0  0
  9  2  1  0  0  0
  2 12  1  0  0  0
  4  3  1  0  0  0
  4  6  4  0  0  0
 11  4  4  0  0  0
 14  5  1  0  0  0
  6  8  4  0  0  0
 13  7  1  0  0  0
  9  8  4  0  0  0
 10  9  4  0  0  0
 11 10  4  0  0  0
 17 11  1  0  0  0
 12 14  1  0  0  0
 14 13  1  0  0  0
 15 16  1  0  0  0
 15 20  1  0  0  0
 22 15  1  0  0  0
 18 17  4  0  0  0
 17 23  4  0  0  0
 19 18  4  0  0  0
 21 19  4  0  0  0
 19 24  1  0  0  0
 21 22  4  0  0  0
 22 23  4  0  0  0
  1 25  1  0  0  0
  1 26  1  0  0  0
  3 27  1  0  0  0
  5 28  1  0  0  0
  6 29  1  0  0  0
  7 30  1  0  0  0
  8 31  1  0  0  0
 10 32  1  0  0  0
 12 33  1  0  0  0
 12 34  1  0  0  0
 13 35  1  0  0  0
 14 36  1  0  0  0
 15 37  1  0  0  0
 16 38  1  0  0  0
 16 39  1  0  0  0
 16 40  1  0  0  0
 20 41  1  0  0  0
 20 42  1  0  0  0
 20 43  1  0  0  0
 23 44  1  0  0  0
 24 45  1  0  0  0
 24 46  1  0  0  0
M  END
$$$$
