6dh1_ligand
  -I-interpret- 

 78 81  0  0  0  0  0  0  0  0999 V2000
  116.8820   51.7950   12.6360 N   0  0  0  0  0
  117.8250   52.4350   13.5260 C   0  0  0  0  0
  117.6610   53.9100   13.8510 C   0  0  0  0  0
  118.6360   54.6010   14.7850 C   0  0  0  0  0
  119.7720   53.8020   15.4050 C   0  0  0  0  0
  119.9540   52.3260   15.0820 C   0  0  0  0  0
  118.9710   51.6430   14.1440 C   0  0  0  0  0
  120.9250   54.6620   16.4940 S   0  0  0  0  0
  120.2770   55.7510   17.2270 O   0  0  0  0  0
  121.4520   53.8200   17.5670 O   0  0  0  0  0
  122.1570   55.2310   15.4570 N   0  0  0  0  0
  122.8140   54.1780   14.6960 C   0  0  0  0  0
  124.2920   54.4710   14.4600 C   0  0  0  0  0
  125.0280   54.5320   15.7980 C   0  0  0  0  0
  124.8720   53.3700   13.5640 C   0  0  0  0  0
  121.8420   56.4640   14.7560 C   0  0  0  0  0
  122.7710   57.5870   15.2190 C   0  0  0  0  0
  125.0830   52.0570   14.3250 C   0  0  0  0  0
  122.5980   58.7090   14.3970 O   0  0  0  0  0
  122.4570   57.9680   16.6630 C   0  0  0  0  0
  123.4780   58.9010   17.0830 N   0  0  0  0  0
  124.4430   58.5970   18.1140 C   0  0  0  0  0
  124.4270   57.5640   18.6980 O   0  0  0  0  0
  125.3870   59.5930   18.3680 O   0  0  0  0  0
  126.2460   59.5050   19.5950 C   0  0  0  0  0
  127.3990   59.9040   19.2520 C   0  0  0  0  0
  127.2450   61.5390   19.1990 O   0  0  0  0  0
  126.4420   61.8670   20.1560 C   0  0  0  0  0
  125.2430   62.7590   19.6520 O   0  0  0  0  0
  124.1770   61.9910   19.6460 C   0  0  0  0  0
  124.4850   60.7610   20.6640 C   0  0  0  0  0
  125.8130   60.5570   20.6520 C   0  0  0  0  0
  121.1160   58.6970   16.7740 C   0  0  0  0  0
  120.6390   58.0990   19.3060 C   0  0  0  0  0
  120.4220   58.5340   20.7550 C   0  0  0  0  0
  120.4630   60.0150   21.1200 C   0  0  0  0  0
  120.7190   61.0620   20.0390 C   0  0  0  0  0
  120.9370   60.6240   18.5900 C   0  0  0  0  0
  120.8980   59.1420   18.2210 C   0  0  0  0  0
  116.1153   52.3334   12.2326 H   0  0  0  0  0
  116.9835   50.8052   12.4116 H   0  0  0  0  0
  116.8388   54.4743   13.4109 H   0  0  0  0  0
  118.5235   55.6616   15.0101 H   0  0  0  0  0
  120.7801   51.7644   15.5183 H   0  0  0  0  0
  119.0864   50.5840   13.9130 H   0  0  0  0  0
  122.3241   54.1063   13.7250 H   0  0  0  0  0
  122.7395   53.2519   15.2660 H   0  0  0  0  0
  124.4131   55.4351   13.9660 H   0  0  0  0  0
  124.5970   55.3223   16.4126 H   0  0  0  0  0
  124.9271   53.5754   16.3107 H   0  0  0  0  0
  126.0830   54.7416   15.6217 H   0  0  0  0  0
  125.8404   53.7078   13.1948 H   0  0  0  0  0
  124.1658   53.1837   12.7549 H   0  0  0  0  0
  120.8104   56.7430   14.9708 H   0  0  0  0  0
  121.9751   56.3096   13.6852 H   0  0  0  0  0
  123.8022   57.2393   15.1563 H   0  0  0  0  0
  125.7760   52.2238   15.1497 H   0  0  0  0  0
  124.1275   51.7079   14.7166 H   0  0  0  0  0
  125.4951   51.3085   13.6482 H   0  0  0  0  0
  123.1823   59.4121   14.6900 H   0  0  0  0  0
  122.4198   57.0624   17.2685 H   0  0  0  0  0
  123.5189   59.8146   16.6313 H   0  0  0  0  0
  126.1896   58.4902   19.9888 H   0  0  0  0  0
  127.7173   59.4850   18.2974 H   0  0  0  0  0
  128.1745   59.5815   19.9468 H   0  0  0  0  0
  127.0022   62.4204   20.9097 H   0  0  0  0  0
  123.9684   61.6223   18.6417 H   0  0  0  0  0
  123.2947   62.5471   19.9629 H   0  0  0  0  0
  123.9560   59.8614   20.3495 H   0  0  0  0  0
  124.1431   61.0016   21.6706 H   0  0  0  0  0
  126.1131   60.2293   21.6473 H   0  0  0  0  0
  120.3110   58.0260   16.4743 H   0  0  0  0  0
  121.1212   59.5701   16.1215 H   0  0  0  0  0
  120.6088   57.0409   19.0462 H   0  0  0  0  0
  120.2381   57.7869   21.5271 H   0  0  0  0  0
  120.3094   60.3256   22.1535 H   0  0  0  0  0
  120.7464   62.1201   20.2994 H   0  0  0  0  0
  121.1208   61.3715   17.8182 H   0  0  0  0  0
  2  1  1  0  0  0
  3  2  4  0  0  0
  7  2  4  0  0  0
  4  3  4  0  0  0
  5  4  4  0  0  0
  5  6  4  0  0  0
  8  5  1  0  0  0
  6  7  4  0  0  0
  8  9  2  0  0  0
  8 10  2  0  0  0
 11  8  1  0  0  0
 11 12  1  0  0  0
 16 11  1  0  0  0
 12 13  1  0  0  0
 13 14  1  0  0  0
 13 15  1  0  0  0
 15 18  1  0  0  0
 17 16  1  0  0  0
 17 19  1  0  0  0
 20 17  1  0  0  0
 20 21  1  0  0  0
 33 20  1  0  0  0
 21 22  1  0  0  0
 22 23  2  0  0  0
 22 24  1  0  0  0
 24 25  1  0  0  0
 25 26  1  0  0  0
 25 32  1  0  0  0
 26 27  1  0  0  0
 28 27  1  0  0  0
 28 29  1  0  0  0
 32 28  1  0  0  0
 30 29  1  0  0  0
 31 30  1  0  0  0
 32 31  1  0  0  0
 39 33  1  0  0  0
 34 35  4  0  0  0
 34 39  4  0  0  0
 35 36  4  0  0  0
 36 37  4  0  0  0
 37 38  4  0  0  0
 38 39  4  0  0  0
  1 40  1  0  0  0
  1 41  1  0  0  0
  3 42  1  0  0  0
  4 43  1  0  0  0
  6 44  1  0  0  0
  7 45  1  0  0  0
 12 46  1  0  0  0
 12 47  1  0  0  0
 13 48  1  0  0  0
 14 49  1  0  0  0
 14 50  1  0  0  0
 14 51  1  0  0  0
 15 52  1  0  0  0
 15 53  1  0  0  0
 16 54  1  0  0  0
 16 55  1  0  0  0
 17 56  1  0  0  0
 18 57  1  0  0  0
 18 58  1  0  0  0
 18 59  1  0  0  0
 19 60  1  0  0  0
 20 61  1  0  0  0
 21 62  1  0  0  0
 25 63  1  0  0  0
 26 64  1  0  0  0
 26 65  1  0  0  0
 28 66  1  0  0  0
 30 67  1  0  0  0
 30 68  1  0  0  0
 31 69  1  0  0  0
 31 70  1  0  0  0
 32 71  1  0  0  0
 33 72  1  0  0  0
 33 73  1  0  0  0
 34 74  1  0  0  0
 35 75  1  0  0  0
 36 76  1  0  0  0
 37 77  1  0  0  0
 38 78  1  0  0  0
M  END
$$$$
