5i9i_ligand
  -I-interpret- 

 85 89  0  0  0  0  0  0  0  0999 V2000
  205.2970   20.0200  116.3280 C   0  0  0  0  0
  204.2680   20.4150  117.3750 C   0  0  0  0  0
  203.0260   20.9270  116.8200 N   0  3  0  0  0
  201.9120   20.0370  117.0110 C   0  0  0  0  0
  202.1230   18.6420  116.3660 C   0  0  0  0  0
  203.1280   21.3730  115.4230 C   0  0  0  0  0
  203.4090   22.9110  115.4190 C   0  0  0  0  0
  203.2020   23.5500  114.0750 N   0  0  0  0  0
  204.3040   24.2530  113.3470 C   0  0  0  0  0
  204.9050   25.3930  114.2350 C   0  0  0  0  0
  206.2370   25.7880  114.0650 C   0  0  0  0  0
  206.7650   26.8040  114.8620 C   0  0  0  0  0
  205.9280   27.4340  115.8110 C   0  0  0  0  0
  204.6170   27.0370  115.9860 C   0  0  0  0  0
  204.0930   26.0110  115.1820 C   0  0  0  0  0
  206.4160   28.4150  116.6750 C   0  0  0  0  0
  207.7190   28.1920  117.1830 C   0  0  0  0  0
  208.2880   29.0880  118.0940 C   0  0  0  0  0
  207.5440   30.1990  118.5240 C   0  0  0  0  0
  206.2210   30.4190  118.0460 C   0  0  0  0  0
  205.6500   29.5200  117.1220 C   0  0  0  0  0
  208.2460   31.1250  119.5380 C   0  0  0  0  0
  208.8740   32.1360  118.8990 F   0  0  0  0  0
  207.3550   31.6020  120.4250 F   0  0  0  0  0
  209.1020   30.3400  120.2160 F   0  0  0  0  0
  201.8750   23.4940  113.4560 C   0  0  0  0  0
  200.9370   22.9330  113.9950 O   0  0  0  0  0
  201.6420   24.1390  112.1070 C   0  0  0  0  0
  200.2010   24.4380  112.0160 N   0  3  0  0  0
  199.3660   23.4890  111.5240 C   0  0  0  0  0
  199.6660   22.0620  111.0050 C   0  0  0  0  0
  198.3520   21.5280  110.5390 C   0  0  0  0  0
  197.2920   22.5250  110.8550 C   0  0  0  0  0
  197.9890   23.7510  111.4330 C   0  0  0  0  0
  197.5150   25.0020  111.8720 C   0  0  0  0  0
  196.3240   25.2520  111.7860 O   0  0  0  0  0
  198.3980   25.9310  112.3690 N   0  0  0  0  0
  199.7200   25.6450  112.4440 C   0  0  0  0  0
  200.8490   26.8590  113.0820 S   0  0  0  0  0
  199.9150   28.4030  113.3780 C   0  0  0  0  0
  200.5890   29.1410  114.5640 C   0  0  0  0  0
  200.4310   28.6170  115.8620 C   0  0  0  0  0
  201.0330   29.2630  116.9350 C   0  0  0  0  0
  201.7880   30.4240  116.7270 C   0  0  0  0  0
  202.3530   31.0280  117.7680 F   0  0  0  0  0
  201.9400   30.9430  115.4300 C   0  0  0  0  0
  201.3370   30.2930  114.3390 C   0  0  0  0  0
  204.8830   19.2391  115.6901 H   0  0  0  0  0
  205.5494   20.8902  115.7220 H   0  0  0  0  0
  206.1938   19.6485  116.8238 H   0  0  0  0  0
  204.7069   21.2123  117.9749 H   0  0  0  0  0
  204.0227   19.5170  117.9420 H   0  0  0  0  0
  202.8380   21.7665  117.3680 H   0  0  0  0  0
  201.0424   20.4913  116.5361 H   0  0  0  0  0
  201.7893   19.8886  118.0839 H   0  0  0  0  0
  202.2707   18.7581  115.2923 H   0  0  0  0  0
  203.0010   18.1689  116.8057 H   0  0  0  0  0
  201.2451   18.0223  116.5483 H   0  0  0  0  0
  202.1990   21.1609  114.8937 H   0  0  0  0  0
  203.9367   20.8435  114.9192 H   0  0  0  0  0
  204.4535   23.0556  115.6949 H   0  0  0  0  0
  202.7105   23.3751  116.1153 H   0  0  0  0  0
  203.9029   24.6898  112.4324 H   0  0  0  0  0
  205.0894   23.5344  113.1127 H   0  0  0  0  0
  206.8595   25.3036  113.3127 H   0  0  0  0  0
  207.8065   27.1072  114.7546 H   0  0  0  0  0
  203.9940   27.5156  116.7416 H   0  0  0  0  0
  203.0549   25.7001  115.2992 H   0  0  0  0  0
  208.2825   27.3160  116.8618 H   0  0  0  0  0
  209.2993   28.9256  118.4667 H   0  0  0  0  0
  205.6508   31.2805  118.3936 H   0  0  0  0  0
  204.6344   29.6728  116.7570 H   0  0  0  0  0
  201.9492   23.4715  111.3019 H   0  0  0  0  0
  202.2322   25.0500  112.0077 H   0  0  0  0  0
  200.1005   21.4350  111.7836 H   0  0  0  0  0
  200.4021   22.0739  110.2012 H   0  0  0  0  0
  198.1946   20.5673  110.0486 H   0  0  0  0  0
  196.2199   22.4013  110.7018 H   0  0  0  0  0
  197.0338   24.2759  111.4466 H   0  0  0  0  0
  198.8746   28.1781  113.6128 H   0  0  0  0  0
  199.9250   29.0295  112.4861 H   0  0  0  0  0
  199.8424   27.7138  116.0231 H   0  0  0  0  0
  200.9171   28.8644  117.9428 H   0  0  0  0  0
  202.5249   31.8487  115.2700 H   0  0  0  0  0
  201.4538   30.6864  113.3292 H   0  0  0  0  0
  1  2  1  0  0  0
  2  3  1  0  0  0
  3  4  1  0  0  0
  3  6  1  0  0  0
  4  5  1  0  0  0
  6  7  1  0  0  0
  7  8  1  0  0  0
  8  9  1  0  0  0
  8 26  1  0  0  0
  9 10  1  0  0  0
 10 11  4  0  0  0
 10 15  4  0  0  0
 11 12  4  0  0  0
 12 13  4  0  0  0
 13 14  4  0  0  0
 13 16  1  0  0  0
 14 15  4  0  0  0
 16 17  4  0  0  0
 16 21  4  0  0  0
 17 18  4  0  0  0
 18 19  4  0  0  0
 19 20  4  0  0  0
 19 22  1  0  0  0
 20 21  4  0  0  0
 22 23  1  0  0  0
 22 24  1  0  0  0
 22 25  1  0  0  0
 26 27  2  0  0  0
 26 28  1  0  0  0
 28 29  1  0  0  0
 29 30  2  0  0  0
 29 38  1  0  0  0
 30 31  1  0  0  0
 30 34  1  0  0  0
 31 32  1  0  0  0
 32 33  2  0  0  0
 33 34  1  0  0  0
 34 35  1  0  0  0
 35 36  2  0  0  0
 35 37  1  0  0  0
 37 38  2  0  0  0
 38 39  1  0  0  0
 39 40  1  0  0  0
 40 41  1  0  0  0
 41 42  4  0  0  0
 41 47  4  0  0  0
 42 43  4  0  0  0
 43 44  4  0  0  0
 44 45  1  0  0  0
 44 46  4  0  0  0
 46 47  4  0  0  0
  1 48  1  0  0  0
  1 49  1  0  0  0
  1 50  1  0  0  0
  2 51  1  0  0  0
  2 52  1  0  0  0
  3 53  1  0  0  0
  4 54  1  0  0  0
  4 55  1  0  0  0
  5 56  1  0  0  0
  5 57  1  0  0  0
  5 58  1  0  0  0
  6 59  1  0  0  0
  6 60  1  0  0  0
  7 61  1  0  0  0
  7 62  1  0  0  0
  9 63  1  0  0  0
  9 64  1  0  0  0
 11 65  1  0  0  0
 12 66  1  0  0  0
 14 67  1  0  0  0
 15 68  1  0  0  0
 17 69  1  0  0  0
 18 70  1  0  0  0
 20 71  1  0  0  0
 21 72  1  0  0  0
 28 73  1  0  0  0
 28 74  1  0  0  0
 31 75  1  0  0  0
 31 76  1  0  0  0
 32 77  1  0  0  0
 33 78  1  0  0  0
 34 79  1  0  0  0
 40 80  1  0  0  0
 40 81  1  0  0  0
 42 82  1  0  0  0
 43 83  1  0  0  0
 46 84  1  0  0  0
 47 85  1  0  0  0
M  END
$$$$
