3nzw_ligand
  -I-interpret- 

102106  0  0  0  0  0  0  0  0999 V2000
    8.3230 -137.9540   23.5500 O   0  0  0  0  0
    9.0550 -138.5490   24.3180 C   0  0  0  0  0
    8.6380 -139.4130   25.2930 O   0  0  0  0  0
    7.2040 -139.7080   25.4780 C   0  0  0  0  0
    6.5720 -140.4300   24.2420 C   0  0  0  0  0
    6.3710 -138.4280   25.8400 C   0  0  0  0  0
    7.1760 -140.6950   26.6750 C   0  0  0  0  0
   10.8850 -139.2550   21.6380 O   0  0  0  0  0
   10.7200 -138.0610   21.9090 C   0  0  0  0  0
   11.1230 -137.5810   23.2970 C   0  0  0  0  0
   10.4220 -138.4430   24.2920 N   0  0  0  0  0
   12.6680 -137.6230   23.4650 C   0  0  0  0  0
   13.0690 -137.0560   24.8350 C   0  0  0  0  0
   13.3600 -137.9170   25.9330 C   0  0  0  0  0
   13.7300 -137.3730   27.1860 C   0  0  0  0  0
   13.8160 -135.9480   27.3670 C   0  0  0  0  0
   13.5220 -135.1000   26.2670 C   0  0  0  0  0
   13.1530 -135.6460   25.0130 C   0  0  0  0  0
   14.1890 -135.3260   28.5780 O   0  0  0  0  0
   14.5940 -136.0290   29.7750 C   0  0  0  0  0
   16.0280 -136.6120   29.7020 C   0  0  0  0  0
   17.0750 -135.8740   29.0820 C   0  0  0  0  0
   18.3880 -136.4130   29.0160 C   0  0  0  0  0
   18.6610 -137.6990   29.5730 C   0  0  0  0  0
   17.6160 -138.4420   30.1940 C   0  0  0  0  0
   16.3050 -137.8990   30.2580 C   0  0  0  0  0
   10.1630 -137.1400   21.0630 N   0  0  0  0  0
    9.6850 -137.4780   19.7260 C   0  0  0  0  0
   10.7250 -137.2500   18.6720 C   0  0  0  0  0
   11.4350 -136.2590   18.7100 O   0  0  0  0  0
    8.4080 -136.6520   19.4380 C   0  0  0  0  0
   10.8470 -138.2560   17.5690 N   0  0  0  0  0
   11.6670 -137.9390   16.4140 C   0  0  0  0  0
   12.7060 -139.0390   16.0490 C   0  0  0  0  0
   13.6720 -139.5790   17.1600 C   0  0  0  0  0
   14.5860 -140.4880   16.5600 O   0  0  0  0  0
   12.9890 -140.4470   18.2120 C   0  0  0  0  0
   12.2790 -141.4150   17.9490 O   0  0  0  0  0
   13.2960 -139.9980   19.4400 N   0  0  0  0  0
   14.1320 -138.8910   19.3480 C   0  0  0  0  0
   14.6390 -138.1680   20.4470 C   0  0  0  0  0
   15.4730 -137.0620   20.1540 C   0  0  0  0  0
   15.7620 -136.7100   18.7950 C   0  0  0  0  0
   15.2360 -137.4540   17.7040 C   0  0  0  0  0
   14.4050 -138.5500   18.0150 C   0  0  0  0  0
   10.7770 -137.6610   15.2030 C   0  0  0  0  0
    9.6870 -138.2160   15.1740 O   0  0  0  0  0
   11.2080 -136.8260   14.1990 N   0  0  0  0  0
   10.3730 -136.5530   12.9980 C   0  0  0  0  0
    9.6260 -135.2050   13.1480 C   0  0  0  0  0
    8.4800 -135.1070   13.9820 C   0  0  0  0  0
    7.7940 -133.8600   14.1170 C   0  0  0  0  0
    8.2520 -132.7140   13.4150 C   0  0  0  0  0
    9.3950 -132.8120   12.5800 C   0  0  0  0  0
   10.0800 -134.0540   12.4470 C   0  0  0  0  0
    7.1522 -141.3227   24.0085 H   0  0  0  0  0
    5.5452 -140.7128   24.4739 H   0  0  0  0  0
    6.5800 -139.7557   23.3857 H   0  0  0  0  0
    5.3411 -138.7145   26.0530 H   0  0  0  0  0
    6.8053 -137.9497   26.7179 H   0  0  0  0  0
    6.3901 -137.7340   24.9997 H   0  0  0  0  0
    7.6092 -140.2133   27.5516 H   0  0  0  0  0
    6.1449 -140.9782   26.8867 H   0  0  0  0  0
    7.7543 -141.5844   26.4245 H   0  0  0  0  0
   10.8305 -136.5423   23.4508 H   0  0  0  0  0
   10.9738 -138.9674   24.9709 H   0  0  0  0  0
   13.1283 -137.0211   22.6815 H   0  0  0  0  0
   13.0063 -138.6567   23.3941 H   0  0  0  0  0
   13.2974 -138.9979   25.8072 H   0  0  0  0  0
   13.9515 -138.0385   28.0204 H   0  0  0  0  0
   13.5808 -134.0184   26.3885 H   0  0  0  0  0
   12.9317 -134.9814   24.1779 H   0  0  0  0  0
   13.9088 -136.8662   29.9082 H   0  0  0  0  0
   14.5758 -135.3116   30.5955 H   0  0  0  0  0
   16.8690 -134.8919   28.6563 H   0  0  0  0  0
   19.1870 -135.8446   28.5400 H   0  0  0  0  0
   19.6685 -138.1121   29.5231 H   0  0  0  0  0
   17.8219 -139.4244   30.6188 H   0  0  0  0  0
   15.5057 -138.4672   30.7339 H   0  0  0  0  0
   10.0783 -136.1746   21.3812 H   0  0  0  0  0
    9.4566 -138.5434   19.6953 H   0  0  0  0  0
    7.6457 -136.8938   20.1786 H   0  0  0  0  0
    8.6444 -135.5893   19.4917 H   0  0  0  0  0
    8.0378 -136.8932   18.4416 H   0  0  0  0  0
   10.3610 -139.1508   17.6286 H   0  0  0  0  0
   12.2389 -137.0530   16.6896 H   0  0  0  0  0
   13.3606 -138.5712   15.3137 H   0  0  0  0  0
   12.1075 -139.9018   15.7565 H   0  0  0  0  0
   15.1845 -140.8270   17.2297 H   0  0  0  0  0
   12.9643 -140.4091   20.3126 H   0  0  0  0  0
   14.4003 -138.4471   21.4733 H   0  0  0  0  0
   15.8982 -136.4742   20.9675 H   0  0  0  0  0
   16.4010 -135.8504   18.5931 H   0  0  0  0  0
   15.4650 -137.1889   16.6718 H   0  0  0  0  0
   12.1231 -136.3826   14.2796 H   0  0  0  0  0
    9.6402 -137.3524   12.8884 H   0  0  0  0  0
   11.0200 -136.5025   12.1223 H   0  0  0  0  0
    8.1229 -135.9849   14.5204 H   0  0  0  0  0
    6.9171 -133.7888   14.7605 H   0  0  0  0  0
    7.7281 -131.7636   13.5170 H   0  0  0  0  0
    9.7498 -131.9348   12.0390 H   0  0  0  0  0
   10.9575 -134.1225   11.8040 H   0  0  0  0  0
  2  1  2  0  0  0
  2  3  1  0  0  0
 11  2  1  0  0  0
  3  4  1  0  0  0
  4  5  1  0  0  0
  4  6  1  0  0  0
  4  7  1  0  0  0
  9  8  2  0  0  0
 10  9  1  0  0  0
  9 27  1  0  0  0
 10 11  1  0  0  0
 10 12  1  0  0  0
 12 13  1  0  0  0
 13 14  4  0  0  0
 13 18  4  0  0  0
 14 15  4  0  0  0
 15 16  4  0  0  0
 16 17  4  0  0  0
 16 19  1  0  0  0
 17 18  4  0  0  0
 19 20  1  0  0  0
 20 21  1  0  0  0
 21 22  4  0  0  0
 21 26  4  0  0  0
 22 23  4  0  0  0
 23 24  4  0  0  0
 24 25  4  0  0  0
 25 26  4  0  0  0
 27 28  1  0  0  0
 28 29  1  0  0  0
 28 31  1  0  0  0
 29 30  2  0  0  0
 29 32  1  0  0  0
 32 33  1  0  0  0
 33 34  1  0  0  0
 33 46  1  0  0  0
 34 35  1  0  0  0
 35 36  1  0  0  0
 35 37  1  0  0  0
 35 45  1  0  0  0
 37 38  2  0  0  0
 37 39  1  0  0  0
 39 40  1  0  0  0
 40 41  4  0  0  0
 40 45  4  0  0  0
 41 42  4  0  0  0
 42 43  4  0  0  0
 43 44  4  0  0  0
 44 45  4  0  0  0
 46 47  2  0  0  0
 46 48  1  0  0  0
 48 49  1  0  0  0
 49 50  1  0  0  0
 50 51  4  0  0  0
 50 55  4  0  0  0
 51 52  4  0  0  0
 52 53  4  0  0  0
 53 54  4  0  0  0
 54 55  4  0  0  0
  5 56  1  0  0  0
  5 57  1  0  0  0
  5 58  1  0  0  0
  6 59  1  0  0  0
  6 60  1  0  0  0
  6 61  1  0  0  0
  7 62  1  0  0  0
  7 63  1  0  0  0
  7 64  1  0  0  0
 10 65  1  0  0  0
 11 66  1  0  0  0
 12 67  1  0  0  0
 12 68  1  0  0  0
 14 69  1  0  0  0
 15 70  1  0  0  0
 17 71  1  0  0  0
 18 72  1  0  0  0
 20 73  1  0  0  0
 20 74  1  0  0  0
 22 75  1  0  0  0
 23 76  1  0  0  0
 24 77  1  0  0  0
 25 78  1  0  0  0
 26 79  1  0  0  0
 27 80  1  0  0  0
 28 81  1  0  0  0
 31 82  1  0  0  0
 31 83  1  0  0  0
 31 84  1  0  0  0
 32 85  1  0  0  0
 33 86  1  0  0  0
 34 87  1  0  0  0
 34 88  1  0  0  0
 36 89  1  0  0  0
 39 90  1  0  0  0
 41 91  1  0  0  0
 42 92  1  0  0  0
 43 93  1  0  0  0
 44 94  1  0  0  0
 48 95  1  0  0  0
 49 96  1  0  0  0
 49 97  1  0  0  0
 51 98  1  0  0  0
 52 99  1  0  0  0
 53100  1  0  0  0
 54101  1  0  0  0
 55102  1  0  0  0
M  END
$$$$
