5gsw_ligand
  -I-interpret- 

 60 62  0  0  0  0  0  0  0  0999 V2000
    1.0760    6.2950   25.9310 C   0  0  0  0  0
    1.4590    7.2160   24.8050 C   0  0  0  0  0
    2.1470    6.3560   26.9660 C   0  0  0  0  0
   -4.3680    6.7090   30.9770 C   0  0  0  0  0
    0.7260    6.8550   23.5190 C   0  0  0  0  0
    0.7600    5.5900   23.0460 C   0  0  0  0  0
    0.0220    7.8470   22.8600 C   0  0  0  0  0
    0.0830    5.2930   21.8900 C   0  0  0  0  0
   -0.6230    6.2890   21.2440 C   0  0  0  0  0
   -0.6600    7.5410   21.7180 C   0  0  0  0  0
   -0.7730    5.8640   27.4040 C   0  0  0  0  0
   -1.9750    6.3730   28.1640 C   0  0  0  0  0
    1.1990    4.2220   32.1490 C   0  0  0  0  0
   -2.3690    5.9500   29.4630 C   0  0  0  0  0
    5.6310    5.4360   27.0440 C   0  0  0  0  0
   -3.5310    6.7380   29.7320 C   0  0  0  0  0
    1.0230    5.2480   31.0450 C   0  0  0  0  0
    4.3000    5.3460   27.7930 C   0  0  0  0  0
    4.0220    4.2670   28.8310 C   0  0  0  0  0
    2.6950    4.1540   29.6450 C   0  0  0  0  0
    2.9150    3.1350   30.7400 C   0  0  0  0  0
    2.2680    5.4170   30.2890 C   0  0  0  0  0
   -1.2830    6.0340   20.1460 F   0  0  0  0  0
   -0.0620    6.7540   26.5870 N   0  0  0  0  0
   -2.8160    7.2930   27.7780 N   0  0  0  0  0
    1.8350    2.9810   31.7120 N   0  3  0  0  0
    3.2050    5.4260   26.8900 N   0  0  0  0  0
   -3.7330    7.4870   28.6950 O   0  0  0  0  0
    6.0480    6.5490   26.8010 O   0  0  0  0  0
    2.0750    7.1770   27.8230 O   0  0  0  0  0
   -0.4450    4.7080   27.5380 O   0  0  0  0  0
    3.1660    1.9300   30.1550 O   0  0  0  0  0
    0.9192    5.3021   25.5096 H   0  0  0  0  0
    2.5309    7.1230   24.6306 H   0  0  0  0  0
    1.1890    8.2346   25.0835 H   0  0  0  0  0
   -4.7752    5.7076   31.1163 H   0  0  0  0  0
   -3.7501    6.9739   31.8350 H   0  0  0  0  0
   -5.1846    7.4246   30.8810 H   0  0  0  0  0
    1.3170    4.8166   23.5749 H   0  0  0  0  0
    0.0121    8.8649   23.2497 H   0  0  0  0  0
    0.1022    4.2810   21.4855 H   0  0  0  0  0
   -1.2302    8.3094   21.1960 H   0  0  0  0  0
    0.2042    3.9646   32.5125 H   0  0  0  0  0
    1.8459    4.6680   32.9045 H   0  0  0  0  0
   -1.8975    5.2030   30.1015 H   0  0  0  0  0
    6.1784    4.5428   26.7431 H   0  0  0  0  0
    0.7510    6.2037   31.4931 H   0  0  0  0  0
    0.2431    4.9037   30.3659 H   0  0  0  0  0
    4.4212    6.2140   28.4411 H   0  0  0  0  0
    4.7587    4.4843   29.6044 H   0  0  0  0  0
    4.0130    3.3563   28.2321 H   0  0  0  0  0
    1.9123    3.8758   28.9393 H   0  0  0  0  0
    3.7537    3.5129   31.3247 H   0  0  0  0  0
    3.0496    5.7303   30.9811 H   0  0  0  0  0
    2.0975    6.1591   29.5090 H   0  0  0  0  0
   -0.3728    7.7191   26.4756 H   0  0  0  0  0
    1.1096    2.4287   31.2547 H   0  0  0  0  0
    2.2503    2.5596   32.5429 H   0  0  0  0  0
    3.1824    4.7545   26.1226 H   0  0  0  0  0
    3.3087    1.2685   30.8359 H   0  0  0  0  0
  1  2  1  0  0  0
  3  1  1  0  0  0
  1 24  1  0  0  0
  2  5  1  0  0  0
 27  3  1  0  0  0
  3 30  2  0  0  0
 16  4  1  0  0  0
  5  6  4  0  0  0
  5  7  4  0  0  0
  6  8  4  0  0  0
  7 10  4  0  0  0
  8  9  4  0  0  0
 10  9  4  0  0  0
  9 23  1  0  0  0
 11 12  1  0  0  0
 24 11  1  0  0  0
 11 31  2  0  0  0
 12 14  4  0  0  0
 12 25  4  0  0  0
 17 13  1  0  0  0
 13 26  1  0  0  0
 14 16  4  0  0  0
 18 15  1  0  0  0
 15 29  2  0  0  0
 16 28  4  0  0  0
 22 17  1  0  0  0
 19 18  1  0  0  0
 18 27  1  0  0  0
 20 19  1  0  0  0
 20 21  1  0  0  0
 20 22  1  0  0  0
 21 26  1  0  0  0
 21 32  1  0  0  0
 25 28  4  0  0  0
  1 33  1  0  0  0
  2 34  1  0  0  0
  2 35  1  0  0  0
  4 36  1  0  0  0
  4 37  1  0  0  0
  4 38  1  0  0  0
  6 39  1  0  0  0
  7 40  1  0  0  0
  8 41  1  0  0  0
 10 42  1  0  0  0
 13 43  1  0  0  0
 13 44  1  0  0  0
 14 45  1  0  0  0
 15 46  1  0  0  0
 17 47  1  0  0  0
 17 48  1  0  0  0
 18 49  1  0  0  0
 19 50  1  0  0  0
 19 51  1  0  0  0
 20 52  1  0  0  0
 21 53  1  0  0  0
 22 54  1  0  0  0
 22 55  1  0  0  0
 24 56  1  0  0  0
 26 57  1  0  0  0
 26 58  1  0  0  0
 27 59  1  0  0  0
 32 60  1  0  0  0
M  END
$$$$
