6p88_ligand
  -I-interpret- 

 43 46  0  0  0  0  0  0  0  0999 V2000
  -10.6860   29.8720   14.6260 C   0  0  0  0  0
  -14.7400   27.2540   17.5170 C   0  0  0  0  0
   -9.5960   30.3440   13.7620 C   0  0  0  0  0
  -13.7910   29.5180   17.8050 C   0  0  0  0  0
  -12.2510   30.7160   16.3940 C   0  0  0  0  0
   -8.9570   31.5610   13.7920 C   0  0  0  0  0
  -12.7440   29.4830   16.8520 C   0  0  0  0  0
   -8.1300   30.3080   12.1300 C   0  0  0  0  0
  -16.1930   25.2820   17.4260 C   0  0  0  0  0
   -8.0040   31.5380   12.7280 C   0  0  0  0  0
  -16.9940   24.2970   17.9840 C   0  0  0  0  0
  -13.7920   31.9270   17.7800 C   0  0  0  0  0
  -14.3050   30.7400   18.2640 C   0  0  0  0  0
  -12.7720   31.9290   16.8540 C   0  0  0  0  0
  -17.4120   24.0690   21.9520 C   0  0  0  0  0
  -17.2740   22.8150   21.1660 C   0  0  0  0  0
  -17.0090   24.1610   19.3670 C   0  0  0  0  0
  -15.4330   26.1300   18.2320 C   0  0  0  0  0
  -16.2350   25.0070   20.2070 C   0  0  0  0  0
  -15.4210   26.0070   19.6430 C   0  0  0  0  0
  -11.1910   30.8600   15.4600 N   0  0  0  0  0
  -14.4090   28.3390   18.3180 N   0  0  0  0  0
  -16.3060   24.8820   21.5910 O   0  0  0  0  0
  -11.0850   28.7000   14.5860 O   0  0  0  0  0
  -14.4950   27.2240   16.3020 O   0  0  0  0  0
  -17.7780   23.1400   19.8920 O   0  0  0  0  0
   -9.0990   29.5580   12.7480 O   0  0  0  0  0
   -9.1407   32.3794   14.4881 H   0  0  0  0  0
  -12.3378   28.5389   16.4891 H   0  0  0  0  0
   -7.5390   29.9722   11.2779 H   0  0  0  0  0
  -16.1567   25.3952   16.3425 H   0  0  0  0  0
   -7.3159   32.3355   12.4474 H   0  0  0  0  0
  -17.5976   23.6448   17.3528 H   0  0  0  0  0
  -14.1989   32.8739   18.1348 H   0  0  0  0  0
  -15.1077   30.7523   19.0013 H   0  0  0  0  0
  -12.3728   32.8724   16.4815 H   0  0  0  0  0
  -17.4184   23.8647   23.0227 H   0  0  0  0  0
  -18.3562   24.5686   21.7350 H   0  0  0  0  0
  -17.8165   21.9861   21.6207 H   0  0  0  0  0
  -16.2401   22.4727   21.1211 H   0  0  0  0  0
  -14.8077   26.6588   20.2652 H   0  0  0  0  0
  -10.7576   31.7811   15.3956 H   0  0  0  0  0
  -14.6166   28.2909   19.3155 H   0  0  0  0  0
  1  3  1  0  0  0
 21  1  1  0  0  0
  1 24  2  0  0  0
 18  2  1  0  0  0
  2 22  1  0  0  0
  2 25  2  0  0  0
  3  6  4  0  0  0
  3 27  4  0  0  0
  4  7  4  0  0  0
  4 13  4  0  0  0
 22  4  1  0  0  0
  7  5  4  0  0  0
  5 14  4  0  0  0
  5 21  1  0  0  0
  6 10  4  0  0  0
  8 10  4  0  0  0
 27  8  4  0  0  0
 11  9  4  0  0  0
  9 18  4  0  0  0
 17 11  4  0  0  0
 13 12  4  0  0  0
 12 14  4  0  0  0
 16 15  1  0  0  0
 15 23  1  0  0  0
 26 16  1  0  0  0
 17 19  4  0  0  0
 17 26  1  0  0  0
 18 20  4  0  0  0
 19 20  4  0  0  0
 19 23  1  0  0  0
  6 28  1  0  0  0
  7 29  1  0  0  0
  8 30  1  0  0  0
  9 31  1  0  0  0
 10 32  1  0  0  0
 11 33  1  0  0  0
 12 34  1  0  0  0
 13 35  1  0  0  0
 14 36  1  0  0  0
 15 37  1  0  0  0
 15 38  1  0  0  0
 16 39  1  0  0  0
 16 40  1  0  0  0
 20 41  1  0  0  0
 21 42  1  0  0  0
 22 43  1  0  0  0
M  END
$$$$
