3p7c_ligand
  -I-interpret- 

 70 72  0  0  0  0  0  0  0  0999 V2000
   55.6660   30.2670  -20.7580 Cl  0  0  0  0  0
   47.0200   27.0410  -10.4200 N   0  3  0  0  0
   49.2380   28.3290  -19.5760 S   0  0  0  0  0
   56.6050   32.3440  -22.9080 Cl  0  0  0  0  0
   50.3890   28.5680  -18.3160 C   0  0  0  0  0
   49.9100   27.8150  -17.2040 C   0  0  0  0  0
   48.7690   27.0690  -17.4310 C   0  0  0  0  0
   47.3680   25.5500  -20.2110 C   0  0  0  0  0
   45.9980   26.3890  -18.0550 C   0  0  0  0  0
   50.7160   27.7720  -15.9470 C   0  0  0  0  0
   48.2530   27.2430  -18.7070 C   0  0  0  0  0
   51.9080   27.7550  -16.1450 O   0  0  0  0  0
   51.4810   29.3740  -18.4030 N   0  0  0  0  0
   51.7690   30.2490  -19.3940 C   0  0  0  0  0
   46.9650   26.6120  -19.2030 C   0  0  0  0  0
   50.7960   30.5180  -20.2560 O   0  0  0  0  0
   52.9550   30.8090  -19.5220 N   0  0  0  0  0
   53.4010   31.7270  -20.4510 C   0  0  0  0  0
   52.6420   32.8450  -20.8190 C   0  0  0  0  0
   54.3080   33.6350  -22.3960 C   0  0  0  0  0
   55.0920   32.5350  -22.0500 C   0  0  0  0  0
   46.1470   27.5360  -20.1240 C   0  0  0  0  0
   53.0700   33.7920  -21.7540 C   0  0  0  0  0
   54.6280   31.6180  -21.1020 C   0  0  0  0  0
   48.9650   28.1130  -14.1700 C   0  0  0  0  0
   50.5890   28.1110  -11.4310 C   0  0  0  0  0
   50.2730   27.6770  -14.6640 N   0  0  0  0  0
   49.1420   29.1560  -13.0740 C   0  0  0  0  0
   49.3300   28.5550  -11.7440 N   0  0  0  0  0
   51.6190   27.8880  -12.5560 C   0  0  0  0  0
   50.8160   27.6800  -10.2970 O   0  0  0  0  0
   51.1740   26.9780  -13.7400 C   0  0  0  0  0
   48.4470   29.1310  -10.7020 C   0  0  0  0  0
   47.0380   28.5420  -10.4850 C   0  0  0  0  0
   47.1980   26.4780   -9.0440 C   0  0  0  0  0
   45.9670   26.3410  -11.2260 C   0  0  0  0  0
   47.8745   26.8075  -10.9257 H   0  0  0  0  0
   48.3211   26.4123  -16.6852 H   0  0  0  0  0
   47.8383   24.7161  -19.6899 H   0  0  0  0  0
   46.4820   25.1971  -20.7389 H   0  0  0  0  0
   48.0719   25.9773  -20.9252 H   0  0  0  0  0
   45.0286   26.0871  -18.4516 H   0  0  0  0  0
   46.3849   25.6062  -17.4026 H   0  0  0  0  0
   45.8884   27.3141  -17.4891 H   0  0  0  0  0
   52.1548   29.3123  -17.6397 H   0  0  0  0  0
   53.6473   30.5207  -18.8307 H   0  0  0  0  0
   51.6669   32.9839  -20.3521 H   0  0  0  0  0
   54.6469   34.3522  -23.1435 H   0  0  0  0  0
   46.7846   27.9015  -20.9290 H   0  0  0  0  0
   45.3107   26.9785  -20.5458 H   0  0  0  0  0
   45.7687   28.3797  -19.5469 H   0  0  0  0  0
   52.4420   34.6526  -21.9845 H   0  0  0  0  0
   48.4309   27.2539  -13.7641 H   0  0  0  0  0
   48.3990   28.5502  -14.9925 H   0  0  0  0  0
   48.2383   29.7646  -13.0418 H   0  0  0  0  0
   50.0331   29.7389  -13.3071 H   0  0  0  0  0
   52.4670   27.3844  -12.0919 H   0  0  0  0  0
   51.8106   28.8705  -12.9874 H   0  0  0  0  0
   52.0645   26.6798  -14.2933 H   0  0  0  0  0
   50.6414   26.1206  -13.3287 H   0  0  0  0  0
   48.2699   30.1562  -11.0270 H   0  0  0  0  0
   48.9705   28.9455   -9.7641 H   0  0  0  0  0
   46.6699   28.9159   -9.5296 H   0  0  0  0  0
   46.4234   28.8407  -11.3342 H   0  0  0  0  0
   48.1576   26.8023   -8.6415 H   0  0  0  0  0
   46.3936   26.8339   -8.4003 H   0  0  0  0  0
   47.1719   25.3894   -9.0921 H   0  0  0  0  0
   44.9810   26.6628  -10.8909 H   0  0  0  0  0
   46.0930   26.5894  -12.2798 H   0  0  0  0  0
   46.0643   25.2638  -11.0911 H   0  0  0  0  0
 24  1  1  0  0  0
 34  2  1  0  0  0
  2 35  1  0  0  0
  2 36  1  0  0  0
  5  3  4  0  0  0
 11  3  4  0  0  0
 21  4  1  0  0  0
  6  5  4  0  0  0
  5 13  1  0  0  0
  6  7  4  0  0  0
 10  6  1  0  0  0
  7 11  4  0  0  0
 15  8  1  0  0  0
 15  9  1  0  0  0
 10 12  2  0  0  0
 27 10  1  0  0  0
 11 15  1  0  0  0
 13 14  1  0  0  0
 14 16  2  0  0  0
 14 17  1  0  0  0
 15 22  1  0  0  0
 17 18  1  0  0  0
 18 19  4  0  0  0
 18 24  4  0  0  0
 19 23  4  0  0  0
 21 20  4  0  0  0
 23 20  4  0  0  0
 24 21  4  0  0  0
 25 27  1  0  0  0
 28 25  1  0  0  0
 29 26  1  0  0  0
 26 30  1  0  0  0
 26 31  2  0  0  0
 27 32  1  0  0  0
 29 28  1  0  0  0
 33 29  1  0  0  0
 30 32  1  0  0  0
 33 34  1  0  0  0
  2 37  1  0  0  0
  7 38  1  0  0  0
  8 39  1  0  0  0
  8 40  1  0  0  0
  8 41  1  0  0  0
  9 42  1  0  0  0
  9 43  1  0  0  0
  9 44  1  0  0  0
 13 45  1  0  0  0
 17 46  1  0  0  0
 19 47  1  0  0  0
 20 48  1  0  0  0
 22 49  1  0  0  0
 22 50  1  0  0  0
 22 51  1  0  0  0
 23 52  1  0  0  0
 25 53  1  0  0  0
 25 54  1  0  0  0
 28 55  1  0  0  0
 28 56  1  0  0  0
 30 57  1  0  0  0
 30 58  1  0  0  0
 32 59  1  0  0  0
 32 60  1  0  0  0
 33 61  1  0  0  0
 33 62  1  0  0  0
 34 63  1  0  0  0
 34 64  1  0  0  0
 35 65  1  0  0  0
 35 66  1  0  0  0
 35 67  1  0  0  0
 36 68  1  0  0  0
 36 69  1  0  0  0
 36 70  1  0  0  0
M  END
$$$$
