5nxi_ligand
  -I-interpret- 

 32 33  0  0  0  0  0  0  0  0999 V2000
   -5.8530    6.1320   14.9420 C   0  0  0  0  0
   -6.2710    5.0080   15.6220 C   0  0  0  0  0
   -5.3930    3.9830   15.9740 C   0  0  0  0  0
   -6.0280    2.6350   16.8700 S   0  0  0  0  0
   -5.4920    2.7700   18.2670 O   0  0  0  0  0
   -7.5050    2.7090   16.8090 O   0  0  0  0  0
   -5.4690    1.2590   16.2030 N   0  0  0  0  0
   -4.0330    4.1230   15.6490 C   0  0  0  0  0
   -3.5920    5.2570   14.9450 C   0  0  0  0  0
   -4.5100    6.3000   14.5830 C   0  0  0  0  0
   -4.2110    7.4390   13.8710 N   0  0  0  0  0
   -2.6730    7.7550   13.3220 S   0  0  0  0  0
   -1.5910    7.4730   14.3980 O   0  0  0  0  0
   -2.3490    6.8790   12.0960 O   0  0  0  0  0
   -2.5930    9.4410   13.0970 C   0  0  0  0  0
   -2.0700   10.2190   14.1280 C   0  0  0  0  0
   -2.0410   11.5870   13.9500 C   0  0  0  0  0
   -2.5400   12.1310   12.7790 C   0  0  0  0  0
   -2.4970   13.9310   12.6090 Br  0  0  0  0  0
   -3.0690   11.3620   11.7550 C   0  0  0  0  0
   -3.1010    9.9920   11.9320 C   0  0  0  0  0
   -6.5790    6.9016   14.6798 H   0  0  0  0  0
   -7.3227    4.9173   15.8936 H   0  0  0  0  0
   -4.8519    0.6473   16.7372 H   0  0  0  0  0
   -5.7359    1.0086   15.2509 H   0  0  0  0  0
   -3.3202    3.3524   15.9427 H   0  0  0  0  0
   -2.5408    5.3456   14.6707 H   0  0  0  0  0
   -4.9543    8.1091   13.6741 H   0  0  0  0  0
   -1.6963    9.7622   15.0444 H   0  0  0  0  0
   -1.6288   12.2336   14.7247 H   0  0  0  0  0
   -3.4467   11.8217   10.8417 H   0  0  0  0  0
   -3.5233    9.3489   11.1598 H   0  0  0  0  0
  1  2  4  0  0  0
  1 10  4  0  0  0
  2  3  4  0  0  0
  3  4  1  0  0  0
  3  8  4  0  0  0
  4  5  2  0  0  0
  4  6  2  0  0  0
  4  7  1  0  0  0
  8  9  4  0  0  0
  9 10  4  0  0  0
 10 11  1  0  0  0
 11 12  1  0  0  0
 12 13  2  0  0  0
 12 14  2  0  0  0
 12 15  1  0  0  0
 15 16  4  0  0  0
 15 21  4  0  0  0
 16 17  4  0  0  0
 17 18  4  0  0  0
 18 19  1  0  0  0
 18 20  4  0  0  0
 20 21  4  0  0  0
  1 22  1  0  0  0
  2 23  1  0  0  0
  7 24  1  0  0  0
  7 25  1  0  0  0
  8 26  1  0  0  0
  9 27  1  0  0  0
 11 28  1  0  0  0
 16 29  1  0  0  0
 17 30  1  0  0  0
 20 31  1  0  0  0
 21 32  1  0  0  0
M  END
$$$$
