6c7r_ligand
  -I-interpret- 

 55 60  0  0  0  0  0  0  0  0999 V2000
   -1.9080    3.0250   19.6880 C   0  0  0  0  0
   -1.1710    3.8500   20.6740 C   0  0  0  0  0
   -1.7930    4.9160   21.3660 C   0  0  0  0  0
   -3.8430    6.1060   21.7970 C   0  0  0  0  0
    0.2710    7.6460   24.9050 N   0  0  0  0  0
   -1.6020    2.7850   18.3850 C   0  0  0  0  0
   -1.1020    5.6330   22.3400 C   0  0  0  0  0
    0.2230    5.3240   22.6280 C   0  0  0  0  0
    0.8480    4.2870   21.9140 C   0  0  0  0  0
   -2.5450    1.9980   17.8280 O   0  0  0  0  0
   -2.4680    9.2210   23.2670 N   0  0  0  0  0
    2.3620    4.9930   23.3940 C   0  0  0  0  0
   -1.8530    8.5780   24.3000 N   0  0  0  0  0
   -3.9530    2.1340   21.1410 C   0  0  0  0  0
   -3.1490    2.2930   19.8940 C   0  0  0  0  0
   -3.5280    1.6980   18.8020 N   0  0  0  0  0
   -0.4980    3.2120   17.4920 C   0  0  0  0  0
    0.1650    3.5530   20.9670 C   0  0  0  0  0
    2.1400    4.1280   22.3750 N   0  0  0  0  0
    3.4480    5.0550   24.1750 N   0  0  0  0  0
    3.3660    5.9120   25.1990 C   0  0  0  0  0
    4.5250    5.9760   26.1360 C   0  0  0  0  0
    2.3210    6.7000   25.4660 N   0  0  0  0  0
    1.2340    6.6650   24.6860 C   0  0  0  0  0
    1.1860    5.7840   23.5940 C   0  0  0  0  0
   -3.0950    5.1660   21.0160 O   0  0  0  0  0
   -0.4840    8.3680   24.0240 C   0  0  0  0  0
   -2.6420    8.1480   25.4480 C   0  0  0  0  0
   -1.5440    9.4110   22.3290 C   0  0  0  0  0
   -0.2910    8.8720   22.7720 C   0  0  0  0  0
   -1.7240   10.0710   21.0060 C   0  0  0  0  0
   -2.7000   11.2000   20.8240 C   0  0  0  0  0
   -3.0000    9.8830   20.2370 C   0  0  0  0  0
   -3.8924    5.7606   22.8296 H   0  0  0  0  0
   -3.3521    7.0785   21.7609 H   0  0  0  0  0
   -4.8515    6.1915   21.3925 H   0  0  0  0  0
    0.1004    7.8620   25.8872 H   0  0  0  0  0
   -1.6013    6.4387   22.8781 H   0  0  0  0  0
   -3.3432    1.6537   21.9062 H   0  0  0  0  0
   -4.2736    3.1147   21.4926 H   0  0  0  0  0
   -4.8275    1.5179   20.9319 H   0  0  0  0  0
   -0.4929    4.2994   17.4171 H   0  0  0  0  0
    0.4523    2.8703   17.9023 H   0  0  0  0  0
   -0.6447    2.7790   16.5025 H   0  0  0  0  0
    0.6674    2.7387   20.4449 H   0  0  0  0  0
    4.6784    4.9968   26.5896 H   0  0  0  0  0
    5.4198    6.2671   25.5858 H   0  0  0  0  0
    4.3207    6.7107   26.9149 H   0  0  0  0  0
   -3.1101    9.0165   25.9114 H   0  0  0  0  0
   -3.4125    7.4515   25.1173 H   0  0  0  0  0
   -1.9912    7.6556   26.1706 H   0  0  0  0  0
    0.6435    8.8663   22.2110 H   0  0  0  0  0
   -0.6612    9.9302   20.8093 H   0  0  0  0  0
   -2.9812   12.2384   20.9992 H   0  0  0  0  0
   -3.6654    9.2391   19.6618 H   0  0  0  0  0
  2  1  1  0  0  0
  1  6  4  0  0  0
  1 15  4  0  0  0
  3  2  4  0  0  0
 18  2  4  0  0  0
  7  3  4  0  0  0
  3 26  1  0  0  0
 26  4  1  0  0  0
 24  5  1  0  0  0
  5 27  1  0  0  0
  6 10  4  0  0  0
  6 17  1  0  0  0
  8  7  4  0  0  0
  8  9  4  0  0  0
 25  8  4  0  0  0
  9 18  4  0  0  0
 19  9  4  0  0  0
 16 10  4  0  0  0
 13 11  4  0  0  0
 11 29  4  0  0  0
 12 19  4  0  0  0
 20 12  4  0  0  0
 12 25  4  0  0  0
 27 13  4  0  0  0
 13 28  1  0  0  0
 15 14  1  0  0  0
 15 16  4  0  0  0
 21 20  4  0  0  0
 21 22  1  0  0  0
 23 21  4  0  0  0
 23 24  4  0  0  0
 24 25  4  0  0  0
 27 30  4  0  0  0
 29 30  4  0  0  0
 29 31  1  0  0  0
 31 32  1  0  0  0
 31 33  1  0  0  0
 32 33  2  0  0  0
  4 34  1  0  0  0
  4 35  1  0  0  0
  4 36  1  0  0  0
  5 37  1  0  0  0
  7 38  1  0  0  0
 14 39  1  0  0  0
 14 40  1  0  0  0
 14 41  1  0  0  0
 17 42  1  0  0  0
 17 43  1  0  0  0
 17 44  1  0  0  0
 18 45  1  0  0  0
 22 46  1  0  0  0
 22 47  1  0  0  0
 22 48  1  0  0  0
 28 49  1  0  0  0
 28 50  1  0  0  0
 28 51  1  0  0  0
 30 52  1  0  0  0
 31 53  1  0  0  0
 32 54  1  0  0  0
 33 55  1  0  0  0
M  END
$$$$
