4wf4_ligand
  -I-interpret- 

 27 28  0  0  0  0  0  0  0  0999 V2000
  -10.6750   19.3150   10.1950 C   0  0  0  0  0
   -9.2810   19.9260   10.1620 C   0  0  0  0  0
   -8.5340   20.1140    9.0150 C   0  0  0  0  0
   -8.8610   19.7830    7.4980 C   0  0  0  0  0
   -8.1180   20.3080    6.6470 O   0  0  0  0  0
   -9.8220   19.0200    7.2680 O   0  0  0  0  0
   -6.9920   20.8520    9.5020 S   0  0  0  0  0
   -7.4290   20.8670   11.2180 C   0  0  0  0  0
   -6.5400   21.3870   12.2760 C   0  0  0  0  0
   -5.1240   21.4410   12.1970 C   0  0  0  0  0
   -4.2980   21.9280   13.2180 C   0  0  0  0  0
   -4.8700   22.3980   14.3920 C   0  0  0  0  0
   -4.0460   22.9510   15.5650 C   0  0  0  0  0
   -2.8270   22.4850   15.5890 F   0  0  0  0  0
   -4.5960   22.6310   16.7000 F   0  0  0  0  0
   -3.9730   24.2560   15.5620 F   0  0  0  0  0
   -6.2330   22.3540   14.4980 C   0  0  0  0  0
   -7.0100   21.8720   13.4870 C   0  0  0  0  0
   -8.6580   20.3500   11.3900 N   0  0  0  0  0
  -11.3507   19.9218    9.5922 H   0  0  0  0  0
  -10.6363   18.3029    9.7921 H   0  0  0  0  0
  -11.0326   19.2843   11.2242 H   0  0  0  0  0
  -10.2264   18.7574    8.0981 H   0  0  0  0  0
   -4.6494   21.0808   11.2843 H   0  0  0  0  0
   -3.2154   21.9378   13.0916 H   0  0  0  0  0
   -6.7084   22.7123   15.4111 H   0  0  0  0  0
   -8.0887   21.8675   13.6433 H   0  0  0  0  0
  1  2  1  0  0  0
  2  3  4  0  0  0
  2 19  4  0  0  0
  3  4  1  0  0  0
  3  7  4  0  0  0
  4  5  2  0  0  0
  4  6  1  0  0  0
  7  8  4  0  0  0
  8  9  1  0  0  0
  8 19  4  0  0  0
  9 10  4  0  0  0
  9 18  4  0  0  0
 10 11  4  0  0  0
 11 12  4  0  0  0
 12 13  1  0  0  0
 12 17  4  0  0  0
 13 14  1  0  0  0
 13 15  1  0  0  0
 13 16  1  0  0  0
 17 18  4  0  0  0
  1 20  1  0  0  0
  1 21  1  0  0  0
  1 22  1  0  0  0
  6 23  1  0  0  0
 10 24  1  0  0  0
 11 25  1  0  0  0
 17 26  1  0  0  0
 18 27  1  0  0  0
M  END
$$$$
