1tkb_ligand
  -I-interpret- 

 46 47  0  0  0  0  0  0  0  0999 V2000
   15.1510   71.6520   26.5620 C   0  0  0  0  0
   14.1810   72.6030   26.0860 C   0  0  0  0  0
   12.8320   72.1330   25.7590 C   0  0  0  0  0
   14.4520   73.9070   26.1670 N   0  0  0  0  0
   15.7290   74.3340   26.3680 C   0  0  0  0  0
   15.8540   75.6140   26.4240 N   0  0  0  0  0
   16.8080   73.4460   26.6790 C   0  0  0  0  0
   16.4900   72.1430   26.8570 C   0  0  0  0  0
   18.1730   73.9330   27.1460 C   0  0  0  0  0
   19.0730   74.5190   26.0850 N   0  3  0  0  0
   18.9490   75.7740   25.6560 C   0  0  0  0  0
   19.7640   76.0410   24.2240 S   0  0  0  0  0
   20.2260   74.4020   24.1630 C   0  0  0  0  0
   19.8890   73.7600   25.3340 C   0  0  0  0  0
   19.9100   72.2680   25.5410 C   0  0  0  0  0
   20.5940   73.7700   22.8440 C   0  0  0  0  0
   21.6260   74.4860   22.0240 C   0  0  0  0  0
   20.8100   75.4840   21.4380 O   0  0  0  0  0
   20.9480   76.2430   20.0660 P   0  0  0  0  0
   19.5300   76.6030   19.7350 O   0  0  0  0  0
   21.7440   75.5680   18.9890 O   0  0  0  0  0
   21.7210   77.6040   20.3090 O   0  0  0  0  0
   23.1120   78.2230   19.9440 P   0  0  0  0  0
   22.8750   79.4920   20.6290 O   0  0  0  0  0
   23.1200   78.0370   18.4620 O   0  0  0  0  0
   24.1110   77.3580   20.5720 O   0  0  0  0  0
   14.8926   70.6017   26.6969 H   0  0  0  0  0
   12.8913   71.3819   24.9713 H   0  0  0  0  0
   12.3761   71.6950   26.6469 H   0  0  0  0  0
   12.2288   72.9738   25.4164 H   0  0  0  0  0
   15.0339   76.2115   26.3205 H   0  0  0  0  0
   16.7732   76.0307   26.5719 H   0  0  0  0  0
   17.2467   71.4509   27.2264 H   0  0  0  0  0
   18.6918   73.0563   27.5337 H   0  0  0  0  0
   17.9816   74.7353   27.8586 H   0  0  0  0  0
   18.3792   76.5406   26.1812 H   0  0  0  0  0
   20.2058   72.0489   26.5670 H   0  0  0  0  0
   18.9157   71.8625   25.3537 H   0  0  0  0  0
   20.6236   71.8168   24.8516 H   0  0  0  0  0
   19.6826   73.7664   22.2462 H   0  0  0  0  0
   21.0215   72.7966   23.0844 H   0  0  0  0  0
   22.1565   73.8559   21.3102 H   0  0  0  0  0
   22.4735   74.8682   22.5930 H   0  0  0  0  0
   19.1229   77.0263   20.4944 H   0  0  0  0  0
   23.2976   77.1161   18.2572 H   0  0  0  0  0
   24.2022   76.5516   20.0591 H   0  0  0  0  0
  8  1  4  0  0  0
  1  2  4  0  0  0
  2  4  4  0  0  0
  2  3  1  0  0  0
  4  5  4  0  0  0
  5  7  4  0  0  0
  5  6  1  0  0  0
  7  9  1  0  0  0
  7  8  4  0  0  0
  9 10  1  0  0  0
 10 14  4  0  0  0
 10 11  4  0  0  0
 11 12  4  0  0  0
 12 13  4  0  0  0
 13 16  1  0  0  0
 13 14  4  0  0  0
 14 15  1  0  0  0
 16 17  1  0  0  0
 17 18  1  0  0  0
 18 19  1  0  0  0
 19 22  1  0  0  0
 19 21  2  0  0  0
 19 20  1  0  0  0
 22 23  1  0  0  0
 23 26  1  0  0  0
 23 25  1  0  0  0
 23 24  2  0  0  0
  1 27  1  0  0  0
  3 28  1  0  0  0
  3 29  1  0  0  0
  3 30  1  0  0  0
  6 31  1  0  0  0
  6 32  1  0  0  0
  8 33  1  0  0  0
  9 34  1  0  0  0
  9 35  1  0  0  0
 11 36  1  0  0  0
 15 37  1  0  0  0
 15 38  1  0  0  0
 15 39  1  0  0  0
 16 40  1  0  0  0
 16 41  1  0  0  0
 17 42  1  0  0  0
 17 43  1  0  0  0
 20 44  1  0  0  0
 25 45  1  0  0  0
 26 46  1  0  0  0
M  END
$$$$
