4f70_ligand
  -I-interpret- 

 60 62  0  0  0  0  0  0  0  0999 V2000
   40.3670  -23.2770  102.2170 O   0  0  0  0  0
   40.7510  -22.1470  102.3700 C   0  0  0  0  0
   40.4270  -21.4030  103.5100 N   0  0  0  0  0
   39.5450  -21.8350  104.5590 C   0  0  0  0  0
   39.0660  -23.1090  104.8110 C   0  0  0  0  0
   38.1870  -23.0130  105.8690 C   0  0  0  0  0
   37.3620  -24.0890  106.5910 C   0  0  0  0  0
   35.9550  -23.4910  106.8900 C   0  0  0  0  0
   38.0900  -24.4400  107.9120 C   0  0  0  0  0
   37.2010  -25.3550  105.7120 C   0  0  0  0  0
   38.1650  -21.7210  106.2200 N   0  0  0  0  0
   38.9340  -21.0510  105.4850 N   0  0  0  0  0
   39.0020  -19.5940  105.6970 C   0  0  0  0  0
   39.0950  -19.0160  106.9670 C   0  0  0  0  0
   38.8820  -18.7790  104.5740 C   0  0  0  0  0
   38.9070  -17.4010  104.6940 C   0  0  0  0  0
   39.0190  -16.8240  105.9480 C   0  0  0  0  0
   39.0380  -15.3240  106.0410 C   0  0  0  0  0
   39.1130  -17.6300  107.0920 C   0  0  0  0  0
   41.5670  -21.6090  101.3850 N   0  0  0  0  0
   42.0220  -22.2980  100.1570 C   0  0  0  0  0
   41.7900  -21.4670   98.8910 C   0  0  0  0  0
   40.6950  -21.9870   98.0350 N   0  3  0  0  0
   39.3380  -21.8570   98.6110 C   0  0  0  0  0
   38.2920  -22.3660   97.6030 C   0  0  0  0  0
   38.3700  -21.6380   96.3710 O   0  0  0  0  0
   39.6350  -21.7540   95.7320 C   0  0  0  0  0
   40.7740  -21.3630   96.6950 C   0  0  0  0  0
   40.8509  -20.4800  103.6039 H   0  0  0  0  0
   39.3338  -24.0186  104.2733 H   0  0  0  0  0
   35.3612  -24.2205  107.4408 H   0  0  0  0  0
   36.0658  -22.5857  107.4869 H   0  0  0  0  0
   35.4570  -23.2499  105.9508 H   0  0  0  0  0
   38.2069  -23.5374  108.5118 H   0  0  0  0  0
   37.5023  -25.1722  108.4658 H   0  0  0  0  0
   39.0713  -24.8566  107.6849 H   0  0  0  0  0
   36.5957  -26.0898  106.2429 H   0  0  0  0  0
   36.7106  -25.0862  104.7764 H   0  0  0  0  0
   38.1838  -25.7764  105.5006 H   0  0  0  0  0
   39.1530  -19.6472  107.8537 H   0  0  0  0  0
   38.7671  -19.2321  103.5893 H   0  0  0  0  0
   38.8389  -16.7726  103.8060 H   0  0  0  0  0
   39.8860  -14.9369  105.4760 H   0  0  0  0  0
   38.1118  -14.9239  105.6285 H   0  0  0  0  0
   39.1300  -15.0272  107.0858 H   0  0  0  0  0
   39.2000  -17.1717  108.0771 H   0  0  0  0  0
   41.8828  -20.6486  101.5201 H   0  0  0  0  0
   41.4505  -23.2211  100.0603 H   0  0  0  0  0
   43.0937  -22.4736  100.2498 H   0  0  0  0  0
   42.7082  -21.4995   98.3046 H   0  0  0  0  0
   41.5110  -20.4613   99.2054 H   0  0  0  0  0
   40.8422  -22.9938   97.9638 H   0  0  0  0  0
   39.1411  -20.8088   98.8359 H   0  0  0  0  0
   39.2761  -22.4490   99.5241 H   0  0  0  0  0
   37.2985  -22.2268   98.0293 H   0  0  0  0  0
   38.4854  -23.4193   97.3999 H   0  0  0  0  0
   39.6568  -21.0844   94.8722 H   0  0  0  0  0
   39.7778  -22.7890   95.4212 H   0  0  0  0  0
   41.7040  -21.7049   96.2408 H   0  0  0  0  0
   40.7073  -20.2852   96.8432 H   0  0  0  0  0
  1  2  2  0  0  0
  2  3  1  0  0  0
  2 20  1  0  0  0
  3  4  1  0  0  0
  4  5  4  0  0  0
  4 12  4  0  0  0
  5  6  4  0  0  0
  6  7  1  0  0  0
  6 11  4  0  0  0
  7  8  1  0  0  0
  7  9  1  0  0  0
  7 10  1  0  0  0
 11 12  4  0  0  0
 12 13  1  0  0  0
 13 14  4  0  0  0
 13 15  4  0  0  0
 14 19  4  0  0  0
 15 16  4  0  0  0
 16 17  4  0  0  0
 17 18  1  0  0  0
 17 19  4  0  0  0
 20 21  1  0  0  0
 21 22  1  0  0  0
 22 23  1  0  0  0
 23 24  1  0  0  0
 23 28  1  0  0  0
 24 25  1  0  0  0
 25 26  1  0  0  0
 26 27  1  0  0  0
 27 28  1  0  0  0
  3 29  1  0  0  0
  5 30  1  0  0  0
  8 31  1  0  0  0
  8 32  1  0  0  0
  8 33  1  0  0  0
  9 34  1  0  0  0
  9 35  1  0  0  0
  9 36  1  0  0  0
 10 37  1  0  0  0
 10 38  1  0  0  0
 10 39  1  0  0  0
 14 40  1  0  0  0
 15 41  1  0  0  0
 16 42  1  0  0  0
 18 43  1  0  0  0
 18 44  1  0  0  0
 18 45  1  0  0  0
 19 46  1  0  0  0
 20 47  1  0  0  0
 21 48  1  0  0  0
 21 49  1  0  0  0
 22 50  1  0  0  0
 22 51  1  0  0  0
 23 52  1  0  0  0
 24 53  1  0  0  0
 24 54  1  0  0  0
 25 55  1  0  0  0
 25 56  1  0  0  0
 27 57  1  0  0  0
 27 58  1  0  0  0
 28 59  1  0  0  0
 28 60  1  0  0  0
M  END
$$$$
