6ffi_ligand
  -I-interpret- 

 30 31  0  0  0  0  0  0  0  0999 V2000
  -24.8300   -8.5700   41.6220 C   0  0  0  0  0
  -24.8130   -6.7200   40.0570 N   0  0  0  0  0
  -22.0360   -3.8660   46.0400 C   0  0  0  0  0
  -22.6370   -2.5930   46.0690 C   0  0  0  0  0
  -23.6470   -2.2660   45.1400 C   0  0  0  0  0
  -24.0610   -3.2060   44.1780 C   0  0  0  0  0
  -24.3090   -0.5020   43.7800 C   0  0  0  0  0
  -24.6390   -7.2120   41.3010 C   0  0  0  0  0
  -25.1870   -7.5600   39.0780 C   0  0  0  0  0
  -25.4030   -8.9330   39.2980 C   0  0  0  0  0
  -25.2200   -9.4470   40.5950 C   0  0  0  0  0
  -25.3670   -6.9480   37.7070 C   0  0  0  0  0
  -24.2360   -6.2680   42.3270 C   0  0  0  0  0
  -23.8880   -5.4530   43.1630 C   0  0  0  0  0
  -23.4630   -4.4810   44.1510 C   0  0  0  0  0
  -22.4500   -4.8090   45.0780 C   0  0  0  0  0
  -24.2200   -1.0330   45.1760 O   0  0  0  0  0
  -24.6795   -8.9312   42.6393 H   0  0  0  0  0
  -21.2555   -4.1205   46.7570 H   0  0  0  0  0
  -22.3214   -1.8590   46.8104 H   0  0  0  0  0
  -24.8389   -2.9492   43.4589 H   0  0  0  0  0
  -23.3079   -0.4325   43.3545 H   0  0  0  0  0
  -24.9165   -1.1748   43.1747 H   0  0  0  0  0
  -24.7672    0.4868   43.7973 H   0  0  0  0  0
  -25.7062   -9.5858   38.4794 H   0  0  0  0  0
  -25.3778  -10.5059   40.7996 H   0  0  0  0  0
  -26.1358   -6.1767   37.7529 H   0  0  0  0  0
  -24.4255   -6.5054   37.3816 H   0  0  0  0  0
  -25.6689   -7.7223   37.0017 H   0  0  0  0  0
  -21.9864   -5.7951   45.0496 H   0  0  0  0  0
  8  1  4  0  0  0
  1 11  4  0  0  0
  8  2  4  0  0  0
  2  9  4  0  0  0
  4  3  4  0  0  0
  3 16  4  0  0  0
  5  4  4  0  0  0
  6  5  4  0  0  0
  5 17  1  0  0  0
 15  6  4  0  0  0
 17  7  1  0  0  0
 13  8  1  0  0  0
  9 10  4  0  0  0
  9 12  1  0  0  0
 11 10  4  0  0  0
 14 13  3  0  0  0
 14 15  1  0  0  0
 15 16  4  0  0  0
  1 18  1  0  0  0
  3 19  1  0  0  0
  4 20  1  0  0  0
  6 21  1  0  0  0
  7 22  1  0  0  0
  7 23  1  0  0  0
  7 24  1  0  0  0
 10 25  1  0  0  0
 11 26  1  0  0  0
 12 27  1  0  0  0
 12 28  1  0  0  0
 12 29  1  0  0  0
 16 30  1  0  0  0
M  END
$$$$
