4u5j_ligand
  -I-interpret- 

 43 46  0  0  0  0  0  0  0  0999 V2000
   -9.9220   26.9370    7.9160 C   0  0  0  0  0
  -10.2330   28.5000    7.8030 C   0  0  0  0  0
  -11.2460   28.6150    6.9090 C   0  0  0  0  0
  -11.9880   27.1340    6.7970 C   0  0  0  0  0
  -11.0620   26.1780    7.1160 C   0  0  0  0  0
  -10.4760   25.4700    5.8710 C   0  0  0  0  0
  -11.5650   24.6940    5.1580 C   0  0  0  0  0
  -11.4280   23.2100    5.4960 C   0  0  0  0  0
  -12.5950   22.7910    6.1840 N   0  3  0  0  0
   -9.8050   26.3380    4.9580 N   0  0  0  0  0
   -8.4850   26.5440    4.9920 C   0  0  0  0  0
  -10.3460   27.0060    3.9620 N   0  0  0  0  0
   -9.4100   27.7040    3.3000 C   0  0  0  0  0
   -8.1570   27.4300    3.9270 C   0  0  0  0  0
   -6.7910   27.9610    3.6250 C   0  0  0  0  0
   -6.6240   29.0140    2.8050 N   0  0  0  0  0
   -5.4140   29.5000    2.5700 C   0  0  0  0  0
   -4.3250   28.9760    3.1280 N   0  0  0  0  0
   -4.4000   27.8950    3.9890 C   0  0  0  0  0
   -5.6420   27.3540    4.2710 C   0  0  0  0  0
   -5.4050   26.2520    5.1970 C   0  0  0  0  0
   -4.0180   26.2290    5.3960 C   0  0  0  0  0
   -3.4550   27.1960    4.6820 N   0  0  0  0  0
   -9.9074   26.6212    8.9592 H   0  0  0  0  0
   -8.9410   26.7080    7.4997 H   0  0  0  0  0
   -9.7330   29.3088    8.3358 H   0  0  0  0  0
  -11.5230   29.5166    6.3627 H   0  0  0  0  0
  -12.3645   26.9744    5.7866 H   0  0  0  0  0
  -12.8361   27.0826    7.4798 H   0  0  0  0  0
  -11.5256   25.3854    7.7034 H   0  0  0  0  0
   -9.7084   24.7925    6.2450 H   0  0  0  0  0
  -11.4691   24.8343    4.0813 H   0  0  0  0  0
  -12.5419   25.0540    5.4807 H   0  0  0  0  0
  -10.5512   23.0526    6.1241 H   0  0  0  0  0
  -11.3100   22.6309    4.5801 H   0  0  0  0  0
  -12.5149   21.8008    6.4151 H   0  0  0  0  0
  -12.6964   23.3343    7.0413 H   0  0  0  0  0
  -13.4102   22.9376    5.5888 H   0  0  0  0  0
   -7.7851   26.1113    5.7069 H   0  0  0  0  0
   -9.5756   28.3578    2.4437 H   0  0  0  0  0
   -5.3072   30.3535    1.9005 H   0  0  0  0  0
   -6.1479   25.5884    5.6395 H   0  0  0  0  0
   -3.4849   25.5268    6.0369 H   0  0  0  0  0
  1  2  1  0  0  0
  1  5  1  0  0  0
  2  3  2  0  0  0
  3  4  1  0  0  0
  4  5  1  0  0  0
  5  6  1  0  0  0
  6  7  1  0  0  0
  6 10  1  0  0  0
  7  8  1  0  0  0
  8  9  1  0  0  0
 10 11  4  0  0  0
 10 12  4  0  0  0
 11 14  4  0  0  0
 12 13  4  0  0  0
 13 14  4  0  0  0
 14 15  1  0  0  0
 15 16  4  0  0  0
 15 20  4  0  0  0
 16 17  4  0  0  0
 17 18  4  0  0  0
 18 19  4  0  0  0
 19 20  4  0  0  0
 19 23  4  0  0  0
 20 21  4  0  0  0
 21 22  4  0  0  0
 22 23  4  0  0  0
  1 24  1  0  0  0
  1 25  1  0  0  0
  2 26  1  0  0  0
  3 27  1  0  0  0
  4 28  1  0  0  0
  4 29  1  0  0  0
  5 30  1  0  0  0
  6 31  1  0  0  0
  7 32  1  0  0  0
  7 33  1  0  0  0
  8 34  1  0  0  0
  8 35  1  0  0  0
  9 36  1  0  0  0
  9 37  1  0  0  0
  9 38  1  0  0  0
 11 39  1  0  0  0
 13 40  1  0  0  0
 17 41  1  0  0  0
 21 42  1  0  0  0
 22 43  1  0  0  0
M  END
$$$$
