5lom_ligand
  -I-interpret- 

 42 42  0  0  0  0  0  0  0  0999 V2000
   39.5530  -64.3620   32.5440 O   0  0  0  0  0
   40.8780  -64.3320   33.1140 C   0  0  0  0  0
   40.9740  -63.4760   34.2920 C   0  0  0  0  0
   40.5500  -62.1030   33.8660 O   0  0  0  0  0
   42.2980  -63.4210   34.8770 C   0  0  0  0  0
   43.2310  -62.7010   34.0500 O   0  0  0  0  0
   42.8410  -64.8390   35.1320 C   0  0  0  0  0
   42.7710  -65.6300   33.9420 O   0  0  0  0  0
   41.4390  -65.7220   33.4240 C   0  0  0  0  0
   40.5890  -66.2780   34.3420 O   0  0  0  0  0
   41.5150  -66.5720   32.1550 C   0  0  0  0  0
   42.1390  -67.8860   32.4250 N   0  3  0  0  0
   42.0070  -68.7950   31.2730 C   0  0  0  0  0
   40.7110  -69.5570   31.3980 C   0  0  0  0  0
   40.3300  -70.3360   30.4690 O   0  0  0  0  0
   43.1280  -69.8350   31.2700 C   0  0  0  0  0
   43.3500  -70.5340   32.5910 C   0  0  0  0  0
   44.4480  -71.5550   32.6350 C   0  0  0  0  0
   44.9040  -72.0020   31.6030 O   0  0  0  0  0
   44.9560  -72.0140   33.8770 N   0  0  0  0  0
   40.0380  -69.4200   32.4440 O   0  0  0  0  0
   39.2589  -63.4642   32.3732 H   0  0  0  0  0
   41.4976  -63.8957   32.3305 H   0  0  0  0  0
   40.3341  -63.8919   35.0702 H   0  0  0  0  0
   39.6724  -62.1459   33.4793 H   0  0  0  0  0
   42.1972  -62.8874   35.8221 H   0  0  0  0  0
   42.8965  -61.8158   33.8882 H   0  0  0  0  0
   42.2373  -65.3132   35.9058 H   0  0  0  0  0
   43.8824  -64.7660   35.4454 H   0  0  0  0  0
   39.7056  -66.3275   33.9696 H   0  0  0  0  0
   42.1220  -66.0441   31.4195 H   0  0  0  0  0
   40.5024  -66.7377   31.7871 H   0  0  0  0  0
   41.6679  -68.3085   33.2250 H   0  0  0  0  0
   43.1317  -67.7401   32.6087 H   0  0  0  0  0
   42.0454  -68.1958   30.3633 H   0  0  0  0  0
   40.9672  -70.3121   29.7514 H   0  0  0  0  0
   44.0505  -69.3042   31.0347 H   0  0  0  0  0
   42.8444  -70.6028   30.5502 H   0  0  0  0  0
   42.4278  -71.0747   32.8039 H   0  0  0  0  0
   43.6345  -69.7557   33.2991 H   0  0  0  0  0
   45.6980  -72.7136   33.8973 H   0  0  0  0  0
   44.5794  -71.6445   34.7499 H   0  0  0  0  0
  1  2  1  0  0  0
  2  3  1  0  0  0
  2  9  1  0  0  0
  3  4  1  0  0  0
  3  5  1  0  0  0
  5  6  1  0  0  0
  5  7  1  0  0  0
  7  8  1  0  0  0
  8  9  1  0  0  0
  9 10  1  0  0  0
  9 11  1  0  0  0
 11 12  1  0  0  0
 12 13  1  0  0  0
 13 14  1  0  0  0
 13 16  1  0  0  0
 14 15  1  0  0  0
 14 21  2  0  0  0
 16 17  1  0  0  0
 17 18  1  0  0  0
 18 19  2  0  0  0
 18 20  1  0  0  0
  1 22  1  0  0  0
  2 23  1  0  0  0
  3 24  1  0  0  0
  4 25  1  0  0  0
  5 26  1  0  0  0
  6 27  1  0  0  0
  7 28  1  0  0  0
  7 29  1  0  0  0
 10 30  1  0  0  0
 11 31  1  0  0  0
 11 32  1  0  0  0
 12 33  1  0  0  0
 12 34  1  0  0  0
 13 35  1  0  0  0
 15 36  1  0  0  0
 16 37  1  0  0  0
 16 38  1  0  0  0
 17 39  1  0  0  0
 17 40  1  0  0  0
 20 41  1  0  0  0
 20 42  1  0  0  0
M  END
$$$$
