5ct2_ligand
  -I-interpret- 

 34 34  0  0  0  0  0  0  0  0999 V2000
   19.1960   17.2830   34.9300 S   0  0  0  0  0
   20.3980   18.1630   34.8120 O   0  0  0  0  0
   19.5430   15.8550   34.6410 O   0  0  0  0  0
   18.5800   17.4270   36.2230 O   0  0  0  0  0
   18.0090   17.7950   33.6340 C   0  0  0  0  0
   17.0630   16.6520   33.2650 C   0  0  0  0  0
   15.8030   17.1730   32.5910 C   0  0  0  0  0
   15.4950   16.2750   31.4650 N   0  3  0  0  0
   14.0950   15.8510   31.3660 C   0  0  0  0  0
   13.9690   15.0320   30.0630 C   0  0  0  0  0
   12.5360   14.7890   29.6110 C   0  0  0  0  0
   11.7130   16.0770   29.5560 C   0  0  0  0  0
   11.7330   16.7760   30.9160 C   0  0  0  0  0
   13.1690   17.1020   31.3410 C   0  0  0  0  0
   18.7553   15.3125   34.7235 H   0  0  0  0  0
   18.5691   18.0830   32.7444 H   0  0  0  0  0
   17.4165   18.6268   34.0150 H   0  0  0  0  0
   16.7774   16.1296   34.1780 H   0  0  0  0  0
   17.5772   15.9861   32.5719 H   0  0  0  0  0
   15.9568   18.1912   32.2336 H   0  0  0  0  0
   14.9742   17.1928   33.2987 H   0  0  0  0  0
   16.0469   15.4290   31.6069 H   0  0  0  0  0
   15.7038   16.7940   30.6121 H   0  0  0  0  0
   13.7948   15.2445   32.2204 H   0  0  0  0  0
   14.4147   14.0558   30.2538 H   0  0  0  0  0
   14.4605   15.6041   29.2761 H   0  0  0  0  0
   12.0652   14.1195   30.3309 H   0  0  0  0  0
   12.5671   14.3666   28.6067 H   0  0  0  0  0
   10.6832   15.8312   29.2966 H   0  0  0  0  0
   12.1420   16.7424   28.8068 H   0  0  0  0  0
   11.2894   16.1123   31.6582 H   0  0  0  0  0
   11.1695   17.7060   30.8409 H   0  0  0  0  0
   13.5789   17.8040   30.6148 H   0  0  0  0  0
   13.1320   17.5079   32.3519 H   0  0  0  0  0
  1  2  2  0  0  0
  1  3  1  0  0  0
  1  4  2  0  0  0
  1  5  1  0  0  0
  5  6  1  0  0  0
  6  7  1  0  0  0
  7  8  1  0  0  0
  8  9  1  0  0  0
  9 10  1  0  0  0
  9 14  1  0  0  0
 10 11  1  0  0  0
 11 12  1  0  0  0
 12 13  1  0  0  0
 13 14  1  0  0  0
  3 15  1  0  0  0
  5 16  1  0  0  0
  5 17  1  0  0  0
  6 18  1  0  0  0
  6 19  1  0  0  0
  7 20  1  0  0  0
  7 21  1  0  0  0
  8 22  1  0  0  0
  8 23  1  0  0  0
  9 24  1  0  0  0
 10 25  1  0  0  0
 10 26  1  0  0  0
 11 27  1  0  0  0
 11 28  1  0  0  0
 12 29  1  0  0  0
 12 30  1  0  0  0
 13 31  1  0  0  0
 13 32  1  0  0  0
 14 33  1  0  0  0
 14 34  1  0  0  0
M  END
$$$$
