4hzz_ligand
  -I-interpret- 

 40 40  0  0  0  0  0  0  0  0999 V2000
    5.3120   30.5480   38.4730 C   0  0  0  0  0
    4.5250   29.7390   38.9070 O   0  0  0  0  0
    5.0830   31.8970   38.4180 O   0  0  0  0  0
    6.5870   30.0950   37.9010 C   0  0  0  0  0
    6.9330   28.6040   37.8320 C   0  0  0  0  0
    7.9470   28.2170   36.8090 C   0  0  0  0  0
    8.9890   29.2350   36.3720 C   0  0  0  0  0
    9.9510   28.8640   35.3890 N   0  0  0  0  0
   11.2100   28.2800   35.6550 C   0  0  0  0  0
   11.6360   28.1630   36.7870 O   0  0  0  0  0
   12.0150   27.9100   34.4510 C   0  0  0  0  0
    8.6490   30.7230   36.4130 C   0  0  0  0  0
    7.3880   31.1590   37.1490 C   0  0  0  0  0
    9.6490   31.6660   36.3150 O   0  0  0  0  0
    9.9930   32.1750   35.0560 C   0  0  0  0  0
    8.9340   33.0420   34.4270 C   0  0  0  0  0
   11.3550   32.8030   35.1500 C   0  0  0  0  0
   12.4360   31.9080   35.6930 C   0  0  0  0  0
    8.5970   34.3150   35.1380 C   0  0  0  0  0
    8.3350   26.8410   36.8400 N   0  0  0  0  0
    5.8473   32.3349   38.0363 H   0  0  0  0  0
    6.4666   27.8710   38.4903 H   0  0  0  0  0
    9.7112   29.0340   34.4123 H   0  0  0  0  0
   12.9257   28.5085   34.4264 H   0  0  0  0  0
   12.2749   26.8526   34.5002 H   0  0  0  0  0
   11.4294   28.1001   33.5515 H   0  0  0  0  0
    7.0658   32.2002   37.1398 H   0  0  0  0  0
   10.0483   31.3508   34.3449 H   0  0  0  0  0
    8.0205   32.4474   34.4271 H   0  0  0  0  0
    9.3267   33.3368   33.4539 H   0  0  0  0  0
   11.2663   33.6417   35.8406 H   0  0  0  0  0
   11.6486   33.0681   34.1343 H   0  0  0  0  0
   12.1699   31.5892   36.7008 H   0  0  0  0  0
   12.5397   31.0342   35.0497 H   0  0  0  0  0
   13.3787   32.4545   35.7205 H   0  0  0  0  0
    8.2352   34.0851   36.1402 H   0  0  0  0  0
    9.4885   34.9385   35.2063 H   0  0  0  0  0
    7.8228   34.8453   34.5836 H   0  0  0  0  0
    7.9226   26.2102   37.5273 H   0  0  0  0  0
    9.0242   26.4903   36.1748 H   0  0  0  0  0
  1  2  2  0  0  0
  1  3  1  0  0  0
  1  4  1  0  0  0
  4  5  4  0  0  0
  4 13  4  0  0  0
  5  6  4  0  0  0
  6  7  4  0  0  0
  6 20  1  0  0  0
  7  8  1  0  0  0
  7 12  4  0  0  0
  8  9  1  0  0  0
  9 10  2  0  0  0
  9 11  1  0  0  0
 12 13  4  0  0  0
 12 14  1  0  0  0
 14 15  1  0  0  0
 15 16  1  0  0  0
 15 17  1  0  0  0
 16 19  1  0  0  0
 17 18  1  0  0  0
  3 21  1  0  0  0
  5 22  1  0  0  0
  8 23  1  0  0  0
 11 24  1  0  0  0
 11 25  1  0  0  0
 11 26  1  0  0  0
 13 27  1  0  0  0
 15 28  1  0  0  0
 16 29  1  0  0  0
 16 30  1  0  0  0
 17 31  1  0  0  0
 17 32  1  0  0  0
 18 33  1  0  0  0
 18 34  1  0  0  0
 18 35  1  0  0  0
 19 36  1  0  0  0
 19 37  1  0  0  0
 19 38  1  0  0  0
 20 39  1  0  0  0
 20 40  1  0  0  0
M  END
$$$$
