4tkh_ligand
  -I-interpret- 

 42 41  0  0  0  0  0  0  0  0999 V2000
   -5.7400  -16.5240    1.6760 C   0  0  0  0  0
   -6.8180  -15.8740    1.5940 O   0  0  0  0  0
   -4.7320  -16.2750    0.9200 O   0  0  0  0  0
   -5.5730  -17.6190    2.6660 C   0  0  0  0  0
   -6.7970  -18.0390    3.4260 C   0  0  0  0  0
   -6.6110  -19.1940    4.3790 C   0  0  0  0  0
   -7.9170  -19.7050    4.9840 C   0  0  0  0  0
   -7.7300  -20.7740    6.0510 C   0  0  0  0  0
   -6.9130  -21.9740    5.6780 C   0  0  0  0  0
   -7.5080  -22.7380    4.5150 C   0  0  0  0  0
   -6.5840  -23.8510    4.0480 C   0  0  0  0  0
   -7.1250  -24.6830    2.9780 C   0  0  0  0  0
   -7.4640  -24.1310    1.7270 C   0  0  0  0  0
   -6.6070  -23.1160    1.2270 C   0  0  0  0  0
   -6.7020  -22.8150   -0.2430 C   0  0  0  0  0
   -7.0310  -21.3840   -0.5520 C   0  0  0  0  0
   -4.0146  -16.8749    1.1372 H   0  0  0  0  0
   -4.8728  -17.2430    3.4119 H   0  0  0  0  0
   -5.2617  -18.4934    2.0945 H   0  0  0  0  0
   -7.5246  -18.3658    2.6831 H   0  0  0  0  0
   -7.0927  -17.1829    4.0324 H   0  0  0  0  0
   -5.9863  -18.8425    5.2001 H   0  0  0  0  0
   -6.1693  -20.0152    3.8145 H   0  0  0  0  0
   -8.4937  -20.1536    4.1751 H   0  0  0  0  0
   -8.4063  -18.8554    5.4604 H   0  0  0  0  0
   -8.7285  -21.1513    6.2717 H   0  0  0  0  0
   -7.1917  -20.2896    6.8657 H   0  0  0  0  0
   -6.8814  -22.6414    6.5392 H   0  0  0  0  0
   -5.9220  -21.6289    5.3832 H   0  0  0  0  0
   -7.6588  -22.0447    3.6876 H   0  0  0  0  0
   -8.4483  -23.1835    4.8397 H   0  0  0  0  0
   -6.4159  -24.5044    4.9041 H   0  0  0  0  0
   -5.6855  -23.3743    3.6562 H   0  0  0  0  0
   -8.0758  -25.0379    3.3756 H   0  0  0  0  0
   -6.3159  -25.3766    2.7492 H   0  0  0  0  0
   -8.3398  -24.4663    1.1714 H   0  0  0  0  0
   -5.9142  -22.5812    1.8767 H   0  0  0  0  0
   -7.5083  -23.4270   -0.6473 H   0  0  0  0  0
   -5.7256  -23.0243   -0.6800 H   0  0  0  0  0
   -7.9933  -21.1296   -0.1077 H   0  0  0  0  0
   -6.2566  -20.7373   -0.1395 H   0  0  0  0  0
   -7.0813  -21.2492   -1.6325 H   0  0  0  0  0
  1  2  2  0  0  0
  1  3  1  0  0  0
  1  4  1  0  0  0
  4  5  1  0  0  0
  5  6  1  0  0  0
  6  7  1  0  0  0
  7  8  1  0  0  0
  8  9  1  0  0  0
  9 10  1  0  0  0
 10 11  1  0  0  0
 11 12  1  0  0  0
 12 13  1  0  0  0
 13 14  2  0  0  0
 14 15  1  0  0  0
 15 16  1  0  0  0
  3 17  1  0  0  0
  4 18  1  0  0  0
  4 19  1  0  0  0
  5 20  1  0  0  0
  5 21  1  0  0  0
  6 22  1  0  0  0
  6 23  1  0  0  0
  7 24  1  0  0  0
  7 25  1  0  0  0
  8 26  1  0  0  0
  8 27  1  0  0  0
  9 28  1  0  0  0
  9 29  1  0  0  0
 10 30  1  0  0  0
 10 31  1  0  0  0
 11 32  1  0  0  0
 11 33  1  0  0  0
 12 34  1  0  0  0
 12 35  1  0  0  0
 13 36  1  0  0  0
 14 37  1  0  0  0
 15 38  1  0  0  0
 15 39  1  0  0  0
 16 40  1  0  0  0
 16 41  1  0  0  0
 16 42  1  0  0  0
M  END
$$$$
