3tic_ligand
  -I-interpret- 

 45 45  0  0  0  0  0  0  0  0999 V2000
   13.8540  -29.1530   49.8070 C   0  0  0  0  0
   13.6200  -30.2020   50.2090 O   0  0  0  0  0
   15.0610  -28.7400   49.3930 O   0  0  0  0  0
   12.7930  -28.0930   49.9100 C   0  0  0  0  0
   13.0170  -26.7640   49.1270 C   0  0  0  0  0
   11.8780  -25.7830   49.1020 C   0  0  0  0  0
   10.6100  -26.2220   49.7770 C   0  0  0  0  0
    9.4490  -25.4420   49.6310 N   0  0  0  0  0
    9.1020  -24.2530   50.2530 C   0  0  0  0  0
    9.6850  -23.7680   51.1120 O   0  0  0  0  0
    7.8780  -23.6110   49.6690 C   0  0  0  0  0
   10.3910  -27.6860   50.1150 C   0  0  0  0  0
   11.4340  -28.5830   50.0200 O   0  0  0  0  0
    9.3310  -28.1210   51.1180 C   0  0  0  0  0
    9.7350  -27.8390   52.3520 O   0  0  0  0  0
    8.9220  -29.5600   50.9640 C   0  0  0  0  0
    8.7140  -29.9360   49.7230 O   0  0  0  0  0
    7.8680  -29.9990   51.9340 C   0  0  0  0  0
    6.7540  -29.3200   51.8070 O   0  0  0  0  0
   12.2010  -24.4090   49.0650 N   0  0  0  0  0
   11.5470  -23.4410   48.2690 C   0  0  0  0  0
   10.6250  -23.7260   47.3880 N   0  0  0  0  0
   11.9530  -22.2250   48.4580 N   0  0  0  0  0
   15.0033  -27.8267   49.1030 H   0  0  0  0  0
   12.9724  -27.7065   50.9133 H   0  0  0  0  0
   13.1805  -27.0551   48.0894 H   0  0  0  0  0
   13.8359  -26.2548   49.6352 H   0  0  0  0  0
   11.5433  -25.8497   48.0668 H   0  0  0  0  0
   10.9775  -25.8790   50.7441 H   0  0  0  0  0
    8.7614  -25.8044   48.9705 H   0  0  0  0  0
    7.1228  -23.4972   50.4467 H   0  0  0  0  0
    8.1391  -22.6316   49.2682 H   0  0  0  0  0
    7.4860  -24.2395   48.8693 H   0  0  0  0  0
    9.8618  -27.7585   49.1649 H   0  0  0  0  0
    8.4259  -27.5505   50.9096 H   0  0  0  0  0
    9.0625  -28.1157   52.9787 H   0  0  0  0  0
    9.8064  -30.1260   51.2565 H   0  0  0  0  0
    8.4582  -30.8612   49.7087 H   0  0  0  0  0
    8.2491  -29.8340   52.9418 H   0  0  0  0  0
    7.6464  -31.0480   51.7375 H   0  0  0  0  0
    6.1127  -29.6368   52.4473 H   0  0  0  0  0
   12.9662  -24.0899   49.6592 H   0  0  0  0  0
   10.2066  -22.9825   46.8289 H   0  0  0  0  0
   10.3237  -24.6920   47.2594 H   0  0  0  0  0
   12.6885  -22.0328   49.1381 H   0  0  0  0  0
  1  2  2  0  0  0
  1  3  1  0  0  0
  1  4  1  0  0  0
  4  5  1  0  0  0
  4 13  1  0  0  0
  5  6  1  0  0  0
  6  7  1  0  0  0
  6 20  1  0  0  0
  7  8  1  0  0  0
  7 12  1  0  0  0
  8  9  1  0  0  0
  9 10  2  0  0  0
  9 11  1  0  0  0
 12 13  1  0  0  0
 12 14  1  0  0  0
 14 15  1  0  0  0
 14 16  1  0  0  0
 16 17  1  0  0  0
 16 18  1  0  0  0
 18 19  1  0  0  0
 20 21  1  0  0  0
 21 22  1  0  0  0
 21 23  2  0  0  0
  3 24  1  0  0  0
  4 25  1  0  0  0
  5 26  1  0  0  0
  5 27  1  0  0  0
  6 28  1  0  0  0
  7 29  1  0  0  0
  8 30  1  0  0  0
 11 31  1  0  0  0
 11 32  1  0  0  0
 11 33  1  0  0  0
 12 34  1  0  0  0
 14 35  1  0  0  0
 15 36  1  0  0  0
 16 37  1  0  0  0
 17 38  1  0  0  0
 18 39  1  0  0  0
 18 40  1  0  0  0
 19 41  1  0  0  0
 20 42  1  0  0  0
 22 43  1  0  0  0
 22 44  1  0  0  0
 23 45  1  0  0  0
M  END
$$$$
