6qqv_ligand
  -I-interpret- 

 38 41  0  0  0  0  0  0  0  0999 V2000
  -22.0980  -19.2040   12.0460 C   0  0  0  0  0
  -24.4490  -18.8760   11.6380 C   0  0  0  0  0
  -25.6520  -21.0970   10.9190 C   0  0  0  0  0
  -20.3180  -17.3510   12.3140 C   0  0  0  0  0
  -18.9540  -17.3620   12.6110 C   0  0  0  0  0
  -23.9430  -20.7320    8.2270 N   0  0  0  0  0
  -23.2950  -21.6680    8.3260 C   0  0  0  0  0
  -22.4230  -22.9020    8.4420 C   0  0  0  0  0
  -22.2930  -23.6940    9.5930 C   0  0  0  0  0
  -21.4600  -24.8110    9.5560 C   0  0  0  0  0
  -20.7660  -25.1450    8.4110 C   0  0  0  0  0
  -20.8960  -24.3590    7.2820 C   0  0  0  0  0
  -21.7190  -23.2500    7.2980 C   0  0  0  0  0
  -22.9850  -23.4770   10.9290 C   0  0  0  0  0
  -23.8550  -22.3490   11.0030 N   0  0  0  0  0
  -23.4580  -21.0820   11.3580 C   0  0  0  0  0
  -22.1910  -20.5520   11.7160 C   0  0  0  0  0
  -23.2070  -18.3520   11.9990 C   0  0  0  0  0
  -24.5600  -20.2530   11.3220 C   0  0  0  0  0
  -25.1630  -22.3810   10.7420 C   0  0  0  0  0
  -20.7350  -18.6650   12.3610 C   0  0  0  0  0
  -18.5970  -18.6530   12.7870 N   0  0  0  0  0
  -19.6880  -19.4450   12.6230 N   0  0  0  0  0
  -18.0690  -16.2460   12.7120 N   0  0  0  0  0
  -25.3269  -18.2311   11.5994 H   0  0  0  0  0
  -26.6856  -20.7813   10.7773 H   0  0  0  0  0
  -20.9312  -16.4782   12.0897 H   0  0  0  0  0
  -21.3550  -25.4310   10.4463 H   0  0  0  0  0
  -20.1198  -26.0227    8.3973 H   0  0  0  0  0
  -20.3472  -24.6151    6.3757 H   0  0  0  0  0
  -21.8168  -22.6400    6.4000 H   0  0  0  0  0
  -22.1950  -23.3042   11.6598 H   0  0  0  0  0
  -23.6064  -24.3561   11.0996 H   0  0  0  0  0
  -21.3071  -21.1896   11.7320 H   0  0  0  0  0
  -23.1023  -17.2943   12.2409 H   0  0  0  0  0
  -25.7405  -23.2562   10.4443 H   0  0  0  0  0
  -18.4205  -15.3009   12.5585 H   0  0  0  0  0
  -17.0853  -16.3939   12.9376 H   0  0  0  0  0
  1 17  4  0  0  0
 18  1  4  0  0  0
  1 21  1  0  0  0
  2 18  4  0  0  0
 19  2  4  0  0  0
  3 19  4  0  0  0
 20  3  4  0  0  0
  4  5  4  0  0  0
 21  4  4  0  0  0
  5 22  4  0  0  0
  5 24  1  0  0  0
  7  6  3  0  0  0
  8  7  1  0  0  0
  9  8  4  0  0  0
  8 13  4  0  0  0
  9 10  4  0  0  0
 14  9  1  0  0  0
 10 11  4  0  0  0
 11 12  4  0  0  0
 13 12  4  0  0  0
 15 14  1  0  0  0
 15 16  4  0  0  0
 15 20  4  0  0  0
 16 17  4  0  0  0
 16 19  4  0  0  0
 21 23  4  0  0  0
 22 23  4  0  0  0
  2 25  1  0  0  0
  3 26  1  0  0  0
  4 27  1  0  0  0
 10 28  1  0  0  0
 11 29  1  0  0  0
 12 30  1  0  0  0
 13 31  1  0  0  0
 14 32  1  0  0  0
 14 33  1  0  0  0
 17 34  1  0  0  0
 18 35  1  0  0  0
 20 36  1  0  0  0
 24 37  1  0  0  0
 24 38  1  0  0  0
M  END
$$$$
