2ylp_ligand
  -I-interpret- 

 32 33  0  0  0  0  0  0  0  0999 V2000
   15.2720  -17.5170  -27.2950 O   0  0  0  0  0
   16.3300  -17.9240  -27.8080 C   0  0  0  0  0
   16.6260  -19.1370  -27.9140 O   0  0  0  0  0
   17.2520  -16.8630  -28.2850 C   0  0  0  0  0
   17.9540  -16.9460  -29.4880 C   0  0  0  0  0
   18.7890  -15.8990  -29.8430 C   0  0  0  0  0
   18.8740  -14.8050  -29.0190 C   0  0  0  0  0
   18.1700  -14.7350  -27.8340 C   0  0  0  0  0
   17.3460  -15.7650  -27.4640 C   0  0  0  0  0
   19.4740  -14.1710  -31.6550 S   0  0  0  0  0
   19.9340  -12.2450  -35.7860 C   0  0  0  0  0
   19.5990  -15.8520  -31.1140 C   0  0  0  0  0
   19.9070  -13.0510  -34.6470 C   0  0  0  0  0
   18.6430  -14.3410  -34.5580 Cl  0  0  0  0  0
   20.9110  -12.7870  -33.5580 C   0  0  0  0  0
   21.0130  -13.5780  -32.2690 C   0  0  0  0  0
   21.8350  -11.7650  -33.7380 C   0  0  0  0  0
   21.8060  -11.0040  -34.8990 C   0  0  0  0  0
   20.8750  -11.2240  -35.9160 C   0  0  0  0  0
   20.8870  -10.1860  -37.3970 Cl  0  0  0  0  0
   17.4832  -19.2202  -28.3381 H   0  0  0  0  0
   17.8476  -17.8166  -30.1351 H   0  0  0  0  0
   19.5133  -13.9707  -29.3075 H   0  0  0  0  0
   18.2697  -13.8597  -27.1921 H   0  0  0  0  0
   16.7759  -15.7146  -26.5363 H   0  0  0  0  0
   19.2109  -12.4156  -36.5836 H   0  0  0  0  0
   19.2268  -16.5515  -31.8625 H   0  0  0  0  0
   20.6337  -16.1535  -30.9511 H   0  0  0  0  0
   21.6314  -14.4509  -32.4779 H   0  0  0  0  0
   21.4211  -12.9066  -31.5135 H   0  0  0  0  0
   22.5808  -11.5612  -32.9697 H   0  0  0  0  0
   22.5373  -10.2050  -35.0210 H   0  0  0  0  0
  2  1  2  0  0  0
  2  3  1  0  0  0
  4  2  1  0  0  0
  5  4  4  0  0  0
  4  9  4  0  0  0
  6  5  4  0  0  0
  6  7  4  0  0  0
 12  6  1  0  0  0
  7  8  4  0  0  0
  8  9  4  0  0  0
 10 12  1  0  0  0
 16 10  1  0  0  0
 13 11  4  0  0  0
 11 19  4  0  0  0
 13 14  1  0  0  0
 15 13  4  0  0  0
 15 16  1  0  0  0
 15 17  4  0  0  0
 17 18  4  0  0  0
 18 19  4  0  0  0
 19 20  1  0  0  0
  3 21  1  0  0  0
  5 22  1  0  0  0
  7 23  1  0  0  0
  8 24  1  0  0  0
  9 25  1  0  0  0
 11 26  1  0  0  0
 12 27  1  0  0  0
 12 28  1  0  0  0
 16 29  1  0  0  0
 16 30  1  0  0  0
 17 31  1  0  0  0
 18 32  1  0  0  0
M  END
$$$$
