4wbo_ligand
  -I-interpret- 

 36 38  0  0  0  0  0  0  0  0999 V2000
   42.9610  -55.8460   -3.0460 N   0  0  0  0  0
   43.1430  -55.9260   -5.4710 N   0  0  0  0  0
   41.0230  -52.8920    4.5380 C   0  0  0  0  0
   42.4510  -53.3740    4.2920 C   0  0  0  0  0
   42.9640  -54.2260    5.4540 C   0  0  0  0  0
   42.5340  -54.0940    2.9980 C   0  0  0  0  0
   42.6240  -53.3200    1.8440 C   0  0  0  0  0
   42.7110  -53.9310    0.5940 C   0  0  0  0  0
   42.7090  -55.3210    0.5100 C   0  0  0  0  0
   42.6180  -56.0980    1.6590 C   0  0  0  0  0
   42.5310  -55.4900    2.9030 C   0  0  0  0  0
   42.8790  -55.2030   -1.8630 C   0  0  0  0  0
   43.0500  -55.1610   -4.2020 C   0  0  0  0  0
   43.0550  -53.7700   -4.2030 C   0  0  0  0  0
   42.9710  -53.0830   -2.9970 C   0  0  0  0  0
   42.8820  -53.8100   -1.8120 C   0  0  0  0  0
   42.7970  -53.1720   -0.5770 C   0  0  0  0  0
   43.1640  -53.0180   -5.4980 C   0  0  0  0  0
   42.7940  -55.9330   -0.7100 O   0  0  0  0  0
   42.7990  -51.9230   -0.5250 O   0  0  0  0  0
   43.0200  -53.6660   -6.5570 O   0  0  0  0  0
   43.4110  -51.7850   -5.4980 O   0  0  0  0  0
   43.1385  -56.9458   -5.4532 H   0  0  0  0  0
   43.2114  -55.4317   -6.3606 H   0  0  0  0  0
   40.7249  -52.2181    3.7348 H   0  0  0  0  0
   40.3506  -53.7496    4.5629 H   0  0  0  0  0
   40.9778  -52.3655    5.4913 H   0  0  0  0  0
   43.1030  -52.5024    4.2340 H   0  0  0  0  0
   42.3654  -55.1338    5.5292 H   0  0  0  0  0
   44.0065  -54.4904    5.2765 H   0  0  0  0  0
   42.8845  -53.6589    6.3815 H   0  0  0  0  0
   42.6264  -52.2325    1.9183 H   0  0  0  0  0
   42.6150  -57.1853    1.5826 H   0  0  0  0  0
   42.4605  -56.0986    3.8045 H   0  0  0  0  0
   42.9747  -51.9932   -2.9791 H   0  0  0  0  0
   43.4853  -51.4747   -4.5926 H   0  0  0  0  0
 12  1  4  0  0  0
  1 13  4  0  0  0
 13  2  1  0  0  0
  4  3  1  0  0  0
  4  5  1  0  0  0
  6  4  1  0  0  0
  7  6  4  0  0  0
 11  6  4  0  0  0
  8  7  4  0  0  0
  9  8  4  0  0  0
  8 17  1  0  0  0
  9 10  4  0  0  0
 19  9  1  0  0  0
 10 11  4  0  0  0
 12 16  4  0  0  0
 12 19  1  0  0  0
 13 14  4  0  0  0
 14 15  4  0  0  0
 14 18  1  0  0  0
 15 16  4  0  0  0
 16 17  1  0  0  0
 17 20  2  0  0  0
 18 21  2  0  0  0
 18 22  1  0  0  0
  2 23  1  0  0  0
  2 24  1  0  0  0
  3 25  1  0  0  0
  3 26  1  0  0  0
  3 27  1  0  0  0
  4 28  1  0  0  0
  5 29  1  0  0  0
  5 30  1  0  0  0
  5 31  1  0  0  0
  7 32  1  0  0  0
 10 33  1  0  0  0
 11 34  1  0  0  0
 15 35  1  0  0  0
 22 36  1  0  0  0
M  END
$$$$
