1hsl_ligand
  -I-interpret- 

 20 20  0  0  0  0  0  0  0  0999 V2000
  -22.6800  -32.9020   -2.9590 N   0  3  0  0  0
  -21.6600  -33.5270   -3.7890 C   0  0  0  0  0
  -21.2250  -34.7910   -3.1160 C   0  0  0  0  0
  -20.5050  -35.5460   -3.7350 O   0  0  0  0  0
  -20.3710  -32.6840   -4.0380 C   0  0  0  0  0
  -19.3770  -32.2070   -2.9570 C   0  0  0  0  0
  -18.1320  -31.7750   -3.2100 N   0  0  0  0  0
  -19.5990  -32.0440   -1.6040 C   0  0  0  0  0
  -17.6020  -31.3600   -2.0850 C   0  0  0  0  0
  -18.4900  -31.5260   -1.1520 N   0  0  0  0  0
  -21.6770  -35.0490   -1.9960 O   0  0  0  0  0
  -22.9918  -32.0365   -3.3996 H   0  0  0  0  0
  -23.4712  -33.5378   -2.8581 H   0  0  0  0  0
  -22.2890  -32.6953   -2.0398 H   0  0  0  0  0
  -22.1308  -33.6684   -4.7618 H   0  0  0  0  0
  -20.7844  -31.7409   -4.3955 H   0  0  0  0  0
  -19.7587  -33.3749   -4.6176 H   0  0  0  0  0
  -20.4983  -32.2922   -1.0403 H   0  0  0  0  0
  -16.6000  -30.9508   -1.9563 H   0  0  0  0  0
  -22.2190  -34.3163   -1.6943 H   0  0  0  0  0
  2  1  1  0  0  0
  2  5  1  0  0  0
  2  3  1  0  0  0
  3  4  2  0  0  0
  3 11  1  0  0  0
  5  6  1  0  0  0
  6  7  4  0  0  0
  6  8  4  0  0  0
  8 10  4  0  0  0
 10  9  4  0  0  0
  9  7  4  0  0  0
  1 12  1  0  0  0
  1 13  1  0  0  0
  1 14  1  0  0  0
  2 15  1  0  0  0
  5 16  1  0  0  0
  5 17  1  0  0  0
  8 18  1  0  0  0
  9 19  1  0  0  0
 11 20  1  0  0  0
M  END
$$$$
