6g33_ligand
  -I-interpret- 

 33 35  0  0  0  0  0  0  0  0999 V2000
   36.7360   47.7910   80.6740 O   0  0  0  0  0
   36.8830   48.8630   79.8060 C   0  0  0  0  0
   36.5320   48.4650   78.4040 C   0  0  0  0  0
   37.3150   47.3320   78.0010 O   0  0  0  0  0
   36.5650   46.5140   77.1320 C   0  0  0  0  0
   36.4550   45.2030   77.7500 N   0  0  0  0  0
   36.4490   44.9760   79.0800 C   0  0  0  0  0
   36.3600   43.6480   79.3180 C   0  0  0  0  0
   36.2690   42.9890   78.0780 C   0  0  0  0  0
   36.1530   41.6590   77.6200 C   0  0  0  0  0
   36.1500   41.4470   76.2920 N   0  0  0  0  0
   36.2310   42.4970   75.4870 C   0  0  0  0  0
   36.3230   43.7810   75.8020 N   0  0  0  0  0
   36.3430   43.9940   77.1140 C   0  0  0  0  0
   36.0220   40.6260   78.4320 N   0  0  0  0  0
   35.2240   47.2160   76.9150 C   0  0  0  0  0
   35.2840   48.0660   75.7920 O   0  0  0  0  0
   35.1040   48.0190   78.1990 C   0  0  0  0  0
   34.2620   49.1440   78.1370 O   0  0  0  0  0
   36.4740   42.6900   81.1570 I   0  0  0  0  0
   36.9655   48.0677   81.5642 H   0  0  0  0  0
   37.9216   49.1931   79.8280 H   0  0  0  0  0
   36.2151   49.6646   80.1214 H   0  0  0  0  0
   36.7158   49.3728   77.8294 H   0  0  0  0  0
   37.0222   46.3645   76.1539 H   0  0  0  0  0
   36.5072   45.7476   79.8476 H   0  0  0  0  0
   36.2205   42.2739   74.4201 H   0  0  0  0  0
   36.0010   40.7703   79.4415 H   0  0  0  0  0
   35.9418   39.6838   78.0497 H   0  0  0  0  0
   34.3859   46.5455   76.7251 H   0  0  0  0  0
   35.3594   47.5364   74.9949 H   0  0  0  0  0
   34.6551   47.4220   78.9929 H   0  0  0  0  0
   34.2520   49.5823   78.9911 H   0  0  0  0  0
  1  2  1  0  0  0
  2  3  1  0  0  0
  3  4  1  0  0  0
  3 18  1  0  0  0
  4  5  1  0  0  0
  5  6  1  0  0  0
  5 16  1  0  0  0
  6  7  4  0  0  0
  6 14  4  0  0  0
  7  8  4  0  0  0
  8  9  4  0  0  0
  8 20  1  0  0  0
  9 10  4  0  0  0
  9 14  4  0  0  0
 10 11  4  0  0  0
 10 15  1  0  0  0
 11 12  4  0  0  0
 12 13  4  0  0  0
 13 14  4  0  0  0
 16 17  1  0  0  0
 16 18  1  0  0  0
 18 19  1  0  0  0
  1 21  1  0  0  0
  2 22  1  0  0  0
  2 23  1  0  0  0
  3 24  1  0  0  0
  5 25  1  0  0  0
  7 26  1  0  0  0
 12 27  1  0  0  0
 15 28  1  0  0  0
 15 29  1  0  0  0
 16 30  1  0  0  0
 17 31  1  0  0  0
 18 32  1  0  0  0
 19 33  1  0  0  0
M  END
$$$$
