5ovp_ligand
  -I-interpret- 

104103  0  0  0  0  0  0  0  0999 V2000
  -10.2070  -12.7300   -0.9620 C   0  0  0  0  0
  -10.3350  -13.5130   -0.0250 O   0  0  0  0  0
  -10.2090  -13.2340   -2.3760 C   0  0  0  0  0
  -10.0450  -11.4260   -0.8710 N   0  0  0  0  0
  -10.0200  -10.7610    0.4090 C   0  0  0  0  0
  -11.1130   -9.6960    0.4910 C   0  0  0  0  0
  -11.6220   -9.1900   -0.4930 O   0  0  0  0  0
   -8.6570  -10.0800    0.6490 C   0  0  0  0  0
   -7.4650  -11.0000    0.6690 C   0  0  0  0  0
   -6.1740  -10.2820    0.9300 C   0  0  0  0  0
   -5.9070   -9.2330    0.3690 O   0  0  0  0  0
   -5.3640  -10.8380    1.8160 N   0  0  0  0  0
  -11.4690   -9.3720    1.7270 N   0  0  0  0  0
  -12.3360   -8.2530    2.0540 C   0  0  0  0  0
  -11.5440   -7.2030    2.8170 C   0  0  0  0  0
  -10.5140   -7.4920    3.4370 O   0  0  0  0  0
  -13.4980   -8.6910    2.9490 C   0  0  0  0  0
  -14.7370   -9.2570    2.2720 C   0  0  0  0  0
  -14.4110  -10.5950    1.6430 C   0  0  0  0  0
  -15.8700   -9.3810    3.2820 C   0  0  0  0  0
  -12.0520   -5.9750    2.7740 N   0  0  0  0  0
  -11.4380   -4.8300    3.4520 C   0  0  0  0  0
  -12.5620   -4.0270    4.0890 C   0  0  0  0  0
  -13.5110   -3.6230    3.4000 O   0  0  0  0  0
  -10.6270   -3.9290    2.4990 C   0  0  0  0  0
   -9.9150   -2.8140    3.3040 C   0  0  0  0  0
   -9.6190   -4.7610    1.6750 C   0  0  0  0  0
  -12.4830   -3.8270    5.4180 N   0  0  0  0  0
  -13.5170   -3.1340    6.1700 C   0  0  0  0  0
  -12.9050   -2.0510    7.0430 C   0  0  0  0  0
  -11.9580   -2.3140    7.7950 O   0  0  0  0  0
  -14.2870   -4.1300    7.0240 C   0  0  0  0  0
  -14.7350   -5.2090    6.1930 O   0  0  0  0  0
  -15.4970   -3.4520    7.6870 C   0  0  0  0  0
  -13.4810   -0.8510    6.9870 N   0  0  0  0  0
  -13.0810    0.2430    7.8760 C   0  0  0  0  0
  -13.8530    0.1330    9.1820 C   0  0  0  0  0
  -15.0820    0.0490    9.1660 O   0  0  0  0  0
  -13.4130    1.5780    7.2050 C   0  0  0  0  0
  -13.0160    2.6880    7.9890 O   0  0  0  0  0
  -13.1360    0.1130   10.3160 N   0  0  0  0  0
  -13.7550   -0.1110   11.6260 C   0  0  0  0  0
  -13.3360    0.9380   12.6230 C   0  0  0  0  0
  -13.9820    1.0360   13.6900 O   0  0  0  0  0
  -13.3920   -1.5060   12.1490 C   0  0  0  0  0
  -14.0130   -2.6190   11.3140 C   0  0  0  0  0
  -13.3710   -3.9350   11.6540 C   0  0  0  0  0
  -15.5310   -2.6900   11.5280 C   0  0  0  0  0
  -12.3550    1.6750   12.4340 O   0  0  0  0  0
   -9.3882  -13.9385   -2.5104 H   0  0  0  0  0
  -11.1557  -13.7338   -2.5809 H   0  0  0  0  0
  -10.0845  -12.3944   -3.0598 H   0  0  0  0  0
   -9.9350  -10.8754   -1.7225 H   0  0  0  0  0
  -10.1898  -11.5220    1.1707 H   0  0  0  0  0
   -8.7100   -9.6204    1.6359 H   0  0  0  0  0
   -8.5036   -9.3925   -0.1828 H   0  0  0  0  0
   -7.3914  -11.4691   -0.3121 H   0  0  0  0  0
   -7.6139  -11.7186    1.4750 H   0  0  0  0  0
   -4.4796  -10.3878    2.0515 H   0  0  0  0  0
   -5.6239  -11.7169    2.2636 H   0  0  0  0  0
  -11.1128   -9.9426    2.4938 H   0  0  0  0  0
  -12.7259   -7.8552    1.1171 H   0  0  0  0  0
  -13.8311   -7.7866    3.4582 H   0  0  0  0  0
  -13.1045   -9.5017    3.5622 H   0  0  0  0  0
  -15.0630   -8.5806    1.4819 H   0  0  0  0  0
  -13.6224  -10.4642    0.9020 H   0  0  0  0  0
  -14.0742  -11.2859    2.4158 H   0  0  0  0  0
  -15.3026  -10.9948    1.1599 H   0  0  0  0  0
  -15.5646  -10.0475    4.0886 H   0  0  0  0  0
  -16.1008   -8.3969    3.6898 H   0  0  0  0  0
  -16.7527   -9.7871    2.7879 H   0  0  0  0  0
  -12.9100   -5.8226    2.2438 H   0  0  0  0  0
  -10.7302   -5.2006    4.1934 H   0  0  0  0  0
  -11.3115   -3.4587    1.7931 H   0  0  0  0  0
  -10.6596   -2.2104    3.8230 H   0  0  0  0  0
   -9.2412   -3.2666    4.0314 H   0  0  0  0  0
   -9.3449   -2.1830    2.6222 H   0  0  0  0  0
   -8.9292   -5.2668    2.3506 H   0  0  0  0  0
  -10.1583   -5.5008    1.0835 H   0  0  0  0  0
   -9.0609   -4.1002    1.0117 H   0  0  0  0  0
  -11.6649   -4.1756    5.9176 H   0  0  0  0  0
  -14.2047   -2.6601    5.4696 H   0  0  0  0  0
  -13.6315   -4.5091    7.8080 H   0  0  0  0  0
  -15.2220   -5.8414    6.7265 H   0  0  0  0  0
  -15.1520   -2.6350    8.3206 H   0  0  0  0  0
  -16.1601   -3.0602    6.9157 H   0  0  0  0  0
  -16.0338   -4.1818    8.2931 H   0  0  0  0  0
  -14.2222   -0.6890    6.3053 H   0  0  0  0  0
  -12.0110    0.1858    8.0761 H   0  0  0  0  0
  -14.4934    1.6288    7.0702 H   0  0  0  0  0
  -12.8746    1.6233    6.2583 H   0  0  0  0  0
  -13.2433    3.5001    7.5302 H   0  0  0  0  0
  -12.1277    0.2583   10.2650 H   0  0  0  0  0
  -14.8354   -0.0410   11.5000 H   0  0  0  0  0
  -14.7044    0.4038   13.6846 H   0  0  0  0  0
  -13.7734   -1.5946   13.1662 H   0  0  0  0  0
  -12.3083   -1.6128   12.1009 H   0  0  0  0  0
  -13.8350   -2.3987   10.2614 H   0  0  0  0  0
  -12.3027   -3.8816   11.4443 H   0  0  0  0  0
  -13.5247   -4.1503   12.7114 H   0  0  0  0  0
  -13.8217   -4.7240   11.0520 H   0  0  0  0  0
  -15.7396   -2.8851   12.5799 H   0  0  0  0  0
  -15.9825   -1.7417   11.2365 H   0  0  0  0  0
  -15.9453   -3.4935   10.9190 H   0  0  0  0  0
  1  2  2  0  0  0
  1  3  1  0  0  0
  1  4  1  0  0  0
  4  5  1  0  0  0
  5  6  1  0  0  0
  5  8  1  0  0  0
  6  7  2  0  0  0
  6 13  1  0  0  0
  8  9  1  0  0  0
  9 10  1  0  0  0
 10 11  2  0  0  0
 10 12  1  0  0  0
 13 14  1  0  0  0
 14 15  1  0  0  0
 14 17  1  0  0  0
 15 16  2  0  0  0
 15 21  1  0  0  0
 17 18  1  0  0  0
 18 19  1  0  0  0
 18 20  1  0  0  0
 21 22  1  0  0  0
 22 23  1  0  0  0
 22 25  1  0  0  0
 23 24  2  0  0  0
 23 28  1  0  0  0
 25 26  1  0  0  0
 25 27  1  0  0  0
 28 29  1  0  0  0
 29 30  1  0  0  0
 29 32  1  0  0  0
 30 31  2  0  0  0
 30 35  1  0  0  0
 32 33  1  0  0  0
 32 34  1  0  0  0
 35 36  1  0  0  0
 36 37  1  0  0  0
 36 39  1  0  0  0
 37 38  2  0  0  0
 37 41  1  0  0  0
 39 40  1  0  0  0
 41 42  1  0  0  0
 42 43  1  0  0  0
 42 45  1  0  0  0
 43 44  1  0  0  0
 43 49  2  0  0  0
 45 46  1  0  0  0
 46 47  1  0  0  0
 46 48  1  0  0  0
  3 50  1  0  0  0
  3 51  1  0  0  0
  3 52  1  0  0  0
  4 53  1  0  0  0
  5 54  1  0  0  0
  8 55  1  0  0  0
  8 56  1  0  0  0
  9 57  1  0  0  0
  9 58  1  0  0  0
 12 59  1  0  0  0
 12 60  1  0  0  0
 13 61  1  0  0  0
 14 62  1  0  0  0
 17 63  1  0  0  0
 17 64  1  0  0  0
 18 65  1  0  0  0
 19 66  1  0  0  0
 19 67  1  0  0  0
 19 68  1  0  0  0
 20 69  1  0  0  0
 20 70  1  0  0  0
 20 71  1  0  0  0
 21 72  1  0  0  0
 22 73  1  0  0  0
 25 74  1  0  0  0
 26 75  1  0  0  0
 26 76  1  0  0  0
 26 77  1  0  0  0
 27 78  1  0  0  0
 27 79  1  0  0  0
 27 80  1  0  0  0
 28 81  1  0  0  0
 29 82  1  0  0  0
 32 83  1  0  0  0
 33 84  1  0  0  0
 34 85  1  0  0  0
 34 86  1  0  0  0
 34 87  1  0  0  0
 35 88  1  0  0  0
 36 89  1  0  0  0
 39 90  1  0  0  0
 39 91  1  0  0  0
 40 92  1  0  0  0
 41 93  1  0  0  0
 42 94  1  0  0  0
 44 95  1  0  0  0
 45 96  1  0  0  0
 45 97  1  0  0  0
 46 98  1  0  0  0
 47 99  1  0  0  0
 47100  1  0  0  0
 47101  1  0  0  0
 48102  1  0  0  0
 48103  1  0  0  0
 48104  1  0  0  0
M  END
$$$$
