1h08_ligand
  -I-interpret- 

 54 56  0  0  0  0  0  0  0  0999 V2000
    8.6630   -9.9020    5.9770 C   0  0  0  0  0
   11.4800  -10.7260   14.2040 N   0  0  0  0  0
   12.5810  -10.2190   14.8120 C   0  0  0  0  0
   11.2560  -10.3670   12.9290 C   0  0  0  0  0
   13.1270   -9.0150   12.7770 C   0  0  0  0  0
   13.4660   -9.3270   14.1210 C   0  0  0  0  0
   12.0310   -9.5390   12.2250 N   0  0  0  0  0
   13.9900   -6.3230    8.1010 C   0  0  0  0  0
   14.4830   -5.6150    9.2260 C   0  0  0  0  0
   14.4700   -6.2250   10.5100 C   0  0  0  0  0
   13.9660   -7.5490   10.6790 C   0  0  0  0  0
   13.4830   -7.6400    8.2510 C   0  0  0  0  0
    7.9800  -11.6300    9.2030 C   0  0  0  0  0
    8.5330  -11.7500   10.5060 C   0  0  0  0  0
   13.4690   -8.2530    9.5340 C   0  0  0  0  0
    9.4910  -10.8060   10.9570 C   0  0  0  0  0
    8.3860  -10.5570    8.3360 C   0  0  0  0  0
    9.3490   -9.6100    8.7970 C   0  0  0  0  0
    9.8960   -9.7320   10.0930 C   0  0  0  0  0
    7.8090  -10.4640    7.0410 O   0  0  0  0  0
   13.9800   -8.1050   12.0260 N   0  0  0  0  0
   10.0780  -10.9250   12.2940 N   0  0  0  0  0
   15.0190   -8.6080   14.9720 Br  0  0  0  0  0
    7.7590   -9.4630    4.7860 C   0  0  0  0  0
    6.5950  -10.4980    4.5810 C   0  0  0  0  0
    5.9320  -10.5250    3.2220 N   0  3  0  0  0
    5.0380   -9.3710    2.9190 C   0  0  0  0  0
    6.7980  -10.9330    2.0780 C   0  0  0  0  0
    7.2130   -8.1780    5.0690 O   0  0  0  0  0
    9.3770  -10.6539    5.6409 H   0  0  0  0  0
    9.2122   -9.0420    6.3601 H   0  0  0  0  0
   12.7971  -10.4944   15.8443 H   0  0  0  0  0
   14.0004   -5.8540    7.1171 H   0  0  0  0  0
   14.8717   -4.6037    9.1065 H   0  0  0  0  0
   14.8483   -5.6766   11.3727 H   0  0  0  0  0
   13.1047   -8.1811    7.3837 H   0  0  0  0  0
    7.2434  -12.3557    8.8583 H   0  0  0  0  0
    8.2217  -12.5660   11.1581 H   0  0  0  0  0
   13.0780   -9.2641    9.6472 H   0  0  0  0  0
    9.6624   -8.7921    8.1483 H   0  0  0  0  0
   10.6310   -9.0060   10.4405 H   0  0  0  0  0
   14.7770   -7.7791   12.5727 H   0  0  0  0  0
    9.5411  -11.5326   12.9128 H   0  0  0  0  0
    8.3549   -9.4208    3.8743 H   0  0  0  0  0
    5.8151  -10.2126    5.2870 H   0  0  0  0  0
    7.0451  -11.4820    4.7122 H   0  0  0  0  0
    5.2942  -11.3135    3.3308 H   0  0  0  0  0
    4.2331   -9.3341    3.6530 H   0  0  0  0  0
    5.6134   -8.4462    2.9620 H   0  0  0  0  0
    4.6163   -9.4920    1.9212 H   0  0  0  0  0
    7.6352  -10.2402    1.9926 H   0  0  0  0  0
    7.1751  -11.9410    2.2508 H   0  0  0  0  0
    6.2143  -10.9149    1.1576 H   0  0  0  0  0
    7.9270   -7.5485    5.1936 H   0  0  0  0  0
 20  1  1  0  0  0
  1 24  1  0  0  0
  2  3  4  0  0  0
  4  2  4  0  0  0
  3  6  4  0  0  0
  7  4  4  0  0  0
  9  8  4  0  0  0
 12  8  4  0  0  0
 10  9  4  0  0  0
 11 10  4  0  0  0
 11 15  4  0  0  0
 15 12  4  0  0  0
 14 13  4  0  0  0
 16 19  4  0  0  0
 18 17  4  0  0  0
 17 20  1  0  0  0
 19 18  4  0  0  0
 22 16  1  0  0  0
 24 25  1  0  0  0
 24 29  1  0  0  0
 25 26  1  0  0  0
 26 27  1  0  0  0
 26 28  1  0  0  0
  6 23  1  0  0  0
  4 22  1  0  0  0
 21 11  1  0  0  0
  5 21  1  0  0  0
 13 17  4  0  0  0
 16 14  4  0  0  0
  7  5  4  0  0  0
  6  5  4  0  0  0
  1 30  1  0  0  0
  1 31  1  0  0  0
  3 32  1  0  0  0
  8 33  1  0  0  0
  9 34  1  0  0  0
 10 35  1  0  0  0
 12 36  1  0  0  0
 13 37  1  0  0  0
 14 38  1  0  0  0
 15 39  1  0  0  0
 18 40  1  0  0  0
 19 41  1  0  0  0
 21 42  1  0  0  0
 22 43  1  0  0  0
 24 44  1  0  0  0
 25 45  1  0  0  0
 25 46  1  0  0  0
 26 47  1  0  0  0
 27 48  1  0  0  0
 27 49  1  0  0  0
 27 50  1  0  0  0
 28 51  1  0  0  0
 28 52  1  0  0  0
 28 53  1  0  0  0
 29 54  1  0  0  0
M  END
$$$$
