6hf5_ligand
  -I-interpret- 

 25 26  0  0  0  0  0  0  0  0999 V2000
    8.4990   22.4940    6.6270 O   0  0  0  0  0
    7.3520   22.6830    6.0720 C   0  0  0  0  0
    7.3750   23.3640    4.9800 O   0  0  0  0  0
    6.2370   22.0390    6.5560 C   0  0  0  0  0
    6.2530   21.1330    7.6090 N   0  0  0  0  0
    5.1250   20.5280    7.9730 C   0  0  0  0  0
    3.9370   21.0310    6.8180 S   0  0  0  0  0
    5.0110   22.0960    5.9640 C   0  0  0  0  0
    4.6500   22.8360    4.9270 N   0  0  0  0  0
    3.0800   22.7830    4.3060 S   0  0  0  0  0
    2.9960   23.9860    3.4130 O   0  0  0  0  0
    2.0410   23.0200    5.4020 O   0  0  0  0  0
    2.5730   21.3600    3.2130 C   0  0  0  0  0
    3.2560   21.0010    2.0400 C   0  0  0  0  0
    2.7690   19.9540    1.2480 C   0  0  0  0  0
    1.5860   19.2760    1.5840 C   0  0  0  0  0
    0.8530   19.6300    2.7180 N   0  0  0  0  0
    1.3740   20.6860    3.5250 C   0  0  0  0  0
    8.3840   21.9801    7.4297 H   0  0  0  0  0
    4.9796   19.8572    8.8197 H   0  0  0  0  0
    5.3365   23.4529    4.4927 H   0  0  0  0  0
    4.1604   21.5344    1.7475 H   0  0  0  0  0
    3.3185   19.6597    0.3538 H   0  0  0  0  0
    1.2351   18.4616    0.9502 H   0  0  0  0  0
    0.8234   20.9832    4.4176 H   0  0  0  0  0
  1  2  1  0  0  0
  2  3  2  0  0  0
  2  4  1  0  0  0
  4  5  4  0  0  0
  4  8  4  0  0  0
  5  6  4  0  0  0
  6  7  4  0  0  0
  7  8  4  0  0  0
  8  9  1  0  0  0
  9 10  1  0  0  0
 10 11  2  0  0  0
 10 12  2  0  0  0
 10 13  1  0  0  0
 13 14  4  0  0  0
 13 18  4  0  0  0
 14 15  4  0  0  0
 15 16  4  0  0  0
 16 17  4  0  0  0
 17 18  4  0  0  0
  1 19  1  0  0  0
  6 20  1  0  0  0
  9 21  1  0  0  0
 14 22  1  0  0  0
 15 23  1  0  0  0
 16 24  1  0  0  0
 18 25  1  0  0  0
M  END
$$$$
