3d20_ligand
  -I-interpret- 

 75 78  0  0  0  0  0  0  0  0999 V2000
    8.1160   14.3490   14.1960 N   0  0  0  0  0
    8.6440   15.5450   14.6020 C   0  0  0  0  0
    9.9760   15.8360   14.2900 C   0  0  0  0  0
   10.4970   17.0220   14.6930 C   0  0  0  0  0
    9.7360   17.9480   15.4070 C   0  0  0  0  0
    8.4220   17.6880   15.7250 C   0  0  0  0  0
    7.8320   16.4590   15.3260 C   0  0  0  0  0
   10.6250   19.3350   16.0840 S   0  0  0  0  0
   11.7300   19.5680   15.2000 O   0  0  0  0  0
    9.6790   20.3790   16.3190 O   0  0  0  0  0
   11.2530   18.9100   17.5790 N   0  0  0  0  0
   10.3020   18.6560   18.6580 C   0  0  0  0  0
   10.6610   19.2800   20.0120 C   0  0  0  0  0
   10.6970   20.8020   19.9450 C   0  0  0  0  0
    9.7140   18.7750   21.1010 C   0  0  0  0  0
   12.5730   18.2800   17.6490 C   0  0  0  0  0
   13.6930   19.2040   18.1700 C   0  0  0  0  0
   14.8190   18.3940   18.4620 O   0  0  0  0  0
   14.1020   20.3310   17.2110 C   0  0  0  0  0
   15.0100   21.2060   17.9610 N   0  0  0  0  0
   14.6350   22.4890   18.2550 C   0  0  0  0  0
   13.5790   23.0510   17.9210 O   0  0  0  0  0
   15.6070   23.0830   18.9850 O   0  0  0  0  0
   15.5490   24.5040   19.2320 C   0  0  0  0  0
   16.2190   24.7410   20.5930 C   0  0  0  0  0
   17.6190   24.6700   20.3010 O   0  0  0  0  0
   17.8640   25.2110   18.9930 C   0  0  0  0  0
   18.6910   24.3040   18.2940 O   0  0  0  0  0
   17.9690   23.7420   17.2010 C   0  0  0  0  0
   16.7760   24.6200   16.9270 C   0  0  0  0  0
   16.4920   25.2860   18.2510 C   0  0  0  0  0
   14.8750   19.8270   15.9520 C   0  0  0  0  0
   16.5900   21.3500   14.8810 C   0  0  0  0  0
   16.9820   22.4160   14.0690 C   0  0  0  0  0
   15.9830   23.1230   13.4320 C   0  0  0  0  0
   14.6700   22.7920   13.5890 C   0  0  0  0  0
   14.2850   21.7480   14.3860 C   0  0  0  0  0
   15.2560   20.9850   15.0650 C   0  0  0  0  0
    8.6921   13.6877   13.6752 H   0  0  0  0  0
    7.1465   14.1192   14.4143 H   0  0  0  0  0
   10.5842   15.1230   13.7333 H   0  0  0  0  0
   11.5341   17.2568   14.4534 H   0  0  0  0  0
    7.8373   18.4215   16.2802 H   0  0  0  0  0
    6.7947   16.2257   15.5663 H   0  0  0  0  0
   10.2828   17.5766   18.8082 H   0  0  0  0  0
    9.3563   19.1023   18.3507 H   0  0  0  0  0
   11.6703   18.9619   20.2731 H   0  0  0  0  0
   11.4442   21.1147   19.2156 H   0  0  0  0  0
    9.7173   21.1745   19.6459 H   0  0  0  0  0
   10.9552   21.2016   20.9257 H   0  0  0  0  0
    8.6900   19.0470   20.8450 H   0  0  0  0  0
    9.7951   17.6907   21.1770 H   0  0  0  0  0
    9.9842   19.2286   22.0546 H   0  0  0  0  0
   12.8436   17.9904   16.6336 H   0  0  0  0  0
   12.4936   17.4477   18.3484 H   0  0  0  0  0
   13.3029   19.7126   19.0516 H   0  0  0  0  0
   15.5328   18.9463   18.7892 H   0  0  0  0  0
   13.1956   20.8235   16.8589 H   0  0  0  0  0
   15.9201   20.8584   18.2631 H   0  0  0  0  0
   14.5106   24.8238   19.1450 H   0  0  0  0  0
   15.9129   24.0082   21.3396 H   0  0  0  0  0
   15.9350   25.6961   21.0349 H   0  0  0  0  0
   18.3331   26.1931   19.0532 H   0  0  0  0  0
   17.6430   22.7312   17.4462 H   0  0  0  0  0
   18.6061   23.6877   16.3182 H   0  0  0  0  0
   15.9215   24.0497   16.5627 H   0  0  0  0  0
   16.9724   25.3446   16.1367 H   0  0  0  0  0
   16.0363   26.2519   18.0331 H   0  0  0  0  0
   14.2323   19.1486   15.3909 H   0  0  0  0  0
   15.7820   19.3162   16.2753 H   0  0  0  0  0
   17.3616   20.7766   15.3948 H   0  0  0  0  0
   18.0325   22.6785   13.9437 H   0  0  0  0  0
   16.2490   23.9630   12.7904 H   0  0  0  0  0
   13.9088   23.3724   13.0676 H   0  0  0  0  0
   13.2277   21.5068   14.4955 H   0  0  0  0  0
  2  1  1  0  0  0
  3  2  4  0  0  0
  7  2  4  0  0  0
  4  3  4  0  0  0
  5  4  4  0  0  0
  5  6  4  0  0  0
  8  5  1  0  0  0
  6  7  4  0  0  0
  8  9  2  0  0  0
  8 10  2  0  0  0
 11  8  1  0  0  0
 11 12  1  0  0  0
 16 11  1  0  0  0
 12 13  1  0  0  0
 13 14  1  0  0  0
 13 15  1  0  0  0
 17 16  1  0  0  0
 17 18  1  0  0  0
 19 17  1  0  0  0
 19 20  1  0  0  0
 32 19  1  0  0  0
 20 21  1  0  0  0
 21 22  2  0  0  0
 21 23  1  0  0  0
 23 24  1  0  0  0
 24 25  1  0  0  0
 24 31  1  0  0  0
 25 26  1  0  0  0
 27 26  1  0  0  0
 27 28  1  0  0  0
 31 27  1  0  0  0
 29 28  1  0  0  0
 30 29  1  0  0  0
 31 30  1  0  0  0
 38 32  1  0  0  0
 33 34  4  0  0  0
 33 38  4  0  0  0
 34 35  4  0  0  0
 35 36  4  0  0  0
 36 37  4  0  0  0
 37 38  4  0  0  0
  1 39  1  0  0  0
  1 40  1  0  0  0
  3 41  1  0  0  0
  4 42  1  0  0  0
  6 43  1  0  0  0
  7 44  1  0  0  0
 12 45  1  0  0  0
 12 46  1  0  0  0
 13 47  1  0  0  0
 14 48  1  0  0  0
 14 49  1  0  0  0
 14 50  1  0  0  0
 15 51  1  0  0  0
 15 52  1  0  0  0
 15 53  1  0  0  0
 16 54  1  0  0  0
 16 55  1  0  0  0
 17 56  1  0  0  0
 18 57  1  0  0  0
 19 58  1  0  0  0
 20 59  1  0  0  0
 24 60  1  0  0  0
 25 61  1  0  0  0
 25 62  1  0  0  0
 27 63  1  0  0  0
 29 64  1  0  0  0
 29 65  1  0  0  0
 30 66  1  0  0  0
 30 67  1  0  0  0
 31 68  1  0  0  0
 32 69  1  0  0  0
 32 70  1  0  0  0
 33 71  1  0  0  0
 34 72  1  0  0  0
 35 73  1  0  0  0
 36 74  1  0  0  0
 37 75  1  0  0  0
M  END
$$$$
