3o0e_ligand
  -I-interpret- 

136135  0  0  0  0  0  0  0  0999 V2000
   10.5150   -2.1690   34.0710 N   0  3  0  0  0
    9.7180   -3.1390   34.8730 C   0  0  0  0  0
    9.1340   -4.2470   33.9940 C   0  0  0  0  0
    8.8900   -4.0420   32.8080 O   0  0  0  0  0
    8.5640   -2.4260   35.6190 C   0  0  0  0  0
    8.9940   -1.7010   36.7650 O   0  0  0  0  0
    8.9530   -5.4280   34.5860 N   0  0  0  0  0
    7.9340   -6.4070   34.1660 C   0  0  0  0  0
    7.9450   -7.1190   32.8390 C   0  0  0  0  0
    8.7550   -8.0050   32.6290 O   0  0  0  0  0
    6.9980   -6.7490   31.9720 N   0  0  0  0  0
    6.7610   -7.4050   30.6790 C   0  0  0  0  0
    5.2790   -7.6340   30.4080 C   0  0  0  0  0
    4.4580   -7.5630   31.3190 O   0  0  0  0  0
    4.9370   -7.9340   29.1610 N   0  0  0  0  0
    3.5390   -8.1370   28.7590 C   0  0  0  0  0
    3.0990   -7.0280   27.8210 C   0  0  0  0  0
    2.6570   -7.2960   26.7030 O   0  0  0  0  0
    3.2440   -5.7810   28.2950 N   0  0  0  0  0
    2.9260   -4.5140   27.5640 C   0  0  0  0  0
    3.5600   -3.3370   28.3160 C   0  0  0  0  0
    4.3360   -3.5930   29.2460 O   0  0  0  0  0
    3.2620   -2.0600   28.0030 N   0  0  0  0  0
    2.2930   -1.5440   27.0090 C   0  0  0  0  0
    2.8560   -0.2820   26.2930 C   0  0  0  0  0
    4.0590   -0.0270   26.3130 O   0  0  0  0  0
    0.9670   -1.1480   27.7030 C   0  0  0  0  0
    0.0140   -2.2880   28.0440 C   0  0  0  0  0
   -0.4730   -2.1340   29.4490 C   0  0  0  0  0
   -1.1000   -3.3610   29.9410 N   0  0  0  0  0
   -1.2110   -3.7070   31.2340 C   0  0  0  0  0
   -0.7170   -2.9310   32.2030 N   0  0  0  0  0
   -1.8150   -4.8470   31.5670 N   0  0  0  0  0
    1.9700    0.5060   25.6870 N   0  0  0  0  0
    2.3230    1.7690   25.0060 C   0  0  0  0  0
    1.1010    2.4690   24.3830 C   0  0  0  0  0
    1.2520    3.3920   23.5740 O   0  0  0  0  0
   -0.1080    2.0330   24.7650 N   0  0  0  0  0
   -1.3700    2.5860   24.2580 C   0  0  0  0  0
   -2.2800    3.1990   25.3350 C   0  0  0  0  0
   -2.5630    2.5760   26.3490 O   0  0  0  0  0
   -2.7090    4.4400   25.0990 N   0  0  0  0  0
   -3.7970    5.1140   25.8240 C   0  0  0  0  0
   -4.1440    6.4530   25.1350 C   0  0  0  0  0
   -3.3010    7.0800   24.5050 O   0  0  0  0  0
   -3.4680    5.3040   27.3190 C   0  0  0  0  0
   -4.7110    5.6920   28.1810 C   0  0  0  0  0
   -5.6610    4.9270   28.3320 O   0  0  0  0  0
   -4.6720    6.8780   28.7620 N   0  0  0  0  0
   -5.3920    6.8820   25.2750 N   0  0  0  0  0
   -5.9530    8.0230   24.5510 C   0  0  0  0  0
   -7.3670    7.5800   24.2330 C   0  0  0  0  0
   -7.6840    7.2980   23.0830 O   0  0  0  0  0
   -8.2030    7.4570   25.2750 N   0  0  0  0  0
   -9.5570    6.8740   25.1920 C   0  0  0  0  0
   -9.7480    5.7530   26.1980 C   0  0  0  0  0
   -8.8110    4.9950   26.4550 O   0  0  0  0  0
  -10.9430    5.6300   26.7740 N   0  0  0  0  0
  -11.1770    4.6010   27.8080 C   0  0  0  0  0
  -12.5840    4.0360   27.9480 C   0  0  0  0  0
  -13.3420    3.9850   26.9770 O   0  0  0  0  0
  -12.9280    3.6040   29.1640 N   0  0  0  0  0
  -14.2660    3.0610   29.4600 C   0  0  0  0  0
  -14.7760    3.2350   30.8910 C   0  0  0  0  0
  -14.1460    2.7820   31.8490 O   0  0  0  0  0
  -15.9270    3.8960   31.0270 N   0  0  0  0  0
  -16.6020    4.0790   32.3210 C   0  0  0  0  0
  -17.7330    3.0740   32.4820 C   0  0  0  0  0
  -17.5510    1.8950   32.1910 O   0  0  0  0  0
  -18.9000    3.5250   32.9390 N   0  0  0  0  0
  -20.0460    2.6290   33.1330 C   0  0  0  0  0
  -21.3590    3.3540   33.3730 C   0  0  0  0  0
  -21.6648    3.7903   34.5148 O   0  0  0  0  0
  -22.1571    3.5222   32.4126 O   0  0  0  0  0
   11.2669   -2.6635   33.5908 H   0  0  0  0  0
    9.9096   -1.7189   33.3844 H   0  0  0  0  0
   10.9122   -1.4628   34.6906 H   0  0  0  0  0
   10.3987   -3.5846   35.5984 H   0  0  0  0  0
    7.8684   -3.1937   35.9581 H   0  0  0  0  0
    8.1176   -1.7118   34.9271 H   0  0  0  0  0
    8.2362   -1.2839   37.1814 H   0  0  0  0  0
    9.5540   -5.6677   35.3745 H   0  0  0  0  0
    7.0299   -5.8012   34.1056 H   0  0  0  0  0
    8.0767   -7.2214   34.8763 H   0  0  0  0  0
    6.4016   -5.9608   32.2239 H   0  0  0  0  0
    7.2549   -8.3765   30.6978 H   0  0  0  0  0
    7.1513   -6.7564   29.8948 H   0  0  0  0  0
    5.6701   -8.0267   28.4579 H   0  0  0  0  0
    2.9066   -8.1262   29.6467 H   0  0  0  0  0
    3.4499   -9.0949   28.2466 H   0  0  0  0  0
    3.6055   -5.6875   29.2442 H   0  0  0  0  0
    1.8456   -4.3794   27.5108 H   0  0  0  0  0
    3.3243   -4.5624   26.5505 H   0  0  0  0  0
    3.7761   -1.3495   28.5239 H   0  0  0  0  0
    2.1170   -2.3364   26.2815 H   0  0  0  0  0
    0.4351   -0.5094   26.9978 H   0  0  0  0  0
    1.2467   -0.6927   28.6530 H   0  0  0  0  0
    0.5378   -3.2388   27.9452 H   0  0  0  0  0
   -0.8361   -2.2646   27.3622 H   0  0  0  0  0
   -1.2155   -1.3363   29.4700 H   0  0  0  0  0
    0.3815   -1.9054   30.0859 H   0  0  0  0  0
   -1.4828   -4.0039   29.2478 H   0  0  0  0  0
   -0.8055   -3.2149   33.1787 H   0  0  0  0  0
   -0.2513   -2.0547   31.9671 H   0  0  0  0  0
   -2.1922   -5.4554   30.8404 H   0  0  0  0  0
    0.9906    0.2212   25.6932 H   0  0  0  0  0
    3.0197    1.5325   24.2017 H   0  0  0  0  0
    2.7517    2.4416   25.7489 H   0  0  0  0  0
   -0.1535    1.2748   25.4458 H   0  0  0  0  0
   -1.9212    1.7598   23.8089 H   0  0  0  0  0
   -1.1106    3.3882   23.5671 H   0  0  0  0  0
   -2.2454    4.9634   24.3563 H   0  0  0  0  0
   -4.6770    4.4719   25.7872 H   0  0  0  0  0
   -2.7466    6.1174   27.3966 H   0  0  0  0  0
   -3.0893    4.3540   27.6961 H   0  0  0  0  0
   -5.4445    7.1810   29.3552 H   0  0  0  0  0
   -3.8694    7.4906   28.6173 H   0  0  0  0  0
   -5.9979    6.3853   25.9281 H   0  0  0  0  0
   -5.3821    8.2717   23.6564 H   0  0  0  0  0
   -5.9249    8.9430   25.1349 H   0  0  0  0  0
   -7.8820    7.7881   26.1848 H   0  0  0  0  0
   -9.6939    6.4645   24.1912 H   0  0  0  0  0
  -10.2825    7.6579   25.4093 H   0  0  0  0  0
  -11.7032    6.2518   26.4986 H   0  0  0  0  0
  -10.9667    5.0924   28.7580 H   0  0  0  0  0
  -10.5527    3.7549   27.5207 H   0  0  0  0  0
  -12.2397    3.6515   29.9153 H   0  0  0  0  0
  -14.1973    1.9859   29.2942 H   0  0  0  0  0
  -14.9605    3.6106   28.8246 H   0  0  0  0  0
  -16.3598    4.2936   30.1933 H   0  0  0  0  0
  -17.0160    5.0864   32.3640 H   0  0  0  0  0
  -15.8780    3.9272   33.1216 H   0  0  0  0  0
  -18.9995    4.5160   33.1592 H   0  0  0  0  0
  -19.8411    2.0270   34.0183 H   0  0  0  0  0
  -20.1598    2.0452   32.2196 H   0  0  0  0  0
  -21.7838    3.1368   31.6165 H   0  0  0  0  0
  1  2  1  0  0  0
  2  3  1  0  0  0
  2  5  1  0  0  0
  3  4  2  0  0  0
  3  7  1  0  0  0
  5  6  1  0  0  0
  7  8  1  0  0  0
  8  9  1  0  0  0
  9 10  2  0  0  0
  9 11  1  0  0  0
 11 12  1  0  0  0
 12 13  1  0  0  0
 13 14  2  0  0  0
 13 15  1  0  0  0
 15 16  1  0  0  0
 16 17  1  0  0  0
 17 18  2  0  0  0
 17 19  1  0  0  0
 19 20  1  0  0  0
 20 21  1  0  0  0
 21 22  2  0  0  0
 21 23  1  0  0  0
 23 24  1  0  0  0
 24 25  1  0  0  0
 24 27  1  0  0  0
 25 26  2  0  0  0
 25 34  1  0  0  0
 27 28  1  0  0  0
 28 29  1  0  0  0
 29 30  1  0  0  0
 30 31  1  0  0  0
 31 32  1  0  0  0
 31 33  2  0  0  0
 34 35  1  0  0  0
 35 36  1  0  0  0
 36 37  2  0  0  0
 36 38  1  0  0  0
 38 39  1  0  0  0
 39 40  1  0  0  0
 40 41  2  0  0  0
 40 42  1  0  0  0
 42 43  1  0  0  0
 43 44  1  0  0  0
 43 46  1  0  0  0
 44 45  2  0  0  0
 44 50  1  0  0  0
 46 47  1  0  0  0
 47 48  2  0  0  0
 47 49  1  0  0  0
 50 51  1  0  0  0
 51 52  1  0  0  0
 52 53  2  0  0  0
 52 54  1  0  0  0
 54 55  1  0  0  0
 55 56  1  0  0  0
 56 57  2  0  0  0
 56 58  1  0  0  0
 58 59  1  0  0  0
 59 60  1  0  0  0
 60 61  2  0  0  0
 60 62  1  0  0  0
 62 63  1  0  0  0
 63 64  1  0  0  0
 64 65  2  0  0  0
 64 66  1  0  0  0
 66 67  1  0  0  0
 67 68  1  0  0  0
 68 69  2  0  0  0
 68 70  1  0  0  0
 70 71  1  0  0  0
 71 72  1  0  0  0
 72 73  2  0  0  0
 72 74  1  0  0  0
  1 75  1  0  0  0
  1 76  1  0  0  0
  1 77  1  0  0  0
  2 78  1  0  0  0
  5 79  1  0  0  0
  5 80  1  0  0  0
  6 81  1  0  0  0
  7 82  1  0  0  0
  8 83  1  0  0  0
  8 84  1  0  0  0
 11 85  1  0  0  0
 12 86  1  0  0  0
 12 87  1  0  0  0
 15 88  1  0  0  0
 16 89  1  0  0  0
 16 90  1  0  0  0
 19 91  1  0  0  0
 20 92  1  0  0  0
 20 93  1  0  0  0
 23 94  1  0  0  0
 24 95  1  0  0  0
 27 96  1  0  0  0
 27 97  1  0  0  0
 28 98  1  0  0  0
 28 99  1  0  0  0
 29100  1  0  0  0
 29101  1  0  0  0
 30102  1  0  0  0
 32103  1  0  0  0
 32104  1  0  0  0
 33105  1  0  0  0
 34106  1  0  0  0
 35107  1  0  0  0
 35108  1  0  0  0
 38109  1  0  0  0
 39110  1  0  0  0
 39111  1  0  0  0
 42112  1  0  0  0
 43113  1  0  0  0
 46114  1  0  0  0
 46115  1  0  0  0
 49116  1  0  0  0
 49117  1  0  0  0
 50118  1  0  0  0
 51119  1  0  0  0
 51120  1  0  0  0
 54121  1  0  0  0
 55122  1  0  0  0
 55123  1  0  0  0
 58124  1  0  0  0
 59125  1  0  0  0
 59126  1  0  0  0
 62127  1  0  0  0
 63128  1  0  0  0
 63129  1  0  0  0
 66130  1  0  0  0
 67131  1  0  0  0
 67132  1  0  0  0
 70133  1  0  0  0
 71134  1  0  0  0
 71135  1  0  0  0
 74136  1  0  0  0
M  END
$$$$
