### 
### Created by X-TOOL on Mon Sep 10 21:13:04 2018
### 

@<TRIPOS>MOLECULE
3o0e_ligand
  136   135     1     0     0
SMALL
GAST_HUCK


@<TRIPOS>ATOM
      1 N          10.5150   -2.1690   34.0710 N.4       1 SER         0.2396
      2 CA          9.7180   -3.1390   34.8730 C.3       1 SER         0.0884
      3 C           9.1340   -4.2470   33.9940 C.2       1 SER         0.2288
      4 O           8.8900   -4.0420   32.8080 O.2       1 SER        -0.3906
      5 CB          8.5640   -2.4260   35.6190 C.3       1 SER         0.1041
      6 OG          8.9940   -1.7010   36.7650 O.3       1 SER        -0.3870
      7 N           8.9530   -5.4280   34.5860 N.am      1 GLY        -0.2636
      8 CA          7.9340   -6.4070   34.1660 C.3       1 GLY         0.1202
      9 C           7.9450   -7.1190   32.8390 C.2       1 GLY         0.2005
     10 O           8.7550   -8.0050   32.6290 O.2       1 GLY        -0.3947
     11 N           6.9980   -6.7490   31.9720 N.am      1 GLY        -0.2666
     12 CA          6.7610   -7.4050   30.6790 C.3       1 GLY         0.1201
     13 C           5.2790   -7.6340   30.4080 C.2       1 GLY         0.2005
     14 O           4.4580   -7.5630   31.3190 O.2       1 GLY        -0.3947
     15 N           4.9370   -7.9340   29.1610 N.am      1 ASP        -0.2666
     16 CA          3.5390   -8.1370   28.7590 C.3       1 ASP         0.1201
     17 C           3.0990   -7.0280   27.8210 C.2       1 ASP         0.2005
     18 O           2.6570   -7.2960   26.7030 O.2       1 ASP        -0.3947
     19 N           3.2440   -5.7810   28.2950 N.am      1 GLY        -0.2666
     20 CA          2.9260   -4.5140   27.5640 C.3       1 GLY         0.1201
     21 C           3.5600   -3.3370   28.3160 C.2       1 GLY         0.2007
     22 O           4.3360   -3.5930   29.2460 O.2       1 GLY        -0.3947
     23 N           3.2620   -2.0600   28.0030 N.am      1 ARG        -0.2640
     24 CA          2.2930   -1.5440   27.0090 C.3       1 ARG         0.1311
     25 C           2.8560   -0.2820   26.2930 C.2       1 ARG         0.2037
     26 O           4.0590   -0.0270   26.3130 O.2       1 ARG        -0.3944
     27 CB          0.9670   -1.1480   27.7030 C.3       1 ARG        -0.0092
     28 CG          0.0140   -2.2880   28.0440 C.3       1 ARG        -0.0156
     29 CD         -0.4730   -2.1340   29.4490 C.3       1 ARG         0.0627
     30 NE         -1.1000   -3.3610   29.9410 N.pl3     1 ARG        -0.2723
     31 CZ         -1.2110   -3.7070   31.2340 C.cat     1 ARG         0.2882
     32 NH1        -0.7170   -2.9310   32.2030 N.pl3     1 ARG        -0.2849
     33 NH2        -1.8150   -4.8470   31.5670 N.pl3     1 ARG        -0.2849
     34 N           1.9700    0.5060   25.6870 N.am      1 GLY        -0.2664
     35 CA          2.3230    1.7690   25.0060 C.3       1 GLY         0.1201
     36 C           1.1010    2.4690   24.3830 C.2       1 GLY         0.2005
     37 O           1.2520    3.3920   23.5740 O.2       1 GLY        -0.3947
     38 N          -0.1080    2.0330   24.7650 N.am      1 HIS        -0.2666
     39 CA         -1.3700    2.5860   24.2580 C.3       1 HIS         0.1201
     40 C          -2.2800    3.1990   25.3350 C.2       1 HIS         0.2009
     41 O          -2.5630    2.5760   26.3490 O.2       1 HIS        -0.3947
     42 N          -2.7090    4.4400   25.0990 N.am      1 ASN        -0.2618
     43 CA         -3.7970    5.1140   25.8240 C.3       1 ASN         0.1476
     44 C          -4.1440    6.4530   25.1350 C.2       1 ASN         0.2061
     45 O          -3.3010    7.0800   24.5050 O.2       1 ASN        -0.3942
     46 CB         -3.4680    5.3040   27.3190 C.3       1 ASN         0.0773
     47 CG         -4.7110    5.6920   28.1810 C.2       1 ASN         0.1780
     48 OD1        -5.6610    4.9270   28.3320 O.2       1 ASN        -0.3970
     49 ND2        -4.6720    6.8780   28.7620 N.am      1 ASN        -0.3007
     50 N          -5.3920    6.8820   25.2750 N.am      1 THR        -0.2663
     51 CA         -5.9530    8.0230   24.5510 C.3       1 THR         0.1201
     52 C          -7.3670    7.5800   24.2330 C.2       1 THR         0.2005
     53 O          -7.6840    7.2980   23.0830 O.2       1 THR        -0.3947
     54 N          -8.2030    7.4570   25.2750 N.am      1 GLY        -0.2666
     55 CA         -9.5570    6.8740   25.1920 C.3       1 GLY         0.1201
     56 C          -9.7480    5.7530   26.1980 C.2       1 GLY         0.2005
     57 O          -8.8110    4.9950   26.4550 O.2       1 GLY        -0.3947
     58 N         -10.9430    5.6300   26.7740 N.am      1 ALA        -0.2666
     59 CA        -11.1770    4.6010   27.8080 C.3       1 ALA         0.1201
     60 C         -12.5840    4.0360   27.9480 C.2       1 ALA         0.2005
     61 O         -13.3420    3.9850   26.9770 O.2       1 ALA        -0.3947
     62 N         -12.9280    3.6040   29.1640 N.am      1 HIS        -0.2666
     63 CA        -14.2660    3.0610   29.4600 C.3       1 HIS         0.1201
     64 C         -14.7760    3.2350   30.8910 C.2       1 HIS         0.2005
     65 O         -14.1460    2.7820   31.8490 O.2       1 HIS        -0.3947
     66 N         -15.9270    3.8960   31.0270 N.am      1 SER        -0.2666
     67 CA        -16.6020    4.0790   32.3210 C.3       1 SER         0.1201
     68 C         -17.7330    3.0740   32.4820 C.2       1 SER         0.2000
     69 O         -17.5510    1.8950   32.1910 O.2       1 SER        -0.3947
     70 N         -18.9000    3.5250   32.9390 N.am      1 THR        -0.2724
     71 CA        -20.0460    2.6290   33.1330 C.3       1 THR         0.0833
     72 C         -21.3590    3.3540   33.3730 C.2       1 THR         0.0570
     73 O         -21.6648    3.7903   34.5148 O.co2     1 THR        -0.5669
     74 H          11.2669   -2.6635   33.5908 H         1 SER         0.2016
     75 H           9.9096   -1.7189   33.3844 H         1 SER         0.2016
     76 H          10.9122   -1.4628   34.6906 H         1 SER         0.2016
     77 H          10.3987   -3.5846   35.5984 H         1 SER         0.1122
     78 H           7.8684   -3.1937   35.9581 H         1 SER         0.0640
     79 H           8.1176   -1.7118   34.9271 H         1 SER         0.0640
     80 H           8.2362   -1.2839   37.1814 H         1 SER         0.2099
     81 H           9.5540   -5.6677   35.3745 H         1 GLY         0.1882
     82 H           7.0299   -5.8012   34.1056 H         1 GLY         0.0763
     83 H           8.0767   -7.2214   34.8763 H         1 GLY         0.0763
     84 H           6.4016   -5.9608   32.2239 H         1 GLY         0.1881
     85 H           7.2549   -8.3765   30.6978 H         1 GLY         0.0763
     86 H           7.1513   -6.7564   29.8948 H         1 GLY         0.0763
     87 H           5.6701   -8.0267   28.4579 H         1 ASP         0.1881
     88 H           2.9066   -8.1262   29.6467 H         1 ASP         0.0763
     89 H           3.4499   -9.0949   28.2466 H         1 ASP         0.0763
     90 H           3.6055   -5.6875   29.2442 H         1 GLY         0.1881
     91 H           1.8456   -4.3794   27.5108 H         1 GLY         0.0763
     92 H           3.3243   -4.5624   26.5505 H         1 GLY         0.0763
     93 H           3.7761   -1.3495   28.5239 H         1 ARG         0.1883
     94 H           2.1170   -2.3364   26.2815 H         1 ARG         0.0800
     95 H           0.4351   -0.5094   26.9978 H         1 ARG         0.0313
     96 H           1.2467   -0.6927   28.6530 H         1 ARG         0.0313
     97 H           0.5378   -3.2388   27.9452 H         1 ARG         0.0301
     98 H          -0.8361   -2.2646   27.3622 H         1 ARG         0.0301
     99 H          -1.2155   -1.3363   29.4700 H         1 ARG         0.0689
    100 H           0.3815   -1.9054   30.0859 H         1 ARG         0.0689
    101 H          -1.4828   -4.0039   29.2478 H         1 ARG         0.2642
    102 H          -0.2453   -2.0581   31.9667 H         1 ARG         0.2615
    103 H          -0.8116   -3.2115   33.1791 H         1 ARG         0.2615
    104 H          -2.1922   -5.4554   30.8404 H         1 ARG         0.2615
    105 H          -1.9001   -5.1113   32.5485 H         1 ARG         0.2615
    106 H           0.9906    0.2212   25.6932 H         1 GLY         0.1881
    107 H           3.0197    1.5325   24.2017 H         1 GLY         0.0763
    108 H           2.7517    2.4416   25.7489 H         1 GLY         0.0763
    109 H          -0.1535    1.2748   25.4458 H         1 HIS         0.1881
    110 H          -1.9212    1.7598   23.8089 H         1 HIS         0.0763
    111 H          -1.1106    3.3882   23.5671 H         1 HIS         0.0763
    112 H          -2.2454    4.9634   24.3563 H         1 ASN         0.1885
    113 H          -4.6770    4.4719   25.7872 H         1 ASN         0.0826
    114 H          -2.7466    6.1174   27.3966 H         1 ASN         0.0551
    115 H          -3.0893    4.3540   27.6961 H         1 ASN         0.0551
    116 H          -5.4445    7.1810   29.3552 H         1 ASN         0.1814
    117 H          -3.8694    7.4906   28.6173 H         1 ASN         0.1814
    118 H          -5.9979    6.3853   25.9281 H         1 THR         0.1881
    119 H          -5.3821    8.2717   23.6564 H         1 THR         0.0763
    120 H          -5.9249    8.9430   25.1349 H         1 THR         0.0763
    121 H          -7.8820    7.7881   26.1848 H         1 GLY         0.1881
    122 H          -9.6939    6.4645   24.1912 H         1 GLY         0.0763
    123 H         -10.2825    7.6579   25.4093 H         1 GLY         0.0763
    124 H         -11.7032    6.2518   26.4986 H         1 ALA         0.1881
    125 H         -10.9667    5.0924   28.7580 H         1 ALA         0.0763
    126 H         -10.5527    3.7549   27.5207 H         1 ALA         0.0763
    127 H         -12.2397    3.6515   29.9153 H         1 HIS         0.1881
    128 H         -14.1973    1.9859   29.2942 H         1 HIS         0.0763
    129 H         -14.9605    3.6106   28.8246 H         1 HIS         0.0763
    130 H         -16.3598    4.2936   30.1933 H         1 SER         0.1881
    131 H         -17.0160    5.0864   32.3640 H         1 SER         0.0763
    132 H         -15.8780    3.9272   33.1216 H         1 SER         0.0763
    133 H         -18.9995    4.5160   33.1592 H         1 THR         0.1873
    134 H         -19.8411    2.0270   34.0183 H         1 THR         0.0689
    135 H         -20.1598    2.0452   32.2196 H         1 THR         0.0689
    136 O         -22.1571    3.5222   32.4126 O.co2     1 THR        -0.5669
@<TRIPOS>BOND
     1    1    2 1  
     2    2    3 1  
     3    2    5 1  
     4    3    4 2  
     5    3    7 am 
     6    5    6 1  
     7    7    8 1  
     8    8    9 1  
     9    9   10 2  
    10    9   11 am 
    11   11   12 1  
    12   12   13 1  
    13   13   14 2  
    14   13   15 am 
    15   15   16 1  
    16   16   17 1  
    17   17   18 2  
    18   17   19 am 
    19   19   20 1  
    20   20   21 1  
    21   21   22 2  
    22   21   23 am 
    23   23   24 1  
    24   24   25 1  
    25   24   27 1  
    26   25   26 2  
    27   25   34 am 
    28   27   28 1  
    29   28   29 1  
    30   29   30 1  
    31   30   31 ar 
    32   31   32 ar 
    33   31   33 ar 
    34   34   35 1  
    35   35   36 1  
    36   36   37 2  
    37   36   38 am 
    38   38   39 1  
    39   39   40 1  
    40   40   41 2  
    41   40   42 am 
    42   42   43 1  
    43   43   44 1  
    44   43   46 1  
    45   44   45 2  
    46   44   50 am 
    47   46   47 1  
    48   47   48 2  
    49   47   49 am 
    50   50   51 1  
    51   51   52 1  
    52   52   53 2  
    53   52   54 am 
    54   54   55 1  
    55   55   56 1  
    56   56   57 2  
    57   56   58 am 
    58   58   59 1  
    59   59   60 1  
    60   60   61 2  
    61   60   62 am 
    62   62   63 1  
    63   63   64 1  
    64   64   65 2  
    65   64   66 am 
    66   66   67 1  
    67   67   68 1  
    68   68   69 2  
    69   68   70 am 
    70   70   71 1  
    71   71   72 1  
    72   72   73 ar 
    73    1   74 1  
    74    1   75 1  
    75    1   76 1  
    76    2   77 1  
    77    5   78 1  
    78    5   79 1  
    79    6   80 1  
    80    7   81 1  
    81    8   82 1  
    82    8   83 1  
    83   11   84 1  
    84   12   85 1  
    85   12   86 1  
    86   15   87 1  
    87   16   88 1  
    88   16   89 1  
    89   19   90 1  
    90   20   91 1  
    91   20   92 1  
    92   23   93 1  
    93   24   94 1  
    94   27   95 1  
    95   27   96 1  
    96   28   97 1  
    97   28   98 1  
    98   29   99 1  
    99   29  100 1  
   100   30  101 1  
   101   32  102 1  
   102   32  103 1  
   103   33  104 1  
   104   33  105 1  
   105   34  106 1  
   106   35  107 1  
   107   35  108 1  
   108   38  109 1  
   109   39  110 1  
   110   39  111 1  
   111   42  112 1  
   112   43  113 1  
   113   46  114 1  
   114   46  115 1  
   115   49  116 1  
   116   49  117 1  
   117   50  118 1  
   118   51  119 1  
   119   51  120 1  
   120   54  121 1  
   121   55  122 1  
   122   55  123 1  
   123   58  124 1  
   124   59  125 1  
   125   59  126 1  
   126   62  127 1  
   127   63  128 1  
   128   63  129 1  
   129   66  130 1  
   130   67  131 1  
   131   67  132 1  
   132   70  133 1  
   133   71  134 1  
   134   71  135 1  
   135   72  136 ar 
@<TRIPOS>SUBSTRUCTURE
     1 SER         1

