2yit_ligand
  -I-interpret- 

 52 54  0  0  0  0  0  0  0  0999 V2000
   46.9850  -16.9060   -7.7150 N   0  0  0  0  0
   47.0020  -17.6790   -6.6340 C   0  0  0  0  0
   46.4080  -18.9010   -6.3730 C   0  0  0  0  0
   46.5960  -19.5170   -5.1390 C   0  0  0  0  0
   47.3840  -18.9320   -4.1560 C   0  0  0  0  0
   47.5120  -19.6420   -2.9810 O   0  0  0  0  0
   48.1120  -18.9770   -1.8380 C   0  0  0  0  0
   48.0010  -17.6900   -4.4150 C   0  0  0  0  0
   47.8090  -17.0640   -5.6730 C   0  0  0  0  0
   48.2450  -15.9220   -6.2270 C   0  0  0  0  0
   47.7330  -15.8310   -7.4650 C   0  0  0  0  0
   48.0110  -14.6880   -8.4710 C   0  0  0  0  0
   48.8490  -13.8340   -8.2030 O   0  0  0  0  0
   47.3860  -14.7720   -9.6620 N   0  0  0  0  0
   47.5380  -13.9470  -10.7130 C   0  0  0  0  0
   46.6590  -14.1350  -11.7810 C   0  0  0  0  0
   46.7430  -13.3930  -12.9470 C   0  0  0  0  0
   48.5240  -12.9780  -10.8290 C   0  0  0  0  0
   48.6130  -12.2030  -12.0000 C   0  0  0  0  0
   47.7160  -12.3960  -13.0690 C   0  0  0  0  0
   47.7950  -11.6060  -14.2310 C   0  0  0  0  0
   48.3530  -10.1870  -14.2140 C   0  0  0  0  0
   49.6710  -10.0900  -15.0070 C   0  0  0  0  0
   50.2010   -8.6410  -14.9860 C   0  0  0  0  0
   47.3480  -12.1120  -15.3940 N   0  0  0  0  0
   47.3720  -11.5010  -16.4900 N   0  0  0  0  0
   46.9450  -12.1090  -17.6190 C   0  0  0  0  0
   46.9640  -11.5300  -18.8110 N   0  0  0  0  0
   46.5130  -13.3380  -17.5860 N   0  0  0  0  0
   45.7927  -19.3814   -7.1338 H   0  0  0  0  0
   46.1163  -20.4755   -4.9405 H   0  0  0  0  0
   49.1257  -18.6663   -2.0909 H   0  0  0  0  0
   47.5174  -18.1022   -1.5749 H   0  0  0  0  0
   48.1417  -19.6652   -0.9932 H   0  0  0  0  0
   48.6205  -17.2152   -3.6541 H   0  0  0  0  0
   48.9023  -15.1930   -5.7530 H   0  0  0  0  0
   46.7282  -15.5428   -9.7786 H   0  0  0  0  0
   45.8796  -14.8920  -11.6940 H   0  0  0  0  0
   46.0523  -13.5856  -13.7679 H   0  0  0  0  0
   49.2292  -12.8171  -10.0136 H   0  0  0  0  0
   49.3883  -11.4412  -12.0813 H   0  0  0  0  0
   48.5504   -9.9056  -13.1796 H   0  0  0  0  0
   47.6223   -9.5227  -14.6754 H   0  0  0  0  0
   49.4886  -10.3880  -16.0395 H   0  0  0  0  0
   50.4111  -10.7470  -14.5502 H   0  0  0  0  0
   49.4626   -7.9788  -15.4381 H   0  0  0  0  0
   50.3812   -8.3363  -13.9551 H   0  0  0  0  0
   51.1322   -8.5879  -15.5500 H   0  0  0  0  0
   47.7153  -10.5413  -16.5289 H   0  0  0  0  0
   46.6515  -12.0458  -19.6336 H   0  0  0  0  0
   47.2911  -10.5685  -18.9058 H   0  0  0  0  0
   46.4953  -13.8488  -16.7033 H   0  0  0  0  0
  1  2  4  0  0  0
  1 11  4  0  0  0
  2  3  4  0  0  0
  2  9  4  0  0  0
  3  4  4  0  0  0
  4  5  4  0  0  0
  5  6  1  0  0  0
  5  8  4  0  0  0
  6  7  1  0  0  0
  8  9  4  0  0  0
  9 10  4  0  0  0
 10 11  4  0  0  0
 11 12  1  0  0  0
 12 13  2  0  0  0
 12 14  1  0  0  0
 14 15  1  0  0  0
 15 16  4  0  0  0
 15 18  4  0  0  0
 16 17  4  0  0  0
 17 20  4  0  0  0
 18 19  4  0  0  0
 19 20  4  0  0  0
 20 21  1  0  0  0
 21 22  1  0  0  0
 21 25  2  0  0  0
 22 23  1  0  0  0
 23 24  1  0  0  0
 25 26  1  0  0  0
 26 27  1  0  0  0
 27 28  1  0  0  0
 27 29  2  0  0  0
  3 30  1  0  0  0
  4 31  1  0  0  0
  7 32  1  0  0  0
  7 33  1  0  0  0
  7 34  1  0  0  0
  8 35  1  0  0  0
 10 36  1  0  0  0
 14 37  1  0  0  0
 16 38  1  0  0  0
 17 39  1  0  0  0
 18 40  1  0  0  0
 19 41  1  0  0  0
 22 42  1  0  0  0
 22 43  1  0  0  0
 23 44  1  0  0  0
 23 45  1  0  0  0
 24 46  1  0  0  0
 24 47  1  0  0  0
 24 48  1  0  0  0
 26 49  1  0  0  0
 28 50  1  0  0  0
 28 51  1  0  0  0
 29 52  1  0  0  0
M  END
$$$$
