### 
### Created by X-TOOL on Mon Sep 10 21:13:28 2018
### 

@<TRIPOS>MOLECULE
5hkh_ligand
  144   145     1     0     0
SMALL
GAST_HUCK


@<TRIPOS>ATOM
      1 N          29.3720   -9.2840  -10.5420 N.4       1 ASP         0.2391
      2 CA         28.4590  -10.0830   -9.7320 C.3       1 ASP         0.0765
      3 C          27.7580   -9.2090   -8.6910 C.2       1 ASP         0.2285
      4 O          26.5610   -9.3980   -8.4110 O.2       1 ASP        -0.3906
      5 CB         29.2170  -11.2340   -9.0460 C.3       1 ASP         0.0607
      6 CG         28.2800  -12.3140   -8.4680 C.2       1 ASP         0.0425
      7 OD1        27.2510  -11.9680   -7.8280 O.co2     1 ASP        -0.5686
      8 OD2        28.5820  -13.5210   -8.6490 O.co2     1 ASP        -0.5686
      9 N          28.5050   -8.2500   -8.1350 N.am      1 ASN        -0.2588
     10 CA         28.0500   -7.4370   -6.9890 C.3       1 ASN         0.1477
     11 C          27.5890   -8.2180   -5.7380 C.2       1 ASN         0.2063
     12 O          26.5000   -7.9840   -5.1820 O.2       1 ASN        -0.3942
     13 CB         26.9990   -6.3980   -7.3870 C.3       1 ASN         0.0773
     14 CG         26.8490   -5.2990   -6.3370 C.2       1 ASN         0.1780
     15 OD1        27.6920   -5.1560   -5.4400 O.2       1 ASN        -0.3970
     16 ND2        25.7790   -4.5170   -6.4480 N.am      1 ASN        -0.3007
     17 N          28.4490   -9.1180   -5.2890 N.am      1 GLU        -0.2635
     18 CA         28.1640   -9.9490   -4.1420 C.3       1 GLU         0.1325
     19 C          28.3510   -9.2210   -2.8030 C.2       1 GLU         0.2041
     20 O          28.1560   -9.8200   -1.7410 O.2       1 GLU        -0.3944
     21 CB         29.0250  -11.2200   -4.2070 C.3       1 GLU        -0.0008
     22 CG         30.5180  -11.0190   -3.9690 C.3       1 GLU         0.0044
     23 CD         31.2720  -10.3160   -5.1110 C.2       1 GLU         0.0350
     24 OE1        30.6370   -9.6350   -5.9450 O.co2     1 GLU        -0.5690
     25 OE2        32.5220  -10.4410   -5.1660 O.co2     1 GLU        -0.5690
     26 N          28.7240   -7.9400   -2.8460 N.am      1 TRP        -0.2627
     27 CA         28.8600   -7.1380   -1.6230 C.3       1 TRP         0.1352
     28 C          27.7360   -6.1210   -1.4750 C.2       1 TRP         0.2050
     29 O          27.7630   -5.2860   -0.5750 O.2       1 TRP        -0.3943
     30 CB         30.2200   -6.4270   -1.5290 C.3       1 TRP         0.0042
     31 CG         31.3760   -7.3600   -1.5120 C.2       1 TRP        -0.0418
     32 CD1        32.1250   -7.7510   -2.5830 C.2       1 TRP         0.0167
     33 CD2        31.9250   -8.0320   -0.3710 C.ar      1 TRP        -0.0214
     34 NE1        33.1020   -8.6290   -2.1800 N.pl3     1 TRP        -0.2890
     35 CE2        33.0010   -8.8170   -0.8250 C.ar      1 TRP         0.0603
     36 CE3        31.6140   -8.0430    0.9940 C.ar      1 TRP        -0.0747
     37 CZ2        33.7700   -9.6080    0.0370 C.ar      1 TRP        -0.0443
     38 CZ3        32.3780   -8.8360    1.8490 C.ar      1 TRP        -0.0792
     39 CH2        33.4400   -9.6050    1.3640 C.ar      1 TRP        -0.0768
     40 N          26.7520   -6.1800   -2.3620 N.am      1 GLY        -0.2663
     41 CA         25.5540   -5.3850   -2.1750 C.3       1 GLY         0.1201
     42 C          25.6770   -3.8740   -2.3220 C.2       1 GLY         0.2008
     43 O          24.8820   -3.1250   -1.7420 O.2       1 GLY        -0.3947
     44 N          26.6530   -3.4200   -3.1030 N.am      1 ILE        -0.2637
     45 CA         26.8100   -2.0000   -3.3890 C.3       1 ILE         0.1335
     46 C          25.6400   -1.4880   -4.2170 C.2       1 ILE         0.2042
     47 O          25.2360   -2.1420   -5.1590 O.2       1 ILE        -0.3944
     48 CB         28.1340   -1.7440   -4.1390 C.3       1 ILE        -0.0037
     49 CG1        29.3060   -1.9730   -3.1850 C.3       1 ILE        -0.0491
     50 CG2        28.1700   -0.3250   -4.7500 C.3       1 ILE        -0.0582
     51 CD1        30.6740   -1.7990   -3.8130 C.3       1 ILE        -0.0648
     52 N          25.1040   -0.3200   -3.8690 N.am      1 GLU        -0.2636
     53 CA         23.9880    0.2820   -4.6020 C.3       1 GLU         0.1325
     54 C          24.4010    1.5960   -5.2700 C.2       1 GLU         0.2040
     55 O          25.1110    2.4200   -4.6630 O.2       1 GLU        -0.3944
     56 CB         22.8100    0.5680   -3.6580 C.3       1 GLU        -0.0008
     57 CG         22.1000   -0.6570   -3.0770 C.3       1 GLU         0.0044
     58 CD         21.0010   -0.2810   -2.0720 C.2       1 GLU         0.0350
     59 OE1        20.4610   -1.2020   -1.4140 O.co2     1 GLU        -0.5690
     60 OE2        20.6780    0.9310   -1.9350 O.co2     1 GLU        -0.5690
     61 N          23.9420    1.8080   -6.5040 N.am      1 LEU        -0.2637
     62 CA         24.2010    3.0640   -7.2080 C.3       1 LEU         0.1312
     63 C          23.0810    4.0340   -6.8720 C.2       1 LEU         0.2034
     64 O          21.9380    3.6160   -6.7410 O.2       1 LEU        -0.3944
     65 CB         24.2790    2.8090   -8.7140 C.3       1 LEU        -0.0101
     66 CG         24.6660    3.8720   -9.7460 C.3       1 LEU        -0.0425
     67 CD1        23.4480    4.6470  -10.2360 C.3       1 LEU        -0.0625
     68 CD2        25.7380    4.8130   -9.2080 C.3       1 LEU        -0.0625
     69 N          23.4040    5.3100   -6.6880 N.am      1 VAL        -0.2692
     70 CA         22.3700    6.3350   -6.4880 C.3       1 VAL         0.0967
     71 C          22.6000    7.5840   -7.3380 C.2       1 VAL         0.0603
     72 O          21.6810    8.0610   -8.0030 O.co2     1 VAL        -0.5666
     73 CB         22.1650    6.7220   -4.9890 C.3       1 VAL        -0.0118
     74 CG1        23.4040    6.4490   -4.1570 C.3       1 VAL        -0.0590
     75 CG2        21.7260    8.1840   -4.8480 C.3       1 VAL        -0.0590
     76 OXT        23.7060    8.1230   -7.3640 O.co2     1 VAL        -0.5666
     77 H1         29.8241   -9.8758  -11.2213 H         1 ASP         0.2016
     78 H2         30.0682   -8.8629   -9.9470 H         1 ASP         0.2016
     79 H3         28.8546   -8.5613  -11.0174 H         1 ASP         0.2016
     80 H4         27.6945  -10.5155  -10.3942 H         1 ASP         0.1117
     81 H5         29.8191  -10.8170   -8.2253 H         1 ASP         0.0512
     82 H6         29.8812  -11.7057   -9.7851 H         1 ASP         0.0512
     83 H7         29.4143   -8.0749   -8.5126 H         1 ASN         0.1886
     84 H8         28.9371   -6.8698   -6.6706 H         1 ASN         0.0826
     85 H9         26.0301   -6.9037   -7.5116 H         1 ASN         0.0551
     86 H10        27.2982   -5.9386   -8.3406 H         1 ASN         0.0551
     87 H11        25.6277   -3.7801   -5.7891 H         1 ASN         0.1814
     88 H12        25.1257   -4.6659   -7.1903 H         1 ASN         0.1814
     89 H13        29.3249   -9.2265   -5.7591 H         1 GLU         0.1883
     90 H14        27.1079  -10.2503   -4.2043 H         1 GLU         0.0801
     91 H15        28.8985  -11.6635   -5.2056 H         1 GLU         0.0330
     92 H16        28.6524  -11.9202   -3.4449 H         1 GLU         0.0330
     93 H17        30.9750  -12.0079   -3.8170 H         1 GLU         0.0433
     94 H18        30.6396  -10.4149   -3.0578 H         1 GLU         0.0433
     95 H19        28.9153   -7.5165   -3.7315 H         1 TRP         0.1884
     96 H20        28.7920   -7.8335   -0.7735 H         1 TRP         0.0815
     97 H21        30.2389   -5.8323   -0.6038 H         1 TRP         0.0397
     98 H22        30.3245   -5.7589   -2.3966 H         1 TRP         0.0397
     99 H23        31.9710   -7.4161   -3.6077 H         1 TRP         0.0795
    100 H24        33.7976   -9.0740   -2.7957 H         1 TRP         0.2216
    101 H25        30.7948   -7.4463    1.3787 H         1 TRP         0.0540
    102 H26        34.5975  -10.2017   -0.3343 H         1 TRP         0.0541
    103 H27        32.1447   -8.8567    2.9074 H         1 TRP         0.0510
    104 H28        34.0142  -10.2119    2.0547 H         1 TRP         0.0530
    105 H29        26.8364   -6.7743   -3.1618 H         1 GLY         0.1881
    106 H30        25.1807   -5.5870   -1.1602 H         1 GLY         0.0763
    107 H31        24.8138   -5.7277   -2.9130 H         1 GLY         0.0763
    108 H32        27.2968   -4.0711   -3.5050 H         1 ILE         0.1883
    109 H33        26.8332   -1.4517   -2.4357 H         1 ILE         0.0803
    110 H34        28.2115   -2.4690   -4.9626 H         1 ILE         0.0345
    111 H35        29.2356   -2.9992   -2.7951 H         1 ILE         0.0267
    112 H36        29.2166   -1.2580   -2.3539 H         1 ILE         0.0267
    113 H37        27.3143   -0.1964   -5.4292 H         1 ILE         0.0235
    114 H38        29.1067   -0.1909   -5.3109 H         1 ILE         0.0235
    115 H39        28.1145    0.4224   -3.9449 H         1 ILE         0.0235
    116 H40        31.4509   -1.9823   -3.0561 H         1 ILE         0.0230
    117 H41        30.7727   -0.7736   -4.1987 H         1 ILE         0.0230
    118 H42        30.7916   -2.5148   -4.6399 H         1 ILE         0.0230
    119 H43        25.4773    0.1643   -3.0777 H         1 GLU         0.1883
    120 H44        23.6612   -0.4247   -5.3790 H         1 GLU         0.0801
    121 H45        22.0657    1.1539   -4.2172 H         1 GLU         0.0330
    122 H46        23.1908    1.1660   -2.8170 H         1 GLU         0.0330
    123 H47        22.8439   -1.2863   -2.5665 H         1 GLU         0.0433
    124 H48        21.6440   -1.2242   -3.9019 H         1 GLU         0.0433
    125 H49        23.4096    1.0934   -6.9577 H         1 LEU         0.1883
    126 H50        25.1588    3.4848   -6.8681 H         1 LEU         0.0800
    127 H51        23.2789    2.4583   -9.0087 H         1 LEU         0.0315
    128 H52        25.0057    1.9930   -8.8405 H         1 LEU         0.0315
    129 H53        25.0935    3.3472  -10.6131 H         1 LEU         0.0298
    130 H54        23.7644    5.3991  -10.9737 H         1 LEU         0.0232
    131 H55        22.9658    5.1490   -9.3843 H         1 LEU         0.0232
    132 H56        22.7350    3.9521  -10.7037 H         1 LEU         0.0232
    133 H57        26.6018    4.2257   -8.8630 H         1 LEU         0.0232
    134 H58        25.3290    5.3922   -8.3670 H         1 LEU         0.0232
    135 H59        26.0568    5.5000  -10.0057 H         1 LEU         0.0232
    136 H60        24.3676    5.5773   -6.6856 H         1 VAL         0.1875
    137 H61        21.4248    5.8884   -6.8303 H         1 VAL         0.0729
    138 H62        21.3553    6.0910   -4.5937 H         1 VAL         0.0336
    139 H63        23.2144    6.7356   -3.1121 H         1 VAL         0.0234
    140 H64        24.2469    7.0358   -4.5510 H         1 VAL         0.0234
    141 H65        23.6490    5.3777   -4.2047 H         1 VAL         0.0234
    142 H66        20.8278    8.3577   -5.4589 H         1 VAL         0.0234
    143 H67        22.5359    8.8447   -5.1908 H         1 VAL         0.0234
    144 H68        21.4992    8.3987   -3.7933 H         1 VAL         0.0234
@<TRIPOS>BOND
     1    1    2 1  
     2    2    3 1  
     3    2    5 1  
     4    3    4 2  
     5    3    9 am 
     6    5    6 1  
     7    6    7 ar 
     8    6    8 ar 
     9    9   10 1  
    10   10   11 1  
    11   10   13 1  
    12   11   12 2  
    13   11   17 am 
    14   13   14 1  
    15   14   15 2  
    16   14   16 am 
    17   17   18 1  
    18   18   19 1  
    19   18   21 1  
    20   19   20 2  
    21   19   26 am 
    22   21   22 1  
    23   22   23 1  
    24   23   24 ar 
    25   23   25 ar 
    26   26   27 1  
    27   27   28 1  
    28   27   30 1  
    29   28   29 2  
    30   28   40 am 
    31   30   31 1  
    32   31   32 2  
    33   31   33 1  
    34   32   34 1  
    35   33   35 ar 
    36   33   36 ar 
    37   34   35 1  
    38   35   37 ar 
    39   36   38 ar 
    40   37   39 ar 
    41   38   39 ar 
    42   40   41 1  
    43   41   42 1  
    44   42   43 2  
    45   42   44 am 
    46   44   45 1  
    47   45   46 1  
    48   45   48 1  
    49   46   47 2  
    50   46   52 am 
    51   48   49 1  
    52   48   50 1  
    53   49   51 1  
    54   52   53 1  
    55   53   54 1  
    56   53   56 1  
    57   54   55 2  
    58   54   61 am 
    59   56   57 1  
    60   57   58 1  
    61   58   59 ar 
    62   58   60 ar 
    63   61   62 1  
    64   62   63 1  
    65   62   65 1  
    66   63   64 2  
    67   63   69 am 
    68   65   66 1  
    69   66   67 1  
    70   66   68 1  
    71   69   70 1  
    72   70   71 1  
    73   70   73 1  
    74   71   72 ar 
    75   71   76 ar 
    76   73   74 1  
    77   73   75 1  
    78    1   77 1  
    79    1   78 1  
    80    1   79 1  
    81    2   80 1  
    82    5   81 1  
    83    5   82 1  
    84    9   83 1  
    85   10   84 1  
    86   13   85 1  
    87   13   86 1  
    88   16   87 1  
    89   16   88 1  
    90   17   89 1  
    91   18   90 1  
    92   21   91 1  
    93   21   92 1  
    94   22   93 1  
    95   22   94 1  
    96   26   95 1  
    97   27   96 1  
    98   30   97 1  
    99   30   98 1  
   100   32   99 1  
   101   34  100 1  
   102   36  101 1  
   103   37  102 1  
   104   38  103 1  
   105   39  104 1  
   106   40  105 1  
   107   41  106 1  
   108   41  107 1  
   109   44  108 1  
   110   45  109 1  
   111   48  110 1  
   112   49  111 1  
   113   49  112 1  
   114   50  113 1  
   115   50  114 1  
   116   50  115 1  
   117   51  116 1  
   118   51  117 1  
   119   51  118 1  
   120   52  119 1  
   121   53  120 1  
   122   56  121 1  
   123   56  122 1  
   124   57  123 1  
   125   57  124 1  
   126   61  125 1  
   127   62  126 1  
   128   65  127 1  
   129   65  128 1  
   130   66  129 1  
   131   67  130 1  
   132   67  131 1  
   133   67  132 1  
   134   68  133 1  
   135   68  134 1  
   136   68  135 1  
   137   69  136 1  
   138   70  137 1  
   139   73  138 1  
   140   74  139 1  
   141   74  140 1  
   142   74  141 1  
   143   75  142 1  
   144   75  143 1  
   145   75  144 1  
@<TRIPOS>SUBSTRUCTURE
     1 ASP         1

