5hkh_ligand
  -I-interpret- 

147148  0  0  0  0  0  0  0  0999 V2000
   29.3720   -9.2840  -10.5420 N   0  3  0  0  0
   28.4590  -10.0830   -9.7320 C   0  0  0  0  0
   27.7580   -9.2090   -8.6910 C   0  0  0  0  0
   26.5610   -9.3980   -8.4110 O   0  0  0  0  0
   29.2170  -11.2340   -9.0460 C   0  0  0  0  0
   28.2800  -12.3140   -8.4680 C   0  0  0  0  0
   27.2510  -11.9680   -7.8280 O   0  0  0  0  0
   28.5820  -13.5210   -8.6490 O   0  0  0  0  0
   28.5050   -8.2500   -8.1350 N   0  0  0  0  0
   28.0500   -7.4370   -6.9890 C   0  0  0  0  0
   27.5890   -8.2180   -5.7380 C   0  0  0  0  0
   26.5000   -7.9840   -5.1820 O   0  0  0  0  0
   26.9990   -6.3980   -7.3870 C   0  0  0  0  0
   26.8490   -5.2990   -6.3370 C   0  0  0  0  0
   27.6920   -5.1560   -5.4400 O   0  0  0  0  0
   25.7790   -4.5170   -6.4480 N   0  0  0  0  0
   28.4490   -9.1180   -5.2890 N   0  0  0  0  0
   28.1640   -9.9490   -4.1420 C   0  0  0  0  0
   28.3510   -9.2210   -2.8030 C   0  0  0  0  0
   28.1560   -9.8200   -1.7410 O   0  0  0  0  0
   29.0250  -11.2200   -4.2070 C   0  0  0  0  0
   30.5180  -11.0190   -3.9690 C   0  0  0  0  0
   31.2720  -10.3160   -5.1110 C   0  0  0  0  0
   30.6370   -9.6350   -5.9450 O   0  0  0  0  0
   32.5220  -10.4410   -5.1660 O   0  0  0  0  0
   28.7240   -7.9400   -2.8460 N   0  0  0  0  0
   28.8600   -7.1380   -1.6230 C   0  0  0  0  0
   27.7360   -6.1210   -1.4750 C   0  0  0  0  0
   27.7630   -5.2860   -0.5750 O   0  0  0  0  0
   30.2200   -6.4270   -1.5290 C   0  0  0  0  0
   31.3760   -7.3600   -1.5120 C   0  0  0  0  0
   32.1250   -7.7510   -2.5830 C   0  0  0  0  0
   31.9250   -8.0320   -0.3710 C   0  0  0  0  0
   33.1020   -8.6290   -2.1800 N   0  0  0  0  0
   33.0010   -8.8170   -0.8250 C   0  0  0  0  0
   31.6140   -8.0430    0.9940 C   0  0  0  0  0
   33.7700   -9.6080    0.0370 C   0  0  0  0  0
   32.3780   -8.8360    1.8490 C   0  0  0  0  0
   33.4400   -9.6050    1.3640 C   0  0  0  0  0
   26.7520   -6.1800   -2.3620 N   0  0  0  0  0
   25.5540   -5.3850   -2.1750 C   0  0  0  0  0
   25.6770   -3.8740   -2.3220 C   0  0  0  0  0
   24.8820   -3.1250   -1.7420 O   0  0  0  0  0
   26.6530   -3.4200   -3.1030 N   0  0  0  0  0
   26.8100   -2.0000   -3.3890 C   0  0  0  0  0
   25.6400   -1.4880   -4.2170 C   0  0  0  0  0
   25.2360   -2.1420   -5.1590 O   0  0  0  0  0
   28.1340   -1.7440   -4.1390 C   0  0  0  0  0
   29.3060   -1.9730   -3.1850 C   0  0  0  0  0
   28.1700   -0.3250   -4.7500 C   0  0  0  0  0
   30.6740   -1.7990   -3.8130 C   0  0  0  0  0
   25.1040   -0.3200   -3.8690 N   0  0  0  0  0
   23.9880    0.2820   -4.6020 C   0  0  0  0  0
   24.4010    1.5960   -5.2700 C   0  0  0  0  0
   25.1110    2.4200   -4.6630 O   0  0  0  0  0
   22.8100    0.5680   -3.6580 C   0  0  0  0  0
   22.1000   -0.6570   -3.0770 C   0  0  0  0  0
   21.0010   -0.2810   -2.0720 C   0  0  0  0  0
   20.4610   -1.2020   -1.4140 O   0  0  0  0  0
   20.6780    0.9310   -1.9350 O   0  0  0  0  0
   23.9420    1.8080   -6.5040 N   0  0  0  0  0
   24.2010    3.0640   -7.2080 C   0  0  0  0  0
   23.0810    4.0340   -6.8720 C   0  0  0  0  0
   21.9380    3.6160   -6.7410 O   0  0  0  0  0
   24.2790    2.8090   -8.7140 C   0  0  0  0  0
   24.6660    3.8720   -9.7460 C   0  0  0  0  0
   23.4480    4.6470  -10.2360 C   0  0  0  0  0
   25.7380    4.8130   -9.2080 C   0  0  0  0  0
   23.4040    5.3100   -6.6880 N   0  0  0  0  0
   22.3700    6.3350   -6.4880 C   0  0  0  0  0
   22.6000    7.5840   -7.3380 C   0  0  0  0  0
   21.6810    8.0610   -8.0030 O   0  0  0  0  0
   22.1650    6.7220   -4.9890 C   0  0  0  0  0
   23.4040    6.4490   -4.1570 C   0  0  0  0  0
   21.7260    8.1840   -4.8480 C   0  0  0  0  0
   23.7060    8.1230   -7.3640 O   0  0  0  0  0
   28.8545   -8.5270  -10.9888 H   0  0  0  0  0
   30.1009   -8.8931   -9.9451 H   0  0  0  0  0
   29.7967   -9.8751  -11.2566 H   0  0  0  0  0
   27.7006  -10.5100  -10.3883 H   0  0  0  0  0
   29.7850  -10.8100   -8.2179 H   0  0  0  0  0
   29.8479  -11.7096   -9.7969 H   0  0  0  0  0
   27.1991  -11.0098   -7.8016 H   0  0  0  0  0
   29.4325   -8.0714   -8.5201 H   0  0  0  0  0
   28.9641   -6.9279   -6.6834 H   0  0  0  0  0
   26.0398   -6.9061   -7.4860 H   0  0  0  0  0
   27.3168   -5.9342   -8.3208 H   0  0  0  0  0
   25.6267   -3.7629   -5.7783 H   0  0  0  0  0
   25.1106   -4.6713   -7.2029 H   0  0  0  0  0
   29.3425   -9.2287   -5.7685 H   0  0  0  0  0
   27.1080  -10.2157   -4.1850 H   0  0  0  0  0
   28.9233  -11.6108   -5.2195 H   0  0  0  0  0
   28.6705  -11.8745   -3.4107 H   0  0  0  0  0
   30.9562  -12.0119   -3.8681 H   0  0  0  0  0
   30.6126  -10.3805   -3.0907 H   0  0  0  0  0
   32.8189  -10.9982   -4.4428 H   0  0  0  0  0
   28.9191   -7.5081   -3.7492 H   0  0  0  0  0
   28.7942   -7.8504   -0.8007 H   0  0  0  0  0
   30.2346   -5.8699   -0.5922 H   0  0  0  0  0
   30.3214   -5.7955   -2.4116 H   0  0  0  0  0
   31.9709   -7.4158   -3.6087 H   0  0  0  0  0
   30.7903   -7.4430    1.3808 H   0  0  0  0  0
   34.6021  -10.2049   -0.3364 H   0  0  0  0  0
   32.1434   -8.8568    2.9133 H   0  0  0  0  0
   34.0173  -10.2153    2.0585 H   0  0  0  0  0
   26.8381   -6.7862   -3.1778 H   0  0  0  0  0
   25.2502   -5.5538   -1.1419 H   0  0  0  0  0
   24.8691   -5.6999   -2.9623 H   0  0  0  0  0
   27.3097   -4.0841   -3.5130 H   0  0  0  0  0
   26.8309   -1.4628   -2.4408 H   0  0  0  0  0
   28.2130   -2.4446   -4.9703 H   0  0  0  0  0
   29.2415   -3.0064   -2.8443 H   0  0  0  0  0
   29.2222   -1.2281   -2.3937 H   0  0  0  0  0
   27.3454   -0.2129   -5.4540 H   0  0  0  0  0
   28.0735    0.4142   -3.9548 H   0  0  0  0  0
   29.1164   -0.1789   -5.2707 H   0  0  0  0  0
   30.7892   -2.5087   -4.6322 H   0  0  0  0  0
   30.7705   -0.7826   -4.1948 H   0  0  0  0  0
   31.4429   -1.9809   -3.0621 H   0  0  0  0  0
   25.4847    0.1740   -3.0619 H   0  0  0  0  0
   23.6887   -0.4333   -5.3681 H   0  0  0  0  0
   22.0657    1.0995   -4.2510 H   0  0  0  0  0
   23.2242    1.1119   -2.8091 H   0  0  0  0  0
   22.8429   -1.2580   -2.5526 H   0  0  0  0  0
   21.6314   -1.1953   -3.9008 H   0  0  0  0  0
   21.2070    1.4709   -2.5269 H   0  0  0  0  0
   23.3989    1.0791   -6.9668 H   0  0  0  0  0
   25.1542    3.4911   -6.8963 H   0  0  0  0  0
   23.2434    2.5892   -8.9735 H   0  0  0  0  0
   25.0947    2.0903   -8.7932 H   0  0  0  0  0
   25.0893    3.3480  -10.6029 H   0  0  0  0  0
   22.7423    3.9573  -10.6991 H   0  0  0  0  0
   22.9711    5.1439   -9.3912 H   0  0  0  0  0
   23.7628    5.3919  -10.9668 H   0  0  0  0  0
   25.3630    5.3176   -8.3176 H   0  0  0  0  0
   26.6291    4.2391   -8.9538 H   0  0  0  0  0
   25.9856    5.5527   -9.9693 H   0  0  0  0  0
   24.3869    5.5827   -6.6856 H   0  0  0  0  0
   21.4474    5.8657   -6.8295 H   0  0  0  0  0
   21.3669    6.0875   -4.6035 H   0  0  0  0  0
   23.6457    5.3872   -4.2051 H   0  0  0  0  0
   24.2384    7.0310   -4.5484 H   0  0  0  0  0
   23.2149    6.7334   -3.1219 H   0  0  0  0  0
   22.4902    8.8342   -5.2739 H   0  0  0  0  0
   20.7848    8.3321   -5.3775 H   0  0  0  0  0
   21.5919    8.4216   -3.7927 H   0  0  0  0  0
   24.3109    7.6371   -6.7987 H   0  0  0  0  0
  1  2  1  0  0  0
  2  3  1  0  0  0
  2  5  1  0  0  0
  3  4  2  0  0  0
  3  9  1  0  0  0
  5  6  1  0  0  0
  6  7  1  0  0  0
  6  8  2  0  0  0
  9 10  1  0  0  0
 10 11  1  0  0  0
 10 13  1  0  0  0
 11 12  2  0  0  0
 11 17  1  0  0  0
 13 14  1  0  0  0
 14 15  2  0  0  0
 14 16  1  0  0  0
 17 18  1  0  0  0
 18 19  1  0  0  0
 18 21  1  0  0  0
 19 20  2  0  0  0
 19 26  1  0  0  0
 21 22  1  0  0  0
 22 23  1  0  0  0
 23 24  2  0  0  0
 23 25  1  0  0  0
 26 27  1  0  0  0
 27 28  1  0  0  0
 27 30  1  0  0  0
 28 29  2  0  0  0
 28 40  1  0  0  0
 30 31  1  0  0  0
 31 32  4  0  0  0
 31 33  4  0  0  0
 32 34  4  0  0  0
 33 35  4  0  0  0
 33 36  4  0  0  0
 34 35  4  0  0  0
 35 37  4  0  0  0
 36 38  4  0  0  0
 37 39  4  0  0  0
 38 39  4  0  0  0
 40 41  1  0  0  0
 41 42  1  0  0  0
 42 43  2  0  0  0
 42 44  1  0  0  0
 44 45  1  0  0  0
 45 46  1  0  0  0
 45 48  1  0  0  0
 46 47  2  0  0  0
 46 52  1  0  0  0
 48 49  1  0  0  0
 48 50  1  0  0  0
 49 51  1  0  0  0
 52 53  1  0  0  0
 53 54  1  0  0  0
 53 56  1  0  0  0
 54 55  2  0  0  0
 54 61  1  0  0  0
 56 57  1  0  0  0
 57 58  1  0  0  0
 58 59  2  0  0  0
 58 60  1  0  0  0
 61 62  1  0  0  0
 62 63  1  0  0  0
 62 65  1  0  0  0
 63 64  2  0  0  0
 63 69  1  0  0  0
 65 66  1  0  0  0
 66 67  1  0  0  0
 66 68  1  0  0  0
 69 70  1  0  0  0
 70 71  1  0  0  0
 70 73  1  0  0  0
 71 72  2  0  0  0
 71 76  1  0  0  0
 73 74  1  0  0  0
 73 75  1  0  0  0
  1 77  1  0  0  0
  1 78  1  0  0  0
  1 79  1  0  0  0
  2 80  1  0  0  0
  5 81  1  0  0  0
  5 82  1  0  0  0
  7 83  1  0  0  0
  9 84  1  0  0  0
 10 85  1  0  0  0
 13 86  1  0  0  0
 13 87  1  0  0  0
 16 88  1  0  0  0
 16 89  1  0  0  0
 17 90  1  0  0  0
 18 91  1  0  0  0
 21 92  1  0  0  0
 21 93  1  0  0  0
 22 94  1  0  0  0
 22 95  1  0  0  0
 25 96  1  0  0  0
 26 97  1  0  0  0
 27 98  1  0  0  0
 30 99  1  0  0  0
 30100  1  0  0  0
 32101  1  0  0  0
 36102  1  0  0  0
 37103  1  0  0  0
 38104  1  0  0  0
 39105  1  0  0  0
 40106  1  0  0  0
 41107  1  0  0  0
 41108  1  0  0  0
 44109  1  0  0  0
 45110  1  0  0  0
 48111  1  0  0  0
 49112  1  0  0  0
 49113  1  0  0  0
 50114  1  0  0  0
 50115  1  0  0  0
 50116  1  0  0  0
 51117  1  0  0  0
 51118  1  0  0  0
 51119  1  0  0  0
 52120  1  0  0  0
 53121  1  0  0  0
 56122  1  0  0  0
 56123  1  0  0  0
 57124  1  0  0  0
 57125  1  0  0  0
 60126  1  0  0  0
 61127  1  0  0  0
 62128  1  0  0  0
 65129  1  0  0  0
 65130  1  0  0  0
 66131  1  0  0  0
 67132  1  0  0  0
 67133  1  0  0  0
 67134  1  0  0  0
 68135  1  0  0  0
 68136  1  0  0  0
 68137  1  0  0  0
 69138  1  0  0  0
 70139  1  0  0  0
 73140  1  0  0  0
 74141  1  0  0  0
 74142  1  0  0  0
 74143  1  0  0  0
 75144  1  0  0  0
 75145  1  0  0  0
 75146  1  0  0  0
 76147  1  0  0  0
M  END
$$$$
