1v11_ligand
  -I-interpret- 

 45 46  0  0  0  0  0  0  0  0999 V2000
   77.0940    0.6000   11.1890 N   0  0  0  0  0
   77.3550    1.7860   11.7580 C   0  0  0  0  0
   77.4600    1.9740   13.2600 C   0  0  0  0  0
   77.4460    2.8960   10.9710 N   0  0  0  0  0
   77.3340    2.8570    9.6150 C   0  0  0  0  0
   77.5390    4.0350    8.9390 N   0  0  0  0  0
   77.1030    1.5880    8.9950 C   0  0  0  0  0
   76.9460    0.4970    9.8490 C   0  0  0  0  0
   76.9640    1.4180    7.4700 C   0  0  0  0  0
   75.6730    1.9780    7.0130 N   0  3  0  0  0
   75.7960    3.2460    6.3450 C   0  0  0  0  0
   74.0630    3.6270    5.9090 S   0  0  0  0  0
   73.3750    2.1240    6.5320 C   0  0  0  0  0
   74.4510    1.3760    7.0430 C   0  0  0  0  0
   74.2630    0.0230    7.6330 C   0  0  0  0  0
   71.9080    1.8660    6.4200 C   0  0  0  0  0
   71.1190    2.8860    7.2480 C   0  0  0  0  0
   69.7730    2.6770    7.1320 O   0  0  0  0  0
   68.7020    3.6990    7.6490 P   0  0  0  0  0
   68.7790    5.0250    6.7250 O   0  0  0  0  0
   69.1020    4.1640    8.9760 O   0  0  0  0  0
   67.3230    3.0360    7.5420 O   0  0  0  0  0
   68.5080    5.1730    5.1260 P   0  0  0  0  0
   69.8360    4.8430    4.4200 O   0  0  0  0  0
   67.4630    4.1030    4.7390 O   0  0  0  0  0
   68.0890    6.5980    4.8690 O   0  0  0  0  0
   76.5164    1.6918   13.7270 H   0  0  0  0  0
   78.2614    1.3455   13.6484 H   0  0  0  0  0
   77.6773    3.0193   13.4797 H   0  0  0  0  0
   77.7637    4.8862    9.4542 H   0  0  0  0  0
   77.4665    4.0586    7.9219 H   0  0  0  0  0
   76.6950   -0.4735    9.4210 H   0  0  0  0  0
   77.0018    0.3571    7.2229 H   0  0  0  0  0
   77.7789    1.9461    6.9749 H   0  0  0  0  0
   76.6946    3.8309    6.1488 H   0  0  0  0  0
   74.8807   -0.6958    7.0946 H   0  0  0  0  0
   74.5563    0.0418    8.6826 H   0  0  0  0  0
   73.2147   -0.2646    7.5525 H   0  0  0  0  0
   71.6949    0.8649    6.7947 H   0  0  0  0  0
   71.6118    1.9534    5.3747 H   0  0  0  0  0
   71.3499    3.8864    6.8819 H   0  0  0  0  0
   71.4002    2.7777    8.2955 H   0  0  0  0  0
   67.1660    2.7717    6.6326 H   0  0  0  0  0
   70.0759    3.9314    4.6019 H   0  0  0  0  0
   67.8120    3.2306    4.9358 H   0  0  0  0  0
  1  2  4  0  0  0
  1  8  4  0  0  0
  2  3  1  0  0  0
  2  4  4  0  0  0
  4  5  4  0  0  0
  5  6  1  0  0  0
  5  7  4  0  0  0
  7  8  4  0  0  0
  7  9  1  0  0  0
  9 10  1  0  0  0
 10 11  4  0  0  0
 10 14  4  0  0  0
 11 12  4  0  0  0
 12 13  4  0  0  0
 13 14  4  0  0  0
 13 16  1  0  0  0
 14 15  1  0  0  0
 16 17  1  0  0  0
 17 18  1  0  0  0
 18 19  1  0  0  0
 19 20  1  0  0  0
 19 21  2  0  0  0
 19 22  1  0  0  0
 20 23  1  0  0  0
 23 24  1  0  0  0
 23 25  1  0  0  0
 23 26  2  0  0  0
  3 27  1  0  0  0
  3 28  1  0  0  0
  3 29  1  0  0  0
  6 30  1  0  0  0
  6 31  1  0  0  0
  8 32  1  0  0  0
  9 33  1  0  0  0
  9 34  1  0  0  0
 11 35  1  0  0  0
 15 36  1  0  0  0
 15 37  1  0  0  0
 15 38  1  0  0  0
 16 39  1  0  0  0
 16 40  1  0  0  0
 17 41  1  0  0  0
 17 42  1  0  0  0
 22 43  1  0  0  0
 24 44  1  0  0  0
 25 45  1  0  0  0
M  END
$$$$
