### 
### Created by X-TOOL on Mon Sep 10 21:13:03 2018
### 

@<TRIPOS>MOLECULE
3kqd_ligand
   72    78     1     0     0
SMALL
GAST_HUCK


@<TRIPOS>ATOM
      1 C1         39.8500   35.9380   20.7740 C.ar      1 LGL        -0.0703
      2 C2         39.4740   36.0840   22.1150 C.ar      1 LGL        -0.0705
      3 C3         39.4640   26.6230   14.6250 C.ar      1 LGL        -0.0627
      4 C4         39.1930   35.0090   19.9540 C.ar      1 LGL        -0.0639
      5 C5         37.5380   31.8770   19.8600 C.ar      1 LGL        -0.0678
      6 C6         36.8010   33.7620   18.4920 C.ar      1 LGL        -0.0678
      7 C7         40.0280   27.2560   13.4960 C.ar      1 LGL        -0.0561
      8 C8         38.4400   35.2990   22.6360 C.ar      1 LGL        -0.0634
      9 C9         38.1240   26.8420   14.9570 C.ar      1 LGL        -0.0204
     10 C10        36.8670   30.9950   19.0040 C.ar      1 LGL        -0.0398
     11 C11        36.1270   32.8810   17.6400 C.ar      1 LGL        -0.0398
     12 C12        37.9160   28.3310   13.0310 C.ar      1 LGL        -0.0103
     13 C13        37.5030   33.2660   19.6020 C.ar      1 LGL        -0.0355
     14 C14        38.1680   34.2130   20.4770 C.ar      1 LGL        -0.0266
     15 C15        39.2440   28.1090   12.7030 C.ar      1 LGL         0.0167
     16 C16        34.1870   28.8980   15.0870 C.2       1 LGL         0.0254
     17 C17        37.7810   34.3690   21.8210 C.ar      1 LGL        -0.0576
     18 C18        37.3590   27.6920   14.1430 C.ar      1 LGL         0.1282
     19 C19        36.1450   31.5010   17.8980 C.ar      1 LGL         0.0701
     20 C20        35.5540   28.9190   15.2480 C.2       1 LGL         0.2006
     21 C21        33.9720   27.9330   14.0830 C.2       1 LGL         0.1318
     22 C22        39.7880   28.7710   11.5370 C.2       1 LGL         0.1524
     23 C23        36.2860   29.7550   16.1810 C.2       1 LGL         0.2605
     24 C24        39.7140   30.0150    9.7430 C.2       1 LGL         0.3193
     25 C25        33.3120   29.7780   15.8880 C.3       1 LGL         0.0080
     26 C26        33.3850   35.0380   21.9440 C.3       1 LGL        -0.0733
     27 C27        33.1510   34.1470   23.1620 C.3       1 LGL        -0.0733
     28 C28        34.1170   30.9830   16.4440 C.3       1 LGL         0.0643
     29 C29        34.7610   34.6310   21.4390 C.3       1 LGL        -0.1103
     30 C30        34.4960   33.4820   23.4480 C.3       1 LGL        -0.1103
     31 C31        36.6860   33.5470   22.4360 C.3       1 LGL        -0.0760
     32 C32        32.7130   27.5030   13.4560 C.3       1 LGL         0.3843
     33 N33        35.1070   27.3860   13.6440 N.2       1 LGL        -0.1364
     34 N34        41.0210   28.7390   11.1370 N.2       1 LGL        -0.1946
     35 N35        36.0340   27.9840   14.3910 N.pl3     1 LGL        -0.1177
     36 N36        38.9410   29.5060   10.7610 N.am      1 LGL        -0.2055
     37 N37        41.0020   29.5170   10.0040 N.am      1 LGL        -0.1724
     38 N38        35.4700   30.6210   16.9660 N.am      1 LGL        -0.2163
     39 N39        35.4520   34.2990   22.6900 N.4       1 LGL         0.4080
     40 O40        37.5080   29.7120   16.2640 O.2       1 LGL        -0.3775
     41 O41        39.3560   30.7370    8.8250 O.2       1 LGL        -0.4039
     42 F42        32.8510   26.4510   12.5670 F         1 LGL        -0.2218
     43 F43        31.7120   27.1720   14.3570 F         1 LGL        -0.2218
     44 F44        32.2140   28.4790   12.6220 F         1 LGL        -0.2218
     45 H          40.6558   36.5483   20.3662 H         1 LGL         0.0555
     46 H          39.9853   36.8069   22.7507 H         1 LGL         0.0583
     47 H          40.0751   25.9618   15.2393 H         1 LGL         0.0606
     48 H          39.4813   34.9070   18.9078 H         1 LGL         0.0584
     49 H          38.0849   31.4939   20.7215 H         1 LGL         0.0580
     50 H          36.7812   34.8337   18.2941 H         1 LGL         0.0580
     51 H          41.0731   27.0823   13.2398 H         1 LGL         0.0584
     52 H          38.1459   35.4112   23.6796 H         1 LGL         0.0550
     53 H          37.6820   26.3624   15.8304 H         1 LGL         0.0607
     54 H          36.9010   29.9214   19.1895 H         1 LGL         0.0508
     55 H          35.5872   33.2662   16.7749 H         1 LGL         0.0508
     56 H          37.3076   29.0016   12.4241 H         1 LGL         0.0609
     57 H          32.9049   29.2080   16.7231 H         1 LGL         0.0446
     58 H          32.5081   30.1512   15.2535 H         1 LGL         0.0446
     59 H          33.3372   36.0975   22.1955 H         1 LGL         0.0245
     60 H          32.6139   34.9061   21.1850 H         1 LGL         0.0245
     61 H          32.3731   33.4076   22.9716 H         1 LGL         0.0245
     62 H          32.8020   34.7250   24.0177 H         1 LGL         0.0245
     63 H          33.5483   31.3949   17.2777 H         1 LGL         0.0610
     64 H          34.2644   31.6813   15.6201 H         1 LGL         0.0610
     65 H          35.2592   35.4096   20.8613 H         1 LGL         0.0020
     66 H          34.7354   33.8074   20.7254 H         1 LGL         0.0020
     67 H          34.5149   32.4337   23.1501 H         1 LGL         0.0020
     68 H          34.7273   33.4493   24.5127 H         1 LGL         0.0020
     69 H          37.0510   33.1871   23.3979 H         1 LGL         0.0184
     70 H          36.4425   32.7513   21.7320 H         1 LGL         0.0184
     71 H          37.9414   29.6488   10.9054 H         1 LGL         0.2315
     72 H          41.8199   29.7088    9.4254 H         1 LGL         0.2451
@<TRIPOS>BOND
     1    2    1 ar 
     2    4    1 ar 
     3    8    2 ar 
     4    3    7 ar 
     5    9    3 ar 
     6   14    4 ar 
     7    5   10 ar 
     8   13    5 ar 
     9    6   11 ar 
    10   13    6 ar 
    11   15    7 ar 
    12   17    8 ar 
    13   18    9 ar 
    14   10   19 ar 
    15   11   19 ar 
    16   12   15 ar 
    17   18   12 ar 
    18   14   13 1  
    19   17   14 ar 
    20   15   22 1  
    21   20   16 2  
    22   16   21 1  
    23   25   16 1  
    24   31   17 1  
    25   35   18 1  
    26   19   38 1  
    27   23   20 1  
    28   20   35 1  
    29   21   32 1  
    30   21   33 2  
    31   22   34 2  
    32   22   36 1  
    33   38   23 am 
    34   23   40 2  
    35   36   24 am 
    36   24   37 am 
    37   24   41 2  
    38   28   25 1  
    39   27   26 1  
    40   29   26 1  
    41   30   27 1  
    42   38   28 1  
    43   39   29 1  
    44   39   30 1  
    45   31   39 1  
    46   32   42 1  
    47   32   43 1  
    48   32   44 1  
    49   33   35 1  
    50   34   37 1  
    51    1   45 1  
    52    2   46 1  
    53    3   47 1  
    54    4   48 1  
    55    5   49 1  
    56    6   50 1  
    57    7   51 1  
    58    8   52 1  
    59    9   53 1  
    60   10   54 1  
    61   11   55 1  
    62   12   56 1  
    63   25   57 1  
    64   25   58 1  
    65   26   59 1  
    66   26   60 1  
    67   27   61 1  
    68   27   62 1  
    69   28   63 1  
    70   28   64 1  
    71   29   65 1  
    72   29   66 1  
    73   30   67 1  
    74   30   68 1  
    75   31   69 1  
    76   31   70 1  
    77   36   71 1  
    78   37   72 1  
@<TRIPOS>SUBSTRUCTURE
     1 LGL         1

