4fz6_ligand
  -I-interpret- 

 50 54  0  0  0  0  0  0  0  0999 V2000
    3.7540   -0.6480   15.3380 C   0  0  0  0  0
    4.6620    0.2190   14.7740 N   0  0  0  0  0
    2.4300   -0.7110   14.8520 C   0  0  0  0  0
    4.2770    1.0560   13.7370 N   0  0  0  0  0
    2.0830    0.1350   13.8210 C   0  0  0  0  0
    3.0430    1.0310   13.2760 C   0  0  0  0  0
   -0.4690   -1.2080   14.3360 N   0  0  0  0  0
   -1.7500   -1.4580   14.0720 C   0  0  0  0  0
   -2.4270   -0.6880   13.1160 N   0  0  0  0  0
    4.3660   -1.3020   16.3080 N   0  0  0  0  0
    1.5730   -1.6270   15.4910 N   0  0  0  0  0
    0.2330   -1.9030   15.2240 C   0  0  0  0  0
    5.8380    0.0780   15.4390 C   0  0  0  0  0
    5.6260   -0.8680   16.3840 C   0  0  0  0  0
    2.7290    1.9970   12.1840 C   0  0  0  0  0
   -1.7790    0.4830   12.4640 C   0  0  0  0  0
   -3.9110   -0.5490   13.0740 C   0  0  0  0  0
   -2.4130   -2.4890   14.7470 C   0  0  0  0  0
   -0.3770   -2.9450   15.9280 C   0  0  0  0  0
   -1.7160   -3.2430   15.6870 C   0  0  0  0  0
   -4.1780    0.4900   11.9680 C   0  0  0  0  0
   -2.9360    1.4040   12.0080 C   0  0  0  0  0
    3.7140    2.3520   11.2440 C   0  0  0  0  0
    1.4720    2.6090   12.1320 C   0  0  0  0  0
   -0.9450    0.0220   11.2610 C   0  0  0  0  0
    3.4310    3.2760   10.2490 C   0  0  0  0  0
    1.1960    3.5280   11.1290 C   0  0  0  0  0
    2.1710    3.8590   10.1960 C   0  0  0  0  0
    1.0689    0.1172   13.4219 H   0  0  0  0  0
    1.9894   -2.1617   16.2533 H   0  0  0  0  0
    6.7658    0.6179   15.2498 H   0  0  0  0  0
    6.3703   -1.2212   17.0977 H   0  0  0  0  0
   -1.1023    1.0034   13.1418 H   0  0  0  0  0
   -4.3162   -0.2319   14.0349 H   0  0  0  0  0
   -4.4018   -1.4995   12.8648 H   0  0  0  0  0
   -3.4622   -2.6991   14.5393 H   0  0  0  0  0
    0.1906   -3.5198   16.6598 H   0  0  0  0  0
   -2.2095   -4.0524   16.2250 H   0  0  0  0  0
   -5.1031    1.0421   12.1340 H   0  0  0  0  0
   -4.3194    0.0271   10.9913 H   0  0  0  0  0
   -2.7348    1.8565   11.0370 H   0  0  0  0  0
   -3.0746    2.2461   12.6861 H   0  0  0  0  0
    4.7039    1.8989   11.2980 H   0  0  0  0  0
    0.7131    2.3653   12.8755 H   0  0  0  0  0
   -0.1750   -0.6716   11.5987 H   0  0  0  0  0
   -1.5936   -0.4760   10.5403 H   0  0  0  0  0
   -0.4761    0.8873   10.7926 H   0  0  0  0  0
    4.1910    3.5426    9.5146 H   0  0  0  0  0
    0.2111    3.9916   11.0731 H   0  0  0  0  0
    1.9449    4.5839    9.4140 H   0  0  0  0  0
  1  2  4  0  0  0
  3  1  4  0  0  0
  1 10  4  0  0  0
  2  4  4  0  0  0
  2 13  4  0  0  0
  3  5  4  0  0  0
 11  3  1  0  0  0
  6  4  4  0  0  0
  5  6  4  0  0  0
  6 15  1  0  0  0
  7  8  4  0  0  0
 12  7  4  0  0  0
  8  9  1  0  0  0
  8 18  4  0  0  0
  9 16  1  0  0  0
  9 17  1  0  0  0
 10 14  4  0  0  0
 11 12  1  0  0  0
 12 19  4  0  0  0
 13 14  4  0  0  0
 15 23  4  0  0  0
 15 24  4  0  0  0
 16 22  1  0  0  0
 16 25  1  0  0  0
 17 21  1  0  0  0
 18 20  4  0  0  0
 19 20  4  0  0  0
 21 22  1  0  0  0
 23 26  4  0  0  0
 24 27  4  0  0  0
 26 28  4  0  0  0
 27 28  4  0  0  0
  5 29  1  0  0  0
 11 30  1  0  0  0
 13 31  1  0  0  0
 14 32  1  0  0  0
 16 33  1  0  0  0
 17 34  1  0  0  0
 17 35  1  0  0  0
 18 36  1  0  0  0
 19 37  1  0  0  0
 20 38  1  0  0  0
 21 39  1  0  0  0
 21 40  1  0  0  0
 22 41  1  0  0  0
 22 42  1  0  0  0
 23 43  1  0  0  0
 24 44  1  0  0  0
 25 45  1  0  0  0
 25 46  1  0  0  0
 25 47  1  0  0  0
 26 48  1  0  0  0
 27 49  1  0  0  0
 28 50  1  0  0  0
M  END
$$$$
