5jmx_ligand
  -I-interpret- 

 20 20  0  0  0  0  0  0  0  0999 V2000
   64.3000    2.9290   25.6230 O   0  0  0  0  0
   63.9900    3.8960   26.3660 C   0  0  0  0  0
   64.7610    4.3050   27.2860 O   0  0  0  0  0
   62.5810    4.4920   26.2790 C   0  0  0  0  0
   62.1190    5.3060   27.2770 C   0  0  0  0  0
   60.7780    5.8790   27.4540 C   0  0  0  0  0
   60.0040    6.5130   26.4650 C   0  0  0  0  0
   58.7300    7.0160   26.7140 C   0  0  0  0  0
   58.2350    6.8970   28.0220 C   0  0  0  0  0
   56.9830    7.3900   28.3000 F   0  0  0  0  0
   58.9100    6.3060   29.0260 C   0  0  0  0  0
   60.1830    5.8130   28.7370 C   0  0  0  0  0
   61.5930    4.0650   24.9250 S   0  0  0  0  0
   64.3516    5.0455   27.7395 H   0  0  0  0  0
   62.8461    5.5650   28.0467 H   0  0  0  0  0
   60.4190    6.6146   25.4622 H   0  0  0  0  0
   58.1407    7.4834   25.9251 H   0  0  0  0  0
   58.4797    6.2164   30.0235 H   0  0  0  0  0
   60.7512    5.3511   29.5444 H   0  0  0  0  0
   62.2803    3.2701   24.1098 H   0  0  0  0  0
  1  2  2  0  0  0
  2  3  1  0  0  0
  2  4  1  0  0  0
  4  5  2  0  0  0
  4 13  1  0  0  0
  5  6  1  0  0  0
  6  7  4  0  0  0
  6 12  4  0  0  0
  7  8  4  0  0  0
  8  9  4  0  0  0
  9 10  1  0  0  0
  9 11  4  0  0  0
 11 12  4  0  0  0
  3 14  1  0  0  0
  5 15  1  0  0  0
  7 16  1  0  0  0
  8 17  1  0  0  0
 11 18  1  0  0  0
 12 19  1  0  0  0
 13 20  1  0  0  0
M  END
$$$$
