3gst_ligand
  -I-interpret- 

 63 65  0  0  0  0  0  0  0  0999 V2000
   14.5620   14.7450   25.0920 N   0  3  0  0  0
   14.1510   15.3770   26.3990 C   0  0  0  0  0
   13.1440   16.5080   26.1890 C   0  0  0  0  0
   12.4380   16.8980   27.1110 O   0  0  0  0  0
   13.1400   17.0330   24.9680 O   0  0  0  0  0
   15.3740   16.0750   27.1080 C   0  0  0  0  0
   15.7930   15.1850   28.2290 C   0  0  0  0  0
   16.7670   15.6900   29.2190 C   0  0  0  0  0
   17.9750   15.5180   28.9210 O   0  0  0  0  0
   16.2950   16.2790   30.3300 N   0  0  0  0  0
   17.2090   16.9690   31.2690 C   0  0  0  0  0
   16.9640   16.3990   32.6940 C   0  0  0  0  0
   17.5550   16.9260   33.6090 O   0  0  0  0  0
   17.0910   18.5080   31.2710 C   0  0  0  0  0
   17.3250   19.1560   29.6490 S   0  0  0  0  0
   16.2670   15.3090   32.7800 N   0  0  0  0  0
   15.8910   14.8170   34.1340 C   0  0  0  0  0
   16.6510   13.5810   34.4670 C   0  0  0  0  0
   17.5230   13.0370   33.7730 O   0  0  0  0  0
   16.4220   12.9510   35.6130 O   0  0  0  0  0
   19.0120   19.0640   29.8780 C   0  0  0  0  0
   19.4670   20.4270   30.3270 C   0  0  0  0  0
   19.6360   20.6660   31.7170 C   0  0  0  0  0
   20.0880   21.8980   32.1800 C   0  0  0  0  0
   20.3590   22.9100   31.2340 C   0  0  0  0  0
   20.2180   22.6990   29.8620 C   0  0  0  0  0
   19.7920   21.4440   29.3930 C   0  0  0  0  0
   19.5880   21.1600   27.9290 C   0  0  0  0  0
   19.5340   22.2300   26.9870 C   0  0  0  0  0
   19.3350   21.9120   25.6510 C   0  0  0  0  0
   19.1970   20.5950   25.2170 C   0  0  0  0  0
   19.3050   19.5510   26.1400 C   0  0  0  0  0
   19.5000   19.8500   27.4870 C   0  0  0  0  0
   19.5280   18.6830   28.4710 C   0  0  0  0  0
   20.9200   18.3460   28.6100 O   0  0  0  0  0
   15.2320   13.9975   25.2730 H   0  0  0  0  0
   13.7390   14.3605   24.6280 H   0  0  0  0  0
   14.9918   15.4512   24.4946 H   0  0  0  0  0
   13.7351   14.5614   26.9905 H   0  0  0  0  0
   13.7728   16.5656   24.4179 H   0  0  0  0  0
   15.0931   17.0598   27.4813 H   0  0  0  0  0
   16.1942   16.2232   26.4056 H   0  0  0  0  0
   16.2920   14.3437   27.7481 H   0  0  0  0  0
   14.8818   15.0034   28.7990 H   0  0  0  0  0
   15.2951   16.2507   30.5294 H   0  0  0  0  0
   18.2260   16.7726   30.9296 H   0  0  0  0  0
   17.8583   18.9184   31.9274 H   0  0  0  0  0
   16.0956   18.7836   31.6193 H   0  0  0  0  0
   15.9836   14.8017   31.9417 H   0  0  0  0  0
   14.8245   14.5920   34.1463 H   0  0  0  0  0
   16.1257   15.5868   34.8691 H   0  0  0  0  0
   15.7410   13.4177   36.1029 H   0  0  0  0  0
   19.3653   18.3516   30.6235 H   0  0  0  0  0
   19.4086   19.8739   32.4304 H   0  0  0  0  0
   20.2292   22.0770   33.2459 H   0  0  0  0  0
   20.6889   23.8873   31.5865 H   0  0  0  0  0
   20.4368   23.5021   29.1583 H   0  0  0  0  0
   19.6457   23.2660   27.3070 H   0  0  0  0  0
   19.2851   22.7174   24.9183 H   0  0  0  0  0
   19.0062   20.3806   24.1655 H   0  0  0  0  0
   19.2374   18.5144   25.8098 H   0  0  0  0  0
   18.8922   17.8806   28.0969 H   0  0  0  0  0
   21.2764   18.1029   27.7524 H   0  0  0  0  0
  1  2  1  0  0  0
  2  6  1  0  0  0
  2  3  1  0  0  0
  3  5  1  0  0  0
  3  4  2  0  0  0
  6  7  1  0  0  0
  7  8  1  0  0  0
  8 10  1  0  0  0
  8  9  2  0  0  0
 10 11  1  0  0  0
 11 14  1  0  0  0
 11 12  1  0  0  0
 12 16  1  0  0  0
 12 13  2  0  0  0
 16 17  1  0  0  0
 17 18  1  0  0  0
 18 20  1  0  0  0
 18 19  2  0  0  0
 14 15  1  0  0  0
 15 21  1  0  0  0
 21 22  1  0  0  0
 21 34  1  0  0  0
 34 35  1  0  0  0
 34 33  1  0  0  0
 33 32  4  0  0  0
 33 28  4  0  0  0
 28 29  4  0  0  0
 28 27  1  0  0  0
 27 26  4  0  0  0
 27 22  4  0  0  0
 22 23  4  0  0  0
 23 24  4  0  0  0
 24 25  4  0  0  0
 25 26  4  0  0  0
 29 30  4  0  0  0
 30 31  4  0  0  0
 31 32  4  0  0  0
  1 36  1  0  0  0
  1 37  1  0  0  0
  1 38  1  0  0  0
  2 39  1  0  0  0
  5 40  1  0  0  0
  6 41  1  0  0  0
  6 42  1  0  0  0
  7 43  1  0  0  0
  7 44  1  0  0  0
 10 45  1  0  0  0
 11 46  1  0  0  0
 14 47  1  0  0  0
 14 48  1  0  0  0
 16 49  1  0  0  0
 17 50  1  0  0  0
 17 51  1  0  0  0
 20 52  1  0  0  0
 21 53  1  0  0  0
 23 54  1  0  0  0
 24 55  1  0  0  0
 25 56  1  0  0  0
 26 57  1  0  0  0
 29 58  1  0  0  0
 30 59  1  0  0  0
 31 60  1  0  0  0
 32 61  1  0  0  0
 34 62  1  0  0  0
 35 63  1  0  0  0
M  END
$$$$
