3p7i_ligand
  -I-interpret- 

 16 15  0  0  0  0  0  0  0  0999 V2000
   -2.1720  -22.9120   10.8600 N   0  3  0  0  0
   -5.5470  -23.4670   13.8490 O   0  0  0  0  0
   -5.3270  -20.9210   14.3340 O   0  0  0  0  0
   -6.2780  -21.7710   12.0480 O   0  0  0  0  0
   -3.4380  -23.0540   11.5230 C   0  0  0  0  0
   -3.6430  -21.9530   12.6210 C   0  0  0  0  0
   -5.2850  -22.0160   13.2830 P   0  0  0  0  0
   -2.0748  -23.6429   10.1552 H   0  0  0  0  0
   -2.1252  -21.9971   10.4114 H   0  0  0  0  0
   -1.4200  -22.9954   11.5441 H   0  0  0  0  0
   -5.5049  -24.1020   13.1303 H   0  0  0  0  0
   -6.1991  -22.4982   11.4263 H   0  0  0  0  0
   -3.4656  -24.0307   12.0060 H   0  0  0  0  0
   -4.2288  -22.9502   10.7801 H   0  0  0  0  0
   -3.4853  -20.9739   12.1686 H   0  0  0  0  0
   -2.9328  -22.1281   13.4292 H   0  0  0  0  0
  5  1  1  0  0  0
  7  2  1  0  0  0
  7  3  2  0  0  0
  7  4  1  0  0  0
  6  5  1  0  0  0
  6  7  1  0  0  0
  1  8  1  0  0  0
  1  9  1  0  0  0
  1 10  1  0  0  0
  2 11  1  0  0  0
  4 12  1  0  0  0
  5 13  1  0  0  0
  5 14  1  0  0  0
  6 15  1  0  0  0
  6 16  1  0  0  0
M  END
$$$$
