### 
### Created by X-TOOL on Mon Sep 10 21:12:52 2018
### 

@<TRIPOS>MOLECULE
1u9w_ligand
   45    48     1     0     0
SMALL
GAST_HUCK


@<TRIPOS>ATOM
      1 C01        62.9920   12.3710   -7.9980 C.2       1 IHI         0.1134
      2 N02        61.8080   12.1870   -7.5470 N.2       1 IHI        -0.2898
      3 C03        61.5220   13.3370   -6.8120 C.ar      1 IHI         0.1144
      4 C04        62.5410   14.2130   -6.8120 C.ar      1 IHI         0.1680
      5 N05        63.6060   13.5630   -7.5330 N.pl3     1 IHI        -0.2154
      6 C07        60.3940   13.6560   -6.1240 C.ar      1 IHI         0.1546
      7 N08        62.4780   15.4630   -6.1750 N.ar      1 IHI        -0.2530
      8 N09        60.2970   14.8580   -5.4760 N.ar      1 IHI        -0.2528
      9 C10        61.3150   15.7390   -5.5220 C.ar      1 IHI         0.1236
     10 N11        59.4020   12.6680   -6.1200 N.pl3     1 IHI        -0.2562
     11 C12        64.9250   14.1010   -7.9460 C.3       1 IHI         0.0721
     12 C13        65.0390   15.6160   -7.9730 C.3       1 IHI        -0.0224
     13 C14        64.8250   15.8900   -9.4290 C.3       1 IHI        -0.0502
     14 C15        65.7520   14.8570  -10.0730 C.3       1 IHI        -0.0502
     15 C16        65.3820   13.5880   -9.3230 C.3       1 IHI        -0.0224
     16 N27        62.3070   17.8580   -4.8880 N.2       1 IHI        -0.3350
     17 C32        58.2070   12.7750   -5.4030 C.ar      1 IHI         0.0953
     18 C33        57.5300   14.0230   -5.1340 C.ar      1 IHI        -0.0459
     19 C34        56.3280   14.0170   -4.3680 C.ar      1 IHI        -0.0824
     20 C35        55.7850   12.7970   -3.8580 C.ar      1 IHI        -0.0821
     21 C36        56.4400   11.5700   -4.1160 C.ar      1 IHI        -0.0419
     22 C37        57.6540   11.5540   -4.8830 C.ar      1 IHI         0.1153
     23 O38        58.2620   10.2600   -5.1460 O.3       1 IHI        -0.3250
     24 C39        59.1330    9.6580   -4.2220 C.3       1 IHI         0.0570
     25 C26        61.1240   17.0340   -4.7970 C.2       1 IHI         0.0482
     26 H1         63.4835   11.6758   -8.6770 H         1 IHI         0.1373
     27 H2         59.5616   11.8157   -6.6758 H         1 IHI         0.2145
     28 H3         65.6463   13.7365   -7.1997 H         1 IHI         0.0651
     29 H4         66.0317   15.9529   -7.6398 H         1 IHI         0.0295
     30 H5         64.2637   16.0910   -7.3539 H         1 IHI         0.0295
     31 H6         65.1217   16.9159   -9.6927 H         1 IHI         0.0266
     32 H7         63.7768   15.7254   -9.7191 H         1 IHI         0.0266
     33 H8         66.8094   15.1181   -9.9190 H         1 IHI         0.0266
     34 H9         65.5520   14.7572  -11.1500 H         1 IHI         0.0266
     35 H10        64.5670   13.0538   -9.8333 H         1 IHI         0.0295
     36 H11        66.2520   12.9221   -9.2250 H         1 IHI         0.0295
     37 H12        62.3257   18.7635   -4.4455 H         1 IHI         0.1353
     38 H13        57.9329   14.9558   -5.5116 H         1 IHI         0.0504
     39 H14        55.8176   14.9524   -4.1690 H         1 IHI         0.0494
     40 H15        54.8719   12.8121   -3.2739 H         1 IHI         0.0493
     41 H16        56.0262   10.6432   -3.7353 H         1 IHI         0.0507
     42 H17        59.4757    8.6905   -4.6177 H         1 IHI         0.0573
     43 H18        58.6049    9.4985   -3.2704 H         1 IHI         0.0573
     44 H19        60.0003   10.3136   -4.0547 H         1 IHI         0.0573
     45 H20        60.2139   17.3177   -4.2706 H         1 IHI         0.1144
@<TRIPOS>BOND
     1    1    2 2  
     2    1    5 1  
     3    2    3 1  
     4    3    4 ar 
     5    3    6 ar 
     6    4    5 1  
     7    4    7 ar 
     8    5   11 1  
     9    6    8 ar 
    10    6   10 1  
    11    7    9 ar 
    12    8    9 ar 
    13    9   25 1  
    14   10   17 1  
    15   11   12 1  
    16   11   15 1  
    17   12   13 1  
    18   13   14 1  
    19   14   15 1  
    20   25   16 2  
    21   17   18 ar 
    22   17   22 ar 
    23   18   19 ar 
    24   19   20 ar 
    25   20   21 ar 
    26   21   22 ar 
    27   22   23 1  
    28   23   24 1  
    29    1   26 1  
    30   10   27 1  
    31   11   28 1  
    32   12   29 1  
    33   12   30 1  
    34   13   31 1  
    35   13   32 1  
    36   14   33 1  
    37   14   34 1  
    38   15   35 1  
    39   15   36 1  
    40   16   37 1  
    41   18   38 1  
    42   19   39 1  
    43   20   40 1  
    44   21   41 1  
    45   24   42 1  
    46   24   43 1  
    47   24   44 1  
    48   25   45 1  
@<TRIPOS>SUBSTRUCTURE
     1 IHI         1

