6pl1_ligand
  -I-interpret- 

 48 51  0  0  0  0  0  0  0  0999 V2000
    0.0200   10.3380   13.3390 C   0  0  0  0  0
   -1.3600   10.7570   12.8910 C   0  0  0  0  0
   -2.4150   10.6910   13.7890 C   0  0  0  0  0
   -3.6920   11.0930   13.3850 C   0  0  0  0  0
   -3.9010   11.5600   12.0840 C   0  0  0  0  0
   -4.8460   11.4260   15.5260 C   0  0  0  0  0
   -6.3020   11.7110   17.4510 C   0  0  0  0  0
   -6.6340   12.2230   19.8480 C   0  0  0  0  0
   -5.5450   11.7740   23.8570 C   0  0  0  0  0
   -5.8070   13.0330   24.2130 N   0  0  0  0  0
   -5.5750   13.4930   25.4520 C   0  0  0  0  0
   -5.8810   14.8340   25.7810 C   0  0  0  0  0
   -4.7870   14.9130   29.4140 C   0  0  0  0  0
   -4.7760   11.3760   26.0910 C   0  0  0  0  0
   -5.0250   10.8990   24.7950 C   0  0  0  0  0
    0.8800   10.2370   12.2540 F   0  0  0  0  0
    0.0260    9.1310   14.0350 F   0  0  0  0  0
    0.5030   11.3250   14.1900 F   0  0  0  0  0
   -2.8450   11.6280   11.1980 C   0  0  0  0  0
   -1.5800   11.2330   11.6000 C   0  0  0  0  0
   -4.8180   11.0640   14.2160 N   0  0  0  0  0
   -3.8540   11.7880   16.1400 O   0  0  0  0  0
   -6.0450   11.3620   16.1340 N   0  0  0  0  0
   -7.3720   12.3710   17.7380 N   0  0  0  0  0
   -7.5480   12.6610   19.0560 N   0  0  0  0  0
   -6.7680   12.5400   21.5730 S   0  0  0  0  0
   -5.8030   11.2840   22.4480 C   0  0  0  0  0
   -5.6350   15.2890   27.0510 C   0  0  0  0  0
   -5.0740   14.4240   28.0140 C   0  0  0  0  0
   -4.7840   13.1440   27.6780 C   0  0  0  0  0
   -5.0370   12.6670   26.4140 N   0  0  0  0  0
   -4.3070   10.6210   26.9040 O   0  0  0  0  0
   -5.3810   11.3650   18.9220 S   0  0  0  0  0
   -2.2497   10.3280   14.8034 H   0  0  0  0  0
   -4.8975   11.8703   11.7695 H   0  0  0  0  0
   -6.3086   15.5001   25.0316 H   0  0  0  0  0
   -5.3510   14.3144   30.1293 H   0  0  0  0  0
   -3.7208   14.8177   29.6193 H   0  0  0  0  0
   -5.0828   15.9586   29.5001 H   0  0  0  0  0
   -4.8136    9.8623   24.5328 H   0  0  0  0  0
   -3.0064   11.9921   10.1834 H   0  0  0  0  0
   -0.7476   11.2951   10.8991 H   0  0  0  0  0
   -5.6936   10.7434   13.8027 H   0  0  0  0  0
   -6.8323   11.0280   15.5781 H   0  0  0  0  0
   -6.3533   10.3435   22.4755 H   0  0  0  0  0
   -4.8572   11.1151   21.9332 H   0  0  0  0  0
   -5.8729   16.3191   27.3165 H   0  0  0  0  0
   -4.3427   12.4814   28.4225 H   0  0  0  0  0
  2  1  1  0  0  0
  1 16  1  0  0  0
  1 17  1  0  0  0
  1 18  1  0  0  0
  3  2  4  0  0  0
  2 20  4  0  0  0
  4  3  4  0  0  0
  4  5  4  0  0  0
 21  4  1  0  0  0
  5 19  4  0  0  0
  6 21  1  0  0  0
  6 22  2  0  0  0
 23  6  1  0  0  0
  7 23  1  0  0  0
  7 24  4  0  0  0
 33  7  4  0  0  0
  8 25  4  0  0  0
 26  8  1  0  0  0
  8 33  4  0  0  0
 10  9  1  0  0  0
  9 15  2  0  0  0
  9 27  1  0  0  0
 11 10  2  0  0  0
 12 11  1  0  0  0
 11 31  1  0  0  0
 28 12  2  0  0  0
 29 13  1  0  0  0
 14 15  1  0  0  0
 31 14  1  0  0  0
 14 32  2  0  0  0
 19 20  4  0  0  0
 25 24  4  0  0  0
 27 26  1  0  0  0
 28 29  1  0  0  0
 29 30  2  0  0  0
 30 31  1  0  0  0
  3 34  1  0  0  0
  5 35  1  0  0  0
 12 36  1  0  0  0
 13 37  1  0  0  0
 13 38  1  0  0  0
 13 39  1  0  0  0
 15 40  1  0  0  0
 19 41  1  0  0  0
 20 42  1  0  0  0
 21 43  1  0  0  0
 23 44  1  0  0  0
 27 45  1  0  0  0
 27 46  1  0  0  0
 28 47  1  0  0  0
 30 48  1  0  0  0
M  END
$$$$
