2rcu_ligand
  -I-interpret- 

 75 74  0  0  0  0  0  0  0  0999 V2000
   37.7010  -21.6430   15.0640 O   0  0  0  0  0
   37.7080  -21.5990   16.3230 C   0  0  0  0  0
   36.8920  -22.2210   17.0390 O   0  0  0  0  0
   38.7660  -20.7450   16.9860 C   0  0  0  0  0
   38.6390  -20.7370   18.5120 C   0  0  0  0  0
   37.7210  -19.5580   18.8510 C   0  0  0  0  0
   37.1560  -19.4980   20.2260 N   0  3  0  0  0
   36.3540  -20.6820   20.5640 C   0  0  0  0  0
   36.2530  -18.3150   20.1950 C   0  0  0  0  0
   38.2340  -19.3780   21.2450 C   0  0  0  0  0
   40.0080  -20.4280   18.9110 N   0  0  0  0  0
   40.7270  -21.1410   19.7890 C   0  0  0  0  0
   40.2890  -22.1280   20.3860 O   0  0  0  0  0
   42.1580  -20.6460   19.9860 C   0  0  0  0  0
   42.7780  -21.0910   21.3060 C   0  0  0  0  0
   42.4280  -20.1140   22.4460 C   0  0  0  0  0
   43.2260  -20.3510   23.7220 C   0  0  0  0  0
   42.6150  -21.4300   24.5950 C   0  0  0  0  0
   43.4710  -21.6410   25.8450 C   0  0  0  0  0
   43.1080  -22.9470   26.5360 C   0  0  0  0  0
   44.0860  -23.3050   27.6540 C   0  0  0  0  0
   43.6040  -22.6990   28.9520 C   0  0  0  0  0
   44.0900  -23.4670   30.1670 C   0  0  0  0  0
   43.3150  -22.9560   31.3690 C   0  0  0  0  0
   44.0890  -23.2080   32.6490 C   0  0  0  0  0
   43.4880  -22.3940   33.7800 C   0  0  0  0  0
   43.8630  -22.9710   35.1370 C   0  0  0  0  0
   43.6020  -21.9400   36.2110 C   0  0  0  0  0
   38.4102  -21.0939   14.7218 H   0  0  0  0  0
   38.6432  -19.7213   16.6323 H   0  0  0  0  0
   39.7416  -21.1590   16.7312 H   0  0  0  0  0
   38.2477  -21.6418   18.9772 H   0  0  0  0  0
   36.8628  -19.6547   18.1859 H   0  0  0  0  0
   38.3401  -18.6666   18.7498 H   0  0  0  0  0
   35.8908  -20.5389   21.5403 H   0  0  0  0  0
   35.5794  -20.8219   19.8100 H   0  0  0  0  0
   36.9989  -21.5603   20.5916 H   0  0  0  0  0
   35.4790  -18.4699   19.4433 H   0  0  0  0  0
   35.7904  -18.1869   21.1736 H   0  0  0  0  0
   36.8307  -17.4250   19.9455 H   0  0  0  0  0
   37.7874  -19.2655   22.2329 H   0  0  0  0  0
   38.8529  -20.2750   21.2247 H   0  0  0  0  0
   38.8484  -18.5059   21.0211 H   0  0  0  0  0
   40.4499  -19.6101   18.4913 H   0  0  0  0  0
   42.1309  -19.5563   19.9872 H   0  0  0  0  0
   42.7634  -21.0642   19.1818 H   0  0  0  0  0
   43.8615  -21.1153   21.1899 H   0  0  0  0  0
   42.3852  -22.0756   21.5597 H   0  0  0  0  0
   41.3752  -20.2593   22.6882 H   0  0  0  0  0
   42.6624  -19.1084   22.0970 H   0  0  0  0  0
   43.2347  -19.4216   24.2915 H   0  0  0  0  0
   44.2274  -20.6744   23.4379 H   0  0  0  0  0
   42.5678  -22.3621   24.0319 H   0  0  0  0  0
   41.6130  -21.1231   24.8949 H   0  0  0  0  0
   43.2925  -20.8170   26.5358 H   0  0  0  0  0
   44.5196  -21.6797   25.5499 H   0  0  0  0  0
   43.1401  -23.7428   25.7919 H   0  0  0  0  0
   42.1182  -22.8314   26.9776 H   0  0  0  0  0
   45.0745  -22.9137   27.4134 H   0  0  0  0  0
   44.1428  -24.3887   27.7561 H   0  0  0  0  0
   42.5143  -22.7249   28.9513 H   0  0  0  0  0
   43.9970  -21.6843   29.0160 H   0  0  0  0  0
   45.1599  -23.3163   30.3107 H   0  0  0  0  0
   43.9254  -24.5362   30.0334 H   0  0  0  0  0
   42.3612  -23.4808   31.4236 H   0  0  0  0  0
   43.1564  -21.8834   31.2573 H   0  0  0  0  0
   45.1289  -22.9142   32.5058 H   0  0  0  0  0
   44.0370  -24.2675   32.8996 H   0  0  0  0  0
   42.4025  -22.4137   33.6827 H   0  0  0  0  0
   43.8731  -21.3762   33.7175 H   0  0  0  0  0
   44.9196  -23.2389   35.1390 H   0  0  0  0  0
   43.2633  -23.8599   35.3326 H   0  0  0  0  0
   44.2026  -21.0520   36.0140 H   0  0  0  0  0
   42.5451  -21.6734   36.2078 H   0  0  0  0  0
   43.8708  -22.3537   37.1830 H   0  0  0  0  0
  1  2  1  0  0  0
  2  3  2  0  0  0
  2  4  1  0  0  0
  4  5  1  0  0  0
  5  6  1  0  0  0
  5 11  1  0  0  0
  6  7  1  0  0  0
  7  8  1  0  0  0
  7  9  1  0  0  0
  7 10  1  0  0  0
 11 12  1  0  0  0
 12 13  2  0  0  0
 12 14  1  0  0  0
 14 15  1  0  0  0
 15 16  1  0  0  0
 16 17  1  0  0  0
 17 18  1  0  0  0
 18 19  1  0  0  0
 19 20  1  0  0  0
 20 21  1  0  0  0
 21 22  1  0  0  0
 22 23  1  0  0  0
 23 24  1  0  0  0
 24 25  1  0  0  0
 25 26  1  0  0  0
 26 27  1  0  0  0
 27 28  1  0  0  0
  1 29  1  0  0  0
  4 30  1  0  0  0
  4 31  1  0  0  0
  5 32  1  0  0  0
  6 33  1  0  0  0
  6 34  1  0  0  0
  8 35  1  0  0  0
  8 36  1  0  0  0
  8 37  1  0  0  0
  9 38  1  0  0  0
  9 39  1  0  0  0
  9 40  1  0  0  0
 10 41  1  0  0  0
 10 42  1  0  0  0
 10 43  1  0  0  0
 11 44  1  0  0  0
 14 45  1  0  0  0
 14 46  1  0  0  0
 15 47  1  0  0  0
 15 48  1  0  0  0
 16 49  1  0  0  0
 16 50  1  0  0  0
 17 51  1  0  0  0
 17 52  1  0  0  0
 18 53  1  0  0  0
 18 54  1  0  0  0
 19 55  1  0  0  0
 19 56  1  0  0  0
 20 57  1  0  0  0
 20 58  1  0  0  0
 21 59  1  0  0  0
 21 60  1  0  0  0
 22 61  1  0  0  0
 22 62  1  0  0  0
 23 63  1  0  0  0
 23 64  1  0  0  0
 24 65  1  0  0  0
 24 66  1  0  0  0
 25 67  1  0  0  0
 25 68  1  0  0  0
 26 69  1  0  0  0
 26 70  1  0  0  0
 27 71  1  0  0  0
 27 72  1  0  0  0
 28 73  1  0  0  0
 28 74  1  0  0  0
 28 75  1  0  0  0
M  END
$$$$
