4nue_ligand
  -I-interpret- 

 47 49  0  0  0  0  0  0  0  0999 V2000
  -13.6920    3.4370   -0.3270 C   0  0  0  0  0
  -14.9250    4.0470   -0.5820 C   0  0  0  0  0
  -13.1450    2.5440   -1.2770 C   0  0  0  0  0
  -15.5810    3.7440   -1.7620 C   0  0  0  0  0
  -13.7720    2.2800   -2.4210 N   0  0  0  0  0
  -14.9860    2.8590   -2.6900 C   0  0  0  0  0
  -15.5770    2.5540   -3.8690 N   0  0  0  0  0
  -16.9140    3.3420   -4.4500 S   0  0  0  0  0
  -16.9000    6.0710   -4.4120 C   0  0  0  0  0
  -16.4730    4.8630   -5.0460 C   0  0  0  0  0
  -16.4940    7.3880   -4.9110 C   0  0  0  0  0
  -15.6720    5.0230   -6.2120 C   0  0  0  0  0
  -15.7000    7.4450   -6.0240 C   0  0  0  0  0
  -15.3000    6.2890   -6.6730 C   0  0  0  0  0
  -17.9500    3.8210   -3.5000 O   0  0  0  0  0
  -17.2400    2.6230   -5.6570 O   0  0  0  0  0
  -15.2090    8.6610   -6.5070 N   0  0  0  0  0
  -15.5960    9.7460   -5.9690 N   0  0  0  0  0
  -15.0190   10.9530   -6.3990 C   0  0  0  0  0
  -14.0160   11.0180   -7.4150 C   0  0  0  0  0
  -15.4910   12.1740   -5.8830 C   0  0  0  0  0
  -13.4630   12.2070   -7.7450 C   0  0  0  0  0
  -14.9880   13.3850   -6.2800 C   0  0  0  0  0
  -13.9830   13.4250   -7.2040 C   0  0  0  0  0
  -16.5090   12.1360   -4.9590 N   0  0  0  0  0
  -15.5070   14.6960   -5.7580 C   0  0  0  0  0
  -13.4250   14.5660   -7.5200 O   0  0  0  0  0
  -12.3540   12.2480   -8.7560 C   0  0  0  0  0
  -13.1564    3.6489    0.5984 H   0  0  0  0  0
  -15.3593    4.7456    0.1332 H   0  0  0  0  0
  -12.1900    2.0618   -1.0682 H   0  0  0  0  0
  -16.5540    4.1865   -1.9755 H   0  0  0  0  0
  -15.1787    1.8001   -4.4288 H   0  0  0  0  0
  -17.5442    6.0111   -3.5348 H   0  0  0  0  0
  -16.8166    8.2995   -4.4079 H   0  0  0  0  0
  -15.3416    4.1389   -6.7572 H   0  0  0  0  0
  -14.6795    6.3683   -7.5657 H   0  0  0  0  0
  -13.6966   10.1087   -7.9241 H   0  0  0  0  0
  -12.8638   12.2178   -6.8345 H   0  0  0  0  0
  -16.8826   13.0043   -4.5758 H   0  0  0  0  0
  -16.8904   11.2395   -4.6569 H   0  0  0  0  0
  -16.5651   14.7897   -6.0025 H   0  0  0  0  0
  -15.3782   14.7315   -4.6762 H   0  0  0  0  0
  -14.9526   15.5139   -6.2182 H   0  0  0  0  0
  -11.5158   11.6499   -8.3984 H   0  0  0  0  0
  -12.7123   11.8443   -9.7030 H   0  0  0  0  0
  -12.0315   13.2795   -8.8981 H   0  0  0  0  0
  1  2  4  0  0  0
  1  3  4  0  0  0
  2  4  4  0  0  0
  3  5  4  0  0  0
  4  6  4  0  0  0
  5  6  4  0  0  0
  6  7  1  0  0  0
  7  8  1  0  0  0
  8 10  1  0  0  0
  8 15  2  0  0  0
  8 16  2  0  0  0
 10  9  4  0  0  0
  9 11  4  0  0  0
 10 12  4  0  0  0
 11 13  4  0  0  0
 12 14  4  0  0  0
 13 14  4  0  0  0
 13 17  1  0  0  0
 17 18  2  0  0  0
 18 19  1  0  0  0
 19 20  2  0  0  0
 19 21  1  0  0  0
 20 22  1  0  0  0
 21 23  2  0  0  0
 21 25  1  0  0  0
 22 24  1  0  0  0
 22 28  1  0  0  0
 23 24  1  0  0  0
 23 26  1  0  0  0
 24 27  2  0  0  0
  1 29  1  0  0  0
  2 30  1  0  0  0
  3 31  1  0  0  0
  4 32  1  0  0  0
  7 33  1  0  0  0
  9 34  1  0  0  0
 11 35  1  0  0  0
 12 36  1  0  0  0
 14 37  1  0  0  0
 20 38  1  0  0  0
 22 39  1  0  0  0
 25 40  1  0  0  0
 25 41  1  0  0  0
 26 42  1  0  0  0
 26 43  1  0  0  0
 26 44  1  0  0  0
 28 45  1  0  0  0
 28 46  1  0  0  0
 28 47  1  0  0  0
M  END
$$$$
