1t13_ligand
  -I-interpret- 

 35 35  0  0  0  0  0  0  0  0999 V2000
   80.7780   56.2860    6.5360 N   0  0  0  0  0
   81.6870   55.3100    6.9100 C   0  0  0  0  0
   81.4210   54.1770    6.5390 O   0  0  0  0  0
   82.7780   55.7090    7.6420 N   0  0  0  0  0
   83.0390   57.0190    8.0430 C   0  0  0  0  0
   84.1070   57.1540    8.7100 O   0  0  0  0  0
   81.9940   58.1150    7.6180 C   0  0  0  0  0
   82.2370   59.4850    8.0290 N   0  0  0  0  0
   83.1930   59.7750    8.6720 O   0  0  0  0  0
   81.4400   60.3440    7.7090 O   0  0  0  0  0
   80.8410   57.6550    6.8270 C   0  0  0  0  0
   79.7740   58.4300    6.3100 N   0  0  0  0  0
   78.5210   58.3550    7.1060 C   0  0  0  0  0
   77.3870   57.4540    6.4890 C   0  0  0  0  0
   77.9770   56.1810    6.4580 O   0  0  0  0  0
   76.8640   57.6850    4.9830 C   0  0  0  0  0
   77.9240   57.6180    4.0890 O   0  0  0  0  0
   76.0550   59.1140    4.5900 C   0  0  0  0  0
   76.0540   59.7730    5.8930 O   0  0  0  0  0
   74.5130   59.2770    4.2540 C   0  0  0  0  0
   73.8530   58.3760    5.0860 O   0  0  0  0  0
   79.9754   55.9740    5.9892 H   0  0  0  0  0
   83.4500   54.9913    7.9137 H   0  0  0  0  0
   79.8584   58.9921    5.4630 H   0  0  0  0  0
   78.1222   59.3681    7.1575 H   0  0  0  0  0
   78.7861   57.9107    8.0654 H   0  0  0  0  0
   76.5071   57.6603    7.0983 H   0  0  0  0  0
   77.3538   55.5495    6.0914 H   0  0  0  0  0
   76.1231   56.8887    4.9122 H   0  0  0  0  0
   77.5980   57.7573    3.1969 H   0  0  0  0  0
   76.5537   59.4094    3.6669 H   0  0  0  0  0
   75.6133   60.6227    5.8202 H   0  0  0  0  0
   74.3097   59.0723    3.2029 H   0  0  0  0  0
   74.1735   60.2989    4.4231 H   0  0  0  0  0
   72.9077   58.4290    4.9272 H   0  0  0  0  0
  1  2  1  0  0  0
  1 11  1  0  0  0
  2  3  2  0  0  0
  2  4  1  0  0  0
  4  5  1  0  0  0
  5  6  2  0  0  0
  5  7  1  0  0  0
  7  8  1  0  0  0
  7 11  2  0  0  0
  8  9  2  0  0  0
  8 10  2  0  0  0
 11 12  1  0  0  0
 12 13  1  0  0  0
 13 14  1  0  0  0
 14 15  1  0  0  0
 14 16  1  0  0  0
 16 17  1  0  0  0
 16 18  1  0  0  0
 18 19  1  0  0  0
 18 20  1  0  0  0
 20 21  1  0  0  0
  1 22  1  0  0  0
  4 23  1  0  0  0
 12 24  1  0  0  0
 13 25  1  0  0  0
 13 26  1  0  0  0
 14 27  1  0  0  0
 15 28  1  0  0  0
 16 29  1  0  0  0
 17 30  1  0  0  0
 18 31  1  0  0  0
 19 32  1  0  0  0
 20 33  1  0  0  0
 20 34  1  0  0  0
 21 35  1  0  0  0
M  END
$$$$
