3mta_ligand
  -I-interpret- 

 42 43  0  0  0  0  0  0  0  0999 V2000
   19.1760   15.2700   56.0100 C   0  0  0  0  0
   18.7250   13.9240   55.5660 N   0  0  0  0  0
   18.2710   13.2110   58.1530 S   0  0  0  0  0
   19.2410   11.6750   49.5480 Br  0  0  0  0  0
   20.6180   15.6350   55.5780 C   0  0  0  0  0
   17.9100   11.7850   55.9480 N   0  0  0  0  0
   21.5760   14.8180   56.2640 O   0  0  0  0  0
   20.9080   17.1290   55.8340 C   0  0  0  0  0
   17.9090   11.5470   54.7430 N   0  0  0  0  0
   22.1620   17.5200   55.2590 O   0  0  0  0  0
   19.7760   17.9960   55.2650 C   0  0  0  0  0
   20.0150   19.3700   55.5560 O   0  0  0  0  0
   18.4400   17.5620   55.8820 C   0  0  0  0  0
   18.2120   16.2000   55.4350 O   0  0  0  0  0
   17.2250   18.4740   55.5830 C   0  0  0  0  0
   17.2160   18.9050   54.2160 O   0  0  0  0  0
   18.3100   12.9690   56.4140 C   0  0  0  0  0
   17.5100   10.3680   54.3150 C   0  0  0  0  0
   17.5090   10.0800   52.9570 C   0  0  0  0  0
   16.7860    8.9910   52.4720 C   0  0  0  0  0
   16.7960    8.7010   51.1090 C   0  0  0  0  0
   17.5270    9.5000   50.2350 C   0  0  0  0  0
   18.2470   10.5850   50.7240 C   0  0  0  0  0
   18.2440   10.8760   52.0810 C   0  0  0  0  0
   19.2136   15.3051   57.0988 H   0  0  0  0  0
   18.7312   13.7159   54.5675 H   0  0  0  0  0
   18.6998   14.4373   58.4381 H   0  0  0  0  0
   20.7048   15.4465   54.5079 H   0  0  0  0  0
   21.3840   13.8925   56.0963 H   0  0  0  0  0
   20.9663   17.2792   56.9120 H   0  0  0  0  0
   22.8630   16.9728   55.6206 H   0  0  0  0  0
   19.7380   17.8667   54.1834 H   0  0  0  0  0
   19.3012   19.9011   55.1955 H   0  0  0  0  0
   18.5252   17.6417   56.9657 H   0  0  0  0  0
   17.2884   19.3545   56.2224 H   0  0  0  0  0
   16.3131   17.9078   55.7727 H   0  0  0  0  0
   16.4526   19.4669   54.0638 H   0  0  0  0  0
   17.1790    9.6146   55.0298 H   0  0  0  0  0
   16.2135    8.3670   53.1583 H   0  0  0  0  0
   16.2321    7.8496   50.7280 H   0  0  0  0  0
   17.5353    9.2758   49.1683 H   0  0  0  0  0
   18.8144   11.7240   52.4600 H   0  0  0  0  0
  2  1  1  0  0  0
  1  5  1  0  0  0
  1 14  1  0  0  0
 17  2  1  0  0  0
 17  3  1  0  0  0
 23  4  1  0  0  0
  5  7  1  0  0  0
  5  8  1  0  0  0
  9  6  1  0  0  0
  6 17  2  0  0  0
  8 10  1  0  0  0
  8 11  1  0  0  0
 18  9  2  0  0  0
 11 12  1  0  0  0
 13 11  1  0  0  0
 14 13  1  0  0  0
 13 15  1  0  0  0
 15 16  1  0  0  0
 19 18  1  0  0  0
 20 19  4  0  0  0
 19 24  4  0  0  0
 21 20  4  0  0  0
 22 21  4  0  0  0
 22 23  4  0  0  0
 23 24  4  0  0  0
  1 25  1  0  0  0
  2 26  1  0  0  0
  3 27  1  0  0  0
  5 28  1  0  0  0
  7 29  1  0  0  0
  8 30  1  0  0  0
 10 31  1  0  0  0
 11 32  1  0  0  0
 12 33  1  0  0  0
 13 34  1  0  0  0
 15 35  1  0  0  0
 15 36  1  0  0  0
 16 37  1  0  0  0
 18 38  1  0  0  0
 20 39  1  0  0  0
 21 40  1  0  0  0
 22 41  1  0  0  0
 24 42  1  0  0  0
M  END
$$$$
