### 
### Created by X-TOOL on Mon Sep 10 21:13:34 2018
### 

@<TRIPOS>MOLECULE
5gmj_ligand
  147   148     1     0     0
SMALL
GAST_HUCK


@<TRIPOS>ATOM
      1 N          80.3720    8.4870   49.4870 N.4       1 LYS         0.2379
      2 CA         81.0880    7.6810   48.5060 C.3       1 LYS         0.0650
      3 C          81.0460    8.2590   47.0760 C.2       1 LYS         0.2268
      4 O          82.0950    8.2680   46.4120 O.2       1 LYS        -0.3907
      5 CB         80.5620    6.2440   48.5130 C.3       1 LYS         0.0080
      6 CG         81.0080    5.3870   47.3300 C.3       1 LYS        -0.0410
      7 CD         82.4610    4.9530   47.4480 C.3       1 LYS        -0.0123
      8 CE         82.7630    3.7670   46.5400 C.3       1 LYS        -0.0354
      9 NZ         82.4410    4.0220   45.1050 N.4       1 LYS         0.2185
     10 N          79.8850    8.7580   46.6200 N.am      1 HIS        -0.2592
     11 CA         79.7650    9.3400   45.2910 C.3       1 HIS         0.1422
     12 C          80.2210   10.7930   45.2540 C.2       1 HIS         0.2061
     13 O          79.7880   11.6950   46.0000 O.2       1 HIS        -0.3942
     14 CB         78.3270    9.2300   44.6680 C.3       1 HIS         0.0427
     15 CG         77.7480    7.8380   44.6550 C.2       1 HIS         0.0561
     16 ND1        76.3920    7.5950   44.5270 N.pl3     1 HIS        -0.2623
     17 CD2        78.3440    6.6310   44.7840 C.2       1 HIS        -0.0276
     18 CE1        76.1970    6.2820   44.5690 C.2       1 HIS         0.0875
     19 NE2        77.3630    5.6780   44.7000 N.2       1 HIS        -0.3437
     20 N          81.1050   10.9900   44.2990 N.am      1 THR        -0.2612
     21 CA         81.6010   12.2570   43.8740 C.3       1 THR         0.1565
     22 C          80.5270   12.9610   43.0700 C.2       1 THR         0.2065
     23 O          79.3730   12.5250   43.0070 O.2       1 THR        -0.3943
     24 CB         82.8290   12.0180   43.0330 C.3       1 THR         0.0924
     25 OG1        82.4090   11.6530   41.7120 O.3       1 THR        -0.3874
     26 CG2        83.5770   10.8530   43.6280 C.3       1 THR        -0.0346
     27 N          80.9230   14.0610   42.4580 N.am      1 LYS        -0.2637
     28 CA         80.0160   14.8900   41.7060 C.3       1 LYS         0.1310
     29 C          80.8780   15.8150   40.8790 C.2       1 LYS         0.2040
     30 O          81.9140   16.2880   41.3500 O.2       1 LYS        -0.3944
     31 CB         79.0850   15.6630   42.6380 C.3       1 LYS        -0.0122
     32 CG         78.7040   17.0280   42.1340 C.3       1 LYS        -0.0440
     33 CD         77.6810   17.6660   43.0400 C.3       1 LYS        -0.0124
     34 CE         77.5820   19.1450   42.7590 C.3       1 LYS        -0.0354
     35 NZ         78.9350   19.7210   42.5460 N.4       1 LYS         0.2185
     36 N          80.4590   16.0450   39.6410 N.am      1 SER        -0.2616
     37 CA         81.1890   16.8860   38.7060 C.3       1 SER         0.1539
     38 C          81.6150   18.2220   39.3020 C.2       1 SER         0.2063
     39 O          80.8890   18.8330   40.0860 O.2       1 SER        -0.3943
     40 CB         80.3390   17.1330   37.4620 C.3       1 SER         0.0843
     41 OG         79.1630   17.8470   37.7990 O.3       1 SER        -0.3903
     42 N          82.8110   18.6540   38.9230 N.am      1 PHE        -0.2619
     43 CA         83.3240   19.9680   39.2750 C.3       1 PHE         0.1404
     44 C          84.2340   20.4210   38.1430 C.2       1 PHE         0.2060
     45 O          84.6730   19.6040   37.3340 O.2       1 PHE        -0.3942
     46 CB         84.0720   19.9360   40.6110 C.3       1 PHE         0.0214
     47 CG         85.2760   19.0360   40.6140 C.ar      1 PHE        -0.0386
     48 CD1        86.5450   19.5540   40.4120 C.ar      1 PHE        -0.0601
     49 CD2        85.1400   17.6740   40.8230 C.ar      1 PHE        -0.0601
     50 CE1        87.6530   18.7300   40.4150 C.ar      1 PHE        -0.0686
     51 CE2        86.2440   16.8450   40.8260 C.ar      1 PHE        -0.0686
     52 CZ         87.5020   17.3740   40.6240 C.ar      1 PHE        -0.0687
     53 N          84.5160   21.7160   38.0780 N.am      1 ILE        -0.2633
     54 CA         85.2930   22.2520   36.9680 C.3       1 ILE         0.1335
     55 C          86.7480   22.4970   37.3590 C.2       1 ILE         0.2036
     56 O          87.0370   22.9570   38.4640 O.2       1 ILE        -0.3944
     57 CB         84.6750   23.5640   36.4390 C.3       1 ILE        -0.0037
     58 CG1        83.2110   23.3420   36.0580 C.3       1 ILE        -0.0491
     59 CG2        85.4530   24.0870   35.2390 C.3       1 ILE        -0.0582
     60 CD1        82.5770   24.5210   35.3530 C.3       1 ILE        -0.0648
     61 N          87.6580   22.1670   36.4470 N.am      1 ILE        -0.2692
     62 CA         89.0720   22.4810   36.6100 C.3       1 ILE         0.0969
     63 C          89.5660   23.3280   35.4430 C.2       1 ILE         0.0604
     64 O          88.8490   23.5370   34.4630 O.co2     1 ILE        -0.5666
     65 CB         89.9320   21.2120   36.7090 C.3       1 ILE        -0.0092
     66 CG1        89.6430   20.2840   35.5280 C.3       1 ILE        -0.0497
     67 CG2        89.6820   20.5040   38.0290 C.3       1 ILE        -0.0588
     68 CD1        90.7580   19.3070   35.2320 C.3       1 ILE        -0.0649
     69 OXT        90.6930   23.8220   35.4510 O.co2     1 ILE        -0.5666
     70 H1         80.4409    8.0522   50.3938 H         1 LYS         0.2015
     71 H2         79.4023    8.5572   49.2209 H         1 LYS         0.2015
     72 H3         80.7776    9.4090   49.5248 H         1 LYS         0.2015
     73 H4         82.1434    7.6553   48.8150 H         1 LYS         0.1098
     74 H5         79.4627    6.2831   48.5106 H         1 LYS         0.0346
     75 H6         80.9096    5.7580   49.4365 H         1 LYS         0.0346
     76 H7         80.8868    5.9699   46.4051 H         1 LYS         0.0270
     77 H8         80.3733    4.4898   47.2838 H         1 LYS         0.0270
     78 H9         82.6655    4.6668   48.4902 H         1 LYS         0.0317
     79 H10        83.1100    5.7948   47.1648 H         1 LYS         0.0317
     80 H11        82.1705    2.9058   46.8825 H         1 LYS         0.0813
     81 H12        83.8342    3.5303   46.6202 H         1 LYS         0.0813
     82 H13        82.6625    3.2032   44.5604 H         1 LYS         0.1994
     83 H14        82.9838    4.8036   44.7726 H         1 LYS         0.1994
     84 H15        81.4593    4.2313   45.0130 H         1 LYS         0.1994
     85 H16        79.0790    8.7288   47.2112 H         1 HIS         0.1886
     86 H17        80.4414    8.7675   44.6393 H         1 HIS         0.0824
     87 H18        78.3755    9.5900   43.6297 H         1 HIS         0.0491
     88 H19        77.6521    9.8758   45.2489 H         1 HIS         0.0491
     89 H20        75.6589    8.3103   44.4178 H         1 HIS         0.2386
     90 H21        79.4081    6.4497   44.9282 H         1 HIS         0.0324
     91 H22        75.2306    5.7840   44.5056 H         1 HIS         0.1149
     92 H23        81.4595   10.1805   43.8309 H         1 THR         0.1884
     93 H24        81.8653   12.8703   44.7481 H         1 THR         0.0826
     94 H25        83.4633   12.9162   43.0049 H         1 THR         0.0639
     95 H26        83.1733   11.4989   41.1692 H         1 THR         0.2101
     96 H27        84.4807   10.6551   43.0330 H         1 THR         0.0257
     97 H28        82.9321    9.9619   43.6226 H         1 THR         0.0257
     98 H29        83.8643   11.0916   44.6627 H         1 THR         0.0257
     99 H30        81.8848   14.3281   42.5182 H         1 LYS         0.1883
    100 H31        79.4049   14.2630   41.0401 H         1 LYS         0.0800
    101 H32        79.5889   15.7817   43.6086 H         1 LYS         0.0312
    102 H33        78.1648   15.0753   42.7720 H         1 LYS         0.0312
    103 H34        78.2817   16.9343   41.1226 H         1 LYS         0.0269
    104 H35        79.6013   17.6633   42.0993 H         1 LYS         0.0269
    105 H36        77.9799   17.5150   44.0878 H         1 LYS         0.0317
    106 H37        76.7009   17.1975   42.8672 H         1 LYS         0.0317
    107 H38        77.1050   19.6458   43.6144 H         1 LYS         0.0813
    108 H39        76.9741   19.3029   41.8559 H         1 LYS         0.0813
    109 H40        78.8543   20.7083   42.3595 H         1 LYS         0.1994
    110 H41        79.3743   19.2657   41.7613 H         1 LYS         0.1994
    111 H42        79.4942   19.5799   43.3727 H         1 LYS         0.1994
    112 H43        79.6049   15.6220   39.3383 H         1 SER         0.1884
    113 H44        82.0987   16.3448   38.4068 H         1 SER         0.0823
    114 H45        80.0606   16.1668   37.0160 H         1 SER         0.0606
    115 H46        80.9220   17.7179   36.7354 H         1 SER         0.0606
    116 H47        78.6562   17.3430   38.4248 H         1 SER         0.2097
    117 H48        83.3848   18.0491   38.3709 H         1 PHE         0.1885
    118 H49        82.4829   20.6711   39.3653 H         1 PHE         0.0823
    119 H50        83.3769   19.5869   41.3888 H         1 PHE         0.0474
    120 H51        84.4032   20.9581   40.8470 H         1 PHE         0.0474
    121 H52        86.6695   20.6185   40.2497 H         1 PHE         0.0557
    122 H53        84.1544   17.2534   40.9863 H         1 PHE         0.0557
    123 H54        88.6402   19.1475   40.2534 H         1 PHE         0.0599
    124 H55        86.1225   15.7799   40.9869 H         1 PHE         0.0599
    125 H56        88.3707   16.7256   40.6294 H         1 PHE         0.0559
    126 H57        84.1921   22.3300   38.7978 H         1 ILE         0.1883
    127 H58        85.2764   21.5102   36.1559 H         1 ILE         0.0803
    128 H59        84.7197   24.3175   37.2391 H         1 ILE         0.0345
    129 H60        82.6406   23.1398   36.9765 H         1 ILE         0.0267
    130 H61        83.1548   22.4686   35.3917 H         1 ILE         0.0267
    131 H62        86.5041   24.2433   35.5233 H         1 ILE         0.0235
    132 H63        85.0173   25.0409   34.9069 H         1 ILE         0.0235
    133 H64        85.3997   23.3547   34.4200 H         1 ILE         0.0235
    134 H65        81.5297   24.2849   35.1132 H         1 ILE         0.0230
    135 H66        83.1272   24.7320   34.4242 H         1 ILE         0.0230
    136 H67        82.6130   25.4032   36.0090 H         1 ILE         0.0230
    137 H68        87.3620   21.6870   35.6212 H         1 ILE         0.1875
    138 H69        89.1914   23.0561   37.5400 H         1 ILE         0.0729
    139 H70        90.9915   21.5049   36.6687 H         1 ILE         0.0338
    140 H71        89.4774   20.9024   34.6335 H         1 ILE         0.0267
    141 H72        88.7308   19.7115   35.7520 H         1 ILE         0.0267
    142 H73        89.8967   21.1916   38.8603 H         1 ILE         0.0234
    143 H74        90.3374   19.6236   38.1028 H         1 ILE         0.0234
    144 H75        88.6308   20.1840   38.0801 H         1 ILE         0.0234
    145 H76        90.4764   18.6782   34.3745 H         1 ILE         0.0230
    146 H77        90.9311   18.6705   36.1123 H         1 ILE         0.0230
    147 H78        91.6777   19.8614   34.9938 H         1 ILE         0.0230
@<TRIPOS>BOND
     1    1    2 1  
     2    2    3 1  
     3    2    5 1  
     4    3    4 2  
     5    3   10 am 
     6    5    6 1  
     7    6    7 1  
     8    7    8 1  
     9    8    9 1  
    10   10   11 1  
    11   11   12 1  
    12   11   14 1  
    13   12   13 2  
    14   12   20 am 
    15   14   15 1  
    16   15   16 1  
    17   15   17 2  
    18   16   18 1  
    19   17   19 1  
    20   18   19 2  
    21   20   21 1  
    22   21   22 1  
    23   21   24 1  
    24   22   23 2  
    25   22   27 am 
    26   24   25 1  
    27   24   26 1  
    28   27   28 1  
    29   28   29 1  
    30   28   31 1  
    31   29   30 2  
    32   29   36 am 
    33   31   32 1  
    34   32   33 1  
    35   33   34 1  
    36   34   35 1  
    37   36   37 1  
    38   37   38 1  
    39   37   40 1  
    40   38   39 2  
    41   38   42 am 
    42   40   41 1  
    43   42   43 1  
    44   43   44 1  
    45   43   46 1  
    46   44   45 2  
    47   44   53 am 
    48   46   47 1  
    49   47   48 ar 
    50   47   49 ar 
    51   48   50 ar 
    52   49   51 ar 
    53   50   52 ar 
    54   51   52 ar 
    55   53   54 1  
    56   54   55 1  
    57   54   57 1  
    58   55   56 2  
    59   55   61 am 
    60   57   58 1  
    61   57   59 1  
    62   58   60 1  
    63   61   62 1  
    64   62   63 1  
    65   62   65 1  
    66   63   64 ar 
    67   63   69 ar 
    68   65   66 1  
    69   65   67 1  
    70   66   68 1  
    71    1   70 1  
    72    1   71 1  
    73    1   72 1  
    74    2   73 1  
    75    5   74 1  
    76    5   75 1  
    77    6   76 1  
    78    6   77 1  
    79    7   78 1  
    80    7   79 1  
    81    8   80 1  
    82    8   81 1  
    83    9   82 1  
    84    9   83 1  
    85    9   84 1  
    86   10   85 1  
    87   11   86 1  
    88   14   87 1  
    89   14   88 1  
    90   16   89 1  
    91   17   90 1  
    92   18   91 1  
    93   20   92 1  
    94   21   93 1  
    95   24   94 1  
    96   25   95 1  
    97   26   96 1  
    98   26   97 1  
    99   26   98 1  
   100   27   99 1  
   101   28  100 1  
   102   31  101 1  
   103   31  102 1  
   104   32  103 1  
   105   32  104 1  
   106   33  105 1  
   107   33  106 1  
   108   34  107 1  
   109   34  108 1  
   110   35  109 1  
   111   35  110 1  
   112   35  111 1  
   113   36  112 1  
   114   37  113 1  
   115   40  114 1  
   116   40  115 1  
   117   41  116 1  
   118   42  117 1  
   119   43  118 1  
   120   46  119 1  
   121   46  120 1  
   122   48  121 1  
   123   49  122 1  
   124   50  123 1  
   125   51  124 1  
   126   52  125 1  
   127   53  126 1  
   128   54  127 1  
   129   57  128 1  
   130   58  129 1  
   131   58  130 1  
   132   59  131 1  
   133   59  132 1  
   134   59  133 1  
   135   60  134 1  
   136   60  135 1  
   137   60  136 1  
   138   61  137 1  
   139   62  138 1  
   140   65  139 1  
   141   66  140 1  
   142   66  141 1  
   143   67  142 1  
   144   67  143 1  
   145   67  144 1  
   146   68  145 1  
   147   68  146 1  
   148   68  147 1  
@<TRIPOS>SUBSTRUCTURE
     1 LYS         1

