5gmj_ligand
  -I-interpret- 

147148  0  0  0  0  0  0  0  0999 V2000
   80.3720    8.4870   49.4870 N   0  3  0  0  0
   81.0880    7.6810   48.5060 C   0  0  0  0  0
   81.0460    8.2590   47.0760 C   0  0  0  0  0
   82.0950    8.2680   46.4120 O   0  0  0  0  0
   80.5620    6.2440   48.5130 C   0  0  0  0  0
   81.0080    5.3870   47.3300 C   0  0  0  0  0
   82.4610    4.9530   47.4480 C   0  0  0  0  0
   82.7630    3.7670   46.5400 C   0  0  0  0  0
   82.4410    4.0220   45.1050 N   0  3  0  0  0
   79.8850    8.7580   46.6200 N   0  0  0  0  0
   79.7650    9.3400   45.2910 C   0  0  0  0  0
   80.2210   10.7930   45.2540 C   0  0  0  0  0
   79.7880   11.6950   46.0000 O   0  0  0  0  0
   78.3270    9.2300   44.6680 C   0  0  0  0  0
   77.7480    7.8380   44.6550 C   0  0  0  0  0
   76.3920    7.5950   44.5270 N   0  0  0  0  0
   78.3440    6.6310   44.7840 C   0  0  0  0  0
   76.1970    6.2820   44.5690 C   0  0  0  0  0
   77.3630    5.6780   44.7000 N   0  0  0  0  0
   81.1050   10.9900   44.2990 N   0  0  0  0  0
   81.6010   12.2570   43.8740 C   0  0  0  0  0
   80.5270   12.9610   43.0700 C   0  0  0  0  0
   79.3730   12.5250   43.0070 O   0  0  0  0  0
   82.8290   12.0180   43.0330 C   0  0  0  0  0
   82.4090   11.6530   41.7120 O   0  0  0  0  0
   83.5770   10.8530   43.6280 C   0  0  0  0  0
   80.9230   14.0610   42.4580 N   0  0  0  0  0
   80.0160   14.8900   41.7060 C   0  0  0  0  0
   80.8780   15.8150   40.8790 C   0  0  0  0  0
   81.9140   16.2880   41.3500 O   0  0  0  0  0
   79.0850   15.6630   42.6380 C   0  0  0  0  0
   78.7040   17.0280   42.1340 C   0  0  0  0  0
   77.6810   17.6660   43.0400 C   0  0  0  0  0
   77.5820   19.1450   42.7590 C   0  0  0  0  0
   78.9350   19.7210   42.5460 N   0  3  0  0  0
   80.4590   16.0450   39.6410 N   0  0  0  0  0
   81.1890   16.8860   38.7060 C   0  0  0  0  0
   81.6150   18.2220   39.3020 C   0  0  0  0  0
   80.8890   18.8330   40.0860 O   0  0  0  0  0
   80.3390   17.1330   37.4620 C   0  0  0  0  0
   79.1630   17.8470   37.7990 O   0  0  0  0  0
   82.8110   18.6540   38.9230 N   0  0  0  0  0
   83.3240   19.9680   39.2750 C   0  0  0  0  0
   84.2340   20.4210   38.1430 C   0  0  0  0  0
   84.6730   19.6040   37.3340 O   0  0  0  0  0
   84.0720   19.9360   40.6110 C   0  0  0  0  0
   85.2760   19.0360   40.6140 C   0  0  0  0  0
   86.5450   19.5540   40.4120 C   0  0  0  0  0
   85.1400   17.6740   40.8230 C   0  0  0  0  0
   87.6530   18.7300   40.4150 C   0  0  0  0  0
   86.2440   16.8450   40.8260 C   0  0  0  0  0
   87.5020   17.3740   40.6240 C   0  0  0  0  0
   84.5160   21.7160   38.0780 N   0  0  0  0  0
   85.2930   22.2520   36.9680 C   0  0  0  0  0
   86.7480   22.4970   37.3590 C   0  0  0  0  0
   87.0370   22.9570   38.4640 O   0  0  0  0  0
   84.6750   23.5640   36.4390 C   0  0  0  0  0
   83.2110   23.3420   36.0580 C   0  0  0  0  0
   85.4530   24.0870   35.2390 C   0  0  0  0  0
   82.5770   24.5210   35.3530 C   0  0  0  0  0
   87.6580   22.1670   36.4470 N   0  0  0  0  0
   89.0720   22.4810   36.6100 C   0  0  0  0  0
   89.5660   23.3280   35.4430 C   0  0  0  0  0
   88.8490   23.5370   34.4630 O   0  0  0  0  0
   89.9320   21.2120   36.7090 C   0  0  0  0  0
   89.6430   20.2840   35.5280 C   0  0  0  0  0
   89.6820   20.5040   38.0290 C   0  0  0  0  0
   90.7580   19.3070   35.2320 C   0  0  0  0  0
   90.6930   23.8220   35.4510 O   0  0  0  0  0
   80.7333    9.4407   49.4705 H   0  0  0  0  0
   79.3779    8.4947   49.2586 H   0  0  0  0  0
   80.5055    8.0876   50.4160 H   0  0  0  0  0
   82.1351    7.6950   48.8086 H   0  0  0  0  0
   79.4749    6.3068   48.4637 H   0  0  0  0  0
   80.9561    5.7692   49.4115 H   0  0  0  0  0
   80.9052    5.9825   46.4229 H   0  0  0  0  0
   80.3878    4.4909   47.3083 H   0  0  0  0  0
   82.6508    4.6562   48.4795 H   0  0  0  0  0
   83.0965    5.7871   47.1505 H   0  0  0  0  0
   82.1448    2.9330   46.8723 H   0  0  0  0  0
   83.8323    3.5665   46.6062 H   0  0  0  0  0
   82.6655    3.1929   44.5549 H   0  0  0  0  0
   81.4474    4.2337   45.0132 H   0  0  0  0  0
   82.9908    4.8130   44.7698 H   0  0  0  0  0
   79.0629    8.7282   47.2231 H   0  0  0  0  0
   80.4316    8.7352   44.6762 H   0  0  0  0  0
   78.4072    9.5489   43.6288 H   0  0  0  0  0
   77.6676    9.8411   45.2843 H   0  0  0  0  0
   79.4091    6.4495   44.9283 H   0  0  0  0  0
   75.2297    5.7836   44.5055 H   0  0  0  0  0
   81.4666   10.1643   43.8215 H   0  0  0  0  0
   81.8620   12.8850   44.7258 H   0  0  0  0  0
   83.4557   12.9092   43.0010 H   0  0  0  0  0
   83.1813   11.4972   41.1635 H   0  0  0  0  0
   83.8610   11.0906   44.6532 H   0  0  0  0  0
   82.9369    9.9707   43.6221 H   0  0  0  0  0
   84.4722   10.6579   43.0376 H   0  0  0  0  0
   81.9040   14.3334   42.5194 H   0  0  0  0  0
   79.3675   14.2939   41.0639 H   0  0  0  0  0
   79.6162   15.8040   43.5793 H   0  0  0  0  0
   78.1655   15.0844   42.7270 H   0  0  0  0  0
   78.2767   16.9280   41.1363 H   0  0  0  0  0
   79.5946   17.6560   42.1117 H   0  0  0  0  0
   77.9841   17.5204   44.0768 H   0  0  0  0  0
   76.7100   17.2041   42.8610 H   0  0  0  0  0
   77.1151   19.6387   43.6113 H   0  0  0  0  0
   76.9848   19.2973   41.8600 H   0  0  0  0  0
   78.8521   20.7200   42.3574 H   0  0  0  0  0
   79.4999   19.5775   43.3831 H   0  0  0  0  0
   79.3785   19.2595   41.7518 H   0  0  0  0  0
   79.5879   15.6135   39.3322 H   0  0  0  0  0
   82.1011   16.3472   38.4492 H   0  0  0  0  0
   80.0587   16.1732   37.0281 H   0  0  0  0  0
   80.9175   17.7197   36.7484 H   0  0  0  0  0
   78.6409   17.9936   37.0068 H   0  0  0  0  0
   83.3963   18.0370   38.3599 H   0  0  0  0  0
   82.5010   20.6712   39.4026 H   0  0  0  0  0
   83.3796   19.5535   41.3609 H   0  0  0  0  0
   84.4237   20.9484   40.8098 H   0  0  0  0  0
   86.6702   20.6244   40.2488 H   0  0  0  0  0
   84.1489   17.2510   40.9872 H   0  0  0  0  0
   88.6457   19.1498   40.2525 H   0  0  0  0  0
   86.1218   15.7740   40.9877 H   0  0  0  0  0
   88.3755   16.7220   40.6294 H   0  0  0  0  0
   84.1857   22.3423   38.8122 H   0  0  0  0  0
   85.2700   21.5008   36.1785 H   0  0  0  0  0
   84.7279   24.3089   37.2330 H   0  0  0  0  0
   82.6561   23.1794   36.9820 H   0  0  0  0  0
   83.1790   22.4969   35.3703 H   0  0  0  0  0
   86.4851   24.2788   35.5323 H   0  0  0  0  0
   85.4325   23.3435   34.4422 H   0  0  0  0  0
   84.9963   25.0118   34.8865 H   0  0  0  0  0
   82.6133   25.3944   36.0040 H   0  0  0  0  0
   83.1231   24.7291   34.4329 H   0  0  0  0  0
   81.5394   24.2859   35.1159 H   0  0  0  0  0
   87.3561   21.6774   35.6046 H   0  0  0  0  0
   89.1708   23.0378   37.5418 H   0  0  0  0  0
   88.0045   23.0975   34.5862 H   0  0  0  0  0
   90.9836   21.4962   36.6714 H   0  0  0  0  0
   89.5176   20.9110   34.6453 H   0  0  0  0  0
   88.7585   19.7001   35.7825 H   0  0  0  0  0
   89.9375   21.1715   38.8520 H   0  0  0  0  0
   88.6301   20.2267   38.0976 H   0  0  0  0  0
   90.2996   19.6074   38.0816 H   0  0  0  0  0
   91.6687   19.8576   34.9962 H   0  0  0  0  0
   90.9286   18.6770   36.1050 H   0  0  0  0  0
   90.4779   18.6845   34.3822 H   0  0  0  0  0
  1  2  1  0  0  0
  2  3  1  0  0  0
  2  5  1  0  0  0
  3  4  2  0  0  0
  3 10  1  0  0  0
  5  6  1  0  0  0
  6  7  1  0  0  0
  7  8  1  0  0  0
  8  9  1  0  0  0
 10 11  1  0  0  0
 11 12  1  0  0  0
 11 14  1  0  0  0
 12 13  2  0  0  0
 12 20  1  0  0  0
 14 15  1  0  0  0
 15 16  4  0  0  0
 15 17  4  0  0  0
 16 18  4  0  0  0
 17 19  4  0  0  0
 18 19  4  0  0  0
 20 21  1  0  0  0
 21 22  1  0  0  0
 21 24  1  0  0  0
 22 23  2  0  0  0
 22 27  1  0  0  0
 24 25  1  0  0  0
 24 26  1  0  0  0
 27 28  1  0  0  0
 28 29  1  0  0  0
 28 31  1  0  0  0
 29 30  2  0  0  0
 29 36  1  0  0  0
 31 32  1  0  0  0
 32 33  1  0  0  0
 33 34  1  0  0  0
 34 35  1  0  0  0
 36 37  1  0  0  0
 37 38  1  0  0  0
 37 40  1  0  0  0
 38 39  2  0  0  0
 38 42  1  0  0  0
 40 41  1  0  0  0
 42 43  1  0  0  0
 43 44  1  0  0  0
 43 46  1  0  0  0
 44 45  2  0  0  0
 44 53  1  0  0  0
 46 47  1  0  0  0
 47 48  4  0  0  0
 47 49  4  0  0  0
 48 50  4  0  0  0
 49 51  4  0  0  0
 50 52  4  0  0  0
 51 52  4  0  0  0
 53 54  1  0  0  0
 54 55  1  0  0  0
 54 57  1  0  0  0
 55 56  2  0  0  0
 55 61  1  0  0  0
 57 58  1  0  0  0
 57 59  1  0  0  0
 58 60  1  0  0  0
 61 62  1  0  0  0
 62 63  1  0  0  0
 62 65  1  0  0  0
 63 64  1  0  0  0
 63 69  2  0  0  0
 65 66  1  0  0  0
 65 67  1  0  0  0
 66 68  1  0  0  0
  1 70  1  0  0  0
  1 71  1  0  0  0
  1 72  1  0  0  0
  2 73  1  0  0  0
  5 74  1  0  0  0
  5 75  1  0  0  0
  6 76  1  0  0  0
  6 77  1  0  0  0
  7 78  1  0  0  0
  7 79  1  0  0  0
  8 80  1  0  0  0
  8 81  1  0  0  0
  9 82  1  0  0  0
  9 83  1  0  0  0
  9 84  1  0  0  0
 10 85  1  0  0  0
 11 86  1  0  0  0
 14 87  1  0  0  0
 14 88  1  0  0  0
 17 89  1  0  0  0
 18 90  1  0  0  0
 20 91  1  0  0  0
 21 92  1  0  0  0
 24 93  1  0  0  0
 25 94  1  0  0  0
 26 95  1  0  0  0
 26 96  1  0  0  0
 26 97  1  0  0  0
 27 98  1  0  0  0
 28 99  1  0  0  0
 31100  1  0  0  0
 31101  1  0  0  0
 32102  1  0  0  0
 32103  1  0  0  0
 33104  1  0  0  0
 33105  1  0  0  0
 34106  1  0  0  0
 34107  1  0  0  0
 35108  1  0  0  0
 35109  1  0  0  0
 35110  1  0  0  0
 36111  1  0  0  0
 37112  1  0  0  0
 40113  1  0  0  0
 40114  1  0  0  0
 41115  1  0  0  0
 42116  1  0  0  0
 43117  1  0  0  0
 46118  1  0  0  0
 46119  1  0  0  0
 48120  1  0  0  0
 49121  1  0  0  0
 50122  1  0  0  0
 51123  1  0  0  0
 52124  1  0  0  0
 53125  1  0  0  0
 54126  1  0  0  0
 57127  1  0  0  0
 58128  1  0  0  0
 58129  1  0  0  0
 59130  1  0  0  0
 59131  1  0  0  0
 59132  1  0  0  0
 60133  1  0  0  0
 60134  1  0  0  0
 60135  1  0  0  0
 61136  1  0  0  0
 62137  1  0  0  0
 64138  1  0  0  0
 65139  1  0  0  0
 66140  1  0  0  0
 66141  1  0  0  0
 67142  1  0  0  0
 67143  1  0  0  0
 67144  1  0  0  0
 68145  1  0  0  0
 68146  1  0  0  0
 68147  1  0  0  0
M  END
$$$$
