1c4y_ligand
  -I-interpret- 

 75 80  0  0  0  0  0  0  0  0999 V2000
   25.3450   48.5910   -4.8320 C   0  0  0  0  0
   24.5070   48.3160   -3.7520 N   0  0  0  0  0
   23.4470   47.6070   -4.1920 C   0  0  0  0  0
   23.5970   47.4300   -5.5070 N   0  0  0  0  0
   24.7420   48.0160   -5.9250 C   0  0  0  0  0
   22.4400   47.1610   -3.4600 N   0  0  0  0  0
   29.0620   50.8460   -4.2020 N   0  0  0  0  0
   27.5850   51.6060   -5.7600 C   0  0  0  0  0
   29.0090   50.9550   -5.4390 C   0  0  0  0  0
   28.9780   49.4540   -5.8540 C   0  0  0  0  0
   27.6040   48.7000   -5.8170 C   0  0  0  0  0
   26.5890   49.3250   -4.7690 C   0  0  0  0  0
   26.3500   50.7830   -5.0970 C   0  0  0  0  0
   33.0760   49.0520   -2.2080 N   0  0  0  0  0
   33.7510   50.2190   -1.8620 C   0  0  0  0  0
   35.0050   50.3120   -1.7280 O   0  0  0  0  0
   32.7570   51.1700   -1.6100 N   0  0  0  0  0
   31.4860   50.5670   -1.8930 N   0  0  0  0  0
   31.7170   49.2640   -2.3030 C   0  0  0  0  0
   30.8530   48.4160   -2.5980 O   0  0  0  0  0
   32.9110   52.5160   -1.2580 C   0  0  0  0  0
   31.5550   53.2470   -1.2270 C   0  0  0  0  0
   30.3570   52.6450   -1.4960 C   0  0  0  0  0
   30.3380   51.2930   -2.2310 C   0  0  0  0  0
   31.5190   54.7610   -0.8680 C   0  0  0  0  0
   30.1040   51.4940   -3.6530 C   0  0  0  0  0
   30.9070   52.1590   -4.3140 O   0  0  0  0  0
   33.4090   46.5440   -1.6680 C   0  0  0  0  0
   33.8590   47.5820   -2.6430 C   0  0  0  0  0
   33.6170   47.0110   -0.2250 C   0  0  0  0  0
   32.4690   46.9980    0.6330 C   0  0  0  0  0
   32.5910   47.4670    2.0170 C   0  0  0  0  0
   33.8630   47.9730    2.5970 C   0  0  0  0  0
   35.0480   48.0040    1.7420 C   0  0  0  0  0
   34.9260   47.5260    0.3400 C   0  0  0  0  0
   34.0780   45.2040   -2.0160 C   0  0  0  0  0
   33.2280   44.1030   -2.4440 C   0  0  0  0  0
   33.9040   42.6890   -2.7660 C   0  0  0  0  0
   35.3280   42.4150   -2.6510 C   0  0  0  0  0
   36.1700   43.5070   -2.2520 C   0  0  0  0  0
   35.5900   44.8660   -1.9270 C   0  0  0  0  0
   25.1196   48.0298   -6.9474 H   0  0  0  0  0
   22.4172   47.3461   -2.4572 H   0  0  0  0  0
   21.6860   46.6319   -3.8982 H   0  0  0  0  0
   28.3815   50.3167   -3.6568 H   0  0  0  0  0
   27.4500   51.5952   -6.8416 H   0  0  0  0  0
   27.5771   52.6126   -5.3420 H   0  0  0  0  0
   29.7956   51.5385   -5.9174 H   0  0  0  0  0
   29.6052   48.9421   -5.1242 H   0  0  0  0  0
   29.2844   49.4397   -6.9000 H   0  0  0  0  0
   27.7966   47.6686   -5.5216 H   0  0  0  0  0
   27.1532   48.7779   -6.8063 H   0  0  0  0  0
   27.0030   49.2573   -3.7630 H   0  0  0  0  0
   25.5538   50.7927   -5.8414 H   0  0  0  0  0
   26.1459   51.2715   -4.1442 H   0  0  0  0  0
   33.5472   52.9976   -2.0005 H   0  0  0  0  0
   33.3540   52.5654   -0.2633 H   0  0  0  0  0
   29.4234   53.1187   -1.1924 H   0  0  0  0  0
   29.5014   50.6728   -1.9094 H   0  0  0  0  0
   31.0890   55.3200   -1.6991 H   0  0  0  0  0
   30.9096   54.9072    0.0238 H   0  0  0  0  0
   32.5332   55.1123   -0.6782 H   0  0  0  0  0
   32.3334   46.3854   -1.7462 H   0  0  0  0  0
   34.9424   47.6976   -2.6114 H   0  0  0  0  0
   33.5998   47.2932   -3.6616 H   0  0  0  0  0
   31.5096   46.6411    0.2585 H   0  0  0  0  0
   31.7053   47.4435    2.6519 H   0  0  0  0  0
   33.9105   48.3117    3.6319 H   0  0  0  0  0
   36.0009   48.3699    2.1244 H   0  0  0  0  0
   35.8061   47.5464   -0.3027 H   0  0  0  0  0
   32.1511   44.2391   -2.5433 H   0  0  0  0  0
   33.2544   41.8772   -3.0932 H   0  0  0  0  0
   35.7368   41.4261   -2.8583 H   0  0  0  0  0
   37.2470   43.3543   -2.1819 H   0  0  0  0  0
   36.2742   45.6538   -1.6119 H   0  0  0  0  0
  1  2  4  0  0  0
  1  5  4  0  0  0
 12  1  1  0  0  0
  2  3  4  0  0  0
  4  3  4  0  0  0
  3  6  1  0  0  0
  5  4  4  0  0  0
  7  9  1  0  0  0
 26  7  1  0  0  0
  9  8  1  0  0  0
  8 13  1  0  0  0
  9 10  1  0  0  0
 10 11  1  0  0  0
 11 12  1  0  0  0
 13 12  1  0  0  0
 14 15  1  0  0  0
 19 14  1  0  0  0
 14 29  1  0  0  0
 15 16  2  0  0  0
 17 15  1  0  0  0
 18 17  1  0  0  0
 17 21  1  0  0  0
 18 19  1  0  0  0
 24 18  1  0  0  0
 19 20  2  0  0  0
 22 21  1  0  0  0
 23 22  2  0  0  0
 22 25  1  0  0  0
 24 23  1  0  0  0
 24 26  1  0  0  0
 26 27  2  0  0  0
 29 28  1  0  0  0
 28 30  1  0  0  0
 28 36  1  0  0  0
 30 31  4  0  0  0
 30 35  4  0  0  0
 31 32  4  0  0  0
 32 33  4  0  0  0
 33 34  4  0  0  0
 34 35  4  0  0  0
 36 37  4  0  0  0
 36 41  4  0  0  0
 37 38  4  0  0  0
 38 39  4  0  0  0
 39 40  4  0  0  0
 40 41  4  0  0  0
  5 42  1  0  0  0
  6 43  1  0  0  0
  6 44  1  0  0  0
  7 45  1  0  0  0
  8 46  1  0  0  0
  8 47  1  0  0  0
  9 48  1  0  0  0
 10 49  1  0  0  0
 10 50  1  0  0  0
 11 51  1  0  0  0
 11 52  1  0  0  0
 12 53  1  0  0  0
 13 54  1  0  0  0
 13 55  1  0  0  0
 21 56  1  0  0  0
 21 57  1  0  0  0
 23 58  1  0  0  0
 24 59  1  0  0  0
 25 60  1  0  0  0
 25 61  1  0  0  0
 25 62  1  0  0  0
 28 63  1  0  0  0
 29 64  1  0  0  0
 29 65  1  0  0  0
 31 66  1  0  0  0
 32 67  1  0  0  0
 33 68  1  0  0  0
 34 69  1  0  0  0
 35 70  1  0  0  0
 37 71  1  0  0  0
 38 72  1  0  0  0
 39 73  1  0  0  0
 40 74  1  0  0  0
 41 75  1  0  0  0
M  END
$$$$
