3tyq_ligand
  -I-interpret- 

 50 53  0  0  0  0  0  0  0  0999 V2000
   26.9250   43.0110   42.9140 C   0  0  0  0  0
   25.1150   43.1700   44.6140 N   0  0  0  0  0
   24.0600   46.1750   42.9430 O   0  0  0  0  0
   26.7260   44.0590   41.9870 C   0  0  0  0  0
   21.0940   47.2500   45.4970 N   0  0  0  0  0
   21.4810   45.3170   44.3130 O   0  0  0  0  0
   27.8410   44.6940   41.3950 C   0  0  0  0  0
   27.6490   45.7790   40.4410 N   0  0  0  0  0
   23.7670   44.0790   42.1630 O   0  0  0  0  0
   29.1470   44.2970   41.7020 C   0  0  0  0  0
   28.6360   46.4920   40.1830 O   0  0  0  0  0
   29.3440   43.2630   42.6210 C   0  0  0  0  0
   26.5290   45.8980   39.9120 O   0  0  0  0  0
   28.2460   42.6390   43.2230 C   0  0  0  0  0
   23.1530   45.9410   45.9300 C   0  0  0  0  0
   24.4370   43.8550   48.0520 C   0  0  0  0  0
   25.0650   42.8140   48.7580 C   0  0  0  0  0
   24.4980   43.8980   46.6410 C   0  0  0  0  0
   25.2020   42.8920   45.9610 C   0  0  0  0  0
   24.3800   44.3280   44.3990 C   0  0  0  0  0
   23.9730   44.7820   45.6580 C   0  0  0  0  0
   25.7540   41.8200   48.0550 C   0  0  0  0  0
   25.8360   41.8450   46.6510 C   0  0  0  0  0
   24.0830   44.9700   43.1320 C   0  0  0  0  0
   25.7460   42.3260   43.5730 C   0  0  0  0  0
   21.8470   46.1290   45.1750 C   0  0  0  0  0
   21.4760   48.1670   46.4540 C   0  0  0  0  0
   22.6190   47.9980   47.1370 C   0  0  0  0  0
   23.4710   46.8560   46.8660 C   0  0  0  0  0
   24.9970   42.7670   50.2720 C   0  0  0  0  0
   23.9360   41.7910   50.7480 C   0  0  0  0  0
   25.7156   44.3765   41.7295 H   0  0  0  0  0
   20.2155   47.4030   45.0018 H   0  0  0  0  0
   23.8465   43.1878   42.5110 H   0  0  0  0  0
   29.9989   44.7874   41.2309 H   0  0  0  0  0
   30.3555   42.9418   42.8695 H   0  0  0  0  0
   28.4184   41.8449   43.9495 H   0  0  0  0  0
   23.9005   44.6326   48.5957 H   0  0  0  0  0
   26.2359   41.0117   48.6050 H   0  0  0  0  0
   26.3791   41.0697   46.1105 H   0  0  0  0  0
   26.1076   41.4149   44.0498 H   0  0  0  0  0
   25.0002   42.1230   42.8045 H   0  0  0  0  0
   20.8464   49.0334   46.6566 H   0  0  0  0  0
   22.9082   48.7222   47.8986 H   0  0  0  0  0
   24.3929   46.7350   47.4347 H   0  0  0  0  0
   24.7423   43.7615   50.6384 H   0  0  0  0  0
   25.9646   42.4395   50.6522 H   0  0  0  0  0
   22.9627   42.0998   50.3665 H   0  0  0  0  0
   24.1716   40.7923   50.3802 H   0  0  0  0  0
   23.9146   41.7826   51.8378 H   0  0  0  0  0
  1  4  4  0  0  0
  1 14  4  0  0  0
 25  1  1  0  0  0
  2 19  4  0  0  0
 20  2  4  0  0  0
  2 25  1  0  0  0
 24  3  2  0  0  0
  4  7  4  0  0  0
 26  5  1  0  0  0
  5 27  1  0  0  0
 26  6  2  0  0  0
  7  8  1  0  0  0
  7 10  4  0  0  0
  8 11  2  0  0  0
  8 13  2  0  0  0
 24  9  1  0  0  0
 12 10  4  0  0  0
 14 12  4  0  0  0
 21 15  1  0  0  0
 15 26  1  0  0  0
 15 29  2  0  0  0
 16 17  4  0  0  0
 18 16  4  0  0  0
 17 22  4  0  0  0
 17 30  1  0  0  0
 18 19  4  0  0  0
 21 18  4  0  0  0
 19 23  4  0  0  0
 20 21  4  0  0  0
 20 24  1  0  0  0
 22 23  4  0  0  0
 27 28  2  0  0  0
 28 29  1  0  0  0
 30 31  1  0  0  0
  4 32  1  0  0  0
  5 33  1  0  0  0
  9 34  1  0  0  0
 10 35  1  0  0  0
 12 36  1  0  0  0
 14 37  1  0  0  0
 16 38  1  0  0  0
 22 39  1  0  0  0
 23 40  1  0  0  0
 25 41  1  0  0  0
 25 42  1  0  0  0
 27 43  1  0  0  0
 28 44  1  0  0  0
 29 45  1  0  0  0
 30 46  1  0  0  0
 30 47  1  0  0  0
 31 48  1  0  0  0
 31 49  1  0  0  0
 31 50  1  0  0  0
M  END
$$$$
