6d5w_ligand
  -I-interpret- 

 39 42  0  0  0  0  0  0  0  0999 V2000
   31.9240   32.1490   19.4390 C   0  0  0  0  0
   35.8050   28.2180   20.8760 C   0  0  0  0  0
   32.7040   31.3120   21.5380 C   0  0  0  0  0
   31.8490   30.8630   18.9210 C   0  0  0  0  0
   37.1480   27.9900   20.5980 C   0  0  0  0  0
   38.1210   28.2820   21.5410 C   0  0  0  0  0
   34.4330   29.6030   24.0490 C   0  0  0  0  0
   34.2630   29.0670   22.6410 N   0  0  0  0  0
   35.8320   29.5540   24.2040 N   0  0  0  0  0
   35.5100   28.7490   22.1350 C   0  0  0  0  0
   36.4600   29.0410   23.0670 C   0  0  0  0  0
   33.5810   30.0150   24.9060 N   0  0  0  0  0
   33.0280   28.8510   21.9200 C   0  0  0  0  0
   36.4880   29.9800   25.4260 C   0  0  0  0  0
   32.6470   30.0140   21.0400 C   0  0  0  0  0
   31.5780   33.1850   18.6740 F   0  0  0  0  0
   34.0590   30.4860   26.1970 C   0  0  0  0  0
   37.8120   28.8130   22.7970 C   0  0  0  0  0
   32.2100   29.7820   19.7230 C   0  0  0  0  0
   32.3430   32.3890   20.7380 C   0  0  0  0  0
   35.5440   30.8470   26.2670 C   0  0  0  0  0
   35.0231   27.9944   20.1503 H   0  0  0  0  0
   33.0340   31.4850   22.5623 H   0  0  0  0  0
   31.5112   30.7006   17.8975 H   0  0  0  0  0
   37.4380   27.5785   19.6312 H   0  0  0  0  0
   39.1653   28.0907   21.2944 H   0  0  0  0  0
   33.5628   29.8700   24.6487 H   0  0  0  0  0
   33.0040   29.2011   25.1182 H   0  0  0  0  0
   32.2341   28.7172   22.6548 H   0  0  0  0  0
   33.1666   27.9810   21.2781 H   0  0  0  0  0
   37.3713   30.5646   25.1688 H   0  0  0  0  0
   36.7687   29.0990   26.0032 H   0  0  0  0  0
   33.9087   29.6654   26.8985 H   0  0  0  0  0
   33.5094   31.4022   26.4127 H   0  0  0  0  0
   38.5874   29.0380   23.5293 H   0  0  0  0  0
   32.1543   28.7656   19.3333 H   0  0  0  0  0
   32.3886   33.4066   21.1259 H   0  0  0  0  0
   35.6308   31.8609   25.8764 H   0  0  0  0  0
   35.8440   30.7068   27.3055 H   0  0  0  0  0
  1  4  4  0  0  0
  1 16  1  0  0  0
 20  1  4  0  0  0
  2  5  4  0  0  0
 10  2  4  0  0  0
 15  3  4  0  0  0
  3 20  4  0  0  0
  4 19  4  0  0  0
  5  6  4  0  0  0
 18  6  4  0  0  0
  8  7  1  0  0  0
  7  9  1  0  0  0
  7 12  1  0  0  0
  8 10  1  0  0  0
 13  8  1  0  0  0
 11  9  1  0  0  0
  9 14  1  0  0  0
 10 11  4  0  0  0
 11 18  4  0  0  0
 12 17  1  0  0  0
 13 15  1  0  0  0
 14 21  1  0  0  0
 15 19  4  0  0  0
 17 21  1  0  0  0
  2 22  1  0  0  0
  3 23  1  0  0  0
  4 24  1  0  0  0
  5 25  1  0  0  0
  6 26  1  0  0  0
  7 27  1  0  0  0
 12 28  1  0  0  0
 13 29  1  0  0  0
 13 30  1  0  0  0
 14 31  1  0  0  0
 14 32  1  0  0  0
 17 33  1  0  0  0
 17 34  1  0  0  0
 18 35  1  0  0  0
 19 36  1  0  0  0
 20 37  1  0  0  0
 21 38  1  0  0  0
 21 39  1  0  0  0
M  END
$$$$
