4bqw_ligand
  -I-interpret- 

 32 33  0  0  0  0  0  0  0  0999 V2000
  -32.5940   23.0990    3.2560 O   0  0  0  0  0
  -32.9530   22.3040    4.1520 C   0  0  0  0  0
  -32.2930   21.3370    4.5880 O   0  0  0  0  0
  -34.3260   22.5440    4.7840 C   0  0  0  0  0
  -34.9380   23.7500    4.2040 N   0  0  0  0  0
  -36.1540   24.1470    4.5730 C   0  0  0  0  0
  -36.7910   23.6010    5.4710 O   0  0  0  0  0
  -35.8000   26.3200    3.3050 C   0  0  0  0  0
  -34.5940   26.0810    3.2610 O   0  0  0  0  0
  -35.3620   28.4720    2.1320 C   0  0  0  0  0
  -37.6690   27.7860    2.7890 C   0  0  0  0  0
  -38.1670   28.9700    2.2520 C   0  0  0  0  0
  -36.6820   25.4120    3.8880 C   0  0  0  0  0
  -39.5350   29.2340    2.2910 C   0  0  0  0  0
  -40.4020   28.3170    2.8680 C   0  0  0  0  0
  -39.9080   27.1300    3.4070 C   0  0  0  0  0
  -38.5420   26.8710    3.3670 C   0  0  0  0  0
  -38.0470   25.6870    3.9080 C   0  0  0  0  0
  -36.2960   27.5050    2.7510 N   0  0  0  0  0
  -38.9190   24.7820    4.4300 O   0  0  0  0  0
  -33.2854   23.7490    3.1107 H   0  0  0  0  0
  -34.2089   22.6808    5.8590 H   0  0  0  0  0
  -34.9677   21.6848    4.5887 H   0  0  0  0  0
  -34.4228   24.2900    3.5087 H   0  0  0  0  0
  -34.6409   28.8069    2.8776 H   0  0  0  0  0
  -34.8367   27.9907    1.3071 H   0  0  0  0  0
  -35.9230   29.3280    1.7571 H   0  0  0  0  0
  -37.4861   29.6915    1.8004 H   0  0  0  0  0
  -39.9237   30.1605    1.8684 H   0  0  0  0  0
  -41.4715   28.5252    2.8999 H   0  0  0  0  0
  -40.5891   26.4082    3.8577 H   0  0  0  0  0
  -39.8127   25.1265    4.3656 H   0  0  0  0  0
  2  1  1  0  0  0
  2  3  2  0  0  0
  4  2  1  0  0  0
  5  4  1  0  0  0
  6  5  1  0  0  0
  6  7  2  0  0  0
 13  6  1  0  0  0
  8  9  2  0  0  0
  8 13  1  0  0  0
 19  8  1  0  0  0
 19 10  1  0  0  0
 11 12  4  0  0  0
 11 17  4  0  0  0
 11 19  1  0  0  0
 12 14  4  0  0  0
 13 18  2  0  0  0
 14 15  4  0  0  0
 15 16  4  0  0  0
 16 17  4  0  0  0
 17 18  1  0  0  0
 18 20  1  0  0  0
  1 21  1  0  0  0
  4 22  1  0  0  0
  4 23  1  0  0  0
  5 24  1  0  0  0
 10 25  1  0  0  0
 10 26  1  0  0  0
 10 27  1  0  0  0
 12 28  1  0  0  0
 14 29  1  0  0  0
 15 30  1  0  0  0
 16 31  1  0  0  0
 20 32  1  0  0  0
M  END
$$$$
