2oc9_ligand
  -I-interpret- 

 33 35  0  0  0  0  0  0  0  0999 V2000
   14.2130   12.0870   57.9840 C   0  0  0  0  0
   15.2090   12.5680   57.1330 C   0  0  0  0  0
   15.3460   11.6640   56.1090 N   0  0  0  0  0
   14.5020   10.6050   56.2370 C   0  0  0  0  0
   14.2130    9.3650   55.4990 C   0  0  0  0  0
   14.8800    9.0680   54.3550 O   0  0  0  0  0
   13.2750    8.5230   55.9910 N   0  0  0  0  0
   12.5910    8.7680   57.1150 C   0  0  0  0  0
   12.7970    9.8810   57.8460 N   0  0  0  0  0
   13.7200   10.7860   57.4570 C   0  0  0  0  0
   17.6340   11.8410   60.4520 O   0  0  0  0  0
   16.4120   11.3680   61.0290 C   0  0  0  0  0
   15.4160   12.5150   61.1480 C   0  0  0  0  0
   15.1570   13.1740   59.8610 N   0  3  0  0  0
   14.0370   12.0220   61.6120 C   0  0  0  0  0
   13.6610   12.7620   62.8180 O   0  0  0  0  0
   13.0920   12.1260   60.3750 C   0  0  0  0  0
   11.8380   12.7790   60.6520 O   0  0  0  0  0
   13.8560   12.8480   59.2320 C   0  0  0  0  0
   15.7742   13.4916   57.2583 H   0  0  0  0  0
   13.0801    7.6612   55.4814 H   0  0  0  0  0
   11.8456    8.0462   57.4488 H   0  0  0  0  0
   18.2557   11.1130   60.3805 H   0  0  0  0  0
   16.6155   10.9645   62.0209 H   0  0  0  0  0
   15.9906   10.5909   60.3913 H   0  0  0  0  0
   15.8758   13.1988   61.8615 H   0  0  0  0  0
   15.8805   12.8526   59.2179 H   0  0  0  0  0
   15.1494   14.1775   60.0435 H   0  0  0  0  0
   13.9960   10.9798   61.9285 H   0  0  0  0  0
   12.7998   12.4637   63.1196 H   0  0  0  0  0
   12.8215   11.1126   60.0785 H   0  0  0  0  0
   11.3097   12.8078   59.8510 H   0  0  0  0  0
   13.1965   13.6420   58.8816 H   0  0  0  0  0
  1  2  4  0  0  0
  1 10  4  0  0  0
 19  1  1  0  0  0
  2  3  4  0  0  0
  4  3  4  0  0  0
  4  5  1  0  0  0
 10  4  4  0  0  0
  5  6  2  0  0  0
  5  7  1  0  0  0
  8  7  1  0  0  0
  9  8  2  0  0  0
 10  9  1  0  0  0
 12 11  1  0  0  0
 13 12  1  0  0  0
 14 13  1  0  0  0
 13 15  1  0  0  0
 14 19  1  0  0  0
 15 16  1  0  0  0
 15 17  1  0  0  0
 17 18  1  0  0  0
 17 19  1  0  0  0
  2 20  1  0  0  0
  7 21  1  0  0  0
  8 22  1  0  0  0
 11 23  1  0  0  0
 12 24  1  0  0  0
 12 25  1  0  0  0
 13 26  1  0  0  0
 14 27  1  0  0  0
 14 28  1  0  0  0
 15 29  1  0  0  0
 16 30  1  0  0  0
 17 31  1  0  0  0
 18 32  1  0  0  0
 19 33  1  0  0  0
M  END
$$$$
