3i8t_ligand
  -I-interpret- 

 45 46  0  0  0  0  0  0  0  0999 V2000
   -1.0970   75.1660   21.3100 C   0  0  0  0  0
   -0.1650   75.9540   20.3790 C   0  0  0  0  0
   -0.1630   75.2540   19.0070 C   0  0  0  0  0
    0.1020   73.7560   19.1530 C   0  0  0  0  0
   -0.9200   73.1400   20.0960 C   0  0  0  0  0
   -0.8120   71.5940   20.2170 C   0  0  0  0  0
   -1.0060   75.6920   22.6070 O   0  0  0  0  0
   -0.5990   77.3000   20.2360 O   0  0  0  0  0
    0.8090   75.8110   18.1590 O   0  0  0  0  0
    1.3860   73.5060   19.6730 O   0  0  0  0  0
   -0.7440   73.7710   21.3470 O   0  0  0  0  0
   -1.6520   71.1550   21.2660 O   0  0  0  0  0
   -3.2190   75.5210   26.1340 C   0  0  0  0  0
   -2.0890   74.5100   25.9460 C   0  0  0  0  0
   -1.1290   74.9400   24.8430 C   0  0  0  0  0
   -1.9130   75.2320   23.5750 C   0  0  0  0  0
   -3.0630   76.2430   23.8410 C   0  0  0  0  0
   -3.9840   76.4580   22.6260 C   0  0  0  0  0
   -2.6860   76.7170   26.6810 O   0  0  0  0  0
   -1.4010   74.4110   27.1660 O   0  0  0  0  0
   -0.1840   73.9230   24.6490 O   0  0  0  0  0
   -3.8820   75.7820   24.9080 O   0  0  0  0  0
   -4.6870   75.2570   22.2790 O   0  0  0  0  0
   -2.1142   75.2555   20.9286 H   0  0  0  0  0
    0.8389   75.9770   20.8030 H   0  0  0  0  0
   -1.1504   75.4018   18.5695 H   0  0  0  0  0
    0.0278   73.3141   18.1594 H   0  0  0  0  0
   -1.9215   73.3050   19.6986 H   0  0  0  0  0
    0.2194   71.3130   20.4298 H   0  0  0  0  0
   -1.1201   71.1294   19.2803 H   0  0  0  0  0
   -0.5973   77.7286   21.0950 H   0  0  0  0  0
    0.6473   76.7525   18.0637 H   0  0  0  0  0
    2.0461   73.8882   19.0901 H   0  0  0  0  0
   -1.5899   70.2004   21.3460 H   0  0  0  0  0
   -3.9568   75.1050   26.8200 H   0  0  0  0  0
   -2.5078   73.5480   25.6505 H   0  0  0  0  0
   -0.6013   75.8520   25.1220 H   0  0  0  0  0
   -2.3991   74.3270   23.2107 H   0  0  0  0  0
   -2.5722   77.1869   24.0782 H   0  0  0  0  0
   -3.3699   76.7559   21.7762 H   0  0  0  0  0
   -4.7158   77.2250   22.8794 H   0  0  0  0  0
   -3.3928   77.3555   26.8009 H   0  0  0  0  0
   -0.6828   73.7802   27.0768 H   0  0  0  0  0
    0.4267   74.1833   23.9555 H   0  0  0  0  0
   -5.2504   75.4252   21.5201 H   0  0  0  0  0
  1  2  1  0  0  0
  7  1  1  0  0  0
  1 11  1  0  0  0
  2  3  1  0  0  0
  2  8  1  0  0  0
  3  4  1  0  0  0
  3  9  1  0  0  0
  5  4  1  0  0  0
  4 10  1  0  0  0
  5  6  1  0  0  0
 11  5  1  0  0  0
  6 12  1  0  0  0
 16  7  1  0  0  0
 14 13  1  0  0  0
 13 19  1  0  0  0
 13 22  1  0  0  0
 15 14  1  0  0  0
 14 20  1  0  0  0
 15 16  1  0  0  0
 15 21  1  0  0  0
 16 17  1  0  0  0
 17 18  1  0  0  0
 17 22  1  0  0  0
 18 23  1  0  0  0
  1 24  1  0  0  0
  2 25  1  0  0  0
  3 26  1  0  0  0
  4 27  1  0  0  0
  5 28  1  0  0  0
  6 29  1  0  0  0
  6 30  1  0  0  0
  8 31  1  0  0  0
  9 32  1  0  0  0
 10 33  1  0  0  0
 12 34  1  0  0  0
 13 35  1  0  0  0
 14 36  1  0  0  0
 15 37  1  0  0  0
 16 38  1  0  0  0
 17 39  1  0  0  0
 18 40  1  0  0  0
 18 41  1  0  0  0
 19 42  1  0  0  0
 20 43  1  0  0  0
 21 44  1  0  0  0
 23 45  1  0  0  0
M  END
$$$$
