3l5b_ligand
  -I-interpret- 

 40 41  0  0  0  0  0  0  0  0999 V2000
   22.1650    9.8130   23.6830 C   0  0  0  0  0
   21.7480    9.3120   22.4990 N   0  0  0  0  0
   21.3280   12.8060   22.3370 O   0  0  0  0  0
   21.5340   11.6290   22.6320 C   0  0  0  0  0
   22.0270   11.1490   23.7890 N   0  0  0  0  0
   21.2560   10.4370   21.7180 C   0  0  0  0  0
   22.6600    9.0730   24.6710 N   0  0  0  0  0
   22.0220   10.5800   20.3970 C   0  0  0  0  0
   19.7270   10.3550   21.5390 C   0  0  0  0  0
   22.3240   11.9460   24.9790 C   0  0  0  0  0
   21.0540   12.3310   25.7030 C   0  0  0  0  0
   20.6480   11.6140   26.8670 C   0  0  0  0  0
   19.4310   11.9570   27.5250 C   0  0  0  0  0
   18.6220   13.0210   27.0240 C   0  0  0  0  0
   19.0330   13.7440   25.8650 C   0  0  0  0  0
   20.2500   13.4000   25.2080 C   0  0  0  0  0
   24.3280    9.7900   21.0460 C   0  0  0  0  0
   24.0490   11.6300   19.3430 C   0  0  0  0  0
   23.4890   10.9730   20.5950 C   0  0  0  0  0
   18.0530   15.0370   25.2450 Cl  0  0  0  0  0
   21.7733    8.3344   22.2090 H   0  0  0  0  0
   22.9493    9.5149   25.5436 H   0  0  0  0  0
   21.5420   11.3695   19.8188 H   0  0  0  0  0
   22.0024    9.6124   19.8955 H   0  0  0  0  0
   19.3703   11.2625   21.0518 H   0  0  0  0  0
   19.4804    9.4897   20.9237 H   0  0  0  0  0
   19.2530   10.2550   22.5154 H   0  0  0  0  0
   22.8408   12.8551   24.6714 H   0  0  0  0  0
   22.9442   11.3533   25.6514 H   0  0  0  0  0
   21.2676   10.8046   27.2530 H   0  0  0  0  0
   19.1177   11.4061   28.4118 H   0  0  0  0  0
   17.6905   13.2809   27.5269 H   0  0  0  0  0
   20.5671   13.9551   24.3252 H   0  0  0  0  0
   23.9414    9.4118   21.9924 H   0  0  0  0  0
   24.2802    9.0039   20.2924 H   0  0  0  0  0
   25.3624   10.1082   21.1757 H   0  0  0  0  0
   23.9822   10.9331   18.5076 H   0  0  0  0  0
   23.4729   12.5272   19.1164 H   0  0  0  0  0
   25.0919   11.8990   19.5108 H   0  0  0  0  0
   23.5345   11.7106   21.3963 H   0  0  0  0  0
  1  2  1  0  0  0
  5  1  4  0  0  0
  1  7  2  0  0  0
  2  6  1  0  0  0
  4  3  2  0  0  0
  4  5  1  0  0  0
  4  6  1  0  0  0
  5 10  1  0  0  0
  6  8  1  0  0  0
  6  9  1  0  0  0
  8 19  1  0  0  0
 10 11  1  0  0  0
 11 12  4  0  0  0
 11 16  4  0  0  0
 12 13  4  0  0  0
 13 14  4  0  0  0
 14 15  4  0  0  0
 15 16  4  0  0  0
 15 20  1  0  0  0
 19 17  1  0  0  0
 19 18  1  0  0  0
  2 21  1  0  0  0
  7 22  1  0  0  0
  8 23  1  0  0  0
  8 24  1  0  0  0
  9 25  1  0  0  0
  9 26  1  0  0  0
  9 27  1  0  0  0
 10 28  1  0  0  0
 10 29  1  0  0  0
 12 30  1  0  0  0
 13 31  1  0  0  0
 14 32  1  0  0  0
 16 33  1  0  0  0
 17 34  1  0  0  0
 17 35  1  0  0  0
 17 36  1  0  0  0
 18 37  1  0  0  0
 18 38  1  0  0  0
 18 39  1  0  0  0
 19 40  1  0  0  0
M  END
$$$$
