### 
### Created by X-TOOL on Mon Sep 10 21:13:33 2018
### 

@<TRIPOS>MOLECULE
5gmv_ligand
  131   131     1     0     0
SMALL
GAST_HUCK


@<TRIPOS>ATOM
      1 N          15.3590    3.7380    7.5250 N.4       1 ASP         0.2391
      2 CA         16.7180    3.2520    7.1250 C.3       1 ASP         0.0764
      3 C          17.7080    3.2880    8.2940 C.2       1 ASP         0.2285
      4 O          18.4640    2.3330    8.4880 O.2       1 ASP        -0.3906
      5 CB         17.2700    4.0430    5.9310 C.3       1 ASP         0.0607
      6 CG         18.6340    3.5320    5.4620 C.2       1 ASP         0.0425
      7 OD1        18.8840    2.2970    5.4640 O.co2     1 ASP        -0.5686
      8 OD2        19.4710    4.3760    5.0950 O.co2     1 ASP        -0.5686
      9 N          17.7140    4.3750    9.0640 N.am      1 SEP        -0.2585
     10 CA         18.4880    4.3940   10.3100 C.3       1 SEP         0.1587
     11 CB         18.8010    5.7970   10.8380 C.3       1 SEP         0.1184
     12 OG         17.6200    6.5910   10.9170 O.3       1 SEP        -0.2714
     13 C          17.7570    3.5800   11.3550 C.2       1 SEP         0.2066
     14 O          16.5330    3.4170   11.3110 O.2       1 SEP        -0.3943
     15 P          17.3750    7.9560   10.0780 P.3       1 SEP         0.2010
     16 O1P        18.3740    7.9810    8.9400 O.co2     1 SEP        -0.5537
     17 O2P        17.5970    9.0320   11.1210 O.co2     1 SEP        -0.5537
     18 O3P        15.9430    7.8510    9.5990 O.co2     1 SEP        -0.5537
     19 N          18.5260    3.0370   12.2870 N.am      1 TYR        -0.2621
     20 CA         17.9770    2.3360   13.4360 C.3       1 TYR         0.1390
     21 C          17.6590    3.3730   14.5070 C.2       1 TYR         0.2057
     22 O          18.1990    4.4730   14.4850 O.2       1 TYR        -0.3942
     23 CB         18.9900    1.3190   13.9700 C.3       1 TYR         0.0163
     24 CG         19.2140    0.1060   13.0790 C.ar      1 TYR        -0.0493
     25 CD1        20.0430    0.1770   11.9740 C.ar      1 TYR        -0.0685
     26 CD2        18.5860   -1.1080   13.3480 C.ar      1 TYR        -0.0685
     27 CE1        20.2520   -0.9270   11.1580 C.ar      1 TYR        -0.0398
     28 CE2        18.7940   -2.2280   12.5520 C.ar      1 TYR        -0.0398
     29 CZ         19.6250   -2.1350   11.4520 C.ar      1 TYR         0.0805
     30 OH         19.8410   -3.2290   10.6370 O.3       1 TYR        -0.3376
     31 N          16.7830    3.0180   15.4420 N.am      1 GLU        -0.2635
     32 CA         16.5970    3.7970   16.6610 C.3       1 GLU         0.1325
     33 C          17.0600    2.9560   17.8470 C.2       1 GLU         0.2040
     34 O          16.6720    1.8080   17.9900 O.2       1 GLU        -0.3944
     35 CB         15.1270    4.2010   16.8270 C.3       1 GLU        -0.0008
     36 CG         14.8770    5.2440   17.9090 C.3       1 GLU         0.0044
     37 CD         13.4040    5.6470   18.0260 C.2       1 GLU         0.0350
     38 OE1        12.9030    5.7500   19.1810 O.co2     1 GLU        -0.5690
     39 OE2        12.7420    5.8440   16.9700 O.co2     1 GLU        -0.5690
     40 N          17.8680    3.5410   18.7180 N.am      1 VAL        -0.2635
     41 CA         18.2620    2.8780   19.9570 C.3       1 VAL         0.1332
     42 C          17.1160    3.0130   20.9540 C.2       1 VAL         0.2041
     43 O          16.5950    4.1160   21.1440 O.2       1 VAL        -0.3944
     44 CB         19.5500    3.4880   20.5520 C.3       1 VAL        -0.0063
     45 CG1        19.8620    2.8710   21.9140 C.3       1 VAL        -0.0584
     46 CG2        20.7170    3.3010   19.5860 C.3       1 VAL        -0.0584
     47 N          16.7260    1.8890   21.5630 N.am      1 LEU        -0.2637
     48 CA         15.7050    1.8610   22.6050 C.3       1 LEU         0.1312
     49 C          16.3760    1.6110   23.9590 C.2       1 LEU         0.2040
     50 O          16.5010    0.4690   24.3780 O.2       1 LEU        -0.3944
     51 CB         14.6690    0.7630   22.3300 C.3       1 LEU        -0.0101
     52 CG         13.7460    0.9260   21.1140 C.3       1 LEU        -0.0425
     53 CD1        12.7820   -0.2450   21.0490 C.3       1 LEU        -0.0625
     54 CD2        12.9870    2.2550   21.0950 C.3       1 LEU        -0.0625
     55 N          16.8100    2.6830   24.6270 N.am      1 ASP        -0.2622
     56 CA         17.3500    2.6050   25.9950 C.3       1 ASP         0.1423
     57 C          16.2570    2.8720   27.0360 C.2       1 ASP         0.2050
     58 O          15.2340    3.4970   26.7380 O.2       1 ASP        -0.3943
     59 CB         18.4840    3.6240   26.2040 C.3       1 ASP         0.0406
     60 CG         19.7010    3.3640   25.3140 C.2       1 ASP         0.0393
     61 OD1        19.9870    2.1870   24.9770 O.co2     1 ASP        -0.5688
     62 OD2        20.3800    4.3590   24.9560 O.co2     1 ASP        -0.5688
     63 N          16.5150    2.4250   28.2630 N.am      1 LEU        -0.2694
     64 CA         15.6290    2.6410   29.4010 C.3       1 LEU         0.0946
     65 C          16.2490    3.6740   30.3280 C.2       1 LEU         0.0601
     66 O          15.7440    3.9260   31.4240 O.co2     1 LEU        -0.5666
     67 CB         15.3560    1.3280   30.1510 C.3       1 LEU        -0.0156
     68 CG         16.4790    0.4900   30.8040 C.3       1 LEU        -0.0431
     69 CD1        15.9010   -0.3610   31.9370 C.3       1 LEU        -0.0625
     70 CD2        17.2470   -0.3890   29.8100 C.3       1 LEU        -0.0625
     71 OXT        17.2710    4.2830   30.0050 O.co2     1 LEU        -0.5666
     72 H1         14.7405    3.6982    6.7300 H         1 ASP         0.2016
     73 H2         15.4251    4.6892    7.8520 H         1 ASP         0.2016
     74 H3         14.9967    3.1537    8.2621 H         1 ASP         0.2016
     75 H4         16.6125    2.2031    6.8109 H         1 ASP         0.1117
     76 H5         17.3719    5.0981    6.2250 H         1 ASP         0.0512
     77 H6         16.5582    3.9621    5.0963 H         1 ASP         0.0512
     78 H7         17.1888    5.1812    8.7916 H         1 SEP         0.1885
     79 H8         19.4513    3.9035   10.1063 H         1 SEP         0.0827
     80 H9         19.5169    6.2846   10.1600 H         1 SEP         0.0662
     81 H10        19.2449    5.7127   11.8409 H         1 SEP         0.0662
     82 H11        19.5191    3.1120   12.1969 H         1 TYR         0.1885
     83 H12        17.0560    1.8103   13.1439 H         1 TYR         0.0821
     84 H13        18.6331    0.9630   14.9477 H         1 TYR         0.0453
     85 H14        19.9546    1.8323   14.0964 H         1 TYR         0.0453
     86 H15        20.5389    1.1122   11.7406 H         1 TYR         0.0530
     87 H16        17.9187   -1.1808   14.1991 H         1 TYR         0.0530
     88 H17        20.9019   -0.8485   10.2940 H         1 TYR         0.0525
     89 H18        18.3083   -3.1669   12.7921 H         1 TYR         0.0525
     90 H19        20.4339   -2.9875    9.9351 H         1 TYR         0.2458
     91 H20        16.2354    2.1925   15.3055 H         1 GLU         0.1883
     92 H21        17.2095    4.7089   16.6037 H         1 GLU         0.0801
     93 H22        14.5492    3.2995   17.0788 H         1 GLU         0.0330
     94 H23        14.7722    4.6082   15.8687 H         1 GLU         0.0330
     95 H24        15.4678    6.1415   17.6734 H         1 GLU         0.0433
     96 H25        15.2050    4.8321   18.8748 H         1 GLU         0.0433
     97 H26        18.2161    4.4578   18.5223 H         1 VAL         0.1883
     98 H27        18.4414    1.8126   19.7503 H         1 VAL         0.0802
     99 H28        19.3886    4.5669   20.6931 H         1 VAL         0.0343
    100 H29        20.7816    3.3197   22.3178 H         1 VAL         0.0234
    101 H30        20.0024    1.7858   21.8015 H         1 VAL         0.0234
    102 H31        19.0269    3.0632   22.6036 H         1 VAL         0.0234
    103 H32        20.4657    3.7537   18.6155 H         1 VAL         0.0234
    104 H33        20.9120    2.2270   19.4501 H         1 VAL         0.0234
    105 H34        21.6142    3.7876   19.9962 H         1 VAL         0.0234
    106 H35        17.1540    1.0269   21.2918 H         1 LEU         0.1883
    107 H36        15.1928    2.8342   22.6293 H         1 LEU         0.0800
    108 H37        14.0265    0.6902   23.2199 H         1 LEU         0.0315
    109 H38        15.2200   -0.1798   22.1974 H         1 LEU         0.0315
    110 H39        14.3773    0.8982   20.2137 H         1 LEU         0.0298
    111 H40        12.1209   -0.1278   20.1776 H         1 LEU         0.0232
    112 H41        12.1768   -0.2732   21.9671 H         1 LEU         0.0232
    113 H42        13.3497   -1.1825   20.9550 H         1 LEU         0.0232
    114 H43        13.7043    3.0876   21.1428 H         1 LEU         0.0232
    115 H44        12.3108    2.3035   21.9612 H         1 LEU         0.0232
    116 H45        12.4006    2.3291   20.1673 H         1 LEU         0.0232
    117 H46        16.7665    3.5762   24.1795 H         1 ASP         0.1884
    118 H47        17.7497    1.5922   26.1516 H         1 ASP         0.0819
    119 H48        18.8042    3.5797   27.2554 H         1 ASP         0.0478
    120 H49        18.0963    4.6289   25.9808 H         1 ASP         0.0478
    121 H50        17.3614    1.9139   28.4124 H         1 LEU         0.1875
    122 H51        14.6701    3.0316   29.0296 H         1 LEU         0.0726
    123 H52        14.8600    0.6625   29.4292 H         1 LEU         0.0308
    124 H53        14.6543    1.5796   30.9599 H         1 LEU         0.0308
    125 H54        17.2015    1.1941   31.2425 H         1 LEU         0.0297
    126 H55        16.7051   -0.9543   32.3968 H         1 LEU         0.0232
    127 H56        15.1323   -1.0362   31.5330 H         1 LEU         0.0232
    128 H57        15.4502    0.2957   32.6956 H         1 LEU         0.0232
    129 H58        17.6545    0.2390   29.0040 H         1 LEU         0.0232
    130 H59        16.5660   -1.1391   29.3816 H         1 LEU         0.0232
    131 H60        18.0715   -0.8975   30.3311 H         1 LEU         0.0232
@<TRIPOS>BOND
     1    1    2 1  
     2    2    3 1  
     3    2    5 1  
     4    3    4 2  
     5    3    9 am 
     6    5    6 1  
     7    6    7 ar 
     8    6    8 ar 
     9    9   10 1  
    10   10   11 1  
    11   10   13 1  
    12   11   12 1  
    13   12   15 1  
    14   13   14 2  
    15   13   19 am 
    16   15   16 ar 
    17   15   17 ar 
    18   15   18 ar 
    19   19   20 1  
    20   20   21 1  
    21   20   23 1  
    22   21   22 2  
    23   21   31 am 
    24   23   24 1  
    25   24   25 ar 
    26   24   26 ar 
    27   25   27 ar 
    28   26   28 ar 
    29   27   29 ar 
    30   28   29 ar 
    31   29   30 1  
    32   31   32 1  
    33   32   33 1  
    34   32   35 1  
    35   33   34 2  
    36   33   40 am 
    37   35   36 1  
    38   36   37 1  
    39   37   38 ar 
    40   37   39 ar 
    41   40   41 1  
    42   41   42 1  
    43   41   44 1  
    44   42   43 2  
    45   42   47 am 
    46   44   45 1  
    47   44   46 1  
    48   47   48 1  
    49   48   49 1  
    50   48   51 1  
    51   49   50 2  
    52   49   55 am 
    53   51   52 1  
    54   52   53 1  
    55   52   54 1  
    56   55   56 1  
    57   56   57 1  
    58   56   59 1  
    59   57   58 2  
    60   57   63 am 
    61   59   60 1  
    62   60   61 ar 
    63   60   62 ar 
    64   63   64 1  
    65   64   65 1  
    66   64   67 1  
    67   65   66 ar 
    68   65   71 ar 
    69   67   68 1  
    70   68   69 1  
    71   68   70 1  
    72    1   72 1  
    73    1   73 1  
    74    1   74 1  
    75    2   75 1  
    76    5   76 1  
    77    5   77 1  
    78    9   78 1  
    79   10   79 1  
    80   11   80 1  
    81   11   81 1  
    82   19   82 1  
    83   20   83 1  
    84   23   84 1  
    85   23   85 1  
    86   25   86 1  
    87   26   87 1  
    88   27   88 1  
    89   28   89 1  
    90   30   90 1  
    91   31   91 1  
    92   32   92 1  
    93   35   93 1  
    94   35   94 1  
    95   36   95 1  
    96   36   96 1  
    97   40   97 1  
    98   41   98 1  
    99   44   99 1  
   100   45  100 1  
   101   45  101 1  
   102   45  102 1  
   103   46  103 1  
   104   46  104 1  
   105   46  105 1  
   106   47  106 1  
   107   48  107 1  
   108   51  108 1  
   109   51  109 1  
   110   52  110 1  
   111   53  111 1  
   112   53  112 1  
   113   53  113 1  
   114   54  114 1  
   115   54  115 1  
   116   54  116 1  
   117   55  117 1  
   118   56  118 1  
   119   59  119 1  
   120   59  120 1  
   121   63  121 1  
   122   64  122 1  
   123   67  123 1  
   124   67  124 1  
   125   68  125 1  
   126   69  126 1  
   127   69  127 1  
   128   69  128 1  
   129   70  129 1  
   130   70  130 1  
   131   70  131 1  
@<TRIPOS>SUBSTRUCTURE
     1 ASP         1

