5gmv_ligand
  -I-interpret- 

137137  0  0  0  0  0  0  0  0999 V2000
   15.3590    3.7380    7.5250 N   0  3  0  0  0
   16.7180    3.2520    7.1250 C   0  0  0  0  0
   17.7080    3.2880    8.2940 C   0  0  0  0  0
   18.4640    2.3330    8.4880 O   0  0  0  0  0
   17.2700    4.0430    5.9310 C   0  0  0  0  0
   18.6340    3.5320    5.4620 C   0  0  0  0  0
   18.8840    2.2970    5.4640 O   0  0  0  0  0
   19.4710    4.3760    5.0950 O   0  0  0  0  0
   17.7140    4.3750    9.0640 N   0  0  0  0  0
   18.4880    4.3940   10.3100 C   0  0  0  0  0
   18.8010    5.7970   10.8380 C   0  0  0  0  0
   17.6200    6.5910   10.9170 O   0  0  0  0  0
   17.7570    3.5800   11.3550 C   0  0  0  0  0
   16.5330    3.4170   11.3110 O   0  0  0  0  0
   17.3750    7.9560   10.0780 P   0  0  0  0  0
   18.3740    7.9810    8.9400 O   0  0  0  0  0
   17.5970    9.0320   11.1210 O   0  0  0  0  0
   15.9430    7.8510    9.5990 O   0  0  0  0  0
   18.5260    3.0370   12.2870 N   0  0  0  0  0
   17.9770    2.3360   13.4360 C   0  0  0  0  0
   17.6590    3.3730   14.5070 C   0  0  0  0  0
   18.1990    4.4730   14.4850 O   0  0  0  0  0
   18.9900    1.3190   13.9700 C   0  0  0  0  0
   19.2140    0.1060   13.0790 C   0  0  0  0  0
   20.0430    0.1770   11.9740 C   0  0  0  0  0
   18.5860   -1.1080   13.3480 C   0  0  0  0  0
   20.2520   -0.9270   11.1580 C   0  0  0  0  0
   18.7940   -2.2280   12.5520 C   0  0  0  0  0
   19.6250   -2.1350   11.4520 C   0  0  0  0  0
   19.8410   -3.2290   10.6370 O   0  0  0  0  0
   16.7830    3.0180   15.4420 N   0  0  0  0  0
   16.5970    3.7970   16.6610 C   0  0  0  0  0
   17.0600    2.9560   17.8470 C   0  0  0  0  0
   16.6720    1.8080   17.9900 O   0  0  0  0  0
   15.1270    4.2010   16.8270 C   0  0  0  0  0
   14.8770    5.2440   17.9090 C   0  0  0  0  0
   13.4040    5.6470   18.0260 C   0  0  0  0  0
   12.9030    5.7500   19.1810 O   0  0  0  0  0
   12.7420    5.8440   16.9700 O   0  0  0  0  0
   17.8680    3.5410   18.7180 N   0  0  0  0  0
   18.2620    2.8780   19.9570 C   0  0  0  0  0
   17.1160    3.0130   20.9540 C   0  0  0  0  0
   16.5950    4.1160   21.1440 O   0  0  0  0  0
   19.5500    3.4880   20.5520 C   0  0  0  0  0
   19.8620    2.8710   21.9140 C   0  0  0  0  0
   20.7170    3.3010   19.5860 C   0  0  0  0  0
   16.7260    1.8890   21.5630 N   0  0  0  0  0
   15.7050    1.8610   22.6050 C   0  0  0  0  0
   16.3760    1.6110   23.9590 C   0  0  0  0  0
   16.5010    0.4690   24.3780 O   0  0  0  0  0
   14.6690    0.7630   22.3300 C   0  0  0  0  0
   13.7460    0.9260   21.1140 C   0  0  0  0  0
   12.7820   -0.2450   21.0490 C   0  0  0  0  0
   12.9870    2.2550   21.0950 C   0  0  0  0  0
   16.8100    2.6830   24.6270 N   0  0  0  0  0
   17.3500    2.6050   25.9950 C   0  0  0  0  0
   16.2570    2.8720   27.0360 C   0  0  0  0  0
   15.2340    3.4970   26.7380 O   0  0  0  0  0
   18.4840    3.6240   26.2040 C   0  0  0  0  0
   19.7010    3.3640   25.3140 C   0  0  0  0  0
   19.9870    2.1870   24.9770 O   0  0  0  0  0
   20.3800    4.3590   24.9560 O   0  0  0  0  0
   16.5150    2.4250   28.2630 N   0  0  0  0  0
   15.6290    2.6410   29.4010 C   0  0  0  0  0
   16.2490    3.6740   30.3280 C   0  0  0  0  0
   15.7440    3.9260   31.4240 O   0  0  0  0  0
   15.3560    1.3280   30.1510 C   0  0  0  0  0
   16.4790    0.4900   30.8040 C   0  0  0  0  0
   15.9010   -0.3610   31.9370 C   0  0  0  0  0
   17.2470   -0.3890   29.8100 C   0  0  0  0  0
   17.2710    4.2830   30.0050 O   0  0  0  0  0
   15.0239    3.1919    8.3186 H   0  0  0  0  0
   15.4147    4.7221    7.7872 H   0  0  0  0  0
   14.7160    3.6298    6.7406 H   0  0  0  0  0
   16.5996    2.2119    6.8213 H   0  0  0  0  0
   17.3914    5.0799    6.2445 H   0  0  0  0  0
   16.5690    3.9318    5.1037 H   0  0  0  0  0
   18.1149    1.8165    5.7791 H   0  0  0  0  0
   17.1783    5.1973    8.7861 H   0  0  0  0  0
   19.4597    3.9540   10.0857 H   0  0  0  0  0
   19.5001    6.2789   10.1545 H   0  0  0  0  0
   19.2278    5.7065   11.8369 H   0  0  0  0  0
   19.2626    8.0481    9.2971 H   0  0  0  0  0
   18.5221    9.0417   11.3773 H   0  0  0  0  0
   19.5390    3.1135   12.1951 H   0  0  0  0  0
   17.0746    1.7943   13.1526 H   0  0  0  0  0
   18.5940    0.9467   14.9148 H   0  0  0  0  0
   19.9465    1.8364   14.0435 H   0  0  0  0  0
   20.5417    1.1174   11.7393 H   0  0  0  0  0
   17.9150   -1.1813   14.2038 H   0  0  0  0  0
   20.9055   -0.8481   10.2892 H   0  0  0  0  0
   18.3056   -3.1721   12.7934 H   0  0  0  0  0
   19.3424   -3.9785   10.9705 H   0  0  0  0  0
   16.2245    2.1759   15.3027 H   0  0  0  0  0
   17.1851    4.7130   16.6055 H   0  0  0  0  0
   14.5802    3.3036   17.1164 H   0  0  0  0  0
   14.8078    4.6393   15.8814 H   0  0  0  0  0
   15.4448    6.1366   17.6462 H   0  0  0  0  0
   15.1787    4.8108   18.8627 H   0  0  0  0  0
   13.5759    5.5596   19.8386 H   0  0  0  0  0
   18.2230    4.4762   18.5184 H   0  0  0  0  0
   18.4716    1.8297   19.7445 H   0  0  0  0  0
   19.3937    4.5567   20.6986 H   0  0  0  0  0
   19.0337    3.0621   22.5963 H   0  0  0  0  0
   20.0008    1.7958   21.8012 H   0  0  0  0  0
   20.7733    3.3164   22.3130 H   0  0  0  0  0
   20.8740    2.2369   19.4095 H   0  0  0  0  0
   20.4892    3.7973   18.6427 H   0  0  0  0  0
   21.6182    3.7357   20.0184 H   0  0  0  0  0
   17.1625    1.0096   21.2864 H   0  0  0  0  0
   15.1884    2.8208   22.6155 H   0  0  0  0  0
   14.0074    0.7680   23.1963 H   0  0  0  0  0
   15.2499   -0.1377   22.1317 H   0  0  0  0  0
   14.3822    0.9371   20.2290 H   0  0  0  0  0
   13.3457   -1.1733   20.9559 H   0  0  0  0  0
   12.1830   -0.2718   21.9593 H   0  0  0  0  0
   12.1276   -0.1277   20.1853 H   0  0  0  0  0
   12.3665    2.3304   21.9880 H   0  0  0  0  0
   13.7002    3.0790   21.0760 H   0  0  0  0  0
   12.3556    2.2987   20.2076 H   0  0  0  0  0
   16.7656    3.5941   24.1705 H   0  0  0  0  0
   17.7392    1.5951   26.1243 H   0  0  0  0  0
   18.8108    3.5458   27.2409 H   0  0  0  0  0
   18.0934    4.6092   25.9492 H   0  0  0  0  0
   19.3445    1.5820   25.3550 H   0  0  0  0  0
   17.3784    1.9036   28.4154 H   0  0  0  0  0
   14.6702    3.0108   29.0375 H   0  0  0  0  0
   14.9605    3.3849   31.5460 H   0  0  0  0  0
   14.9728    0.6693   29.3716 H   0  0  0  0  0
   14.7537    1.6461   31.0020 H   0  0  0  0  0
   17.2060    1.1979   31.2022 H   0  0  0  0  0
   15.4546    0.2909   32.6879 H   0  0  0  0  0
   15.1395   -1.0295   31.5354 H   0  0  0  0  0
   16.6987   -0.9484   32.3918 H   0  0  0  0  0
   16.5565   -1.0847   29.3333 H   0  0  0  0  0
   17.7104    0.2420   29.0516 H   0  0  0  0  0
   18.0183   -0.9470   30.3409 H   0  0  0  0  0
  1  2  1  0  0  0
  2  3  1  0  0  0
  2  5  1  0  0  0
  3  4  2  0  0  0
  3  9  1  0  0  0
  5  6  1  0  0  0
  6  7  1  0  0  0
  6  8  2  0  0  0
  9 10  1  0  0  0
 10 11  1  0  0  0
 10 13  1  0  0  0
 11 12  1  0  0  0
 12 15  1  0  0  0
 13 14  2  0  0  0
 13 19  1  0  0  0
 15 16  1  0  0  0
 15 17  1  0  0  0
 15 18  2  0  0  0
 19 20  1  0  0  0
 20 21  1  0  0  0
 20 23  1  0  0  0
 21 22  2  0  0  0
 21 31  1  0  0  0
 23 24  1  0  0  0
 24 25  4  0  0  0
 24 26  4  0  0  0
 25 27  4  0  0  0
 26 28  4  0  0  0
 27 29  4  0  0  0
 28 29  4  0  0  0
 29 30  1  0  0  0
 31 32  1  0  0  0
 32 33  1  0  0  0
 32 35  1  0  0  0
 33 34  2  0  0  0
 33 40  1  0  0  0
 35 36  1  0  0  0
 36 37  1  0  0  0
 37 38  1  0  0  0
 37 39  2  0  0  0
 40 41  1  0  0  0
 41 42  1  0  0  0
 41 44  1  0  0  0
 42 43  2  0  0  0
 42 47  1  0  0  0
 44 45  1  0  0  0
 44 46  1  0  0  0
 47 48  1  0  0  0
 48 49  1  0  0  0
 48 51  1  0  0  0
 49 50  2  0  0  0
 49 55  1  0  0  0
 51 52  1  0  0  0
 52 53  1  0  0  0
 52 54  1  0  0  0
 55 56  1  0  0  0
 56 57  1  0  0  0
 56 59  1  0  0  0
 57 58  2  0  0  0
 57 63  1  0  0  0
 59 60  1  0  0  0
 60 61  1  0  0  0
 60 62  2  0  0  0
 63 64  1  0  0  0
 64 65  1  0  0  0
 64 67  1  0  0  0
 65 66  1  0  0  0
 65 71  2  0  0  0
 67 68  1  0  0  0
 68 69  1  0  0  0
 68 70  1  0  0  0
  1 72  1  0  0  0
  1 73  1  0  0  0
  1 74  1  0  0  0
  2 75  1  0  0  0
  5 76  1  0  0  0
  5 77  1  0  0  0
  7 78  1  0  0  0
  9 79  1  0  0  0
 10 80  1  0  0  0
 11 81  1  0  0  0
 11 82  1  0  0  0
 16 83  1  0  0  0
 17 84  1  0  0  0
 19 85  1  0  0  0
 20 86  1  0  0  0
 23 87  1  0  0  0
 23 88  1  0  0  0
 25 89  1  0  0  0
 26 90  1  0  0  0
 27 91  1  0  0  0
 28 92  1  0  0  0
 30 93  1  0  0  0
 31 94  1  0  0  0
 32 95  1  0  0  0
 35 96  1  0  0  0
 35 97  1  0  0  0
 36 98  1  0  0  0
 36 99  1  0  0  0
 38100  1  0  0  0
 40101  1  0  0  0
 41102  1  0  0  0
 44103  1  0  0  0
 45104  1  0  0  0
 45105  1  0  0  0
 45106  1  0  0  0
 46107  1  0  0  0
 46108  1  0  0  0
 46109  1  0  0  0
 47110  1  0  0  0
 48111  1  0  0  0
 51112  1  0  0  0
 51113  1  0  0  0
 52114  1  0  0  0
 53115  1  0  0  0
 53116  1  0  0  0
 53117  1  0  0  0
 54118  1  0  0  0
 54119  1  0  0  0
 54120  1  0  0  0
 55121  1  0  0  0
 56122  1  0  0  0
 59123  1  0  0  0
 59124  1  0  0  0
 61125  1  0  0  0
 63126  1  0  0  0
 64127  1  0  0  0
 66128  1  0  0  0
 67129  1  0  0  0
 67130  1  0  0  0
 68131  1  0  0  0
 69132  1  0  0  0
 69133  1  0  0  0
 69134  1  0  0  0
 70135  1  0  0  0
 70136  1  0  0  0
 70137  1  0  0  0
M  END
$$$$
