4ngr_ligand
  -I-interpret- 

 69 69  0  0  0  0  0  0  0  0999 V2000
  -16.0550  -20.6490  -41.2720 C   0  0  0  0  0
  -14.7570  -19.9100  -40.8440 C   0  0  0  0  0
  -15.0050  -18.3930  -40.7670 C   0  0  0  0  0
  -13.8530  -17.6330  -40.1130 C   0  0  0  0  0
  -17.9140  -20.5640  -42.8330 C   0  0  0  0  0
  -19.9420  -20.0400  -44.0880 C   0  0  0  0  0
  -17.8970  -19.5490  -40.0670 O   0  0  0  0  0
  -13.7020  -16.4050  -40.3200 O   0  0  0  0  0
  -24.9890  -19.7740  -37.8850 O   0  0  0  0  0
  -25.2910  -19.4990  -39.0320 C   0  0  0  0  0
  -25.4690  -20.6440  -39.9910 C   0  0  0  0  0
  -25.4940  -18.2160  -39.4680 N   0  0  0  0  0
  -25.4030  -17.0370  -38.5790 C   0  0  0  0  0
  -25.7030  -15.6510  -39.1730 C   0  0  0  0  0
  -25.2710  -15.4200  -40.5480 O   0  0  0  0  0
  -25.3170  -14.1560  -41.1550 C   0  0  0  0  0
  -25.8260  -13.0500  -40.4670 C   0  0  0  0  0
  -25.8730  -11.7880  -41.0920 C   0  0  0  0  0
  -26.6550  -10.3740  -40.1150 Br  0  0  0  0  0
  -25.4030  -11.5530  -42.3750 C   0  0  0  0  0
  -24.9110  -12.6380  -43.0510 C   0  0  0  0  0
  -24.8720  -13.9280  -42.4660 C   0  0  0  0  0
  -24.2780  -15.0330  -43.2790 C   0  0  0  0  0
  -24.0080  -14.7930  -44.4700 O   0  0  0  0  0
  -24.0770  -16.2160  -42.6680 N   0  0  0  0  0
  -23.4780  -17.3820  -43.3170 C   0  0  0  0  0
  -23.1590  -18.5870  -42.4010 C   0  0  0  0  0
  -22.3080  -19.5350  -43.2520 C   0  0  0  0  0
  -20.8130  -19.3490  -43.0480 C   0  0  0  0  0
  -20.1500  -19.4710  -45.4420 C   0  0  0  0  0
  -19.6870  -18.2580  -45.6980 O   0  0  0  0  0
  -20.7080  -20.0710  -46.3060 O   0  0  0  0  0
  -18.6020  -19.8180  -43.6860 N   0  0  0  0  0
  -18.3510  -21.6250  -42.3200 O   0  0  0  0  0
  -16.7000  -20.1230  -42.4830 N   0  0  0  0  0
  -17.0220  -20.4680  -40.1240 C   0  0  0  0  0
  -16.8910  -21.3240  -39.1090 O   0  0  0  0  0
  -12.9940  -18.2550  -39.3160 O   0  0  0  0  0
  -15.7916  -21.6818  -41.5002 H   0  0  0  0  0
  -13.9774  -20.1057  -41.5803 H   0  0  0  0  0
  -14.4503  -20.2702  -39.8620 H   0  0  0  0  0
  -15.8960  -18.2324  -40.1600 H   0  0  0  0  0
  -15.1118  -18.0217  -41.7862 H   0  0  0  0  0
  -20.1910  -21.0996  -44.1457 H   0  0  0  0  0
  -24.5372  -21.2051  -40.0618 H   0  0  0  0  0
  -26.2623  -21.2986  -39.6301 H   0  0  0  0  0
  -25.7360  -20.2551  -40.9736 H   0  0  0  0  0
  -25.7184  -18.0668  -40.4518 H   0  0  0  0  0
  -24.3600  -16.9946  -38.2652 H   0  0  0  0  0
  -26.1663  -17.1933  -37.8167 H   0  0  0  0  0
  -25.1525  -14.9364  -38.5611 H   0  0  0  0  0
  -26.7888  -15.5555  -39.1792 H   0  0  0  0  0
  -26.1872  -13.1644  -39.4450 H   0  0  0  0  0
  -25.4239  -10.5589  -42.8215 H   0  0  0  0  0
  -24.5392  -12.5054  -44.0670 H   0  0  0  0  0
  -24.3600  -16.3045  -41.6921 H   0  0  0  0  0
  -22.5230  -17.0471  -43.7219 H   0  0  0  0  0
  -24.2114  -17.7367  -44.0412 H   0  0  0  0  0
  -24.0691  -19.0737  -42.0503 H   0  0  0  0  0
  -22.6296  -18.2749  -41.5008 H   0  0  0  0  0
  -22.5263  -19.3233  -44.2987 H   0  0  0  0  0
  -22.5562  -20.5546  -42.9570 H   0  0  0  0  0
  -20.6117  -18.2804  -43.1231 H   0  0  0  0  0
  -20.5660  -19.7895  -42.0821 H   0  0  0  0  0
  -19.2660  -17.9047  -44.9109 H   0  0  0  0  0
  -18.1237  -19.0122  -44.0888 H   0  0  0  0  0
  -16.2244  -19.4247  -43.0544 H   0  0  0  0  0
  -16.1916  -21.9506  -39.3085 H   0  0  0  0  0
  -13.2327  -19.1826  -39.2519 H   0  0  0  0  0
  1  2  1  0  0  0
 35  1  1  0  0  0
  1 36  1  0  0  0
  2  3  1  0  0  0
  3  4  1  0  0  0
  4  8  2  0  0  0
  4 38  1  0  0  0
 33  5  1  0  0  0
  5 34  2  0  0  0
  5 35  1  0  0  0
 29  6  1  0  0  0
  6 30  1  0  0  0
  6 33  1  0  0  0
 36  7  2  0  0  0
 10  9  2  0  0  0
 10 11  1  0  0  0
 12 10  1  0  0  0
 13 12  1  0  0  0
 14 13  1  0  0  0
 15 14  1  0  0  0
 16 15  1  0  0  0
 16 17  4  0  0  0
 22 16  4  0  0  0
 17 18  4  0  0  0
 18 19  1  0  0  0
 20 18  4  0  0  0
 21 20  4  0  0  0
 22 21  4  0  0  0
 23 22  1  0  0  0
 23 24  2  0  0  0
 25 23  1  0  0  0
 26 25  1  0  0  0
 27 26  1  0  0  0
 28 27  1  0  0  0
 28 29  1  0  0  0
 30 31  1  0  0  0
 30 32  2  0  0  0
 36 37  1  0  0  0
  1 39  1  0  0  0
  2 40  1  0  0  0
  2 41  1  0  0  0
  3 42  1  0  0  0
  3 43  1  0  0  0
  6 44  1  0  0  0
 11 45  1  0  0  0
 11 46  1  0  0  0
 11 47  1  0  0  0
 12 48  1  0  0  0
 13 49  1  0  0  0
 13 50  1  0  0  0
 14 51  1  0  0  0
 14 52  1  0  0  0
 17 53  1  0  0  0
 20 54  1  0  0  0
 21 55  1  0  0  0
 25 56  1  0  0  0
 26 57  1  0  0  0
 26 58  1  0  0  0
 27 59  1  0  0  0
 27 60  1  0  0  0
 28 61  1  0  0  0
 28 62  1  0  0  0
 29 63  1  0  0  0
 29 64  1  0  0  0
 31 65  1  0  0  0
 33 66  1  0  0  0
 35 67  1  0  0  0
 37 68  1  0  0  0
 38 69  1  0  0  0
M  END
$$$$
