5j7p_ligand
  -I-interpret- 

 32 34  0  0  0  0  0  0  0  0999 V2000
   42.0680  -22.2970   11.9220 C   0  0  0  0  0
   41.2060  -21.2260   11.8530 C   0  0  0  0  0
   41.6840  -19.9390   11.8230 C   0  0  0  0  0
   41.4730  -23.6580   11.9810 C   0  0  0  0  0
   43.0330  -19.7430   11.8770 C   0  0  0  0  0
   43.9270  -20.8110   11.9370 C   0  0  0  0  0
   41.8780  -24.3870   13.2360 C   0  0  0  0  0
   43.4390  -22.1020   11.9790 C   0  0  0  0  0
   43.0650  -25.1410   13.3030 C   0  0  0  0  0
   43.4440  -25.8210   14.4670 C   0  0  0  0  0
   42.6350  -25.7210   15.5790 C   0  0  0  0  0
   41.4970  -24.9750   15.5410 C   0  0  0  0  0
   41.0910  -24.2890   14.3840 C   0  0  0  0  0
   40.8470  -25.0190   16.7410 O   0  0  0  0  0
   42.8090  -26.2860   16.8130 O   0  0  0  0  0
   41.6830  -25.8760   17.5780 C   0  0  0  0  0
   43.8950  -25.2570   12.2270 O   0  0  0  0  0
   43.5380  -18.3840   11.8270 C   0  0  0  0  0
   42.7780  -17.5480   12.5110 F   0  0  0  0  0
   43.5330  -17.9190   10.6030 F   0  0  0  0  0
   44.7610  -18.3160   12.3090 F   0  0  0  0  0
   40.1307  -21.4017   11.8218 H   0  0  0  0  0
   41.0005  -19.0925   11.7575 H   0  0  0  0  0
   41.8293  -24.2270   11.1223 H   0  0  0  0  0
   40.3875  -23.5596   11.9752 H   0  0  0  0  0
   45.0015  -20.6286   11.9506 H   0  0  0  0  0
   44.1185  -22.9509   12.0555 H   0  0  0  0  0
   44.3572  -26.4155   14.4933 H   0  0  0  0  0
   40.1791  -23.6919   14.3832 H   0  0  0  0  0
   41.1157  -26.7475   17.9047 H   0  0  0  0  0
   42.0108  -25.3296   18.4624 H   0  0  0  0  0
   44.6471  -25.8053   12.4621 H   0  0  0  0  0
  1  2  4  0  0  0
  1  4  1  0  0  0
  1  8  4  0  0  0
  2  3  4  0  0  0
  3  5  4  0  0  0
  4  7  1  0  0  0
  5  6  4  0  0  0
  5 18  1  0  0  0
  6  8  4  0  0  0
  7  9  4  0  0  0
  7 13  4  0  0  0
  9 10  4  0  0  0
  9 17  1  0  0  0
 10 11  4  0  0  0
 11 12  4  0  0  0
 11 15  1  0  0  0
 12 13  4  0  0  0
 12 14  1  0  0  0
 14 16  1  0  0  0
 15 16  1  0  0  0
 18 19  1  0  0  0
 18 20  1  0  0  0
 18 21  1  0  0  0
  2 22  1  0  0  0
  3 23  1  0  0  0
  4 24  1  0  0  0
  4 25  1  0  0  0
  6 26  1  0  0  0
  8 27  1  0  0  0
 10 28  1  0  0  0
 13 29  1  0  0  0
 16 30  1  0  0  0
 16 31  1  0  0  0
 17 32  1  0  0  0
M  END
$$$$
