4u70_ligand
  -I-interpret- 

 32 32  0  0  0  0  0  0  0  0999 V2000
   20.5450   -3.0990   11.4820 O   0  0  0  0  0
   21.9050   -2.5740   11.3950 P   0  0  0  0  0
   22.5600   -2.1420   12.7660 O   0  0  0  0  0
   21.9010   -1.2670   10.4750 O   0  0  0  0  0
   23.0560   -3.6050   10.5720 C   0  0  0  0  0
   24.1810   -2.9310   10.0350 N   0  3  0  0  0
   23.4780   -4.6950   11.5730 C   0  0  0  0  0
   23.8740   -6.0470   11.0400 C   0  0  0  0  0
   24.4610   -6.6090   12.3460 C   0  0  0  0  0
   25.4390   -7.6230   11.7560 C   0  0  0  0  0
   24.6210   -8.7840   11.2020 C   0  0  0  0  0
   23.6640   -8.3580   10.1370 C   0  0  0  0  0
   22.9080   -7.0740   10.5700 C   0  0  0  0  0
   23.4473   -1.8126   12.6057 H   0  0  0  0  0
   22.7929   -0.9172   10.4141 H   0  0  0  0  0
   22.5692   -4.0272    9.6929 H   0  0  0  0  0
   23.8664   -2.2175    9.3775 H   0  0  0  0  0
   24.7050   -2.4908   10.7913 H   0  0  0  0  0
   24.7784   -3.6013    9.5511 H   0  0  0  0  0
   22.5942   -4.8777   12.1843 H   0  0  0  0  0
   24.3741   -4.3060   12.0564 H   0  0  0  0  0
   24.4277   -5.8815   10.1158 H   0  0  0  0  0
   23.7277   -7.0271   13.0356 H   0  0  0  0  0
   24.9123   -5.8655   13.0030 H   0  0  0  0  0
   26.1293   -7.9758   12.5223 H   0  0  0  0  0
   26.0316   -7.1637   10.9648 H   0  0  0  0  0
   24.0419   -9.2072   12.0227 H   0  0  0  0  0
   25.3135   -9.5017   10.7622 H   0  0  0  0  0
   22.9407   -9.1562    9.9701 H   0  0  0  0  0
   24.2200   -8.1509    9.2226 H   0  0  0  0  0
   22.3537   -6.6805    9.7179 H   0  0  0  0  0
   22.2227   -7.3187   11.3816 H   0  0  0  0  0
  1  2  2  0  0  0
  2  3  1  0  0  0
  2  4  1  0  0  0
  2  5  1  0  0  0
  5  6  1  0  0  0
  5  7  1  0  0  0
  7  8  1  0  0  0
  8  9  1  0  0  0
  8 13  1  0  0  0
  9 10  1  0  0  0
 10 11  1  0  0  0
 11 12  1  0  0  0
 12 13  1  0  0  0
  3 14  1  0  0  0
  4 15  1  0  0  0
  5 16  1  0  0  0
  6 17  1  0  0  0
  6 18  1  0  0  0
  6 19  1  0  0  0
  7 20  1  0  0  0
  7 21  1  0  0  0
  8 22  1  0  0  0
  9 23  1  0  0  0
  9 24  1  0  0  0
 10 25  1  0  0  0
 10 26  1  0  0  0
 11 27  1  0  0  0
 11 28  1  0  0  0
 12 29  1  0  0  0
 12 30  1  0  0  0
 13 31  1  0  0  0
 13 32  1  0  0  0
M  END
$$$$
