4daw_ligand
  -I-interpret- 

 49 55  0  0  0  0  0  0  0  0999 V2000
   16.8000   35.7470  -12.7020 O   0  0  0  0  0
   15.6160   35.2540  -12.6970 C   0  0  0  0  0
   14.9010   35.0320  -13.8700 C   0  0  0  0  0
   14.9590   34.9210  -11.5580 N   0  0  0  0  0
   13.7890   34.4720  -12.0600 C   0  0  0  0  0
   12.6570   33.9570  -11.2710 O   0  0  0  0  0
   13.7010   34.5100  -13.4300 C   0  0  0  0  0
   12.6940   34.1320  -14.2910 C   0  0  0  0  0
   12.9560   34.3400  -15.6340 C   0  0  0  0  0
   14.1650   34.8500  -16.1340 C   0  0  0  0  0
   15.1680   35.2190  -15.2270 C   0  0  0  0  0
   14.3230   35.0010  -17.6320 C   0  0  0  0  0
   13.3070   34.6290  -18.4480 N   0  0  0  0  0
   13.3870   34.7270  -19.7910 C   0  0  0  0  0
   14.5430   35.2450  -20.3860 C   0  0  0  0  0
   15.6060   35.6450  -19.5800 C   0  0  0  0  0
   15.4980   35.5180  -18.1910 C   0  0  0  0  0
   10.4900   35.6220  -17.5660 N   0  0  0  0  0
    9.4380   36.4910  -17.7030 C   0  0  0  0  0
    8.1920   37.4490  -17.8240 S   0  0  0  0  0
   10.4220   33.0110  -19.2480 S   0  0  0  0  0
    9.1920   32.1460  -18.5110 C   0  0  0  0  0
    8.6390   32.8360  -17.2670 C   0  0  0  0  0
    9.8540   32.8170  -15.9890 S   0  0  0  0  0
   10.4160   31.1350  -15.9310 C   0  0  0  0  0
   11.9420   31.0080  -15.8990 C   0  0  0  0  0
   12.7770   31.6850  -17.3020 S   0  0  0  0  0
   11.9730   30.9120  -18.6720 C   0  0  0  0  0
   11.6250   31.9570  -19.7340 C   0  0  0  0  0
   11.5940   33.7930  -17.3700 Ru  0  0  0  0  0
   15.2652   34.9908  -10.5876 H   0  0  0  0  0
   11.7572   33.6997  -13.9393 H   0  0  0  0  0
   16.1165   35.6345  -15.5672 H   0  0  0  0  0
   12.5520   34.4030  -20.4123 H   0  0  0  0  0
   14.6107   35.3345  -21.4702 H   0  0  0  0  0
   16.5127   36.0528  -20.0268 H   0  0  0  0  0
   16.3242   35.8199  -17.5473 H   0  0  0  0  0
    9.6017   31.1842  -18.2024 H   0  0  0  0  0
    8.3767   32.0520  -19.2283 H   0  0  0  0  0
    7.7478   32.3086  -16.9268 H   0  0  0  0  0
    8.3843   33.8679  -17.5087 H   0  0  0  0  0
   10.0626   30.6378  -16.8343 H   0  0  0  0  0
   10.0287   30.6893  -15.0148 H   0  0  0  0  0
   12.1689   29.9420  -15.8817 H   0  0  0  0  0
   12.2862   31.5661  -15.0283 H   0  0  0  0  0
   11.0565   30.4339  -18.3262 H   0  0  0  0  0
   12.6413   30.1686  -19.1066 H   0  0  0  0  0
   12.5224   32.5450  -19.9265 H   0  0  0  0  0
   11.2641   31.4262  -20.6150 H   0  0  0  0  0
  2  1  2  0  0  0
  3  2  1  0  0  0
  2  4  1  0  0  0
  7  3  4  0  0  0
 11  3  4  0  0  0
  5  4  1  0  0  0
  5  6  2  0  0  0
  7  5  1  0  0  0
  8  7  4  0  0  0
  9  8  4  0  0  0
  9 10  4  0  0  0
 10 11  4  0  0  0
 12 10  1  0  0  0
 13 12  4  0  0  0
 12 17  4  0  0  0
 13 14  4  0  0  0
 14 15  4  0  0  0
 15 16  4  0  0  0
 17 16  4  0  0  0
 18 19  2  0  0  0
 19 20  2  0  0  0
 21 22  1  0  0  0
 21 29  1  0  0  0
 22 23  1  0  0  0
 23 24  1  0  0  0
 24 25  1  0  0  0
 26 25  1  0  0  0
 27 26  1  0  0  0
 28 27  1  0  0  0
 29 28  1  0  0  0
 30  9  1  0  0  0
 30 13  1  0  0  0
 30 18  1  0  0  0
 30 21  1  0  0  0
 30 24  1  0  0  0
 30 27  1  0  0  0
  4 31  1  0  0  0
  8 32  1  0  0  0
 11 33  1  0  0  0
 14 34  1  0  0  0
 15 35  1  0  0  0
 16 36  1  0  0  0
 17 37  1  0  0  0
 22 38  1  0  0  0
 22 39  1  0  0  0
 23 40  1  0  0  0
 23 41  1  0  0  0
 25 42  1  0  0  0
 25 43  1  0  0  0
 26 44  1  0  0  0
 26 45  1  0  0  0
 28 46  1  0  0  0
 28 47  1  0  0  0
 29 48  1  0  0  0
 29 49  1  0  0  0
M  END
$$$$
