### 
### Created by X-TOOL on Mon Sep 10 21:13:10 2018
### 

@<TRIPOS>MOLECULE
4daw_ligand
   49    55     1     0     0
SMALL
GAST_HUCK


@<TRIPOS>ATOM
      1 O47        16.8000   35.7470  -12.7020 O.2       1 0H2        -0.3886
      2 C45        15.6160   35.2540  -12.6970 C.2       1 0H2         0.2063
      3 C26        14.9010   35.0320  -13.8700 C.ar      1 0H2         0.0168
      4 N46        14.9590   34.9210  -11.5580 N.am      1 0H2        -0.2169
      5 C27        13.7890   34.4720  -12.0600 C.2       1 0H2         0.1808
      6 O28        12.6570   33.9570  -11.2710 O.2       1 0H2        -0.4118
      7 C29        13.7010   34.5100  -13.4300 C.ar      1 0H2         0.0037
      8 C30        12.6940   34.1320  -14.2910 C.ar      1 0H2        -0.0906
      9 C32        12.9560   34.3400  -15.6340 C.ar      1 0H2        -0.0772
     10 C34        14.1650   34.8500  -16.1340 C.ar      1 0H2        -0.0639
     11 C25        15.1680   35.2190  -15.2270 C.ar      1 0H2        -0.0767
     12 C35        14.3230   35.0010  -17.6320 C.ar      1 0H2        -0.0229
     13 N49        13.3070   34.6290  -18.4480 N.ar      1 0H2        -0.3555
     14 C40        13.3870   34.7270  -19.7910 C.ar      1 0H2        -0.0343
     15 C39        14.5430   35.2450  -20.3860 C.ar      1 0H2        -0.0710
     16 C38        15.6060   35.6450  -19.5800 C.ar      1 0H2        -0.0781
     17 C37        15.4980   35.5180  -18.1910 C.ar      1 0H2        -0.0712
     18 N23        10.4900   35.6220  -17.5660 N.2       1 0H2        -0.5665
     19 C24         9.4380   36.4910  -17.7030 C.1       1 0H2        -0.2790
     20 S44         8.1920   37.4490  -17.8240 S.2       1 0H2        -0.1546
     21 S2         10.4220   33.0110  -19.2480 S.3       1 0H2        -0.1591
     22 C7          9.1920   32.1460  -18.5110 C.3       1 0H2         0.0027
     23 C8          8.6390   32.8360  -17.2670 C.3       1 0H2         0.0027
     24 S9          9.8540   32.8170  -15.9890 S.3       1 0H2        -0.1591
     25 C10        10.4160   31.1350  -15.9310 C.3       1 0H2         0.0027
     26 C6         11.9420   31.0080  -15.8990 C.3       1 0H2         0.0027
     27 S5         12.7770   31.6850  -17.3020 S.3       1 0H2        -0.1591
     28 C4         11.9730   30.9120  -18.6720 C.3       1 0H2         0.0027
     29 C3         11.6250   31.9570  -19.7340 C.3       1 0H2         0.0027
     30 RU1        11.5940   33.7930  -17.3700 Ru        1 0H2         3.0000
     31 H1         15.2592   34.9894  -10.6066 H         1 0H2         0.2186
     32 H          11.7572   33.6997  -13.9393 H         1 0H2         0.0502
     33 H          16.1165   35.6345  -15.5672 H         1 0H2         0.0549
     34 H          12.5520   34.4030  -20.4123 H         1 0H2         0.0722
     35 H          14.6107   35.3345  -21.4702 H         1 0H2         0.0431
     36 H          16.5127   36.0528  -20.0268 H         1 0H2         0.0576
     37 H          16.3242   35.8199  -17.5473 H         1 0H2         0.0544
     38 H           9.6017   31.1842  -18.2024 H         1 0H2         0.0384
     39 H           8.3767   32.0520  -19.2283 H         1 0H2         0.0384
     40 H           7.7478   32.3086  -16.9268 H         1 0H2         0.0384
     41 H           8.3843   33.8679  -17.5087 H         1 0H2         0.0384
     42 H          10.0626   30.6378  -16.8343 H         1 0H2         0.0384
     43 H          10.0287   30.6893  -15.0148 H         1 0H2         0.0384
     44 H          12.1689   29.9420  -15.8817 H         1 0H2         0.0384
     45 H          12.2862   31.5661  -15.0283 H         1 0H2         0.0384
     46 H          11.0565   30.4339  -18.3262 H         1 0H2         0.0384
     47 H          12.6413   30.1686  -19.1066 H         1 0H2         0.0384
     48 H          12.5224   32.5450  -19.9265 H         1 0H2         0.0384
     49 H          11.2641   31.4262  -20.6150 H         1 0H2         0.0384
@<TRIPOS>BOND
     1    2    1 2  
     2    3    2 1  
     3    2    4 am 
     4    7    3 ar 
     5   11    3 ar 
     6    5    4 am 
     7    5    6 2  
     8    7    5 1  
     9    8    7 ar 
    10    9    8 ar 
    11    9   10 ar 
    12   10   11 ar 
    13   12   10 1  
    14   13   12 ar 
    15   12   17 ar 
    16   13   14 ar 
    17   14   15 ar 
    18   15   16 ar 
    19   17   16 ar 
    20   18   19 2  
    21   19   20 2  
    22   21   22 1  
    23   21   29 1  
    24   22   23 1  
    25   23   24 1  
    26   24   25 1  
    27   26   25 1  
    28   27   26 1  
    29   28   27 1  
    30   29   28 1  
    31   30    9 1  
    32   30   13 1  
    33   30   18 1  
    34   30   21 1  
    35   30   24 1  
    36   30   27 1  
    37    4   31 1  
    38    8   32 1  
    39   11   33 1  
    40   14   34 1  
    41   15   35 1  
    42   16   36 1  
    43   17   37 1  
    44   22   38 1  
    45   22   39 1  
    46   23   40 1  
    47   23   41 1  
    48   25   42 1  
    49   25   43 1  
    50   26   44 1  
    51   26   45 1  
    52   28   46 1  
    53   28   47 1  
    54   29   48 1  
    55   29   49 1  
@<TRIPOS>SUBSTRUCTURE
     1 0H2         1

