6fii_ligand
  -I-interpret- 

180186  0  0  0  0  0  0  0  0999 V2000
   21.3420  -26.6760  -46.1870 C   0  0  0  0  0
   22.4320  -26.6910  -47.2640 C   0  0  0  0  0
   23.5820  -25.7370  -46.8580 C   0  0  0  0  0
   24.0600  -26.0630  -45.4240 C   0  0  0  0  0
   25.1460  -25.0690  -44.9880 C   0  0  0  0  0
   26.1900  -26.9240  -43.6190 C   0  0  0  0  0
   25.9990  -30.1030  -43.1730 C   0  0  0  0  0
   25.3990  -31.3450  -41.1000 C   0  0  0  0  0
   25.0010  -32.6910  -38.9240 C   0  0  0  0  0
   23.9330  -35.7980  -36.8150 C   0  0  0  0  0
   24.7080  -36.3400  -35.6100 C   0  0  0  0  0
   24.8460  -35.2570  -34.5200 C   0  0  0  0  0
   27.0300  -34.3580  -35.2780 C   0  0  0  0  0
   27.5100  -31.8750  -34.7130 C   0  0  0  0  0
   25.7780  -30.6080  -33.4670 C   0  0  0  0  0
   21.0790  -27.1160  -42.3760 C   0  0  0  0  0
   25.1130  -27.8840  -44.1330 C   0  0  0  0  0
   25.6200  -29.3220  -44.4030 C   0  0  0  0  0
   24.8310  -30.4180  -42.2450 C   0  0  0  0  0
   24.4190  -31.8040  -39.9830 C   0  0  0  0  0
   24.2960  -34.0130  -38.6400 C   0  0  0  0  0
   24.8500  -34.7350  -37.4070 C   0  0  0  0  0
   20.7650  -26.6170  -43.7660 C   0  0  0  0  0
   25.5470  -34.0210  -35.1160 C   0  0  0  0  0
   27.8660  -33.1020  -35.5660 C   0  0  0  0  0
   25.9930  -31.6640  -34.5280 C   0  0  0  0  0
   25.0500  -29.5090  -33.6860 C   0  0  0  0  0
   21.9050  -26.8790  -44.7710 C   0  0  0  0  0
   24.3910  -29.1920  -35.0080 C   0  0  0  0  0
   22.8680  -29.3830  -34.9660 C   0  0  0  0  0
   22.4360  -30.8550  -34.8400 C   0  0  0  0  0
   20.9000  -30.9430  -34.7440 C   0  0  0  0  0
   20.4490  -32.3990  -34.4900 C   0  0  0  0  0
   18.9180  -32.4650  -34.6130 C   0  0  0  0  0
   18.4390  -31.9170  -35.9700 C   0  0  0  0  0
   18.9370  -30.4890  -36.2220 C   0  0  0  0  0
   18.4880  -30.0570  -37.6550 C   0  0  0  0  0
   19.4830  -29.0290  -38.2710 C   0  0  0  0  0
   19.4470  -28.8420  -39.8100 C   0  0  0  0  0
   20.2400  -27.5340  -40.0780 C   0  0  0  0  0
   19.7430  -26.3820  -39.1760 C   0  0  0  0  0
   19.9060  -26.6590  -37.6670 C   0  0  0  0  0
   19.3870  -25.4480  -36.8420 C   0  0  0  0  0
   19.4230  -25.6300  -35.3370 C   0  0  0  0  0
   20.7330  -25.6900  -34.5830 C   0  0  0  0  0
   21.8040  -24.7640  -35.1920 C   0  0  0  0  0
   21.3910  -23.3120  -35.0630 C   0  0  0  0  0
   21.2430  -22.4830  -36.1120 C   0  0  0  0  0
   20.4750  -21.2350  -36.0780 C   0  0  0  0  0
   20.3520  -20.4300  -37.1540 C   0  0  0  0  0
   22.4290  -28.9660  -48.2220 C   0  0  0  0  0
   22.7800  -30.3940  -47.9060 C   0  0  0  0  0
   26.8450  -24.5750  -43.2210 C   0  0  0  0  0
   27.2740  -30.4230  -42.9010 C   0  0  0  0  0
   23.5310  -30.9860  -42.8730 C   0  0  0  0  0
   27.1050  -33.2080  -41.1710 C   0  0  0  0  0
   27.0260  -34.7080  -41.2030 C   0  0  0  0  0
   23.7140  -30.5860  -39.3580 C   0  0  0  0  0
   24.7400  -38.1230  -34.0410 C   0  0  0  0  0
   21.1500  -33.3290  -35.4880 C   0  0  0  0  0
   20.1580  -30.0260  -40.5120 C   0  0  0  0  0
   18.2810  -25.7450  -34.6630 C   0  0  0  0  0
   25.6650  -25.4770  -43.5980 C   0  0  0  0  0
   22.2100  -27.4700  -42.0710 O   0  0  0  0  0
   24.5800  -27.3990  -45.3700 O   0  0  0  0  0
   26.0180  -32.5270  -41.6680 O   0  0  0  0  0
   25.9980  -32.3170  -38.3350 O   0  0  0  0  0
   24.0930  -37.5540  -35.1650 O   0  0  0  0  0
   25.0200  -33.6950  -36.4160 O   0  0  0  0  0
   27.7670  -32.7420  -36.9610 O   0  0  0  0  0
   25.3580  -32.9180  -34.1920 O   0  0  0  0  0
   20.3570  -30.4170  -35.9750 O   0  0  0  0  0
   18.3590  -31.6990  -33.5420 O   0  0  0  0  0
   18.2680  -29.6080  -35.3190 O   0  0  0  0  0
   17.1770  -29.4850  -37.6170 O   0  0  0  0  0
   20.0630  -27.1660  -41.4670 O   0  0  0  0  0
   20.4140  -25.1630  -39.5360 O   0  0  0  0  0
   19.1530  -27.8490  -37.4880 O   0  0  0  0  0
   23.0530  -25.0430  -34.5740 O   0  0  0  0  0
   22.9390  -28.0310  -47.3850 O   0  0  0  0  0
   21.7310  -28.6420  -49.1790 O   0  0  0  0  0
   28.1100  -32.6270  -40.7560 O   0  0  0  0  0
   22.9560  -25.9430  -44.5250 O   0  0  0  0  0
   24.6240  -25.3030  -42.6290 O   0  0  0  0  0
   19.7050  -20.8110  -34.5610 Cl  0  0  0  0  0
   20.6546  -27.4960  -46.3948 H   0  0  0  0  0
   20.8549  -25.7014  -46.2171 H   0  0  0  0  0
   22.0169  -26.3602  -48.2161 H   0  0  0  0  0
   23.2225  -24.7085  -46.8905 H   0  0  0  0  0
   24.4141  -25.8641  -47.5505 H   0  0  0  0  0
   24.7292  -24.0628  -44.9452 H   0  0  0  0  0
   25.9662  -25.0806  -45.7059 H   0  0  0  0  0
   27.0534  -26.9757  -44.2823 H   0  0  0  0  0
   26.4648  -27.2136  -42.6048 H   0  0  0  0  0
   26.1078  -30.6864  -40.5981 H   0  0  0  0  0
   22.9636  -35.3899  -36.5289 H   0  0  0  0  0
   23.6949  -36.5810  -37.5350 H   0  0  0  0  0
   25.7312  -36.5915  -35.8890 H   0  0  0  0  0
   25.4364  -35.6469  -33.6909 H   0  0  0  0  0
   23.8572  -34.9762  -34.1574 H   0  0  0  0  0
   27.1379  -35.0440  -36.1181 H   0  0  0  0  0
   27.3858  -34.8034  -34.3490 H   0  0  0  0  0
   27.8998  -30.9970  -35.2280 H   0  0  0  0  0
   27.9394  -32.0315  -33.7234 H   0  0  0  0  0
   26.2339  -30.7486  -32.4870 H   0  0  0  0  0
   24.3684  -27.9258  -43.3381 H   0  0  0  0  0
   24.8006  -29.8610  -44.8785 H   0  0  0  0  0
   26.5219  -29.2298  -45.0081 H   0  0  0  0  0
   24.4621  -29.4612  -41.8756 H   0  0  0  0  0
   23.6959  -32.4417  -40.4914 H   0  0  0  0  0
   24.4493  -34.6626  -39.5017 H   0  0  0  0  0
   23.2447  -33.7948  -38.4523 H   0  0  0  0  0
   25.7583  -35.2637  -37.6959 H   0  0  0  0  0
   20.6157  -25.5389  -43.7063 H   0  0  0  0  0
   19.8819  -27.1497  -44.1188 H   0  0  0  0  0
   28.8850  -33.3799  -35.2967 H   0  0  0  0  0
   25.5359  -31.3157  -35.4542 H   0  0  0  0  0
   24.9247  -28.8023  -32.8656 H   0  0  0  0  0
   22.2961  -27.8912  -44.6682 H   0  0  0  0  0
   24.7950  -29.8729  -35.7572 H   0  0  0  0  0
   24.5927  -28.1468  -35.2424 H   0  0  0  0  0
   22.4645  -29.0027  -35.9044 H   0  0  0  0  0
   22.4963  -28.8565  -34.0870 H   0  0  0  0  0
   22.8781  -31.2843  -33.9409 H   0  0  0  0  0
   22.7741  -31.4058  -35.7177 H   0  0  0  0  0
   20.5309  -30.3579  -33.9017 H   0  0  0  0  0
   20.7255  -32.7269  -33.4879 H   0  0  0  0  0
   18.5913  -33.5032  -34.5546 H   0  0  0  0  0
   17.3491  -31.9017  -35.9655 H   0  0  0  0  0
   18.8358  -32.5596  -36.7559 H   0  0  0  0  0
   18.4767  -30.9500  -38.2799 H   0  0  0  0  0
   20.5232  -29.3474  -38.2026 H   0  0  0  0  0
   18.4254  -28.7982  -40.1874 H   0  0  0  0  0
   21.2925  -27.7076  -39.8541 H   0  0  0  0  0
   18.6707  -26.2897  -39.3485 H   0  0  0  0  0
   20.9336  -26.7864  -37.3266 H   0  0  0  0  0
   18.3413  -25.3077  -37.1156 H   0  0  0  0  0
   20.0429  -24.6083  -37.0717 H   0  0  0  0  0
   21.1043  -26.7136  -34.6327 H   0  0  0  0  0
   20.5482  -25.3645  -33.5593 H   0  0  0  0  0
   21.9075  -24.9523  -36.2606 H   0  0  0  0  0
   21.2033  -22.9171  -34.0645 H   0  0  0  0  0
   21.7263  -22.7576  -37.0496 H   0  0  0  0  0
   20.8339  -20.6991  -38.0939 H   0  0  0  0  0
   19.7707  -19.5106  -37.0832 H   0  0  0  0  0
   21.8659  -30.9610  -47.7295 H   0  0  0  0  0
   23.3218  -30.8281  -48.7463 H   0  0  0  0  0
   23.4058  -30.4241  -47.0140 H   0  0  0  0  0
   26.5176  -23.5354  -43.2119 H   0  0  0  0  0
   27.2101  -24.8510  -42.2317 H   0  0  0  0  0
   27.6438  -24.6993  -43.9522 H   0  0  0  0  0
   28.0696  -30.1162  -43.5799 H   0  0  0  0  0
   27.5136  -30.9897  -42.0012 H   0  0  0  0  0
   23.1346  -30.2708  -43.5938 H   0  0  0  0  0
   23.7534  -31.9265  -43.3771 H   0  0  0  0  0
   22.7949  -31.1583  -42.0878 H   0  0  0  0  0
   27.8213  -35.0990  -41.8376 H   0  0  0  0  0
   27.1413  -35.0983  -40.1918 H   0  0  0  0  0
   26.0583  -35.0111  -41.6027 H   0  0  0  0  0
   24.4595  -29.9183  -38.9262 H   0  0  0  0  0
   23.1537  -30.0570  -40.1289 H   0  0  0  0  0
   23.0315  -30.9235  -38.5780 H   0  0  0  0  0
   25.7753  -38.3498  -34.2956 H   0  0  0  0  0
   24.7149  -37.4155  -33.2122 H   0  0  0  0  0
   24.2260  -39.0401  -33.7532 H   0  0  0  0  0
   20.8843  -33.0363  -36.5038 H   0  0  0  0  0
   22.2294  -33.2529  -35.3571 H   0  0  0  0  0
   20.8327  -34.3565  -35.3098 H   0  0  0  0  0
   21.1960  -30.0717  -40.1826 H   0  0  0  0  0
   19.6522  -30.9564  -40.2540 H   0  0  0  0  0
   20.1242  -29.8799  -41.5916 H   0  0  0  0  0
   17.3293  -25.7081  -35.1930 H   0  0  0  0  0
   18.2976  -25.8761  -33.5810 H   0  0  0  0  0
   28.2938  -31.9565  -37.1258 H   0  0  0  0  0
   17.4010  -31.7251  -33.5975 H   0  0  0  0  0
   18.5714  -28.7093  -35.4668 H   0  0  0  0  0
   16.9166  -29.2253  -38.5038 H   0  0  0  0  0
   20.1029  -24.4497  -38.9738 H   0  0  0  0  0
   23.7280  -24.4709  -34.9465 H   0  0  0  0  0
   23.8794  -25.8645  -42.8566 H   0  0  0  0  0
  2  1  1  0  0  0
 28  1  1  0  0  0
  3  2  1  0  0  0
  2 80  1  0  0  0
  4  3  1  0  0  0
  4  5  1  0  0  0
 65  4  1  0  0  0
  4 83  1  0  0  0
 63  5  1  0  0  0
 17  6  1  0  0  0
  6 63  1  0  0  0
  7 18  1  0  0  0
 19  7  1  0  0  0
  7 54  2  0  0  0
  8 19  1  0  0  0
  8 20  1  0  0  0
 66  8  1  0  0  0
 20  9  1  0  0  0
  9 21  1  0  0  0
  9 67  2  0  0  0
 10 11  1  0  0  0
 22 10  1  0  0  0
 11 12  1  0  0  0
 11 68  1  0  0  0
 24 12  1  0  0  0
 24 13  1  0  0  0
 13 25  1  0  0  0
 25 14  1  0  0  0
 26 14  1  0  0  0
 26 15  1  0  0  0
 15 27  2  0  0  0
 23 16  1  0  0  0
 16 64  2  0  0  0
 16 76  1  0  0  0
 18 17  1  0  0  0
 17 65  1  0  0  0
 19 55  1  0  0  0
 20 58  1  0  0  0
 21 22  1  0  0  0
 22 69  1  0  0  0
 28 23  1  0  0  0
 69 24  1  0  0  0
 24 71  1  0  0  0
 25 70  1  0  0  0
 71 26  1  0  0  0
 27 29  1  0  0  0
 83 28  1  0  0  0
 29 30  1  0  0  0
 30 31  1  0  0  0
 31 32  1  0  0  0
 32 33  1  0  0  0
 32 72  1  0  0  0
 33 34  1  0  0  0
 33 60  1  0  0  0
 34 35  1  0  0  0
 34 73  1  0  0  0
 36 35  1  0  0  0
 37 36  1  0  0  0
 72 36  1  0  0  0
 36 74  1  0  0  0
 38 37  1  0  0  0
 37 75  1  0  0  0
 39 38  1  0  0  0
 38 78  1  0  0  0
 40 39  1  0  0  0
 39 61  1  0  0  0
 40 41  1  0  0  0
 76 40  1  0  0  0
 41 42  1  0  0  0
 41 77  1  0  0  0
 42 43  1  0  0  0
 42 78  1  0  0  0
 43 44  1  0  0  0
 44 45  1  0  0  0
 44 62  2  0  0  0
 45 46  1  0  0  0
 46 47  1  0  0  0
 46 79  1  0  0  0
 47 48  2  0  0  0
 48 49  1  0  0  0
 49 50  2  0  0  0
 49 85  1  0  0  0
 51 52  1  0  0  0
 80 51  1  0  0  0
 51 81  2  0  0  0
 63 53  1  0  0  0
 56 57  1  0  0  0
 56 66  1  0  0  0
 56 82  2  0  0  0
 68 59  1  0  0  0
 63 84  1  0  0  0
  1 86  1  0  0  0
  1 87  1  0  0  0
  2 88  1  0  0  0
  3 89  1  0  0  0
  3 90  1  0  0  0
  5 91  1  0  0  0
  5 92  1  0  0  0
  6 93  1  0  0  0
  6 94  1  0  0  0
  8 95  1  0  0  0
 10 96  1  0  0  0
 10 97  1  0  0  0
 11 98  1  0  0  0
 12 99  1  0  0  0
 12100  1  0  0  0
 13101  1  0  0  0
 13102  1  0  0  0
 14103  1  0  0  0
 14104  1  0  0  0
 15105  1  0  0  0
 17106  1  0  0  0
 18107  1  0  0  0
 18108  1  0  0  0
 19109  1  0  0  0
 20110  1  0  0  0
 21111  1  0  0  0
 21112  1  0  0  0
 22113  1  0  0  0
 23114  1  0  0  0
 23115  1  0  0  0
 25116  1  0  0  0
 26117  1  0  0  0
 27118  1  0  0  0
 28119  1  0  0  0
 29120  1  0  0  0
 29121  1  0  0  0
 30122  1  0  0  0
 30123  1  0  0  0
 31124  1  0  0  0
 31125  1  0  0  0
 32126  1  0  0  0
 33127  1  0  0  0
 34128  1  0  0  0
 35129  1  0  0  0
 35130  1  0  0  0
 37131  1  0  0  0
 38132  1  0  0  0
 39133  1  0  0  0
 40134  1  0  0  0
 41135  1  0  0  0
 42136  1  0  0  0
 43137  1  0  0  0
 43138  1  0  0  0
 45139  1  0  0  0
 45140  1  0  0  0
 46141  1  0  0  0
 47142  1  0  0  0
 48143  1  0  0  0
 50144  1  0  0  0
 50145  1  0  0  0
 52146  1  0  0  0
 52147  1  0  0  0
 52148  1  0  0  0
 53149  1  0  0  0
 53150  1  0  0  0
 53151  1  0  0  0
 54152  1  0  0  0
 54153  1  0  0  0
 55154  1  0  0  0
 55155  1  0  0  0
 55156  1  0  0  0
 57157  1  0  0  0
 57158  1  0  0  0
 57159  1  0  0  0
 58160  1  0  0  0
 58161  1  0  0  0
 58162  1  0  0  0
 59163  1  0  0  0
 59164  1  0  0  0
 59165  1  0  0  0
 60166  1  0  0  0
 60167  1  0  0  0
 60168  1  0  0  0
 61169  1  0  0  0
 61170  1  0  0  0
 61171  1  0  0  0
 62172  1  0  0  0
 62173  1  0  0  0
 70174  1  0  0  0
 73175  1  0  0  0
 74176  1  0  0  0
 75177  1  0  0  0
 77178  1  0  0  0
 79179  1  0  0  0
 84180  1  0  0  0
M  END
$$$$
