### 
### Created by X-TOOL on Wed Jan  1 15:39:35 2020
### 

@<TRIPOS>MOLECULE
6fii_ligand
  180   186     1     0     0
SMALL
GAST_HUCK


@<TRIPOS>ATOM
      1 C4         21.3420  -26.6760  -46.1870 C.3       1 SG9         0.0068
      2 C5         22.4320  -26.6910  -47.2640 C.3       1 SG9         0.0950
      3 C6         23.5820  -25.7370  -46.8580 C.3       1 SG9         0.0324
      4 C7         24.0600  -26.0630  -45.4240 C.3       1 SG9         0.1764
      5 C8         25.1460  -25.0690  -44.9880 C.3       1 SG9         0.0302
      6 C10        26.1900  -26.9240  -43.6190 C.3       1 SG9         0.0046
      7 C13        25.9990  -30.1030  -43.1730 C.2       1 SG9        -0.0653
      8 C15        25.3990  -31.3450  -41.1000 C.3       1 SG9         0.1195
      9 C17        25.0010  -32.6910  -38.9240 C.2       1 SG9         0.1132
     10 C20        23.9330  -35.7980  -36.8150 C.3       1 SG9         0.0022
     11 C21        24.7080  -36.3400  -35.6100 C.3       1 SG9         0.0657
     12 C22        24.8460  -35.2570  -34.5200 C.3       1 SG9         0.0281
     13 C24        27.0300  -34.3580  -35.2780 C.3       1 SG9         0.0279
     14 C26        27.5100  -31.8750  -34.7130 C.3       1 SG9         0.0066
     15 C28        25.7780  -30.6080  -33.4670 C.2       1 SG9        -0.0701
     16 C1         21.0790  -27.1160  -42.3760 C.2       1 SG9         0.2366
     17 C11        25.1130  -27.8840  -44.1330 C.3       1 SG9         0.0760
     18 C12        25.6200  -29.3220  -44.4030 C.3       1 SG9         0.0089
     19 C14        24.8310  -30.4180  -42.2450 C.3       1 SG9         0.0241
     20 C16        24.4190  -31.8040  -39.9830 C.3       1 SG9         0.0629
     21 C18        24.2960  -34.0130  -38.6400 C.3       1 SG9         0.0479
     22 C19        24.8500  -34.7350  -37.4070 C.3       1 SG9         0.0799
     23 C2         20.7650  -26.6170  -43.7660 C.3       1 SG9         0.0751
     24 C23        25.5470  -34.0210  -35.1160 C.3       1 SG9         0.1775
     25 C25        27.8660  -33.1020  -35.5660 C.3       1 SG9         0.0640
     26 C27        25.9930  -31.6640  -34.5280 C.3       1 SG9         0.0817
     27 C29        25.0500  -29.5090  -33.6860 C.2       1 SG9        -0.0963
     28 C3         21.9050  -26.8790  -44.7710 C.3       1 SG9         0.0825
     29 C30        24.3910  -29.1920  -35.0080 C.3       1 SG9        -0.0363
     30 C31        22.8680  -29.3830  -34.9660 C.3       1 SG9        -0.0441
     31 C32        22.4360  -30.8550  -34.8400 C.3       1 SG9        -0.0246
     32 C33        20.9000  -30.9430  -34.7440 C.3       1 SG9         0.0671
     33 C34        20.4490  -32.3990  -34.4900 C.3       1 SG9         0.0088
     34 C35        18.9180  -32.4650  -34.6130 C.3       1 SG9         0.0651
     35 C36        18.4390  -31.9170  -35.9700 C.3       1 SG9         0.0303
     36 C37        18.9370  -30.4890  -36.2220 C.3       1 SG9         0.1987
     37 C38        18.4880  -30.0570  -37.6550 C.3       1 SG9         0.1351
     38 C39        19.4830  -29.0290  -38.2710 C.3       1 SG9         0.0956
     39 C40        19.4470  -28.8420  -39.8100 C.3       1 SG9         0.0183
     40 C41        20.2400  -27.5340  -40.0780 C.3       1 SG9         0.1209
     41 C42        19.7430  -26.3820  -39.1760 C.3       1 SG9         0.1143
     42 C43        19.9060  -26.6590  -37.6670 C.3       1 SG9         0.0992
     43 C44        19.3870  -25.4480  -36.8420 C.3       1 SG9         0.0112
     44 C45        19.4230  -25.6300  -35.3370 C.2       1 SG9        -0.0659
     45 C46        20.7330  -25.6900  -34.5830 C.3       1 SG9         0.0205
     46 C47        21.8040  -24.7640  -35.1920 C.3       1 SG9         0.1001
     47 C48        21.3910  -23.3120  -35.0630 C.2       1 SG9        -0.0417
     48 C49        21.2430  -22.4830  -36.1120 C.2       1 SG9        -0.0571
     49 C50        20.4750  -21.2350  -36.0780 C.2       1 SG9         0.0152
     50 C51        20.3520  -20.4300  -37.1540 C.2       1 SG9        -0.1004
     51 C52        22.4290  -28.9660  -48.2220 C.2       1 SG9         0.2309
     52 C53        22.7800  -30.3940  -47.9060 C.3       1 SG9         0.0372
     53 C54        26.8450  -24.5750  -43.2210 C.3       1 SG9        -0.0358
     54 C55        27.2740  -30.4230  -42.9010 C.2       1 SG9        -0.1286
     55 C56        23.5310  -30.9860  -42.8730 C.3       1 SG9        -0.0476
     56 C57        27.1050  -33.2080  -41.1710 C.2       1 SG9         0.2312
     57 C58        27.0260  -34.7080  -41.2030 C.3       1 SG9         0.0372
     58 C59        23.7140  -30.5860  -39.3580 C.3       1 SG9        -0.0434
     59 C60        24.7400  -38.1230  -34.0410 C.3       1 SG9         0.0368
     60 C61        21.1500  -33.3290  -35.4880 C.3       1 SG9        -0.0577
     61 C62        20.1580  -30.0260  -40.5120 C.3       1 SG9        -0.0572
     62 C63        18.2810  -25.7450  -34.6630 C.2       1 SG9        -0.1286
     63 C9         25.6650  -25.4770  -43.5980 C.3       1 SG9         0.0707
     64 O1         22.2100  -27.4700  -42.0710 O.2       1 SG9        -0.3703
     65 O11        24.5800  -27.3990  -45.3700 O.3       1 SG9        -0.3426
     66 O15        26.0180  -32.5270  -41.6680 O.3       1 SG9        -0.2681
     67 O17        25.9980  -32.3170  -38.3350 O.2       1 SG9        -0.3911
     68 O21        24.0930  -37.5540  -35.1650 O.3       1 SG9        -0.3795
     69 O23        25.0200  -33.6950  -36.4160 O.3       1 SG9        -0.3426
     70 O25        27.7670  -32.7420  -36.9610 O.3       1 SG9        -0.3914
     71 O27        25.3580  -32.9180  -34.1920 O.3       1 SG9        -0.3359
     72 O33        20.3570  -30.4170  -35.9750 O.3       1 SG9        -0.3426
     73 O35        18.3590  -31.6990  -33.5420 O.3       1 SG9        -0.3913
     74 O37        18.2680  -29.6080  -35.3190 O.3       1 SG9        -0.3624
     75 O38        17.1770  -29.4850  -37.6170 O.3       1 SG9        -0.3839
     76 O41        20.0630  -27.1660  -41.4670 O.3       1 SG9        -0.2704
     77 O42        20.4140  -25.1630  -39.5360 O.3       1 SG9        -0.3861
     78 O43        19.1530  -27.8490  -37.4880 O.3       1 SG9        -0.3651
     79 O47        23.0530  -25.0430  -34.5740 O.3       1 SG9        -0.3735
     80 O5         22.9390  -28.0310  -47.3850 O.3       1 SG9        -0.2735
     81 O52        21.7310  -28.6420  -49.1790 O.2       1 SG9        -0.3707
     82 O57        28.1100  -32.6270  -40.7560 O.2       1 SG9        -0.3707
     83 O7         22.9560  -25.9430  -44.5250 O.3       1 SG9        -0.3426
     84 O9         24.6240  -25.3030  -42.6290 O.3       1 SG9        -0.3886
     85 CL1        19.7050  -20.8110  -34.5610 Cl        1 SG9        -0.0750
     86 H1         20.6256  -27.4831  -46.4000 H         1 SG9         0.0320
     87 H2         20.8238  -25.7064  -46.2241 H         1 SG9         0.0320
     88 H3         22.0076  -26.3663  -48.2255 H         1 SG9         0.0652
     89 H4         23.2231  -24.6979  -46.8946 H         1 SG9         0.0346
     90 H5         24.4214  -25.8599  -47.5582 H         1 SG9         0.0346
     91 H6         24.7215  -24.0553  -44.9408 H         1 SG9         0.0345
     92 H7         25.9745  -25.0863  -45.7113 H         1 SG9         0.0345
     93 H8         27.0681  -26.9798  -44.2791 H         1 SG9         0.0320
     94 H9         26.4787  -27.2180  -42.5991 H         1 SG9         0.0320
     95 H10        26.1851  -30.7597  -40.6006 H         1 SG9         0.0709
     96 H11        22.9780  -35.3548  -36.4965 H         1 SG9         0.0317
     97 H12        23.7407  -36.5973  -37.5459 H         1 SG9         0.0317
     98 H13        25.7254  -36.5919  -35.9439 H         1 SG9         0.0598
     99 H14        25.4432  -35.6507  -33.6843 H         1 SG9         0.0342
    100 H15        23.8477  -34.9731  -34.1556 H         1 SG9         0.0342
    101 H16        27.1467  -35.0640  -36.1134 H         1 SG9         0.0342
    102 H17        27.3938  -34.8242  -34.3505 H         1 SG9         0.0342
    103 H18        27.9276  -30.9813  -35.1997 H         1 SG9         0.0335
    104 H19        27.9665  -31.9988  -33.7199 H         1 SG9         0.0335
    105 H20        26.2335  -30.7484  -32.4879 H         1 SG9         0.0475
    106 H21        24.3118  -27.9298  -43.3807 H         1 SG9         0.0625
    107 H22        24.8235  -29.8725  -44.9251 H         1 SG9         0.0485
    108 H23        26.5058  -29.2556  -45.0518 H         1 SG9         0.0485
    109 H24        24.5368  -29.4640  -41.7831 H         1 SG9         0.0523
    110 H25        23.6442  -32.4021  -40.4849 H         1 SG9         0.0558
    111 H26        24.4170  -34.6695  -39.5142 H         1 SG9         0.0520
    112 H27        23.2268  -33.8121  -38.4774 H         1 SG9         0.0520
    113 H28        25.8151  -35.1990  -37.6583 H         1 SG9         0.0624
    114 H29        20.5830  -25.5333  -43.7168 H         1 SG9         0.0544
    115 H30        19.8578  -27.1253  -44.1245 H         1 SG9         0.0544
    116 H31        28.9140  -33.3572  -35.3502 H         1 SG9         0.0597
    117 H32        25.5633  -31.3022  -35.4738 H         1 SG9         0.0722
    118 H33        24.9249  -28.8030  -32.8664 H         1 SG9         0.0451
    119 H34        22.2842  -27.9055  -44.6594 H         1 SG9         0.0624
    120 H35        24.8088  -29.8563  -35.7788 H         1 SG9         0.0388
    121 H36        24.6083  -28.1457  -35.2687 H         1 SG9         0.0388
    122 H37        22.4402  -28.9729  -35.8927 H         1 SG9         0.0286
    123 H38        22.4715  -28.8289  -34.1025 H         1 SG9         0.0286
    124 H39        22.8838  -31.2906  -33.9346 H         1 SG9         0.0292
    125 H40        22.7790  -31.4130  -35.7237 H         1 SG9         0.0292
    126 H41        20.5531  -30.3216  -33.9052 H         1 SG9         0.0600
    127 H42        20.7358  -32.6970  -33.4707 H         1 SG9         0.0348
    128 H43        18.5931  -33.5119  -34.5214 H         1 SG9         0.0598
    129 H44        17.3391  -31.9170  -35.9846 H         1 SG9         0.0343
    130 H45        18.8164  -32.5708  -36.7700 H         1 SG9         0.0343
    131 H46        18.4653  -30.9508  -38.2958 H         1 SG9         0.0673
    132 H47        20.5093  -29.3439  -38.0312 H         1 SG9         0.0627
    133 H48        18.4112  -28.7573  -40.1704 H         1 SG9         0.0353
    134 H49        21.3069  -27.7111  -39.8773 H         1 SG9         0.0680
    135 H50        18.6683  -26.2512  -39.3704 H         1 SG9         0.0651
    136 H51        20.9609  -26.8353  -37.4098 H         1 SG9         0.0650
    137 H52        18.3447  -25.2568  -37.1369 H         1 SG9         0.0486
    138 H53        20.0056  -24.5741  -37.0941 H         1 SG9         0.0486
    139 H54        21.1064  -26.7244  -34.6052 H         1 SG9         0.0515
    140 H55        20.5550  -25.3867  -33.5408 H         1 SG9         0.0515
    141 H56        21.8951  -24.9919  -36.2642 H         1 SG9         0.0831
    142 H57        21.2035  -22.9175  -34.0654 H         1 SG9         0.0775
    143 H58        21.7259  -22.7573  -37.0488 H         1 SG9         0.0439
    144 H59        19.7713  -19.5115  -37.0833 H         1 SG9         0.0391
    145 H60        20.8335  -20.6989  -38.0931 H         1 SG9         0.0391
    146 H61        22.3135  -31.0590  -48.6477 H         1 SG9         0.0483
    147 H62        22.4107  -30.6488  -46.9017 H         1 SG9         0.0483
    148 H63        23.8724  -30.5187  -47.9376 H         1 SG9         0.0483
    149 H64        26.5116  -23.5271  -43.1945 H         1 SG9         0.0257
    150 H65        27.6450  -24.6864  -43.9677 H         1 SG9         0.0257
    151 H66        27.2254  -24.8639  -42.2301 H         1 SG9         0.0257
    152 H67        28.0620  -30.1686  -43.6083 H         1 SG9         0.0075
    153 H68        27.5203  -30.9370  -41.9731 H         1 SG9         0.0075
    154 H69        23.1775  -30.3059  -43.6620 H         1 SG9         0.0260
    155 H70        22.7583  -31.0787  -42.0956 H         1 SG9         0.0260
    156 H71        23.7354  -31.9760  -43.3067 H         1 SG9         0.0260
    157 H72        27.9489  -35.1328  -40.7814 H         1 SG9         0.0483
    158 H73        26.9080  -35.0469  -42.2428 H         1 SG9         0.0483
    159 H74        26.1633  -35.0425  -40.6081 H         1 SG9         0.0483
    160 H75        23.0249  -30.9254  -38.5706 H         1 SG9         0.0258
    161 H76        23.1481  -30.0513  -40.1350 H         1 SG9         0.0258
    162 H77        24.4654  -29.9113  -38.9218 H         1 SG9         0.0258
    163 H78        24.2221  -39.0487  -33.7496 H         1 SG9         0.0524
    164 H79        24.7153  -37.4099  -33.2038 H         1 SG9         0.0524
    165 H80        25.7850  -38.3524  -34.2966 H         1 SG9         0.0524
    166 H81        22.2397  -33.2472  -35.3622 H         1 SG9         0.0234
    167 H82        20.8765  -33.0395  -36.5134 H         1 SG9         0.0234
    168 H83        20.8366  -34.3673  -35.3041 H         1 SG9         0.0234
    169 H84        19.5979  -30.9538  -40.3235 H         1 SG9         0.0234
    170 H85        21.1792  -30.1273  -40.1160 H         1 SG9         0.0234
    171 H86        20.2016  -29.8376  -41.5949 H         1 SG9         0.0234
    172 H87        17.3300  -25.7038  -35.1920 H         1 SG9         0.0075
    173 H88        18.2977  -25.8803  -33.5826 H         1 SG9         0.0075
    174 H89        26.8796  -32.4622  -37.1525 H         1 SG9         0.2098
    175 H90        18.6332  -30.7933  -33.6252 H         1 SG9         0.2098
    176 H91        18.4537  -29.8715  -34.4253 H         1 SG9         0.2128
    177 H92        17.1913  -28.6982  -37.0847 H         1 SG9         0.2101
    178 H93        20.3051  -25.0058  -40.4666 H         1 SG9         0.2100
    179 H94        23.7302  -24.5128  -34.9776 H         1 SG9         0.2143
    180 H95        23.8993  -25.8809  -42.8372 H         1 SG9         0.2102
@<TRIPOS>BOND
     1    2    1 1  
     2   28    1 1  
     3    3    2 1  
     4    2   80 1  
     5    4    3 1  
     6    4    5 1  
     7   65    4 1  
     8    4   83 1  
     9   63    5 1  
    10   17    6 1  
    11    6   63 1  
    12    7   18 1  
    13   19    7 1  
    14    7   54 2  
    15    8   19 1  
    16    8   20 1  
    17   66    8 1  
    18   20    9 1  
    19    9   21 1  
    20    9   67 2  
    21   10   11 1  
    22   22   10 1  
    23   11   12 1  
    24   11   68 1  
    25   24   12 1  
    26   24   13 1  
    27   13   25 1  
    28   25   14 1  
    29   26   14 1  
    30   26   15 1  
    31   15   27 2  
    32   23   16 1  
    33   16   64 2  
    34   16   76 1  
    35   18   17 1  
    36   17   65 1  
    37   19   55 1  
    38   20   58 1  
    39   21   22 1  
    40   22   69 1  
    41   28   23 1  
    42   69   24 1  
    43   24   71 1  
    44   25   70 1  
    45   71   26 1  
    46   27   29 1  
    47   83   28 1  
    48   29   30 1  
    49   30   31 1  
    50   31   32 1  
    51   32   33 1  
    52   32   72 1  
    53   33   34 1  
    54   33   60 1  
    55   34   35 1  
    56   34   73 1  
    57   36   35 1  
    58   37   36 1  
    59   72   36 1  
    60   36   74 1  
    61   38   37 1  
    62   37   75 1  
    63   39   38 1  
    64   38   78 1  
    65   40   39 1  
    66   39   61 1  
    67   40   41 1  
    68   76   40 1  
    69   41   42 1  
    70   41   77 1  
    71   42   43 1  
    72   42   78 1  
    73   43   44 1  
    74   44   45 1  
    75   44   62 2  
    76   45   46 1  
    77   46   47 1  
    78   46   79 1  
    79   47   48 2  
    80   48   49 1  
    81   49   50 2  
    82   49   85 1  
    83   51   52 1  
    84   80   51 1  
    85   51   81 2  
    86   63   53 1  
    87   56   57 1  
    88   56   66 1  
    89   56   82 2  
    90   68   59 1  
    91   63   84 1  
    92    1   86 1  
    93    1   87 1  
    94    2   88 1  
    95    3   89 1  
    96    3   90 1  
    97    5   91 1  
    98    5   92 1  
    99    6   93 1  
   100    6   94 1  
   101    8   95 1  
   102   10   96 1  
   103   10   97 1  
   104   11   98 1  
   105   12   99 1  
   106   12  100 1  
   107   13  101 1  
   108   13  102 1  
   109   14  103 1  
   110   14  104 1  
   111   15  105 1  
   112   17  106 1  
   113   18  107 1  
   114   18  108 1  
   115   19  109 1  
   116   20  110 1  
   117   21  111 1  
   118   21  112 1  
   119   22  113 1  
   120   23  114 1  
   121   23  115 1  
   122   25  116 1  
   123   26  117 1  
   124   27  118 1  
   125   28  119 1  
   126   29  120 1  
   127   29  121 1  
   128   30  122 1  
   129   30  123 1  
   130   31  124 1  
   131   31  125 1  
   132   32  126 1  
   133   33  127 1  
   134   34  128 1  
   135   35  129 1  
   136   35  130 1  
   137   37  131 1  
   138   38  132 1  
   139   39  133 1  
   140   40  134 1  
   141   41  135 1  
   142   42  136 1  
   143   43  137 1  
   144   43  138 1  
   145   45  139 1  
   146   45  140 1  
   147   46  141 1  
   148   47  142 1  
   149   48  143 1  
   150   50  144 1  
   151   50  145 1  
   152   52  146 1  
   153   52  147 1  
   154   52  148 1  
   155   53  149 1  
   156   53  150 1  
   157   53  151 1  
   158   54  152 1  
   159   54  153 1  
   160   55  154 1  
   161   55  155 1  
   162   55  156 1  
   163   57  157 1  
   164   57  158 1  
   165   57  159 1  
   166   58  160 1  
   167   58  161 1  
   168   58  162 1  
   169   59  163 1  
   170   59  164 1  
   171   59  165 1  
   172   60  166 1  
   173   60  167 1  
   174   60  168 1  
   175   61  169 1  
   176   61  170 1  
   177   61  171 1  
   178   62  172 1  
   179   62  173 1  
   180   70  174 1  
   181   73  175 1  
   182   74  176 1  
   183   75  177 1  
   184   77  178 1  
   185   79  179 1  
   186   84  180 1  
@<TRIPOS>SUBSTRUCTURE
     1 SG9         1

