2pmn_ligand
  -I-interpret- 

 43 45  0  0  0  0  0  0  0  0999 V2000
   -7.0100  -30.4760  -16.1160 N   0  0  0  0  0
   -7.9230  -31.1730  -16.2920 C   0  0  0  0  0
   -8.9790  -31.8490  -16.5670 C   0  0  0  0  0
   -9.4110  -32.8210  -15.6750 C   0  0  0  0  0
  -10.5550  -33.5620  -15.9570 C   0  0  0  0  0
  -11.2670  -33.3570  -17.1340 C   0  0  0  0  0
  -10.8380  -32.3600  -18.0180 C   0  0  0  0  0
   -9.6870  -31.6160  -17.7470 C   0  0  0  0  0
  -12.5240  -34.1400  -17.3490 C   0  0  0  0  0
  -13.3780  -34.6890  -16.4170 C   0  0  0  0  0
  -14.4000  -35.2280  -17.1240 N   0  0  0  0  0
  -14.1990  -35.0000  -18.4390 C   0  0  0  0  0
  -14.9340  -35.3330  -19.5640 C   0  0  0  0  0
  -14.4630  -34.9530  -20.8060 C   0  0  0  0  0
  -13.2690  -34.2420  -20.9150 C   0  0  0  0  0
  -12.5660  -33.9250  -19.8050 N   0  0  0  0  0
  -13.0600  -34.3250  -18.5620 N   0  0  0  0  0
  -12.8200  -33.8650  -22.1300 N   0  0  0  0  0
  -11.4320  -33.5160  -22.3460 C   0  0  0  0  0
  -11.2480  -31.9960  -22.2590 C   0  0  0  0  0
  -12.1630  -31.2950  -23.1080 O   0  0  0  0  0
  -10.9960  -34.1700  -23.6610 C   0  0  0  0  0
  -10.4040  -35.5350  -23.3420 C   0  0  0  0  0
  -10.0290  -33.3520  -24.5180 C   0  0  0  0  0
   -8.8552  -33.0036  -14.7553 H   0  0  0  0  0
  -10.8976  -34.3134  -15.2455 H   0  0  0  0  0
  -11.4073  -32.1623  -18.9263 H   0  0  0  0  0
   -9.3443  -30.8588  -18.4522 H   0  0  0  0  0
  -13.2561  -34.6894  -15.3338 H   0  0  0  0  0
  -15.8688  -35.8858  -19.4714 H   0  0  0  0  0
  -15.0265  -35.2098  -21.7030 H   0  0  0  0  0
  -13.4725  -33.8251  -22.9130 H   0  0  0  0  0
  -10.7717  -33.9009  -21.5689 H   0  0  0  0  0
  -10.2341  -31.7567  -22.5798 H   0  0  0  0  0
  -11.4344  -31.6887  -21.2300 H   0  0  0  0  0
  -12.0155  -30.3501  -23.0245 H   0  0  0  0  0
  -11.8913  -34.2487  -24.2778 H   0  0  0  0  0
   -9.5452  -35.4119  -22.6821 H   0  0  0  0  0
  -11.1571  -36.1501  -22.8494 H   0  0  0  0  0
  -10.0871  -36.0173  -24.2667 H   0  0  0  0  0
  -10.4960  -32.4045  -24.7866 H   0  0  0  0  0
   -9.1167  -33.1615  -23.9528 H   0  0  0  0  0
   -9.7875  -33.9090  -25.4232 H   0  0  0  0  0
  1  2  3  0  0  0
  2  3  1  0  0  0
  3  4  4  0  0  0
  3  8  4  0  0  0
  4  5  4  0  0  0
  5  6  4  0  0  0
  6  7  4  0  0  0
  6  9  1  0  0  0
  7  8  4  0  0  0
  9 10  4  0  0  0
  9 17  4  0  0  0
 10 11  4  0  0  0
 11 12  4  0  0  0
 12 13  4  0  0  0
 12 17  4  0  0  0
 13 14  4  0  0  0
 14 15  4  0  0  0
 15 16  4  0  0  0
 15 18  1  0  0  0
 16 17  4  0  0  0
 18 19  1  0  0  0
 19 20  1  0  0  0
 19 22  1  0  0  0
 20 21  1  0  0  0
 22 23  1  0  0  0
 22 24  1  0  0  0
  4 25  1  0  0  0
  5 26  1  0  0  0
  7 27  1  0  0  0
  8 28  1  0  0  0
 10 29  1  0  0  0
 13 30  1  0  0  0
 14 31  1  0  0  0
 18 32  1  0  0  0
 19 33  1  0  0  0
 20 34  1  0  0  0
 20 35  1  0  0  0
 21 36  1  0  0  0
 22 37  1  0  0  0
 23 38  1  0  0  0
 23 39  1  0  0  0
 23 40  1  0  0  0
 24 41  1  0  0  0
 24 42  1  0  0  0
 24 43  1  0  0  0
M  END
$$$$
