3t2q_ligand
  -I-interpret- 

 22 22  0  0  0  0  0  0  0  0999 V2000
  -11.9280  -27.2400  -25.5050 C   0  0  0  0  0
  -10.8350  -28.1550  -25.0040 C   0  0  0  0  0
  -10.0170  -28.7070  -26.1670 C   0  0  0  0  0
  -10.9060  -29.1120  -27.3420 C   0  0  0  0  0
  -11.7940  -27.9640  -27.8250 C   0  0  0  0  0
  -12.7100  -28.3930  -28.9700 C   0  0  0  0  0
  -12.2640  -26.2620  -24.8630 O   0  0  0  0  0
   -9.9570  -27.4860  -24.0850 O   0  0  0  0  0
   -9.2660  -29.8330  -25.6960 O   0  0  0  0  0
  -11.7350  -30.2020  -26.9470 O   0  0  0  0  0
  -12.6280  -27.5010  -26.7590 O   0  0  0  0  0
  -11.9660  -28.9120  -30.0820 O   0  0  0  0  0
  -11.3252  -28.9749  -24.4790 H   0  0  0  0  0
   -9.3460  -27.9289  -26.5309 H   0  0  0  0  0
  -10.2511  -29.3950  -28.1661 H   0  0  0  0  0
  -11.1243  -27.1769  -28.1715 H   0  0  0  0  0
  -13.2673  -27.5196  -29.3085 H   0  0  0  0  0
  -13.3713  -29.1783  -28.6038 H   0  0  0  0  0
  -10.4688  -27.1372  -23.3515 H   0  0  0  0  0
   -8.7136  -29.5621  -24.9591 H   0  0  0  0  0
  -11.1846  -30.9271  -26.6423 H   0  0  0  0  0
  -12.5732  -29.1702  -30.7793 H   0  0  0  0  0
  1  2  1  0  0  0
  1  7  2  0  0  0
  1 11  1  0  0  0
  2  3  1  0  0  0
  2  8  1  0  0  0
  3  4  1  0  0  0
  3  9  1  0  0  0
  4  5  1  0  0  0
  4 10  1  0  0  0
  5  6  1  0  0  0
  5 11  1  0  0  0
  6 12  1  0  0  0
  2 13  1  0  0  0
  3 14  1  0  0  0
  4 15  1  0  0  0
  5 16  1  0  0  0
  6 17  1  0  0  0
  6 18  1  0  0  0
  8 19  1  0  0  0
  9 20  1  0  0  0
 10 21  1  0  0  0
 12 22  1  0  0  0
M  END
$$$$
