6fr2_ligand
  -I-interpret- 

 63 65  0  0  0  0  0  0  0  0999 V2000
  -10.5200  -30.2570  -33.8200 C   0  0  0  0  0
   -9.6250  -33.2370  -35.2680 C   0  0  0  0  0
  -10.9830  -33.1240  -34.6140 C   0  0  0  0  0
  -12.5720  -27.3630  -35.5640 C   0  0  0  0  0
  -15.9290  -24.3690  -39.0540 C   0  0  0  0  0
  -18.0220  -24.6960  -37.6780 C   0  0  0  0  0
  -20.2050  -24.0380  -38.4300 C   0  0  0  0  0
  -22.3060  -24.7830  -37.5520 C   0  0  0  0  0
  -14.0570  -25.2010  -37.5750 C   0  0  0  0  0
  -12.1670  -25.9750  -36.0510 C   0  0  0  0  0
  -11.3580  -25.3550  -34.9140 C   0  0  0  0  0
  -10.1640  -26.1940  -34.5900 C   0  0  0  0  0
  -11.4360  -28.2060  -35.0480 C   0  0  0  0  0
  -11.7460  -29.4880  -34.3500 C   0  0  0  0  0
   -9.8950  -33.4490  -36.7450 C   0  0  0  0  0
   -9.2700  -29.4340  -35.7680 C   0  0  0  0  0
  -10.4690  -28.5880  -36.1330 C   0  0  0  0  0
  -17.3970  -24.2590  -38.8220 C   0  0  0  0  0
  -19.3980  -24.5970  -37.4620 C   0  0  0  0  0
  -19.6150  -23.5930  -39.5700 C   0  0  0  0  0
  -18.2460  -23.7030  -39.7370 C   0  0  0  0  0
  -22.2030  -26.0090  -37.9880 F   0  0  0  0  0
  -23.5830  -24.4070  -37.6280 F   0  0  0  0  0
  -22.0800  -24.8490  -36.2540 F   0  0  0  0  0
  -13.2780  -25.1400  -36.4330 N   0  0  0  0  0
   -9.4490  -30.5600  -34.8110 N   0  0  0  0  0
  -15.0910  -24.3340  -37.8820 N   0  0  0  0  0
  -13.7920  -26.0840  -38.3680 O   0  0  0  0  0
  -10.5010  -27.4880  -34.3330 O   0  0  0  0  0
   -7.7580  -31.8220  -36.0200 O   0  0  0  0  0
   -7.9540  -32.1730  -33.7020 O   0  0  0  0  0
  -21.5510  -23.8910  -38.2630 O   0  0  0  0  0
   -8.6050  -31.9590  -34.9230 S   0  0  0  0  0
  -10.8935  -31.2207  -33.4737 H   0  0  0  0  0
  -10.0627  -29.6156  -33.0666 H   0  0  0  0  0
   -9.0636  -34.0797  -34.8646 H   0  0  0  0  0
  -10.8616  -33.0879  -33.5314 H   0  0  0  0  0
  -11.4751  -32.2136  -34.9563 H   0  0  0  0  0
  -11.5882  -33.9893  -34.8844 H   0  0  0  0  0
  -12.9934  -27.8890  -36.4207 H   0  0  0  0  0
  -13.2623  -27.2184  -34.7329 H   0  0  0  0  0
  -15.6509  -23.5006  -39.6512 H   0  0  0  0  0
  -15.7672  -25.3443  -39.5129 H   0  0  0  0  0
  -17.4093  -25.1447  -36.8961 H   0  0  0  0  0
  -11.5852  -26.0619  -36.9686 H   0  0  0  0  0
  -11.9907  -25.2890  -34.0289 H   0  0  0  0  0
  -11.0184  -24.3666  -35.2237 H   0  0  0  0  0
   -9.6915  -25.7824  -33.6981 H   0  0  0  0  0
   -9.4961  -26.1815  -35.4513 H   0  0  0  0  0
  -12.3558  -29.2338  -33.4830 H   0  0  0  0  0
  -12.2297  -30.1348  -35.0820 H   0  0  0  0  0
  -10.3576  -32.5538  -37.1606 H   0  0  0  0  0
   -8.9550  -33.6464  -37.2602 H   0  0  0  0  0
  -10.5659  -34.2986  -36.8721 H   0  0  0  0  0
   -8.5825  -28.7491  -35.2717 H   0  0  0  0  0
   -8.9622  -29.9042  -36.7019 H   0  0  0  0  0
  -10.0540  -27.6451  -36.4890 H   0  0  0  0  0
  -11.0469  -29.1982  -36.8271 H   0  0  0  0  0
  -19.8328  -24.9606  -36.5309 H   0  0  0  0  0
  -20.2232  -23.1471  -40.3570 H   0  0  0  0  0
  -17.8151  -23.3198  -40.6620 H   0  0  0  0  0
  -13.5235  -24.4037  -35.7712 H   0  0  0  0  0
  -15.2799  -23.5922  -37.2079 H   0  0  0  0  0
  1 14  1  0  0  0
 26  1  1  0  0  0
  2  3  1  0  0  0
  2 15  1  0  0  0
 33  2  1  0  0  0
  4 10  1  0  0  0
 13  4  1  0  0  0
  5 18  1  0  0  0
 27  5  1  0  0  0
 18  6  4  0  0  0
  6 19  4  0  0  0
 19  7  4  0  0  0
 20  7  4  0  0  0
  7 32  1  0  0  0
  8 22  1  0  0  0
  8 23  1  0  0  0
  8 24  1  0  0  0
 32  8  1  0  0  0
 25  9  1  0  0  0
  9 27  1  0  0  0
  9 28  2  0  0  0
 10 11  1  0  0  0
 10 25  1  0  0  0
 12 11  1  0  0  0
 29 12  1  0  0  0
 14 13  1  0  0  0
 17 13  1  0  0  0
 13 29  1  0  0  0
 16 17  1  0  0  0
 26 16  1  0  0  0
 18 21  4  0  0  0
 21 20  4  0  0  0
 26 33  1  0  0  0
 33 30  2  0  0  0
 33 31  2  0  0  0
  1 34  1  0  0  0
  1 35  1  0  0  0
  2 36  1  0  0  0
  3 37  1  0  0  0
  3 38  1  0  0  0
  3 39  1  0  0  0
  4 40  1  0  0  0
  4 41  1  0  0  0
  5 42  1  0  0  0
  5 43  1  0  0  0
  6 44  1  0  0  0
 10 45  1  0  0  0
 11 46  1  0  0  0
 11 47  1  0  0  0
 12 48  1  0  0  0
 12 49  1  0  0  0
 14 50  1  0  0  0
 14 51  1  0  0  0
 15 52  1  0  0  0
 15 53  1  0  0  0
 15 54  1  0  0  0
 16 55  1  0  0  0
 16 56  1  0  0  0
 17 57  1  0  0  0
 17 58  1  0  0  0
 19 59  1  0  0  0
 20 60  1  0  0  0
 21 61  1  0  0  0
 25 62  1  0  0  0
 27 63  1  0  0  0
M  END
$$$$
