### 
### Created by X-TOOL on Sun Sep  9 21:52:01 2018
### 

@<TRIPOS>MOLECULE
3u2q_ligand
  153   162     1     0     0
SMALL
GAST_HUCK


@<TRIPOS>ATOM
      1 CA         53.3820  -29.5150   -8.0740 C.ar      1 NON         0.0494
      2 C          53.4330  -29.9290   -9.4930 C.2       1 NON         0.1217
      3 CB         54.2620  -30.1270   -7.1170 C.ar      1 NON        -0.0305
      4 N          53.2990  -29.1370  -10.5580 N.2       1 NON        -0.2910
      5 CA         53.3720  -29.8970  -11.7570 C.2       1 NON         0.1006
      6 C          53.2320  -29.2990  -13.0750 C.2       1 NON         0.2062
      7 O          53.0590  -29.9700  -14.1040 O.2       1 NON        -0.3913
      8 CB         53.5620  -31.2410  -11.5420 C.2       1 NON         0.0404
      9 SG         53.6430  -31.5910   -9.8700 S.3       1 NON         0.0079
     10 N          53.2690  -27.9760  -13.0830 N.am      1 NON        -0.2655
     11 CA         53.1190  -27.0990  -14.2460 C.3       1 NON         0.1244
     12 C          54.3390  -26.2370  -14.5060 C.2       1 NON         0.1163
     13 CB         51.9120  -26.1510  -14.1150 C.3       1 NON         0.0759
     14 CG         51.8790  -25.2300  -12.8660 C.2       1 NON         0.1807
     15 OD1        52.6950  -25.4010  -11.9640 O.2       1 NON        -0.3968
     16 ND2        50.9540  -24.2630  -12.8020 N.am      1 NON        -0.2898
     17 CE2        50.7500  -23.2910  -11.7180 C.3       1 NON         0.0196
     18 N          54.3320  -25.2010  -15.3590 N.2       1 NON        -0.3187
     19 CA         55.5610  -24.5090  -15.4520 C.2       1 NON         0.0784
     20 C          55.6520  -23.2920  -16.3900 C.2       1 NON         0.1884
     21 O          56.6400  -22.5640  -16.5020 O.2       1 NON        -0.4017
     22 CB         56.5340  -25.0590  -14.6200 C.2       1 NON         0.0487
     23 SG         55.8850  -26.4540  -13.7340 S.3       1 NON         0.0154
     24 CD         57.9780  -24.6590  -14.3790 C.3       1 NON        -0.0129
     25 N          54.4920  -23.0680  -17.1020 N.am      1 NON        -0.2708
     26 CA         54.1470  -22.0570  -18.0640 C.3       1 NON         0.1095
     27 C          52.6750  -21.7760  -17.8420 C.2       1 NON         0.1142
     28 CB         54.4500  -22.5120  -19.5650 C.3       1 NON        -0.0079
     29 CG1        54.0670  -21.4520  -20.6220 C.3       1 NON        -0.0581
     30 CG2        55.9350  -22.8070  -19.8170 C.3       1 NON        -0.0581
     31 N          51.7380  -22.7170  -17.7900 N.2       1 NON        -0.3187
     32 CA         50.4460  -22.2560  -17.5620 C.2       1 NON         0.0809
     33 C          49.2740  -23.1560  -17.4600 C.2       1 NON         0.1879
     34 O          48.0760  -22.8360  -17.5390 O.2       1 NON        -0.4018
     35 CB         50.3670  -20.8850  -17.4250 C.2       1 NON         0.0774
     36 SG         51.9560  -20.1580  -17.6040 S.3       1 NON         0.0178
     37 CB1        49.1500  -20.0900  -17.1580 C.3       1 NON         0.0990
     38 OB2        49.4380  -18.7160  -17.0570 O.3       1 NON        -0.3668
     39 CB3        48.1700  -18.0170  -16.7760 C.3       1 NON         0.0397
     40 N          49.6940  -24.4050  -17.2490 N.am      1 NON        -0.2728
     41 CA         48.8140  -25.5600  -17.0780 C.3       1 NON         0.1189
     42 C          48.3280  -25.5320  -15.6480 C.2       1 NON         0.2014
     43 O          48.5790  -24.6130  -14.8550 O.2       1 NON        -0.3946
     44 N          47.6120  -26.5480  -15.2580 N.am      1 NON        -0.2592
     45 CA         47.0710  -26.7030  -13.9420 C.3       1 NON         0.1483
     46 C          48.0680  -27.4830  -13.0970 C.2       1 NON         0.1268
     47 CB         45.6390  -27.3280  -14.0140 C.3       1 NON         0.1287
     48 OB         45.3200  -27.9750  -12.7920 O.3       1 NON        -0.3739
     49 CG         44.5580  -26.3230  -14.3030 C.ar      1 NON        -0.0097
     50 CD1        43.5340  -26.6220  -15.2770 C.ar      1 NON        -0.0576
     51 CE1        42.5170  -25.6630  -15.5480 C.ar      1 NON        -0.0685
     52 CZ         42.5090  -24.4120  -14.8590 C.ar      1 NON        -0.0687
     53 CE2        43.5160  -24.1030  -13.8890 C.ar      1 NON        -0.0685
     54 CD2        44.5360  -25.0500  -13.6100 C.ar      1 NON        -0.0576
     55 N          48.6510  -27.0110  -12.0270 N.2       1 NON        -0.3069
     56 CA         49.4930  -27.9330  -11.4160 C.2       1 NON         0.0578
     57 C          50.1680  -27.5440  -10.2370 C.2       1 NON         0.1096
     58 CB         49.5610  -29.1440  -12.0410 C.2       1 NON         0.0301
     59 SG         48.5460  -29.1620  -13.4520 S.3       1 NON         0.0120
     60 N          50.9710  -28.3530   -9.5670 N.2       1 NON        -0.3081
     61 CA         51.5220  -27.7680   -8.4470 C.2       1 NON         0.0473
     62 C          52.4750  -28.5060   -7.5790 C.ar      1 NON         0.0635
     63 CB         51.1090  -26.4630   -8.2820 C.2       1 NON         0.0296
     64 SG         50.0170  -25.9610   -9.5360 S.3       1 NON         0.0015
     65 N          52.4420  -28.1470   -6.3020 N.ar      1 NON        -0.2850
     66 CA         53.2510  -28.6810   -5.3620 C.ar      1 NON         0.0824
     67 C          53.1850  -28.2170   -3.9780 C.2       1 NON         0.1234
     68 CB         54.2040  -29.7080   -5.7480 C.ar      1 NON        -0.0232
     69 N          53.9630  -28.6510   -3.0180 N.2       1 NON        -0.2742
     70 O8         54.3870  -26.2290    0.5440 O.2       1 NON        -0.3688
     71 O9         55.6010  -28.0360    1.3530 O.3       1 NON        -0.2563
     72 CA         53.7250  -28.0380   -1.8040 C.2       1 NON         0.1196
     73 CB         52.7150  -27.1140   -1.8870 C.2       1 NON         0.0218
     74 SG         52.0390  -26.9820   -3.4860 S.3       1 NON        -0.0259
     75 O10        58.2630  -26.2200    6.5270 O.co2     1 NON        -0.5687
     76 O11        56.7140  -24.7600    7.3050 O.co2     1 NON        -0.5687
     77 O12        58.2370  -33.9460   -1.1210 O.co2     1 NON        -0.5690
     78 N13        54.4900  -28.3640   -0.6380 N.am      1 NON        -0.1955
     79 O13        60.2130  -33.0570   -1.7050 O.co2     1 NON        -0.5690
     80 C48        54.7630  -27.4060    0.4300 C.2       1 NON         0.3488
     81 C49        54.9730  -29.8120   -0.6060 C.3       1 NON         0.0550
     82 C50        56.4420  -29.9330   -0.9860 C.3       1 NON        -0.0266
     83 C51        56.9340  -31.3730   -0.9780 C.3       1 NON        -0.0392
     84 C52        57.3170  -25.5990    3.7970 C.3       1 NON        -0.0359
     85 C53        56.7280  -26.0250    2.4380 C.3       1 NON        -0.0205
     86 C54        56.1500  -27.4700    2.5580 C.3       1 NON         0.0888
     87 C55        55.0660  -27.5290    3.6660 C.3       1 NON        -0.0205
     88 C56        55.6570  -27.1440    5.0480 C.3       1 NON        -0.0359
     89 C57        56.3900  -25.7450    5.0950 C.3       1 NON         0.0120
     90 C58        57.2180  -25.6000    6.3780 C.2       1 NON         0.0379
     91 C59        58.4230  -31.5080   -1.3600 C.3       1 NON         0.0003
     92 C60        58.9150  -32.9660   -1.3730 C.2       1 NON         0.0348
     93 H1         54.9607  -30.8957   -7.4267 H         1 NON         0.0750
     94 H2         53.6495  -31.9851  -12.3323 H         1 NON         0.0906
     95 H3         53.4149  -27.5277  -12.2011 H         1 NON         0.1880
     96 H4         52.9602  -27.7445  -15.1224 H         1 NON         0.0825
     97 H5         51.0029  -26.7700  -14.0963 H         1 NON         0.0556
     98 H6         51.8977  -25.5052  -15.0053 H         1 NON         0.0556
     99 H7         50.3307  -24.1945  -13.5810 H         1 NON         0.1847
    100 H8         49.9073  -22.6309  -11.9712 H         1 NON         0.0484
    101 H9         51.6615  -22.6888  -11.5891 H         1 NON         0.0484
    102 H10        50.5285  -23.8259  -10.7827 H         1 NON         0.0484
    103 H11        58.4297  -25.3413  -13.6439 H         1 NON         0.0436
    104 H12        58.0139  -23.6293  -13.9938 H         1 NON         0.0436
    105 H13        58.5371  -24.7165  -15.3245 H         1 NON         0.0436
    106 H14        53.7617  -23.7253  -16.9160 H         1 NON         0.1871
    107 H15        54.7287  -21.1460  -17.8599 H         1 NON         0.0801
    108 H16        53.8680  -23.4264  -19.7524 H         1 NON         0.0347
    109 H17        54.3031  -21.8337  -21.6263 H         1 NON         0.0235
    110 H18        54.6354  -20.5284  -20.4378 H         1 NON         0.0235
    111 H19        52.9899  -21.2393  -20.5545 H         1 NON         0.0235
    112 H20        56.2864  -23.5606  -19.0969 H         1 NON         0.0235
    113 H21        56.5185  -21.8826  -19.6944 H         1 NON         0.0235
    114 H22        56.0644  -23.1893  -20.8403 H         1 NON         0.0235
    115 H23        48.7017  -20.4307  -16.2130 H         1 NON         0.0771
    116 H24        48.4354  -20.2450  -17.9798 H         1 NON         0.0771
    117 H25        48.3581  -16.9366  -16.6904 H         1 NON         0.0526
    118 H26        47.7462  -18.3913  -15.8324 H         1 NON         0.0526
    119 H27        47.4600  -18.2017  -17.5956 H         1 NON         0.0526
    120 H28        50.6806  -24.5621  -17.2047 H         1 NON         0.1861
    121 H29        49.3685  -26.4902  -17.2711 H         1 NON         0.0762
    122 H30        47.9609  -25.4915  -17.7690 H         1 NON         0.0762
    123 H31        47.4274  -27.2701  -15.9247 H         1 NON         0.1895
    124 H32        46.9661  -25.7053  -13.4909 H         1 NON         0.0869
    125 H33        45.6393  -28.0744  -14.8220 H         1 NON         0.0814
    126 H34        45.9515  -28.6651  -12.6261 H         1 NON         0.2134
    127 H35        43.5398  -27.5720  -15.7991 H         1 NON         0.0558
    128 H36        41.7472  -25.8829  -16.2788 H         1 NON         0.0599
    129 H37        41.7313  -23.6878  -15.0729 H         1 NON         0.0559
    130 H38        43.4995  -23.1511  -13.3706 H         1 NON         0.0599
    131 H39        45.3006  -24.8206  -12.8767 H         1 NON         0.0558
    132 H40        50.1672  -29.9830  -11.7027 H         1 NON         0.0825
    133 H41        51.4297  -25.8223   -7.4619 H         1 NON         0.0857
    134 H42        54.8625  -30.1513   -5.0098 H         1 NON         0.0708
    135 H43        52.3710  -26.5232   -1.0393 H         1 NON         0.0501
    136 H44        54.3734  -30.4019   -1.3148 H         1 NON         0.0578
    137 H45        54.8355  -30.2096    0.4103 H         1 NON         0.0578
    138 H46        57.0402  -29.3528   -0.2680 H         1 NON         0.0290
    139 H47        56.5794  -29.5198   -1.9961 H         1 NON         0.0290
    140 H48        56.3348  -31.9513   -1.6966 H         1 NON         0.0284
    141 H49        56.7934  -31.7851    0.0322 H         1 NON         0.0284
    142 H50        57.5993  -24.5391    3.7138 H         1 NON         0.0286
    143 H51        58.2181  -26.2062    3.9682 H         1 NON         0.0286
    144 H52        57.5182  -26.0075    1.6730 H         1 NON         0.0295
    145 H53        55.9247  -25.3303    2.1514 H         1 NON         0.0295
    146 H54        56.9855  -28.1169    2.8636 H         1 NON         0.0648
    147 H55        54.6629  -28.5511    3.7200 H         1 NON         0.0295
    148 H56        54.2564  -26.8283    3.4140 H         1 NON         0.0295
    149 H57        56.3823  -27.9190    5.3368 H         1 NON         0.0286
    150 H58        54.8337  -27.1224    5.7771 H         1 NON         0.0286
    151 H59        55.6319  -24.9481    5.0800 H         1 NON         0.0466
    152 H60        59.0235  -30.9428   -0.6320 H         1 NON         0.0430
    153 H61        58.5666  -31.0815   -2.3637 H         1 NON         0.0430
@<TRIPOS>BOND
     1    1    2 1  
     2    3    1 ar 
     3   62    1 ar 
     4    2    4 2  
     5    2    9 1  
     6   68    3 ar 
     7    4    5 1  
     8    5    6 1  
     9    8    5 2  
    10    6    7 2  
    11    6   10 am 
    12    9    8 1  
    13   10   11 1  
    14   11   12 1  
    15   11   13 1  
    16   12   18 2  
    17   12   23 1  
    18   13   14 1  
    19   14   15 2  
    20   14   16 am 
    21   16   17 1  
    22   18   19 1  
    23   19   20 1  
    24   22   19 2  
    25   20   21 2  
    26   20   25 am 
    27   23   22 1  
    28   22   24 1  
    29   25   26 1  
    30   26   27 1  
    31   26   28 1  
    32   27   31 2  
    33   27   36 1  
    34   28   29 1  
    35   28   30 1  
    36   32   31 1  
    37   33   32 1  
    38   32   35 2  
    39   33   34 2  
    40   40   33 am 
    41   35   36 1  
    42   35   37 1  
    43   37   38 1  
    44   38   39 1  
    45   41   40 1  
    46   42   41 1  
    47   42   43 2  
    48   44   42 am 
    49   45   44 1  
    50   46   45 1  
    51   45   47 1  
    52   55   46 2  
    53   59   46 1  
    54   47   48 1  
    55   47   49 1  
    56   49   50 ar 
    57   49   54 ar 
    58   50   51 ar 
    59   51   52 ar 
    60   53   52 ar 
    61   54   53 ar 
    62   56   55 1  
    63   57   56 1  
    64   56   58 2  
    65   60   57 2  
    66   64   57 1  
    67   58   59 1  
    68   61   60 1  
    69   62   61 1  
    70   61   63 2  
    71   65   62 ar 
    72   63   64 1  
    73   66   65 ar 
    74   67   66 1  
    75   66   68 ar 
    76   69   67 2  
    77   74   67 1  
    78   72   69 1  
    79   80   70 2  
    80   80   71 1  
    81   71   86 1  
    82   72   73 2  
    83   78   72 1  
    84   73   74 1  
    85   90   75 ar 
    86   90   76 ar 
    87   92   77 ar 
    88   78   80 am 
    89   81   78 1  
    90   92   79 ar 
    91   82   81 1  
    92   83   82 1  
    93   91   83 1  
    94   85   84 1  
    95   84   89 1  
    96   86   85 1  
    97   86   87 1  
    98   87   88 1  
    99   88   89 1  
   100   89   90 1  
   101   91   92 1  
   102    3   93 1  
   103    8   94 1  
   104   10   95 1  
   105   11   96 1  
   106   13   97 1  
   107   13   98 1  
   108   16   99 1  
   109   17  100 1  
   110   17  101 1  
   111   17  102 1  
   112   24  103 1  
   113   24  104 1  
   114   24  105 1  
   115   25  106 1  
   116   26  107 1  
   117   28  108 1  
   118   29  109 1  
   119   29  110 1  
   120   29  111 1  
   121   30  112 1  
   122   30  113 1  
   123   30  114 1  
   124   37  115 1  
   125   37  116 1  
   126   39  117 1  
   127   39  118 1  
   128   39  119 1  
   129   40  120 1  
   130   41  121 1  
   131   41  122 1  
   132   44  123 1  
   133   45  124 1  
   134   47  125 1  
   135   48  126 1  
   136   50  127 1  
   137   51  128 1  
   138   52  129 1  
   139   53  130 1  
   140   54  131 1  
   141   58  132 1  
   142   63  133 1  
   143   68  134 1  
   144   73  135 1  
   145   81  136 1  
   146   81  137 1  
   147   82  138 1  
   148   82  139 1  
   149   83  140 1  
   150   83  141 1  
   151   84  142 1  
   152   84  143 1  
   153   85  144 1  
   154   85  145 1  
   155   86  146 1  
   156   87  147 1  
   157   87  148 1  
   158   88  149 1  
   159   88  150 1  
   160   89  151 1  
   161   91  152 1  
   162   91  153 1  
@<TRIPOS>SUBSTRUCTURE
     1 NON         1

