3u2q_ligand
  -I-interpret- 

155164  0  0  0  0  0  0  0  0999 V2000
   53.3820  -29.5150   -8.0740 C   0  0  0  0  0
   53.4330  -29.9290   -9.4930 C   0  0  0  0  0
   54.2620  -30.1270   -7.1170 C   0  0  0  0  0
   53.2990  -29.1370  -10.5580 N   0  0  0  0  0
   53.3720  -29.8970  -11.7570 C   0  0  0  0  0
   53.2320  -29.2990  -13.0750 C   0  0  0  0  0
   53.0590  -29.9700  -14.1040 O   0  0  0  0  0
   53.5620  -31.2410  -11.5420 C   0  0  0  0  0
   53.6430  -31.5910   -9.8700 S   0  0  0  0  0
   53.2690  -27.9760  -13.0830 N   0  0  0  0  0
   53.1190  -27.0990  -14.2460 C   0  0  0  0  0
   54.3390  -26.2370  -14.5060 C   0  0  0  0  0
   51.9120  -26.1510  -14.1150 C   0  0  0  0  0
   51.8790  -25.2300  -12.8660 C   0  0  0  0  0
   52.6950  -25.4010  -11.9640 O   0  0  0  0  0
   50.9540  -24.2630  -12.8020 N   0  0  0  0  0
   50.7500  -23.2910  -11.7180 C   0  0  0  0  0
   54.3320  -25.2010  -15.3590 N   0  0  0  0  0
   55.5610  -24.5090  -15.4520 C   0  0  0  0  0
   55.6520  -23.2920  -16.3900 C   0  0  0  0  0
   56.6400  -22.5640  -16.5020 O   0  0  0  0  0
   56.5340  -25.0590  -14.6200 C   0  0  0  0  0
   55.8850  -26.4540  -13.7340 S   0  0  0  0  0
   57.9780  -24.6590  -14.3790 C   0  0  0  0  0
   54.4920  -23.0680  -17.1020 N   0  0  0  0  0
   54.1470  -22.0570  -18.0640 C   0  0  0  0  0
   52.6750  -21.7760  -17.8420 C   0  0  0  0  0
   54.4500  -22.5120  -19.5650 C   0  0  0  0  0
   54.0670  -21.4520  -20.6220 C   0  0  0  0  0
   55.9350  -22.8070  -19.8170 C   0  0  0  0  0
   51.7380  -22.7170  -17.7900 N   0  0  0  0  0
   50.4460  -22.2560  -17.5620 C   0  0  0  0  0
   49.2740  -23.1560  -17.4600 C   0  0  0  0  0
   48.0760  -22.8360  -17.5390 O   0  0  0  0  0
   50.3670  -20.8850  -17.4250 C   0  0  0  0  0
   51.9560  -20.1580  -17.6040 S   0  0  0  0  0
   49.1500  -20.0900  -17.1580 C   0  0  0  0  0
   49.4380  -18.7160  -17.0570 O   0  0  0  0  0
   48.1700  -18.0170  -16.7760 C   0  0  0  0  0
   49.6940  -24.4050  -17.2490 N   0  0  0  0  0
   48.8140  -25.5600  -17.0780 C   0  0  0  0  0
   48.3280  -25.5320  -15.6480 C   0  0  0  0  0
   48.5790  -24.6130  -14.8550 O   0  0  0  0  0
   47.6120  -26.5480  -15.2580 N   0  0  0  0  0
   47.0710  -26.7030  -13.9420 C   0  0  0  0  0
   48.0680  -27.4830  -13.0970 C   0  0  0  0  0
   45.6390  -27.3280  -14.0140 C   0  0  0  0  0
   45.3200  -27.9750  -12.7920 O   0  0  0  0  0
   44.5580  -26.3230  -14.3030 C   0  0  0  0  0
   43.5340  -26.6220  -15.2770 C   0  0  0  0  0
   42.5170  -25.6630  -15.5480 C   0  0  0  0  0
   42.5090  -24.4120  -14.8590 C   0  0  0  0  0
   43.5160  -24.1030  -13.8890 C   0  0  0  0  0
   44.5360  -25.0500  -13.6100 C   0  0  0  0  0
   48.6510  -27.0110  -12.0270 N   0  0  0  0  0
   49.4930  -27.9330  -11.4160 C   0  0  0  0  0
   50.1680  -27.5440  -10.2370 C   0  0  0  0  0
   49.5610  -29.1440  -12.0410 C   0  0  0  0  0
   48.5460  -29.1620  -13.4520 S   0  0  0  0  0
   50.9710  -28.3530   -9.5670 N   0  0  0  0  0
   51.5220  -27.7680   -8.4470 C   0  0  0  0  0
   52.4750  -28.5060   -7.5790 C   0  0  0  0  0
   51.1090  -26.4630   -8.2820 C   0  0  0  0  0
   50.0170  -25.9610   -9.5360 S   0  0  0  0  0
   52.4420  -28.1470   -6.3020 N   0  0  0  0  0
   53.2510  -28.6810   -5.3620 C   0  0  0  0  0
   53.1850  -28.2170   -3.9780 C   0  0  0  0  0
   54.2040  -29.7080   -5.7480 C   0  0  0  0  0
   53.9630  -28.6510   -3.0180 N   0  0  0  0  0
   54.3870  -26.2290    0.5440 O   0  0  0  0  0
   55.6010  -28.0360    1.3530 O   0  0  0  0  0
   53.7250  -28.0380   -1.8040 C   0  0  0  0  0
   52.7150  -27.1140   -1.8870 C   0  0  0  0  0
   52.0390  -26.9820   -3.4860 S   0  0  0  0  0
   58.2630  -26.2200    6.5270 O   0  0  0  0  0
   56.7140  -24.7600    7.3050 O   0  0  0  0  0
   58.2370  -33.9460   -1.1210 O   0  0  0  0  0
   54.4900  -28.3640   -0.6380 N   0  0  0  0  0
   60.2130  -33.0570   -1.7050 O   0  0  0  0  0
   54.7630  -27.4060    0.4300 C   0  0  0  0  0
   54.9730  -29.8120   -0.6060 C   0  0  0  0  0
   56.4420  -29.9330   -0.9860 C   0  0  0  0  0
   56.9340  -31.3730   -0.9780 C   0  0  0  0  0
   57.3170  -25.5990    3.7970 C   0  0  0  0  0
   56.7280  -26.0250    2.4380 C   0  0  0  0  0
   56.1500  -27.4700    2.5580 C   0  0  0  0  0
   55.0660  -27.5290    3.6660 C   0  0  0  0  0
   55.6570  -27.1440    5.0480 C   0  0  0  0  0
   56.3900  -25.7450    5.0950 C   0  0  0  0  0
   57.2180  -25.6000    6.3780 C   0  0  0  0  0
   58.4230  -31.5080   -1.3600 C   0  0  0  0  0
   58.9150  -32.9660   -1.3730 C   0  0  0  0  0
   54.9646  -30.9000   -7.4285 H   0  0  0  0  0
   53.6495  -31.9858  -12.3330 H   0  0  0  0  0
   53.4178  -27.5187  -12.1835 H   0  0  0  0  0
   52.9738  -27.7872  -15.0787 H   0  0  0  0  0
   51.0342  -26.7925  -14.0375 H   0  0  0  0  0
   51.9589  -25.4854  -14.9769 H   0  0  0  0  0
   50.3183  -24.1931  -13.5966 H   0  0  0  0  0
   50.5307  -23.8223  -10.7918 H   0  0  0  0  0
   51.6538  -22.6950  -11.5912 H   0  0  0  0  0
   49.9148  -22.6376  -11.9701 H   0  0  0  0  0
   58.5309  -24.7164  -15.3166 H   0  0  0  0  0
   58.0122  -23.6385  -13.9974 H   0  0  0  0  0
   58.4244  -25.3358  -13.6505 H   0  0  0  0  0
   53.7471  -23.7385  -16.9123 H   0  0  0  0  0
   54.7521  -21.1610  -17.9257 H   0  0  0  0  0
   53.8396  -23.4089  -19.6702 H   0  0  0  0  0
   52.9996  -21.2421  -20.5540 H   0  0  0  0  0
   54.6308  -20.5374  -20.4384 H   0  0  0  0  0
   54.3014  -21.8313  -21.6166 H   0  0  0  0  0
   56.5211  -21.9096  -19.6188 H   0  0  0  0  0
   56.2620  -23.6095  -19.1558 H   0  0  0  0  0
   56.0728  -23.1106  -20.8547 H   0  0  0  0  0
   48.7234  -20.4221  -16.2115 H   0  0  0  0  0
   48.4560  -20.2356  -17.9858 H   0  0  0  0  0
   47.4674  -18.2008  -17.5888 H   0  0  0  0  0
   47.7511  -18.3888  -15.8409 H   0  0  0  0  0
   48.3577  -16.9466  -16.6914 H   0  0  0  0  0
   50.7003  -24.5652  -17.2038 H   0  0  0  0  0
   49.3472  -26.4873  -17.2875 H   0  0  0  0  0
   47.9754  -25.5140  -17.7728 H   0  0  0  0  0
   47.4238  -27.2846  -15.9380 H   0  0  0  0  0
   46.9303  -25.7403  -13.4506 H   0  0  0  0  0
   45.6714  -28.0364  -14.8418 H   0  0  0  0  0
   44.4396  -28.3530  -12.8517 H   0  0  0  0  0
   43.5398  -27.5772  -15.8020 H   0  0  0  0  0
   41.7429  -25.8841  -16.2829 H   0  0  0  0  0
   41.7270  -23.6838  -15.0741 H   0  0  0  0  0
   43.4994  -23.1459  -13.3677 H   0  0  0  0  0
   45.3048  -24.8193  -12.8726 H   0  0  0  0  0
   50.1678  -29.9838  -11.7024 H   0  0  0  0  0
   51.4300  -25.8217   -7.4611 H   0  0  0  0  0
   54.8661  -30.1538   -5.0057 H   0  0  0  0  0
   52.3706  -26.5227   -1.0386 H   0  0  0  0  0
   55.8920  -24.3841    6.9814 H   0  0  0  0  0
   60.5639  -32.1777   -1.8639 H   0  0  0  0  0
   54.3869  -30.3823   -1.3267 H   0  0  0  0  0
   54.8520  -30.1888    0.4096 H   0  0  0  0  0
   57.0245  -29.3762   -0.2520 H   0  0  0  0  0
   56.5590  -29.5450   -1.9979 H   0  0  0  0  0
   56.3520  -31.9253   -1.7159 H   0  0  0  0  0
   56.8166  -31.7568    0.0354 H   0  0  0  0  0
   57.5190  -24.5320    3.7037 H   0  0  0  0  0
   58.1624  -26.2654    3.9682 H   0  0  0  0  0
   57.5099  -26.0061    1.6788 H   0  0  0  0  0
   55.9331  -25.3361    2.1522 H   0  0  0  0  0
   57.0214  -28.0773    2.8028 H   0  0  0  0  0
   54.6810  -28.5472    3.7230 H   0  0  0  0  0
   54.2741  -26.8228    3.4167 H   0  0  0  0  0
   56.4044  -27.8990    5.2918 H   0  0  0  0  0
   54.8192  -27.0836    5.7426 H   0  0  0  0  0
   55.6453  -24.9491    5.0992 H   0  0  0  0  0
   59.0060  -30.9690   -0.6132 H   0  0  0  0  0
   58.5432  -31.1096   -2.3674 H   0  0  0  0  0
  1  2  1  0  0  0
  3  1  4  0  0  0
 62  1  4  0  0  0
  2  4  4  0  0  0
  2  9  4  0  0  0
 68  3  4  0  0  0
  4  5  4  0  0  0
  5  6  1  0  0  0
  8  5  4  0  0  0
  6  7  2  0  0  0
  6 10  1  0  0  0
  9  8  4  0  0  0
 10 11  1  0  0  0
 11 12  1  0  0  0
 11 13  1  0  0  0
 12 18  4  0  0  0
 12 23  4  0  0  0
 13 14  1  0  0  0
 14 15  2  0  0  0
 14 16  1  0  0  0
 16 17  1  0  0  0
 18 19  4  0  0  0
 19 20  1  0  0  0
 22 19  4  0  0  0
 20 21  2  0  0  0
 20 25  1  0  0  0
 23 22  4  0  0  0
 22 24  1  0  0  0
 25 26  1  0  0  0
 26 27  1  0  0  0
 26 28  1  0  0  0
 27 31  4  0  0  0
 27 36  4  0  0  0
 28 29  1  0  0  0
 28 30  1  0  0  0
 32 31  4  0  0  0
 33 32  1  0  0  0
 32 35  4  0  0  0
 33 34  2  0  0  0
 40 33  1  0  0  0
 35 36  4  0  0  0
 35 37  1  0  0  0
 37 38  1  0  0  0
 38 39  1  0  0  0
 41 40  1  0  0  0
 42 41  1  0  0  0
 42 43  2  0  0  0
 44 42  1  0  0  0
 45 44  1  0  0  0
 46 45  1  0  0  0
 45 47  1  0  0  0
 55 46  4  0  0  0
 59 46  4  0  0  0
 47 48  1  0  0  0
 47 49  1  0  0  0
 49 50  4  0  0  0
 49 54  4  0  0  0
 50 51  4  0  0  0
 51 52  4  0  0  0
 53 52  4  0  0  0
 54 53  4  0  0  0
 56 55  4  0  0  0
 57 56  1  0  0  0
 56 58  4  0  0  0
 60 57  4  0  0  0
 64 57  4  0  0  0
 58 59  4  0  0  0
 61 60  4  0  0  0
 62 61  1  0  0  0
 61 63  4  0  0  0
 65 62  4  0  0  0
 63 64  4  0  0  0
 66 65  4  0  0  0
 67 66  1  0  0  0
 66 68  4  0  0  0
 69 67  4  0  0  0
 74 67  4  0  0  0
 72 69  4  0  0  0
 80 70  2  0  0  0
 80 71  1  0  0  0
 71 86  1  0  0  0
 72 73  4  0  0  0
 78 72  1  0  0  0
 73 74  4  0  0  0
 90 75  2  0  0  0
 90 76  1  0  0  0
 92 77  2  0  0  0
 78 80  1  0  0  0
 81 78  1  0  0  0
 92 79  1  0  0  0
 82 81  1  0  0  0
 83 82  1  0  0  0
 91 83  1  0  0  0
 85 84  1  0  0  0
 84 89  1  0  0  0
 86 85  1  0  0  0
 86 87  1  0  0  0
 87 88  1  0  0  0
 88 89  1  0  0  0
 89 90  1  0  0  0
 91 92  1  0  0  0
  3 93  1  0  0  0
  8 94  1  0  0  0
 10 95  1  0  0  0
 11 96  1  0  0  0
 13 97  1  0  0  0
 13 98  1  0  0  0
 16 99  1  0  0  0
 17100  1  0  0  0
 17101  1  0  0  0
 17102  1  0  0  0
 24103  1  0  0  0
 24104  1  0  0  0
 24105  1  0  0  0
 25106  1  0  0  0
 26107  1  0  0  0
 28108  1  0  0  0
 29109  1  0  0  0
 29110  1  0  0  0
 29111  1  0  0  0
 30112  1  0  0  0
 30113  1  0  0  0
 30114  1  0  0  0
 37115  1  0  0  0
 37116  1  0  0  0
 39117  1  0  0  0
 39118  1  0  0  0
 39119  1  0  0  0
 40120  1  0  0  0
 41121  1  0  0  0
 41122  1  0  0  0
 44123  1  0  0  0
 45124  1  0  0  0
 47125  1  0  0  0
 48126  1  0  0  0
 50127  1  0  0  0
 51128  1  0  0  0
 52129  1  0  0  0
 53130  1  0  0  0
 54131  1  0  0  0
 58132  1  0  0  0
 63133  1  0  0  0
 68134  1  0  0  0
 73135  1  0  0  0
 76136  1  0  0  0
 79137  1  0  0  0
 81138  1  0  0  0
 81139  1  0  0  0
 82140  1  0  0  0
 82141  1  0  0  0
 83142  1  0  0  0
 83143  1  0  0  0
 84144  1  0  0  0
 84145  1  0  0  0
 85146  1  0  0  0
 85147  1  0  0  0
 86148  1  0  0  0
 87149  1  0  0  0
 87150  1  0  0  0
 88151  1  0  0  0
 88152  1  0  0  0
 89153  1  0  0  0
 91154  1  0  0  0
 91155  1  0  0  0
M  END
$$$$
