5am3_ligand
  -I-interpret- 

 62 66  0  0  0  0  0  0  0  0999 V2000
   16.4150    9.7490    7.9100 C   0  0  0  0  0
   18.0460    8.0120    7.5270 C   0  0  0  0  0
   16.8580    9.8700    9.2120 C   0  0  0  0  0
   18.4820    8.1450    8.8310 C   0  0  0  0  0
   17.0110    8.8180    7.0830 C   0  0  0  0  0
   17.8880    9.0680    9.6740 C   0  0  0  0  0
   16.5140    8.7070    5.7010 C   0  0  0  0  0
   15.8700   10.8440   16.8470 C   0  0  0  0  0
   15.9970   10.2710   13.6170 C   0  0  0  0  0
   18.3090   11.1060   14.1090 C   0  0  0  0  0
   16.5620    9.3420   12.5580 C   0  0  0  0  0
   18.8420   10.2600   12.9650 C   0  0  0  0  0
   13.2280   10.0250   20.9470 C   0  0  0  0  0
   13.8060   12.3920   21.5130 C   0  0  0  0  0
   11.7760   11.9090   20.1420 C   0  0  0  0  0
   15.2240   11.1510   19.8800 C   0  0  0  0  0
   13.1690   10.6250   18.5230 C   0  0  0  0  0
   13.7800   13.0170   19.1000 C   0  0  0  0  0
   14.3800   11.0140   21.1620 C   0  0  0  0  0
   12.3270   10.5080   19.7980 C   0  0  0  0  0
   12.9270   12.9110   20.3730 C   0  0  0  0  0
   17.0320   10.5110   14.7020 C   0  0  0  0  0
   17.7780    9.9860   11.9010 C   0  0  0  0  0
   14.3370   11.6320   18.7100 C   0  0  0  0  0
   16.5020   11.3520   15.7420 N   0  0  0  0  0
   15.0630   11.7890   17.4560 N   0  0  0  0  0
   15.5440    9.3050    5.2560 O   0  0  0  0  0
   16.0280    9.6970   17.2380 O   0  0  0  0  0
   17.3010    7.8470    5.0140 O   0  0  0  0  0
   18.3950    9.0880   10.9710 O   0  0  0  0  0
   15.6063   10.3795    7.5403 H   0  0  0  0  0
   18.5085    7.2853    6.8591 H   0  0  0  0  0
   16.3958   10.5987    9.8780 H   0  0  0  0  0
   19.2969    7.5207    9.1974 H   0  0  0  0  0
   15.1120    9.8141   14.0600 H   0  0  0  0  0
   15.7333   11.2227   13.1557 H   0  0  0  0  0
   18.0794   12.0997   13.7243 H   0  0  0  0  0
   19.0669   11.1435   14.8915 H   0  0  0  0  0
   15.8009    9.1537   11.8008 H   0  0  0  0  0
   16.8596    8.4028   13.0243 H   0  0  0  0  0
   19.1653    9.3029   13.3743 H   0  0  0  0  0
   19.6593   10.8055   12.4933 H   0  0  0  0  0
   12.6381    9.9577   21.8611 H   0  0  0  0  0
   13.6376    9.0470   20.6944 H   0  0  0  0  0
   14.6289   13.0890   21.6719 H   0  0  0  0  0
   13.2013   12.3048   22.4157 H   0  0  0  0  0
   11.1836   11.8387   21.0543 H   0  0  0  0  0
   11.1666   12.2605   19.3094 H   0  0  0  0  0
   15.6531   10.1811   19.6286 H   0  0  0  0  0
   16.0177   11.8785   20.0500 H   0  0  0  0  0
   12.5292   10.9810   17.7155 H   0  0  0  0  0
   13.5882    9.6456   18.2923 H   0  0  0  0  0
   14.6127   13.6954   19.2857 H   0  0  0  0  0
   13.1591   13.3922   18.2865 H   0  0  0  0  0
   15.0087   10.6413   21.9707 H   0  0  0  0  0
   11.5079    9.8036   19.6530 H   0  0  0  0  0
   12.5180   13.8903   20.6217 H   0  0  0  0  0
   17.2848    9.5497   15.1493 H   0  0  0  0  0
   17.4351   10.8931   11.4034 H   0  0  0  0  0
   16.6002   12.3634   15.6538 H   0  0  0  0  0
   14.9666   12.6856   16.9793 H   0  0  0  0  0
   17.9914    7.5150    5.5925 H   0  0  0  0  0
  3  1  4  0  0  0
  1  5  4  0  0  0
  4  2  4  0  0  0
  2  5  4  0  0  0
  6  3  4  0  0  0
  6  4  4  0  0  0
  5  7  1  0  0  0
 30  6  1  0  0  0
  7 27  2  0  0  0
  7 29  1  0  0  0
  8 25  1  0  0  0
 26  8  1  0  0  0
  8 28  2  0  0  0
  9 11  1  0  0  0
 22  9  1  0  0  0
 10 12  1  0  0  0
 22 10  1  0  0  0
 11 23  1  0  0  0
 12 23  1  0  0  0
 19 13  1  0  0  0
 20 13  1  0  0  0
 19 14  1  0  0  0
 21 14  1  0  0  0
 20 15  1  0  0  0
 21 15  1  0  0  0
 16 19  1  0  0  0
 24 16  1  0  0  0
 17 20  1  0  0  0
 24 17  1  0  0  0
 18 21  1  0  0  0
 24 18  1  0  0  0
 25 22  1  0  0  0
 23 30  1  0  0  0
 24 26  1  0  0  0
  1 31  1  0  0  0
  2 32  1  0  0  0
  3 33  1  0  0  0
  4 34  1  0  0  0
  9 35  1  0  0  0
  9 36  1  0  0  0
 10 37  1  0  0  0
 10 38  1  0  0  0
 11 39  1  0  0  0
 11 40  1  0  0  0
 12 41  1  0  0  0
 12 42  1  0  0  0
 13 43  1  0  0  0
 13 44  1  0  0  0
 14 45  1  0  0  0
 14 46  1  0  0  0
 15 47  1  0  0  0
 15 48  1  0  0  0
 16 49  1  0  0  0
 16 50  1  0  0  0
 17 51  1  0  0  0
 17 52  1  0  0  0
 18 53  1  0  0  0
 18 54  1  0  0  0
 19 55  1  0  0  0
 20 56  1  0  0  0
 21 57  1  0  0  0
 22 58  1  0  0  0
 23 59  1  0  0  0
 25 60  1  0  0  0
 26 61  1  0  0  0
 29 62  1  0  0  0
M  END
$$$$
