4k3n_ligand
  -I-interpret- 

 30 31  0  0  0  0  0  0  0  0999 V2000
   88.0050   75.9660   29.9400 O   0  0  0  0  0
   87.3490   74.6510   30.1380 P   0  0  0  0  0
   87.1840   73.8670   28.7390 O   0  0  0  0  0
   88.2430   73.7570   31.1400 O   0  0  0  0  0
   85.7340   75.0450   30.8620 C   0  0  0  0  0
   84.9780   75.8350   29.9120 N   0  3  0  0  0
   84.8980   73.8610   31.1190 C   0  0  0  0  0
   83.8510   74.0310   32.0000 C   0  0  0  0  0
   83.0190   72.9710   32.2700 C   0  0  0  0  0
   83.1730   71.7230   31.6810 C   0  0  0  0  0
   84.2360   71.5780   30.7820 C   0  0  0  0  0
   85.0990   72.6370   30.4940 C   0  0  0  0  0
   82.3190   70.7540   32.0020 N   0  0  0  0  0
   82.3840   69.4700   31.4730 N   0  0  0  0  0
   81.3430   68.8530   32.0730 C   0  0  0  0  0
   80.6920   69.7540   32.9100 C   0  0  0  0  0
   81.3320   70.9720   32.8640 C   0  0  0  0  0
   86.7577   73.0213   28.8958 H   0  0  0  0  0
   87.8205   72.9048   31.2700 H   0  0  0  0  0
   85.9467   75.5536   31.8023 H   0  0  0  0  0
   85.4999   76.6811   29.6836 H   0  0  0  0  0
   84.8245   75.2895   29.0639 H   0  0  0  0  0
   84.0791   76.0888   30.3218 H   0  0  0  0  0
   83.6849   74.9966   32.4776 H   0  0  0  0  0
   82.2026   73.1163   32.9774 H   0  0  0  0  0
   84.3938   70.6156   30.2953 H   0  0  0  0  0
   85.9192   72.5051   29.7884 H   0  0  0  0  0
   81.0574   67.8116   31.9247 H   0  0  0  0  0
   79.8102   69.5297   33.5102 H   0  0  0  0  0
   81.0890   71.8884   33.4018 H   0  0  0  0  0
  1  2  2  0  0  0
  2  3  1  0  0  0
  2  4  1  0  0  0
  2  5  1  0  0  0
  5  6  1  0  0  0
  5  7  1  0  0  0
  7  8  4  0  0  0
  7 12  4  0  0  0
  8  9  4  0  0  0
  9 10  4  0  0  0
 10 11  4  0  0  0
 10 13  1  0  0  0
 11 12  4  0  0  0
 13 14  4  0  0  0
 13 17  4  0  0  0
 14 15  4  0  0  0
 15 16  4  0  0  0
 16 17  4  0  0  0
  3 18  1  0  0  0
  4 19  1  0  0  0
  5 20  1  0  0  0
  6 21  1  0  0  0
  6 22  1  0  0  0
  6 23  1  0  0  0
  8 24  1  0  0  0
  9 25  1  0  0  0
 11 26  1  0  0  0
 12 27  1  0  0  0
 15 28  1  0  0  0
 16 29  1  0  0  0
 17 30  1  0  0  0
M  END
$$$$
