4j3i_ligand
  -I-interpret- 

 49 51  0  0  0  0  0  0  0  0999 V2000
   -8.6540   -6.2660   -0.7220 O   0  0  0  0  0
   -7.7440   -7.1740   -0.1290 C   0  0  0  0  0
   -9.8780   -6.1690   -0.1790 C   0  0  0  0  0
  -10.7000   -5.2150   -0.8430 C   0  0  0  0  0
  -12.0080   -4.9840   -0.4400 C   0  0  0  0  0
  -14.2140   -6.2910    2.2990 N   0  0  0  0  0
  -12.1700   -3.0510   -1.8630 C   0  0  0  0  0
  -12.7770   -4.0120   -0.9400 O   0  0  0  0  0
  -12.5340   -5.7120    0.6600 C   0  0  0  0  0
  -14.2170   -9.5610    7.7900 O   0  0  0  0  0
  -12.1400   -7.3740    2.4000 N   0  0  0  0  0
  -13.8850   -5.5530    1.1990 C   0  0  0  0  0
  -13.3290   -7.1530    2.8950 C   0  0  0  0  0
  -17.3310   -9.8320    6.5330 O   0  0  0  0  0
  -14.7850   -4.8340    0.6720 O   0  0  0  0  0
  -13.6150   -7.8650    4.1130 C   0  0  0  0  0
  -14.2040   -7.1300    5.1180 C   0  0  0  0  0
  -14.4460   -7.6540    6.3930 C   0  0  0  0  0
  -15.1640   -6.8980    7.5140 C   0  0  0  0  0
  -14.0260   -9.0010    6.5900 C   0  0  0  0  0
  -15.5430   -9.8970    8.2450 C   0  0  0  0  0
  -16.3590  -10.6360    7.1560 C   0  0  0  0  0
  -13.4240   -9.8140    5.5250 C   0  0  0  0  0
  -12.9600  -11.2110    5.7800 C   0  0  0  0  0
  -13.1410   -9.1720    4.3710 C   0  0  0  0  0
  -11.6860   -6.6590    1.3330 C   0  0  0  0  0
  -10.3880   -6.8940    0.8580 C   0  0  0  0  0
   -7.5765   -6.8918    0.9104 H   0  0  0  0  0
   -8.1584   -8.1813   -0.1710 H   0  0  0  0  0
   -6.7990   -7.1456   -0.6714 H   0  0  0  0  0
  -10.2939   -4.6545   -1.6851 H   0  0  0  0  0
  -15.1508   -6.1983    2.6916 H   0  0  0  0  0
  -11.3535   -2.5324   -1.3605 H   0  0  0  0  0
  -11.7843   -3.5800   -2.7345 H   0  0  0  0  0
  -12.9219   -2.3277   -2.1787 H   0  0  0  0  0
  -17.7973  -10.3496    5.8725 H   0  0  0  0  0
  -14.4931   -6.0994    4.9122 H   0  0  0  0  0
  -14.6104   -5.9892    7.7502 H   0  0  0  0  0
  -16.1708   -6.6372    7.1877 H   0  0  0  0  0
  -15.2202   -7.5312    8.3994 H   0  0  0  0  0
  -16.0635   -8.9718    8.4923 H   0  0  0  0  0
  -15.4507  -10.5561    9.1083 H   0  0  0  0  0
  -15.6581  -10.9557    6.3849 H   0  0  0  0  0
  -16.8812  -11.4594    7.6432 H   0  0  0  0  0
  -12.1911  -11.2018    6.5525 H   0  0  0  0  0
  -13.8027  -11.8176    6.1116 H   0  0  0  0  0
  -12.5488  -11.6293    4.8613 H   0  0  0  0  0
  -12.5318   -9.6741    3.6194 H   0  0  0  0  0
   -9.7774   -7.6673    1.3241 H   0  0  0  0  0
  1  2  1  0  0  0
  3  1  1  0  0  0
  4  3  4  0  0  0
  3 27  4  0  0  0
  5  4  4  0  0  0
  5  8  1  0  0  0
  9  5  4  0  0  0
  6 12  1  0  0  0
 13  6  1  0  0  0
  8  7  1  0  0  0
 12  9  1  0  0  0
 26  9  4  0  0  0
 10 20  1  0  0  0
 21 10  1  0  0  0
 13 11  2  0  0  0
 11 26  1  0  0  0
 12 15  2  0  0  0
 16 13  1  0  0  0
 22 14  1  0  0  0
 17 16  4  0  0  0
 16 25  4  0  0  0
 18 17  4  0  0  0
 18 19  1  0  0  0
 20 18  4  0  0  0
 20 23  4  0  0  0
 21 22  1  0  0  0
 23 24  1  0  0  0
 23 25  4  0  0  0
 26 27  4  0  0  0
  2 28  1  0  0  0
  2 29  1  0  0  0
  2 30  1  0  0  0
  4 31  1  0  0  0
  6 32  1  0  0  0
  7 33  1  0  0  0
  7 34  1  0  0  0
  7 35  1  0  0  0
 14 36  1  0  0  0
 17 37  1  0  0  0
 19 38  1  0  0  0
 19 39  1  0  0  0
 19 40  1  0  0  0
 21 41  1  0  0  0
 21 42  1  0  0  0
 22 43  1  0  0  0
 22 44  1  0  0  0
 24 45  1  0  0  0
 24 46  1  0  0  0
 24 47  1  0  0  0
 25 48  1  0  0  0
 27 49  1  0  0  0
M  END
$$$$
