1hms_ligand
  -I-interpret- 

 54 53  0  0  0  0  0  0  0  0999 V2000
   20.0020   33.2660   53.5770 C   0  0  0  0  0
   19.0300   33.3380   52.4920 C   0  0  0  0  0
   19.0140   34.4160   51.9100 O   0  0  0  0  0
   18.3210   32.3340   52.4110 O   0  0  0  0  0
   20.6000   34.5030   54.1250 C   0  0  0  0  0
   21.8030   34.2750   55.0600 C   0  0  0  0  0
   22.3410   35.6020   55.5610 C   0  0  0  0  0
   23.5690   35.5340   56.4000 C   0  0  0  0  0
   23.5370   34.5310   57.5140 C   0  0  0  0  0
   22.6930   35.0320   58.6870 C   0  0  0  0  0
   22.6420   34.0520   59.8040 C   0  0  0  0  0
   21.7210   34.1380   60.8600 C   0  0  0  0  0
   20.7780   35.2360   61.0590 C   0  0  0  0  0
   19.3360   34.9930   60.9030 C   0  0  0  0  0
   18.9230   34.6100   59.4960 C   0  0  0  0  0
   17.5060   34.0840   59.4840 C   0  0  0  0  0
   16.7310   34.5080   58.2780 C   0  0  0  0  0
   17.3270   35.6680   57.5660 C   0  0  0  0  0
   16.3040   36.4260   56.7320 C   0  0  0  0  0
   16.7280   37.8920   56.6480 C   0  0  0  0  0
   19.4442   32.8423   54.4121 H   0  0  0  0  0
   20.8455   32.7244   53.1489 H   0  0  0  0  0
   18.6348   31.6712   53.0305 H   0  0  0  0  0
   19.8272   34.9951   54.7155 H   0  0  0  0  0
   20.9623   35.0838   53.2767 H   0  0  0  0  0
   22.5887   33.7583   54.5087 H   0  0  0  0  0
   21.4819   33.6769   55.9128 H   0  0  0  0  0
   21.5621   36.0290   56.1928 H   0  0  0  0  0
   22.6074   36.1783   54.6750 H   0  0  0  0  0
   23.6794   36.5125   56.8673 H   0  0  0  0  0
   24.3809   35.2348   55.7371 H   0  0  0  0  0
   24.5563   34.3679   57.8640 H   0  0  0  0  0
   23.0959   33.6079   57.1379 H   0  0  0  0  0
   21.6757   35.1899   58.3288 H   0  0  0  0  0
   23.1462   35.9495   59.0623 H   0  0  0  0  0
   23.3542   33.2268   59.8029 H   0  0  0  0  0
   21.7085   33.3248   61.5857 H   0  0  0  0  0
   21.0226   35.9546   60.2768 H   0  0  0  0  0
   20.8986   35.5167   62.1053 H   0  0  0  0  0
   18.8234   35.9232   61.1481 H   0  0  0  0  0
   19.0769   34.1582   61.5542 H   0  0  0  0  0
   19.5925   33.8315   59.1303 H   0  0  0  0  0
   18.9783   35.4924   58.8585 H   0  0  0  0  0
   16.9975   34.4843   60.3611 H   0  0  0  0  0
   17.5577   32.9952   59.4776 H   0  0  0  0  0
   15.7384   34.8063   58.6154 H   0  0  0  0  0
   16.7213   33.6679   57.5836 H   0  0  0  0  0
   18.0973   35.2909   56.8933 H   0  0  0  0  0
   17.7265   36.3532   58.3136 H   0  0  0  0  0
   15.3204   36.3514   57.1957 H   0  0  0  0  0
   16.2526   35.9979   55.7309 H   0  0  0  0  0
   16.7733   38.3139   57.6520 H   0  0  0  0  0
   17.7101   37.9586   56.1799 H   0  0  0  0  0
   16.0019   38.4453   56.0524 H   0  0  0  0  0
  1  5  1  0  0  0
  1  2  1  0  0  0
  2  4  1  0  0  0
  2  3  2  0  0  0
  5  6  1  0  0  0
  6  7  1  0  0  0
  7  8  1  0  0  0
  8  9  1  0  0  0
  9 10  1  0  0  0
 10 11  1  0  0  0
 11 12  2  0  0  0
 12 13  1  0  0  0
 13 14  1  0  0  0
 14 15  1  0  0  0
 15 16  1  0  0  0
 16 17  1  0  0  0
 17 18  1  0  0  0
 18 19  1  0  0  0
 19 20  1  0  0  0
  1 21  1  0  0  0
  1 22  1  0  0  0
  4 23  1  0  0  0
  5 24  1  0  0  0
  5 25  1  0  0  0
  6 26  1  0  0  0
  6 27  1  0  0  0
  7 28  1  0  0  0
  7 29  1  0  0  0
  8 30  1  0  0  0
  8 31  1  0  0  0
  9 32  1  0  0  0
  9 33  1  0  0  0
 10 34  1  0  0  0
 10 35  1  0  0  0
 11 36  1  0  0  0
 12 37  1  0  0  0
 13 38  1  0  0  0
 13 39  1  0  0  0
 14 40  1  0  0  0
 14 41  1  0  0  0
 15 42  1  0  0  0
 15 43  1  0  0  0
 16 44  1  0  0  0
 16 45  1  0  0  0
 17 46  1  0  0  0
 17 47  1  0  0  0
 18 48  1  0  0  0
 18 49  1  0  0  0
 19 50  1  0  0  0
 19 51  1  0  0  0
 20 52  1  0  0  0
 20 53  1  0  0  0
 20 54  1  0  0  0
M  END
$$$$
