5ldk_ligand
  -I-interpret- 

 47 49  0  0  0  0  0  0  0  0999 V2000
  105.2120   32.0750   55.6330 P   0  0  0  0  0
  103.8720   31.4040   55.4120 O   0  0  0  0  0
  106.1520   31.3240   56.5540 O   0  0  0  0  0
  105.0990   33.5560   55.9350 O   0  0  0  0  0
  105.6650   31.0220   52.9680 P   0  0  0  0  0
  107.0310   30.5610   52.5080 O   0  0  0  0  0
  104.6070   29.9860   53.3100 O   0  0  0  0  0
  105.9390   32.0560   54.1860 O   0  0  0  0  0
  104.0990   33.2540   51.9790 P   0  0  0  0  0
  103.0650   33.2000   50.8940 O   0  0  0  0  0
  103.6150   33.3900   53.4110 O   0  0  0  0  0
  105.1300   32.0110   51.7980 O   0  0  0  0  0
  105.0580   34.5120   51.6980 O   0  0  0  0  0
  105.5970   34.7650   50.4110 C   0  0  0  0  0
  106.7690   35.7210   50.5940 C   0  0  0  0  0
  106.3110   36.9060   51.2550 O   0  0  0  0  0
  107.8550   35.1230   51.4740 C   0  0  0  0  0
  109.1010   35.5960   50.9580 O   0  0  0  0  0
  107.6110   35.7290   52.8510 C   0  0  0  0  0
  108.8000   35.8260   53.6560 O   0  0  0  0  0
  107.0200   37.0880   52.4910 C   0  0  0  0  0
  106.0490   37.6050   53.4840 N   0  0  0  0  0
  104.9830   36.9530   54.0110 C   0  0  0  0  0
  104.3040   37.7560   54.8780 N   0  0  0  0  0
  104.9430   38.9470   54.9110 C   0  0  0  0  0
  104.7600   40.2480   55.6090 C   0  0  0  0  0
  103.7350   40.4430   56.4790 N   0  0  0  0  0
  105.6630   41.2290   55.3490 N   0  0  0  0  0
  106.6920   41.0520   54.4870 C   0  0  0  0  0
  106.9170   39.9060   53.8140 N   0  0  0  0  0
  106.0900   38.8410   53.9850 C   0  0  0  0  0
  106.9731   31.8139   56.6400 H   0  0  0  0  0
  105.9766   33.9229   56.0646 H   0  0  0  0  0
  103.8014   30.4311   53.5831 H   0  0  0  0  0
  104.3709   33.4127   54.0023 H   0  0  0  0  0
  104.8423   35.2032   49.7579 H   0  0  0  0  0
  105.9275   33.8373   49.9439 H   0  0  0  0  0
  107.1725   35.9292   49.6031 H   0  0  0  0  0
  107.8575   34.0336   51.5093 H   0  0  0  0  0
  109.8200   35.2415   51.4861 H   0  0  0  0  0
  106.9615   35.1206   53.4803 H   0  0  0  0  0
  108.5789   36.2137   54.5060 H   0  0  0  0  0
  107.8380   37.8068   52.4419 H   0  0  0  0  0
  104.7066   35.9257   53.7733 H   0  0  0  0  0
  103.0728   39.6896   56.6641 H   0  0  0  0  0
  103.6276   41.3429   56.9471 H   0  0  0  0  0
  107.3779   41.8841   54.3281 H   0  0  0  0  0
  1  2  2  0  0  0
  1  3  1  0  0  0
  1  4  1  0  0  0
  8  1  1  0  0  0
  5  6  2  0  0  0
  5  7  1  0  0  0
  5  8  1  0  0  0
 12  5  1  0  0  0
  9 10  2  0  0  0
  9 11  1  0  0  0
  9 12  1  0  0  0
  9 13  1  0  0  0
 13 14  1  0  0  0
 14 15  1  0  0  0
 15 16  1  0  0  0
 15 17  1  0  0  0
 16 21  1  0  0  0
 17 18  1  0  0  0
 17 19  1  0  0  0
 19 20  1  0  0  0
 19 21  1  0  0  0
 21 22  1  0  0  0
 22 23  4  0  0  0
 22 31  4  0  0  0
 23 24  4  0  0  0
 24 25  4  0  0  0
 25 26  4  0  0  0
 25 31  4  0  0  0
 26 27  1  0  0  0
 26 28  4  0  0  0
 28 29  4  0  0  0
 29 30  4  0  0  0
 30 31  4  0  0  0
  3 32  1  0  0  0
  4 33  1  0  0  0
  7 34  1  0  0  0
 11 35  1  0  0  0
 14 36  1  0  0  0
 14 37  1  0  0  0
 15 38  1  0  0  0
 17 39  1  0  0  0
 18 40  1  0  0  0
 19 41  1  0  0  0
 20 42  1  0  0  0
 21 43  1  0  0  0
 23 44  1  0  0  0
 27 45  1  0  0  0
 27 46  1  0  0  0
 29 47  1  0  0  0
M  END
$$$$
