### 
### Created by X-TOOL on Mon Sep 10 21:13:33 2018
### 

@<TRIPOS>MOLECULE
5ldk_ligand
   43    45     1     0     0
SMALL
GAST_HUCK


@<TRIPOS>ATOM
      1 PG        105.2120   32.0750   55.6330 P.3       1 ATP         0.1879
      2 O1G       103.8720   31.4040   55.4120 O.co2     1 ATP        -0.6091
      3 O2G       106.1520   31.3240   56.5540 O.co2     1 ATP        -0.6091
      4 O3G       105.0990   33.5560   55.9350 O.co2     1 ATP        -0.6091
      5 PB        105.6650   31.0220   52.9680 P.3       1 ATP         0.3553
      6 O1B       107.0310   30.5610   52.5080 O.co2     1 ATP        -0.5652
      7 O2B       104.6070   29.9860   53.3100 O.co2     1 ATP        -0.5652
      8 O3B       105.9390   32.0560   54.1860 O.3       1 ATP        -0.1546
      9 PA        104.0990   33.2540   51.9790 P.3       1 ATP         0.3266
     10 O1A       103.0650   33.2000   50.8940 O.co2     1 ATP        -0.5692
     11 O2A       103.6150   33.3900   53.4110 O.co2     1 ATP        -0.5692
     12 O3A       105.1300   32.0110   51.7980 O.3       1 ATP        -0.1171
     13 O5'       105.0580   34.5120   51.6980 O.3       1 ATP        -0.2441
     14 C5'       105.5970   34.7650   50.4110 C.3       1 ATP         0.1131
     15 C4'       106.7690   35.7210   50.5940 C.3       1 ATP         0.1189
     16 O4'       106.3110   36.9060   51.2550 O.3       1 ATP        -0.3364
     17 C3'       107.8550   35.1230   51.4740 C.3       1 ATP         0.1149
     18 O3'       109.1010   35.5960   50.9580 O.3       1 ATP        -0.3864
     19 C2'       107.6110   35.7290   52.8510 C.3       1 ATP         0.1385
     20 O2'       108.8000   35.8260   53.6560 O.3       1 ATP        -0.3836
     21 C1'       107.0200   37.0880   52.4910 C.3       1 ATP         0.2010
     22 N9        106.0490   37.6050   53.4840 N.pl3     1 ATP        -0.1919
     23 C8        104.9830   36.9530   54.0110 C.2       1 ATP         0.1123
     24 N7        104.3040   37.7560   54.8780 N.2       1 ATP        -0.2958
     25 C5        104.9430   38.9470   54.9110 C.ar      1 ATP         0.1045
     26 C6        104.7600   40.2480   55.6090 C.ar      1 ATP         0.1298
     27 N6        103.7350   40.4430   56.4790 N.pl3     1 ATP        -0.3152
     28 N1        105.6630   41.2290   55.3490 N.ar      1 ATP        -0.2698
     29 C2        106.6920   41.0520   54.4870 C.ar      1 ATP         0.0533
     30 N3        106.9170   39.9060   53.8140 N.ar      1 ATP        -0.2714
     31 C4        106.0900   38.8410   53.9850 C.ar      1 ATP         0.1613
     32 H1        104.8333   35.2241   49.7660 H         1 ATP         0.0648
     33 H2        105.9444   33.8255   49.9564 H         1 ATP         0.0648
     34 H3        107.1876   35.9728   49.6084 H         1 ATP         0.0651
     35 H4        107.8198   34.0238   51.4980 H         1 ATP         0.0648
     36 H5        109.8126   35.2452   51.4806 H         1 ATP         0.2100
     37 H6        106.8747   35.1280   53.4047 H         1 ATP         0.0676
     38 H7        109.4372   36.3739   53.2129 H         1 ATP         0.2101
     39 H8        107.8338   37.8179   52.3685 H         1 ATP         0.0996
     40 H9        104.7069   35.9267   53.7736 H         1 ATP         0.1349
     41 H10       103.6265   41.3517   56.9517 H         1 ATP         0.1820
     42 H11       103.0663   39.6822   56.6659 H         1 ATP         0.1820
     43 H12       107.3741   41.8795   54.3290 H         1 ATP         0.0996
@<TRIPOS>BOND
     1    1    2 ar 
     2    1    3 ar 
     3    1    4 ar 
     4    8    1 1  
     5    5    6 ar 
     6    5    7 ar 
     7    5    8 1  
     8   12    5 1  
     9    9   10 ar 
    10    9   11 ar 
    11    9   12 1  
    12    9   13 1  
    13   13   14 1  
    14   14   15 1  
    15   15   16 1  
    16   15   17 1  
    17   16   21 1  
    18   17   18 1  
    19   17   19 1  
    20   19   20 1  
    21   19   21 1  
    22   21   22 1  
    23   22   23 1  
    24   22   31 1  
    25   23   24 2  
    26   24   25 1  
    27   25   26 ar 
    28   25   31 ar 
    29   26   27 1  
    30   26   28 ar 
    31   28   29 ar 
    32   29   30 ar 
    33   30   31 ar 
    34   14   32 1  
    35   14   33 1  
    36   15   34 1  
    37   17   35 1  
    38   18   36 1  
    39   19   37 1  
    40   20   38 1  
    41   21   39 1  
    42   23   40 1  
    43   27   41 1  
    44   27   42 1  
    45   29   43 1  
@<TRIPOS>SUBSTRUCTURE
     1 ATP         1

