6afc_ligand
  -I-interpret- 

 18 19  0  0  0  0  0  0  0  0999 V2000
   30.2750  -24.8330  -22.5140 O   0  0  0  0  0
   30.5470  -25.4710  -23.5190 C   0  0  0  0  0
   31.7200  -25.4660  -24.1660 N   0  0  0  0  0
   31.5790  -26.2880  -25.2330 C   0  0  0  0  0
   32.3820  -26.4560  -26.2640 C   0  0  0  0  0
   31.9960  -27.2960  -27.2800 C   0  0  0  0  0
   30.7780  -27.9770  -27.2400 C   0  0  0  0  0
   30.4820  -28.7530  -28.2600 F   0  0  0  0  0
   29.9190  -27.7600  -26.1850 C   0  0  0  0  0
   30.3610  -26.9140  -25.2110 C   0  0  0  0  0
   29.7840  -26.5490  -23.9740 C   0  0  0  0  0
   28.4110  -26.3950  -23.9790 O   0  0  0  0  0
   32.5569  -24.9443  -23.9055 H   0  0  0  0  0
   33.3388  -25.9359  -26.3100 H   0  0  0  0  0
   32.6556  -27.4339  -28.1368 H   0  0  0  0  0
   28.9408  -28.2378  -26.1318 H   0  0  0  0  0
   29.8351  -27.3641  -23.2521 H   0  0  0  0  0
   28.1146  -26.1484  -23.0998 H   0  0  0  0  0
  1  2  2  0  0  0
  2  3  1  0  0  0
  2 11  1  0  0  0
  3  4  1  0  0  0
  4  5  4  0  0  0
  4 10  4  0  0  0
  5  6  4  0  0  0
  6  7  4  0  0  0
  7  8  1  0  0  0
  7  9  4  0  0  0
  9 10  4  0  0  0
 10 11  1  0  0  0
 11 12  1  0  0  0
  3 13  1  0  0  0
  5 14  1  0  0  0
  6 15  1  0  0  0
  9 16  1  0  0  0
 11 17  1  0  0  0
 12 18  1  0  0  0
M  END
$$$$
