4fmo_ligand
  -I-interpret- 

128129  0  0  0  0  0  0  0  0999 V2000
   65.7580  -16.8490   30.6440 N   0  3  0  0  0
   65.9680  -16.0690   31.8570 C   0  0  0  0  0
   64.6960  -15.3250   32.3280 C   0  0  0  0  0
   63.6640  -15.3410   31.6560 O   0  0  0  0  0
   67.1420  -15.0990   31.6500 C   0  0  0  0  0
   66.9860  -14.4560   30.3870 O   0  0  0  0  0
   68.5000  -15.7790   31.7280 C   0  0  0  0  0
   64.7860  -14.6770   33.5050 N   0  0  0  0  0
   63.7150  -13.8570   34.0660 C   0  0  0  0  0
   64.1200  -12.3470   34.1220 C   0  0  0  0  0
   65.3230  -12.0200   34.1280 O   0  0  0  0  0
   63.2170  -14.4120   35.4060 C   0  0  0  0  0
   61.8400  -15.0270   35.2950 C   0  0  0  0  0
   60.8460  -14.2800   36.1690 C   0  0  0  0  0
   59.4690  -14.7550   35.9890 N   0  0  0  0  0
   58.9310  -15.7900   36.6340 C   0  0  0  0  0
   59.6520  -16.4870   37.5070 N   0  0  0  0  0
   57.6710  -16.1410   36.4050 N   0  0  0  0  0
   63.0980  -11.4450   34.0780 N   0  0  0  0  0
   63.2320   -9.9780   34.1050 C   0  0  0  0  0
   63.4360   -9.4460   35.5190 C   0  0  0  0  0
   62.7320   -9.8510   36.4630 O   0  0  0  0  0
   62.0290   -9.2940   33.4470 C   0  0  0  0  0
   61.8880   -7.9140   33.7490 O   0  0  0  0  0
   64.4070   -8.5120   35.6380 N   0  0  0  0  0
   64.7730   -7.8030   36.8670 C   0  0  0  0  0
   63.5560   -7.0370   37.4120 C   0  0  0  0  0
   63.3310   -7.0270   38.6250 O   0  0  0  0  0
   65.9960   -6.8680   36.6390 C   0  0  0  0  0
   65.8900   -5.9130   35.4420 C   0  0  0  0  0
   67.2180   -5.2590   35.1010 C   0  0  0  0  0
   67.1730   -4.6310   33.7290 C   0  0  0  0  0
   68.4360   -3.9290   33.3860 N   0  3  0  0  0
   62.7340   -6.4790   36.5010 N   0  0  0  0  0
   61.5410   -5.7000   36.8170 C   0  0  0  0  0
   60.3940   -6.4750   37.4650 C   0  0  0  0  0
   59.4350   -5.8680   37.9540 O   0  0  0  0  0
   61.0700   -4.9230   35.5840 C   0  0  0  0  0
   62.1640   -4.1510   34.8830 C   0  0  0  0  0
   62.7040   -3.0050   35.4540 C   0  0  0  0  0
   62.6260   -4.5480   33.6290 C   0  0  0  0  0
   63.7090   -2.2900   34.7970 C   0  0  0  0  0
   63.6070   -3.8140   32.9650 C   0  0  0  0  0
   64.1450   -2.6980   33.5590 C   0  0  0  0  0
   60.5090   -7.8090   37.4870 N   0  0  0  0  0
   59.5140   -8.7090   38.0680 C   0  0  0  0  0
   60.1860   -9.5680   39.1280 C   0  0  0  0  0
   60.6720  -10.6660   38.8330 O   0  0  0  0  0
   58.8330   -9.5420   36.9580 C   0  0  0  0  0
   58.0960   -8.6860   35.9540 C   0  0  0  0  0
   56.7500   -8.3570   36.1480 C   0  0  0  0  0
   58.7610   -8.1540   34.8440 C   0  0  0  0  0
   56.0830   -7.5200   35.2480 C   0  0  0  0  0
   58.0930   -7.3130   33.9450 C   0  0  0  0  0
   56.7580   -7.0080   34.1510 C   0  0  0  0  0
   60.2940   -9.0060   40.3470 N   0  0  0  0  0
   60.9390   -9.6180   41.5170 C   0  0  0  0  0
   60.1320   -9.2770   42.7820 C   0  0  0  0  0
   59.7234   -8.1032   42.9888 O   0  0  0  0  0
   62.4100   -9.1240   41.6770 C   0  0  0  0  0
   63.4500   -9.5090   40.6190 C   0  0  0  0  0
   64.5110   -8.8840   40.5200 O   0  0  0  0  0
   63.2350  -10.5640   39.8470 N   0  0  0  0  0
   59.8769  -10.1820   43.6207 O   0  0  0  0  0
   64.9784  -17.4914   30.7850 H   0  0  0  0  0
   65.5461  -16.2202   29.8693 H   0  0  0  0  0
   66.6030  -17.3794   30.4317 H   0  0  0  0  0
   66.2127  -16.7664   32.6581 H   0  0  0  0  0
   67.1192  -14.3716   32.4615 H   0  0  0  0  0
   66.1261  -14.0308   30.3497 H   0  0  0  0  0
   68.5782  -16.5233   30.9356 H   0  0  0  0  0
   69.2858  -15.0334   31.6067 H   0  0  0  0  0
   68.6059  -16.2660   32.6974 H   0  0  0  0  0
   65.6526  -14.7638   34.0359 H   0  0  0  0  0
   62.8598  -13.9109   33.3924 H   0  0  0  0  0
   63.1628  -13.5862   36.1154 H   0  0  0  0  0
   63.9098  -15.1890   35.7291 H   0  0  0  0  0
   61.8898  -16.0645   35.6256 H   0  0  0  0  0
   61.5106  -14.9686   34.2576 H   0  0  0  0  0
   60.8773  -13.2272   35.8886 H   0  0  0  0  0
   61.1245  -14.4443   37.2099 H   0  0  0  0  0
   58.8806  -14.2565   35.3214 H   0  0  0  0  0
   59.2362  -17.2818   37.9925 H   0  0  0  0  0
   60.6209  -16.2269   37.6912 H   0  0  0  0  0
   57.1099  -15.6178   35.7328 H   0  0  0  0  0
   62.1517  -11.8215   34.0210 H   0  0  0  0  0
   64.1247   -9.7370   33.5279 H   0  0  0  0  0
   61.1365   -9.7928   33.8248 H   0  0  0  0  0
   62.1740   -9.3682   32.3692 H   0  0  0  0  0
   61.1145   -7.5665   33.2990 H   0  0  0  0  0
   64.9325   -8.2800   34.7952 H   0  0  0  0  0
   65.0764   -8.5338   37.6166 H   0  0  0  0  0
   66.8485   -7.5177   36.4409 H   0  0  0  0  0
   66.0754   -6.2416   37.5275 H   0  0  0  0  0
   65.1836   -5.1247   35.7020 H   0  0  0  0  0
   65.5682   -6.4925   34.5767 H   0  0  0  0  0
   67.9971   -6.0213   35.1121 H   0  0  0  0  0
   67.4243   -4.4809   35.8359 H   0  0  0  0  0
   66.3665   -3.8978   33.7200 H   0  0  0  0  0
   67.0201   -5.4259   32.9991 H   0  0  0  0  0
   68.3557   -3.5234   32.4535 H   0  0  0  0  0
   68.6077   -3.1888   34.0664 H   0  0  0  0  0
   69.2089   -4.5944   33.4033 H   0  0  0  0  0
   62.9632   -6.6113   35.5159 H   0  0  0  0  0
   61.8544   -5.0047   37.5958 H   0  0  0  0  0
   60.3314   -4.1971   35.9241 H   0  0  0  0  0
   60.6844   -5.6527   34.8720 H   0  0  0  0  0
   62.3407   -2.6609   36.4224 H   0  0  0  0  0
   62.2150   -5.4432   33.1623 H   0  0  0  0  0
   64.1470   -1.4090   35.2662 H   0  0  0  0  0
   63.9466   -4.1245   31.9769 H   0  0  0  0  0
   64.9225   -2.1326   33.0452 H   0  0  0  0  0
   61.3436   -8.2234   37.0722 H   0  0  0  0  0
   58.7209   -8.1413   38.5547 H   0  0  0  0  0
   58.1061  -10.2010   37.4329 H   0  0  0  0  0
   59.6113  -10.0878   36.4246 H   0  0  0  0  0
   56.2157   -8.7573   37.0096 H   0  0  0  0  0
   59.8104   -8.3967   34.6770 H   0  0  0  0  0
   55.0342   -7.2707   35.4089 H   0  0  0  0  0
   58.6221   -6.9000   33.0862 H   0  0  0  0  0
   56.2350   -6.3615   33.4463 H   0  0  0  0  0
   59.8938   -8.0757   40.4686 H   0  0  0  0  0
   60.9621  -10.6980   41.3717 H   0  0  0  0  0
   59.9978   -7.5376   42.2633 H   0  0  0  0  0
   62.7621   -9.5918   42.5964 H   0  0  0  0  0
   62.3461   -8.0373   41.6218 H   0  0  0  0  0
   63.9439  -10.8569   39.1746 H   0  0  0  0  0
   62.3606  -11.0833   39.9250 H   0  0  0  0  0
  1  2  1  0  0  0
  2  3  1  0  0  0
  2  5  1  0  0  0
  3  4  2  0  0  0
  3  8  1  0  0  0
  5  6  1  0  0  0
  5  7  1  0  0  0
  8  9  1  0  0  0
  9 10  1  0  0  0
  9 12  1  0  0  0
 10 11  2  0  0  0
 10 19  1  0  0  0
 12 13  1  0  0  0
 13 14  1  0  0  0
 14 15  1  0  0  0
 15 16  1  0  0  0
 16 17  1  0  0  0
 16 18  2  0  0  0
 19 20  1  0  0  0
 20 21  1  0  0  0
 20 23  1  0  0  0
 21 22  2  0  0  0
 21 25  1  0  0  0
 23 24  1  0  0  0
 25 26  1  0  0  0
 26 27  1  0  0  0
 26 29  1  0  0  0
 27 28  2  0  0  0
 27 34  1  0  0  0
 29 30  1  0  0  0
 30 31  1  0  0  0
 31 32  1  0  0  0
 32 33  1  0  0  0
 34 35  1  0  0  0
 35 36  1  0  0  0
 35 38  1  0  0  0
 36 37  2  0  0  0
 36 45  1  0  0  0
 38 39  1  0  0  0
 39 40  4  0  0  0
 39 41  4  0  0  0
 40 42  4  0  0  0
 41 43  4  0  0  0
 42 44  4  0  0  0
 43 44  4  0  0  0
 45 46  1  0  0  0
 46 47  1  0  0  0
 46 49  1  0  0  0
 47 48  2  0  0  0
 47 56  1  0  0  0
 49 50  1  0  0  0
 50 51  4  0  0  0
 50 52  4  0  0  0
 51 53  4  0  0  0
 52 54  4  0  0  0
 53 55  4  0  0  0
 54 55  4  0  0  0
 56 57  1  0  0  0
 57 58  1  0  0  0
 57 60  1  0  0  0
 58 59  1  0  0  0
 60 61  1  0  0  0
 61 62  2  0  0  0
 61 63  1  0  0  0
 58 64  2  0  0  0
  1 65  1  0  0  0
  1 66  1  0  0  0
  1 67  1  0  0  0
  2 68  1  0  0  0
  5 69  1  0  0  0
  6 70  1  0  0  0
  7 71  1  0  0  0
  7 72  1  0  0  0
  7 73  1  0  0  0
  8 74  1  0  0  0
  9 75  1  0  0  0
 12 76  1  0  0  0
 12 77  1  0  0  0
 13 78  1  0  0  0
 13 79  1  0  0  0
 14 80  1  0  0  0
 14 81  1  0  0  0
 15 82  1  0  0  0
 17 83  1  0  0  0
 17 84  1  0  0  0
 18 85  1  0  0  0
 19 86  1  0  0  0
 20 87  1  0  0  0
 23 88  1  0  0  0
 23 89  1  0  0  0
 24 90  1  0  0  0
 25 91  1  0  0  0
 26 92  1  0  0  0
 29 93  1  0  0  0
 29 94  1  0  0  0
 30 95  1  0  0  0
 30 96  1  0  0  0
 31 97  1  0  0  0
 31 98  1  0  0  0
 32 99  1  0  0  0
 32100  1  0  0  0
 33101  1  0  0  0
 33102  1  0  0  0
 33103  1  0  0  0
 34104  1  0  0  0
 35105  1  0  0  0
 38106  1  0  0  0
 38107  1  0  0  0
 40108  1  0  0  0
 41109  1  0  0  0
 42110  1  0  0  0
 43111  1  0  0  0
 44112  1  0  0  0
 45113  1  0  0  0
 46114  1  0  0  0
 49115  1  0  0  0
 49116  1  0  0  0
 51117  1  0  0  0
 52118  1  0  0  0
 53119  1  0  0  0
 54120  1  0  0  0
 55121  1  0  0  0
 56122  1  0  0  0
 57123  1  0  0  0
 59124  1  0  0  0
 60125  1  0  0  0
 60126  1  0  0  0
 63127  1  0  0  0
 63128  1  0  0  0
M  END
$$$$
