### 
### Created by X-TOOL on Mon Sep 10 21:13:13 2018
### 

@<TRIPOS>MOLECULE
4fmo_ligand
  128   129     1     0     0
SMALL
GAST_HUCK


@<TRIPOS>ATOM
      1 N          65.7580  -16.8490   30.6440 N.4       1 THR         0.2398
      2 CA         65.9680  -16.0690   31.8570 C.3       1 THR         0.0910
      3 C          64.6960  -15.3250   32.3280 C.2       1 THR         0.2293
      4 O          63.6640  -15.3410   31.6560 O.2       1 THR        -0.3906
      5 CB         67.1420  -15.0990   31.6500 C.3       1 THR         0.1120
      6 OG1        66.9860  -14.4560   30.3870 O.3       1 THR        -0.3840
      7 CG2        68.5000  -15.7790   31.7280 C.3       1 THR        -0.0314
      8 N          64.7860  -14.6770   33.5050 N.am      1 ARG        -0.2609
      9 CA         63.7150  -13.8570   34.0660 C.3       1 ARG         0.1312
     10 C          64.1200  -12.3470   34.1220 C.2       1 ARG         0.2040
     11 O          65.3230  -12.0200   34.1280 O.2       1 ARG        -0.3944
     12 CB         63.2170  -14.4120   35.4060 C.3       1 ARG        -0.0092
     13 CG         61.8400  -15.0270   35.2950 C.3       1 ARG        -0.0156
     14 CD         60.8460  -14.2800   36.1690 C.3       1 ARG         0.0627
     15 NE         59.4690  -14.7550   35.9890 N.pl3     1 ARG        -0.2723
     16 CZ         58.9310  -15.7900   36.6340 C.cat     1 ARG         0.2882
     17 NH1        59.6520  -16.4870   37.5070 N.pl3     1 ARG        -0.2849
     18 NH2        57.6710  -16.1410   36.4050 N.pl3     1 ARG        -0.2849
     19 N          63.0980  -11.4450   34.0780 N.am      1 SER        -0.2616
     20 CA         63.2320   -9.9780   34.1050 C.3       1 SER         0.1539
     21 C          63.4360   -9.4460   35.5190 C.2       1 SER         0.2062
     22 O          62.7320   -9.8510   36.4630 O.2       1 SER        -0.3943
     23 CB         62.0290   -9.2940   33.4470 C.3       1 SER         0.0843
     24 OG         61.8880   -7.9140   33.7490 O.3       1 SER        -0.3903
     25 N          64.4070   -8.5120   35.6380 N.am      1 LYS        -0.2637
     26 CA         64.7730   -7.8030   36.8670 C.3       1 LYS         0.1310
     27 C          63.5560   -7.0370   37.4120 C.2       1 LYS         0.2040
     28 O          63.3310   -7.0270   38.6250 O.2       1 LYS        -0.3944
     29 CB         65.9960   -6.8680   36.6390 C.3       1 LYS        -0.0122
     30 CG         65.8900   -5.9130   35.4420 C.3       1 LYS        -0.0440
     31 CD         67.2180   -5.2590   35.1010 C.3       1 LYS        -0.0124
     32 CE         67.1730   -4.6310   33.7290 C.3       1 LYS        -0.0354
     33 NZ         68.4360   -3.9290   33.3860 N.4       1 LYS         0.2185
     34 N          62.7340   -6.4790   36.5010 N.am      1 PHE        -0.2619
     35 CA         61.5410   -5.7000   36.8170 C.3       1 PHE         0.1404
     36 C          60.3940   -6.4750   37.4650 C.2       1 PHE         0.2061
     37 O          59.4350   -5.8680   37.9540 O.2       1 PHE        -0.3942
     38 CB         61.0700   -4.9230   35.5840 C.3       1 PHE         0.0214
     39 CG         62.1640   -4.1510   34.8830 C.ar      1 PHE        -0.0386
     40 CD1        62.7040   -3.0050   35.4540 C.ar      1 PHE        -0.0601
     41 CD2        62.6260   -4.5480   33.6290 C.ar      1 PHE        -0.0601
     42 CE1        63.7090   -2.2900   34.7970 C.ar      1 PHE        -0.0686
     43 CE2        63.6070   -3.8140   32.9650 C.ar      1 PHE        -0.0686
     44 CZ         64.1450   -2.6980   33.5590 C.ar      1 PHE        -0.0687
     45 N          60.5090   -7.8090   37.4870 N.am      1 PHE        -0.2618
     46 CA         59.5140   -8.7090   38.0680 C.3       1 PHE         0.1404
     47 C          60.1860   -9.5680   39.1280 C.2       1 PHE         0.2055
     48 O          60.6720  -10.6660   38.8330 O.2       1 PHE        -0.3942
     49 CB         58.8330   -9.5420   36.9580 C.3       1 PHE         0.0214
     50 CG         58.0960   -8.6860   35.9540 C.ar      1 PHE        -0.0386
     51 CD1        56.7500   -8.3570   36.1480 C.ar      1 PHE        -0.0601
     52 CD2        58.7610   -8.1540   34.8440 C.ar      1 PHE        -0.0601
     53 CE1        56.0830   -7.5200   35.2480 C.ar      1 PHE        -0.0686
     54 CE2        58.0930   -7.3130   33.9450 C.ar      1 PHE        -0.0686
     55 CZ         56.7580   -7.0080   34.1510 C.ar      1 PHE        -0.0687
     56 N          60.2940   -9.0060   40.3470 N.am      1 ASN        -0.2672
     57 CA         60.9390   -9.6180   41.5170 C.3       1 ASN         0.1110
     58 C          60.1320   -9.2770   42.7820 C.2       1 ASN         0.0624
     59 O          59.7234   -8.1032   42.9888 O.co2     1 ASN        -0.5665
     60 CB         62.4100   -9.1240   41.6770 C.3       1 ASN         0.0718
     61 CG         63.4500   -9.5090   40.6190 C.2       1 ASN         0.1774
     62 OD1        64.5110   -8.8840   40.5200 O.2       1 ASN        -0.3971
     63 ND2        63.2350  -10.5640   39.8470 N.am      1 ASN        -0.3007
     64 O          59.8769  -10.1820   43.6207 O.co2     1 ASN        -0.5665
     65 H1         64.9877  -17.4843   30.7822 H         1 THR         0.2016
     66 H2         66.5925  -17.3736   30.4332 H         1 THR         0.2016
     67 H3         65.5485  -16.2286   29.8776 H         1 THR         0.2016
     68 H4         66.2480  -16.7704   32.6567 H         1 THR         0.1125
     69 H5         67.1005  -14.3369   32.4421 H         1 THR         0.0674
     70 H6         66.9818  -15.1103   29.6982 H         1 THR         0.2102
     71 H7         69.2931  -15.0329   31.5722 H         1 THR         0.0258
     72 H8         68.5674  -16.5537   30.9500 H         1 THR         0.0258
     73 H9         68.6218  -16.2422   32.7182 H         1 THR         0.0258
     74 H10        65.6356  -14.7621   34.0255 H         1 ARG         0.1884
     75 H11        62.8663  -13.9244   33.3695 H         1 ARG         0.0800
     76 H12        63.1801  -13.5912   36.1373 H         1 ARG         0.0313
     77 H13        63.9214  -15.1818   35.7540 H         1 ARG         0.0313
     78 H14        61.8866  -16.0775   35.6180 H         1 ARG         0.0301
     79 H15        61.5067  -14.9797   34.2478 H         1 ARG         0.0301
     80 H16        60.8862  -13.2108   35.9138 H         1 ARG         0.0689
     81 H17        61.1310  -14.4164   37.2226 H         1 ARG         0.0689
     82 H18        58.8748  -14.2517   35.3148 H         1 ARG         0.2642
     83 H19        59.2302  -17.2857   38.0020 H         1 ARG         0.2615
     84 H20        60.6324  -16.2283   37.6883 H         1 ARG         0.2615
     85 H21        57.1025  -15.6087   35.7309 H         1 ARG         0.2615
     86 H22        57.2622  -16.9456   36.9014 H         1 ARG         0.2615
     87 H23        62.1703  -11.8141   34.0222 H         1 SER         0.1884
     88 H24        64.1265   -9.7187   33.5197 H         1 SER         0.0823
     89 H25        61.1172   -9.8116   33.7798 H         1 SER         0.0606
     90 H26        62.1317   -9.3965   32.3566 H         1 SER         0.0606
     91 H27        62.6620   -7.4465   33.4575 H         1 SER         0.2097
     92 H28        64.9222   -8.2845   34.8117 H         1 LYS         0.1883
     93 H29        65.0636   -8.5526   37.6178 H         1 LYS         0.0800
     94 H30        66.8824   -7.5017   36.4882 H         1 LYS         0.0312
     95 H31        66.1300   -6.2597   37.5457 H         1 LYS         0.0312
     96 H32        65.1604   -5.1257   35.6822 H         1 LYS         0.0269
     97 H33        65.5416   -6.4812   34.5670 H         1 LYS         0.0269
     98 H34        68.0108   -6.0213   35.1222 H         1 LYS         0.0317
     99 H35        67.4379   -4.4804   35.8463 H         1 LYS         0.0317
    100 H36        66.3465   -3.9057   33.6994 H         1 LYS         0.0813
    101 H37        66.9946   -5.4209   32.9846 H         1 LYS         0.0813
    102 H38        68.3578   -3.5278   32.4646 H         1 LYS         0.1994
    103 H39        69.2006   -4.5856   33.4027 H         1 LYS         0.1994
    104 H40        68.6068   -3.1971   34.0578 H         1 LYS         0.1994
    105 H41        62.9587   -6.6087   35.5352 H         1 PHE         0.1885
    106 H42        61.8552   -4.9540   37.5618 H         1 PHE         0.0823
    107 H43        60.2939   -4.2108   35.9008 H         1 PHE         0.0474
    108 H44        60.6403   -5.6393   34.8682 H         1 PHE         0.0474
    109 H45        62.3427   -2.6628   36.4170 H         1 PHE         0.0557
    110 H46        62.2173   -5.4383   33.1649 H         1 PHE         0.0557
    111 H47        64.1446   -1.4139   35.2636 H         1 PHE         0.0599
    112 H48        63.9448   -4.1228   31.9823 H         1 PHE         0.0599
    113 H49        64.9182   -2.1357   33.0481 H         1 PHE         0.0559
    114 H50        61.3272   -8.2153   37.0803 H         1 PHE         0.1885
    115 H51        58.7376   -8.1046   38.5598 H         1 PHE         0.0823
    116 H52        58.1153  -10.2317   37.4261 H         1 PHE         0.0474
    117 H53        59.6047  -10.1197   36.4283 H         1 PHE         0.0474
    118 H54        56.2187   -8.7551   37.0049 H         1 PHE         0.0557
    119 H55        59.8047   -8.3953   34.6779 H         1 PHE         0.0557
    120 H56        55.0399   -7.2720   35.4080 H         1 PHE         0.0599
    121 H57        58.6192   -6.9023   33.0909 H         1 PHE         0.0599
    122 H58        56.2378   -6.3651   33.4502 H         1 PHE         0.0559
    123 H59        59.9016   -8.0940   40.4663 H         1 ASN         0.1877
    124 H60        60.9488  -10.7097   41.3828 H         1 ASN         0.0752
    125 H61        62.7749   -9.5092   42.6406 H         1 ASN         0.0544
    126 H62        62.3776   -8.0250   41.7100 H         1 ASN         0.0544
    127 H63        63.9084  -10.8222   39.1542 H         1 ASN         0.1814
    128 H64        62.3994  -11.1021   39.9571 H         1 ASN         0.1814
@<TRIPOS>BOND
     1    1    2 1  
     2    2    3 1  
     3    2    5 1  
     4    3    4 2  
     5    3    8 am 
     6    5    6 1  
     7    5    7 1  
     8    8    9 1  
     9    9   10 1  
    10    9   12 1  
    11   10   11 2  
    12   10   19 am 
    13   12   13 1  
    14   13   14 1  
    15   14   15 1  
    16   15   16 ar 
    17   16   17 ar 
    18   16   18 ar 
    19   19   20 1  
    20   20   21 1  
    21   20   23 1  
    22   21   22 2  
    23   21   25 am 
    24   23   24 1  
    25   25   26 1  
    26   26   27 1  
    27   26   29 1  
    28   27   28 2  
    29   27   34 am 
    30   29   30 1  
    31   30   31 1  
    32   31   32 1  
    33   32   33 1  
    34   34   35 1  
    35   35   36 1  
    36   35   38 1  
    37   36   37 2  
    38   36   45 am 
    39   38   39 1  
    40   39   40 ar 
    41   39   41 ar 
    42   40   42 ar 
    43   41   43 ar 
    44   42   44 ar 
    45   43   44 ar 
    46   45   46 1  
    47   46   47 1  
    48   46   49 1  
    49   47   48 2  
    50   47   56 am 
    51   49   50 1  
    52   50   51 ar 
    53   50   52 ar 
    54   51   53 ar 
    55   52   54 ar 
    56   53   55 ar 
    57   54   55 ar 
    58   56   57 1  
    59   57   58 1  
    60   57   60 1  
    61   58   59 ar 
    62   60   61 1  
    63   61   62 2  
    64   61   63 am 
    65   58   64 ar 
    66    1   65 1  
    67    1   66 1  
    68    1   67 1  
    69    2   68 1  
    70    5   69 1  
    71    6   70 1  
    72    7   71 1  
    73    7   72 1  
    74    7   73 1  
    75    8   74 1  
    76    9   75 1  
    77   12   76 1  
    78   12   77 1  
    79   13   78 1  
    80   13   79 1  
    81   14   80 1  
    82   14   81 1  
    83   15   82 1  
    84   17   83 1  
    85   17   84 1  
    86   18   85 1  
    87   18   86 1  
    88   19   87 1  
    89   20   88 1  
    90   23   89 1  
    91   23   90 1  
    92   24   91 1  
    93   25   92 1  
    94   26   93 1  
    95   29   94 1  
    96   29   95 1  
    97   30   96 1  
    98   30   97 1  
    99   31   98 1  
   100   31   99 1  
   101   32  100 1  
   102   32  101 1  
   103   33  102 1  
   104   33  103 1  
   105   33  104 1  
   106   34  105 1  
   107   35  106 1  
   108   38  107 1  
   109   38  108 1  
   110   40  109 1  
   111   41  110 1  
   112   42  111 1  
   113   43  112 1  
   114   44  113 1  
   115   45  114 1  
   116   46  115 1  
   117   49  116 1  
   118   49  117 1  
   119   51  118 1  
   120   52  119 1  
   121   53  120 1  
   122   54  121 1  
   123   55  122 1  
   124   56  123 1  
   125   57  124 1  
   126   60  125 1  
   127   60  126 1  
   128   63  127 1  
   129   63  128 1  
@<TRIPOS>SUBSTRUCTURE
     1 THR         1

