5nt0_ligand
  -I-interpret- 

 29 31  0  0  0  0  0  0  0  0999 V2000
   -6.1780  -36.7760    9.5510 C   0  0  0  0  0
   -6.2170  -37.2380    8.2280 C   0  0  0  0  0
   -5.6850  -36.4920    7.2650 N   0  0  0  0  0
   -6.8000  -38.4520    7.9080 C   0  0  0  0  0
   -7.3540  -39.2290    8.9050 C   0  0  0  0  0
   -7.3030  -38.7860   10.2240 C   0  0  0  0  0
   -6.7580  -37.5450   10.5600 C   0  0  0  0  0
   -6.7000  -37.1910   11.9150 C   0  0  0  0  0
   -5.9070  -36.2110   12.3690 N   0  0  0  0  0
   -5.8250  -35.9300   13.6900 C   0  0  0  0  0
   -4.9950  -34.9040   14.1090 C   0  0  0  0  0
   -4.8830  -34.6120   15.4720 C   0  0  0  0  0
   -5.5980  -35.3580   16.4170 C   0  0  0  0  0
   -6.4220  -36.4000   15.9890 C   0  0  0  0  0
   -6.5150  -36.6820   14.6360 C   0  0  0  0  0
   -7.3500  -37.7030   14.1780 C   0  0  0  0  0
   -8.0410  -38.3670   14.9410 O   0  0  0  0  0
   -7.4280  -37.9420   12.8190 N   0  0  0  0  0
   -5.6995  -35.8259    9.7887 H   0  0  0  0  0
   -5.2553  -35.5955    7.4929 H   0  0  0  0  0
   -5.7065  -36.8161    6.2981 H   0  0  0  0  0
   -6.8214  -38.7929    6.8729 H   0  0  0  0  0
   -7.8270  -40.1805    8.6621 H   0  0  0  0  0
   -7.6985  -39.4240   11.0143 H   0  0  0  0  0
   -4.4302  -34.3252   13.3781 H   0  0  0  0  0
   -4.2355  -33.7991   15.8006 H   0  0  0  0  0
   -5.5117  -35.1267   17.4787 H   0  0  0  0  0
   -6.9874  -36.9867   16.7130 H   0  0  0  0  0
   -8.0345  -38.6870   12.4763 H   0  0  0  0  0
  1  2  4  0  0  0
  1  7  4  0  0  0
  2  3  1  0  0  0
  2  4  4  0  0  0
  4  5  4  0  0  0
  5  6  4  0  0  0
  6  7  4  0  0  0
  7  8  1  0  0  0
  8  9  2  0  0  0
  8 18  1  0  0  0
  9 10  1  0  0  0
 10 11  4  0  0  0
 10 15  4  0  0  0
 11 12  4  0  0  0
 12 13  4  0  0  0
 13 14  4  0  0  0
 14 15  4  0  0  0
 15 16  1  0  0  0
 16 17  2  0  0  0
 16 18  1  0  0  0
  1 19  1  0  0  0
  3 20  1  0  0  0
  3 21  1  0  0  0
  4 22  1  0  0  0
  5 23  1  0  0  0
  6 24  1  0  0  0
 11 25  1  0  0  0
 12 26  1  0  0  0
 13 27  1  0  0  0
 14 28  1  0  0  0
 18 29  1  0  0  0
M  END
$$$$
