6s9d_ligand
  -I-interpret- 

 52 56  0  0  0  0  0  0  0  0999 V2000
  -22.1350  -53.5610    1.3000 C   0  0  0  0  0
  -20.1670  -52.1550    0.8400 C   0  0  0  0  0
  -18.0400  -52.2560    1.2240 C   0  0  0  0  0
  -16.7510  -52.5530    1.6660 C   0  0  0  0  0
  -15.6840  -51.7690    1.2690 C   0  0  0  0  0
  -18.2490  -51.1540    0.3790 C   0  0  0  0  0
  -22.1800  -49.9670   -2.3210 C   0  0  0  0  0
  -22.7100  -50.2570   -3.7340 C   0  0  0  0  0
  -23.3250  -51.6480   -3.8810 C   0  0  0  0  0
  -25.5000  -51.9440   -2.6620 C   0  0  0  0  0
  -27.6260  -51.1330   -3.4850 C   0  0  0  0  0
  -27.5790  -52.5670   -1.5640 C   0  0  0  0  0
  -26.1760  -52.6390   -1.6230 C   0  0  0  0  0
  -25.4580  -55.3480    0.7700 C   0  0  0  0  0
  -24.2040  -53.1220   -0.1290 C   0  0  0  0  0
  -21.5560  -54.2940    2.0790 O   0  0  0  0  0
  -21.4900  -52.5090    0.7280 N   0  0  0  0  0
  -19.2340  -52.8380    1.4350 N   0  0  0  0  0
  -15.8880  -50.6790    0.4320 C   0  0  0  0  0
  -17.1650  -50.3670   -0.0070 C   0  0  0  0  0
  -19.6030  -51.1320    0.1190 N   0  0  0  0  0
  -20.2930  -50.1370   -0.7120 C   0  0  0  0  0
  -20.8670  -50.7070   -2.0210 C   0  0  0  0  0
  -24.1320  -52.0000   -2.7410 O   0  0  0  0  0
  -26.2490  -51.1830   -3.5770 C   0  0  0  0  0
  -28.2830  -51.8190   -2.4840 C   0  0  0  0  0
  -25.4740  -53.4780   -0.5990 C   0  0  0  0  0
  -26.0560  -54.5890   -0.1270 N   0  0  0  0  0
  -24.1970  -55.0430    1.2710 C   0  0  0  0  0
  -23.5350  -53.8770    0.8610 C   0  0  0  0  0
  -16.5847  -53.4047    2.3256 H   0  0  0  0  0
  -14.6779  -52.0070    1.6142 H   0  0  0  0  0
  -22.9284  -50.3067   -1.6050 H   0  0  0  0  0
  -21.9870  -48.8967   -2.2475 H   0  0  0  0  0
  -21.8644  -50.1987   -4.4193 H   0  0  0  0  0
  -23.4928  -49.5287   -3.9460 H   0  0  0  0  0
  -22.5155  -52.3732   -3.9644 H   0  0  0  0  0
  -23.9625  -51.6488   -4.7651 H   0  0  0  0  0
  -28.1968  -50.5487   -4.2067 H   0  0  0  0  0
  -28.1151  -53.1074   -0.7838 H   0  0  0  0  0
  -25.9675  -56.2419    1.1299 H   0  0  0  0  0
  -23.7171  -52.2369   -0.5385 H   0  0  0  0  0
  -22.0628  -51.9042    0.1394 H   0  0  0  0  0
  -15.0414  -50.0676    0.1197 H   0  0  0  0  0
  -17.3220  -49.5048   -0.6552 H   0  0  0  0  0
  -19.5600  -49.3773   -0.9834 H   0  0  0  0  0
  -21.1315  -49.7544   -0.1301 H   0  0  0  0  0
  -20.1586  -50.5661   -2.8374 H   0  0  0  0  0
  -21.0507  -51.7766   -1.9191 H   0  0  0  0  0
  -25.7390  -50.6285   -4.3647 H   0  0  0  0  0
  -29.3700  -51.7691   -2.4199 H   0  0  0  0  0
  -23.7209  -55.7139    1.9861 H   0  0  0  0  0
  1 16  2  0  0  0
  1 17  1  0  0  0
 30  1  1  0  0  0
 17  2  1  0  0  0
  2 18  4  0  0  0
  2 21  4  0  0  0
  3  4  4  0  0  0
  6  3  4  0  0  0
 18  3  4  0  0  0
  4  5  4  0  0  0
 19  5  4  0  0  0
  6 20  4  0  0  0
 21  6  4  0  0  0
  8  7  1  0  0  0
  7 23  1  0  0  0
  9  8  1  0  0  0
 24  9  1  0  0  0
 13 10  4  0  0  0
 10 24  1  0  0  0
 10 25  4  0  0  0
 25 11  4  0  0  0
 26 11  4  0  0  0
 13 12  4  0  0  0
 12 26  4  0  0  0
 27 13  1  0  0  0
 28 14  4  0  0  0
 14 29  4  0  0  0
 27 15  4  0  0  0
 15 30  4  0  0  0
 20 19  4  0  0  0
 21 22  1  0  0  0
 22 23  1  0  0  0
 27 28  4  0  0  0
 29 30  4  0  0  0
  4 31  1  0  0  0
  5 32  1  0  0  0
  7 33  1  0  0  0
  7 34  1  0  0  0
  8 35  1  0  0  0
  8 36  1  0  0  0
  9 37  1  0  0  0
  9 38  1  0  0  0
 11 39  1  0  0  0
 12 40  1  0  0  0
 14 41  1  0  0  0
 15 42  1  0  0  0
 17 43  1  0  0  0
 19 44  1  0  0  0
 20 45  1  0  0  0
 22 46  1  0  0  0
 22 47  1  0  0  0
 23 48  1  0  0  0
 23 49  1  0  0  0
 25 50  1  0  0  0
 26 51  1  0  0  0
 29 52  1  0  0  0
M  END
$$$$
