1exv_ligand
  -I-interpret- 

 49 52  0  0  0  0  0  0  0  0999 V2000
   97.6380   92.2600   75.7210 C   0  0  0  0  0
   97.6230   91.2390   74.5590 C   0  0  0  0  0
   98.7270   90.3510   74.3240 C   0  0  0  0  0
   98.6790   89.4100   73.2590 C   0  0  0  0  0
   97.5380   89.3350   72.4210 C   0  0  0  0  0
   96.4380   90.2120   72.6430 C   0  0  0  0  0
   96.4830   91.1610   73.7070 C   0  0  0  0  0
   96.7350   91.8380   76.9520 C   0  0  0  0  0
   97.2770   90.5970   77.4450 C   0  0  0  0  0
   98.2570   90.6450   78.1600 O   0  0  0  0  0
   96.7170   89.4350   77.0000 N   0  0  0  0  0
   95.4720   89.1040   76.2700 C   0  0  0  0  0
   95.7740   87.6130   76.4730 C   0  0  0  0  0
   94.7080   86.6570   77.0280 C   0  0  0  0  0
   93.5360   87.0200   76.8360 O   0  0  0  0  0
   95.1640   85.6300   77.5470 O   0  0  0  0  0
   97.0260   88.0630   77.3670 C   0  0  0  0  0
   96.7280   92.9170   77.9730 N   0  0  0  0  0
   95.9860   92.8420   79.1270 C   0  0  0  0  0
   95.9830   93.9110   80.1670 C   0  0  0  0  0
   96.7220   95.2410   80.2310 C   0  0  0  0  0
   96.3170   95.8390   81.5580 C   0  0  0  0  0
   95.4320   94.8700   82.0970 C   0  0  0  0  0
   94.8200   95.0610   83.3710 C   0  0  0  0  0
   95.1350   96.2440   84.0960 C   0  0  0  0  0
   96.0280   97.2130   83.5590 C   0  0  0  0  0
   96.3760   98.6320   84.4890 Cl  0  0  0  0  0
   96.6350   97.0270   82.2740 C   0  0  0  0  0
   95.2830   93.8100   81.2570 N   0  0  0  0  0
   95.2910   91.8780   79.3700 O   0  0  0  0  0
   97.2430   93.1994   75.3342 H   0  0  0  0  0
   98.6650   92.3304   76.0794 H   0  0  0  0  0
   99.6068   90.3986   74.9657 H   0  0  0  0  0
   99.5236   88.7431   73.0861 H   0  0  0  0  0
   97.5027   88.6084   71.6093 H   0  0  0  0  0
   95.5604   90.1579   71.9988 H   0  0  0  0  0
   95.6392   91.8316   73.8697 H   0  0  0  0  0
   95.6916   91.6921   76.6725 H   0  0  0  0  0
   95.2958   89.5008   75.2702 H   0  0  0  0  0
   94.5172   89.5225   76.5883 H   0  0  0  0  0
   95.8921   86.9360   75.6270 H   0  0  0  0  0
   93.5344   87.8781   76.4056 H   0  0  0  0  0
   97.1165   87.7609   78.4104 H   0  0  0  0  0
   98.0186   87.6422   77.2068 H   0  0  0  0  0
   97.2974   93.7476   77.8107 H   0  0  0  0  0
   97.3936   95.6667   79.4855 H   0  0  0  0  0
   94.1303   94.3214   83.7778 H   0  0  0  0  0
   94.6865   96.4102   85.0754 H   0  0  0  0  0
   97.3166   97.7698   81.8595 H   0  0  0  0  0
  1  2  1  0  0  0
  1  8  1  0  0  0
  2  3  4  0  0  0
  2  7  4  0  0  0
  3  4  4  0  0  0
  4  5  4  0  0  0
  5  6  4  0  0  0
  6  7  4  0  0  0
  8  9  1  0  0  0
  8 18  1  0  0  0
  9 10  2  0  0  0
  9 11  1  0  0  0
 11 12  1  0  0  0
 11 17  1  0  0  0
 12 13  1  0  0  0
 13 14  1  0  0  0
 13 17  1  0  0  0
 14 15  1  0  0  0
 14 16  2  0  0  0
 18 19  1  0  0  0
 19 20  1  0  0  0
 19 30  2  0  0  0
 20 21  4  0  0  0
 20 29  4  0  0  0
 21 22  4  0  0  0
 22 23  4  0  0  0
 22 28  4  0  0  0
 23 24  4  0  0  0
 23 29  4  0  0  0
 24 25  4  0  0  0
 25 26  4  0  0  0
 26 27  1  0  0  0
 26 28  4  0  0  0
  1 31  1  0  0  0
  1 32  1  0  0  0
  3 33  1  0  0  0
  4 34  1  0  0  0
  5 35  1  0  0  0
  6 36  1  0  0  0
  7 37  1  0  0  0
  8 38  1  0  0  0
 12 39  1  0  0  0
 12 40  1  0  0  0
 13 41  1  0  0  0
 15 42  1  0  0  0
 17 43  1  0  0  0
 17 44  1  0  0  0
 18 45  1  0  0  0
 21 46  1  0  0  0
 24 47  1  0  0  0
 25 48  1  0  0  0
 28 49  1  0  0  0
M  END
$$$$
