4fl3_ligand
  -I-interpret- 

 48 50  0  0  0  0  0  0  0  0999 V2000
   -1.9130   -9.5100   -6.2300 P   0  0  0  0  0
   -2.6750   -8.6880   -5.1500 O   0  0  0  0  0
   -1.0120   -8.6190   -7.1350 O   0  0  0  0  0
   -3.0110  -10.1590   -7.1360 O   0  0  0  0  0
    0.5790  -10.7010   -5.2750 P   0  0  0  0  0
    0.8710   -9.4650   -4.3960 O   0  0  0  0  0
    1.0160  -12.0060   -4.5860 O   0  0  0  0  0
   -1.0880  -10.8230   -5.5220 N   0  0  0  0  0
    2.4940   -9.5860   -7.3070 P   0  0  0  0  0
    2.3910   -9.5540   -8.8380 O   0  0  0  0  0
    2.4140   -8.1950   -6.6590 O   0  0  0  0  0
    1.3420  -10.5550   -6.6920 O   0  0  0  0  0
    3.9060  -10.2470   -6.9480 O   0  0  0  0  0
    4.0750  -11.6670   -7.0530 C   0  0  0  0  0
    5.4470  -12.0360   -6.4950 C   0  0  0  0  0
    6.4480  -11.2000   -7.1190 O   0  0  0  0  0
    5.5350  -11.7280   -4.9810 C   0  0  0  0  0
    5.0070  -12.8240   -4.2330 O   0  0  0  0  0
    7.0590  -11.5910   -4.7910 C   0  0  0  0  0
    7.7080  -12.8830   -4.7210 O   0  0  0  0  0
    7.4340  -10.8910   -6.1200 C   0  0  0  0  0
    7.6370   -9.4490   -5.9880 N   0  0  0  0  0
    6.7500   -8.4240   -6.2030 C   0  0  0  0  0
    7.3650   -7.2900   -6.0440 N   0  0  0  0  0
    8.6610   -7.5270   -5.6890 C   0  0  0  0  0
    9.7810   -6.7400   -5.3580 C   0  0  0  0  0
    9.7290   -5.3560   -5.3570 N   0  0  0  0  0
   10.9250   -7.3630   -5.0570 N   0  0  0  0  0
   11.0420   -8.6850   -5.0380 C   0  0  0  0  0
   10.0260   -9.4660   -5.3380 N   0  0  0  0  0
    8.8410   -8.9220   -5.6580 C   0  0  0  0  0
   -0.5655   -9.1702   -7.7818 H   0  0  0  0  0
   -2.5900  -10.6806   -7.8232 H   0  0  0  0  0
    0.5863   -8.6720   -4.8562 H   0  0  0  0  0
   -1.5920  -11.6677   -5.2521 H   0  0  0  0  0
    2.4841   -8.2829   -5.7056 H   0  0  0  0  0
    4.0039  -11.9733   -8.0967 H   0  0  0  0  0
    3.2948  -12.1767   -6.4876 H   0  0  0  0  0
    5.6029  -13.0981   -6.6838 H   0  0  0  0  0
    4.9750  -10.8531   -4.6507 H   0  0  0  0  0
    5.0643  -12.6271   -3.2952 H   0  0  0  0  0
    7.3505  -11.0729   -3.8774 H   0  0  0  0  0
    8.6527  -12.7593   -4.6029 H   0  0  0  0  0
    8.4025  -11.2824   -6.4312 H   0  0  0  0  0
    5.6986   -8.5420   -6.4650 H   0  0  0  0  0
    8.8615   -4.8781   -5.6008 H   0  0  0  0  0
   10.5582   -4.8147   -5.1124 H   0  0  0  0  0
   11.9986   -9.1328   -4.7686 H   0  0  0  0  0
  1  2  2  0  0  0
  1  3  1  0  0  0
  1  4  1  0  0  0
  8  1  1  0  0  0
  5  6  1  0  0  0
  5  7  2  0  0  0
  5  8  1  0  0  0
 12  5  1  0  0  0
  9 10  2  0  0  0
  9 11  1  0  0  0
  9 12  1  0  0  0
  9 13  1  0  0  0
 13 14  1  0  0  0
 14 15  1  0  0  0
 15 16  1  0  0  0
 15 17  1  0  0  0
 16 21  1  0  0  0
 17 18  1  0  0  0
 17 19  1  0  0  0
 19 20  1  0  0  0
 19 21  1  0  0  0
 21 22  1  0  0  0
 22 23  4  0  0  0
 22 31  4  0  0  0
 23 24  4  0  0  0
 24 25  4  0  0  0
 25 26  4  0  0  0
 25 31  4  0  0  0
 26 27  1  0  0  0
 26 28  4  0  0  0
 28 29  4  0  0  0
 29 30  4  0  0  0
 30 31  4  0  0  0
  3 32  1  0  0  0
  4 33  1  0  0  0
  6 34  1  0  0  0
  8 35  1  0  0  0
 11 36  1  0  0  0
 14 37  1  0  0  0
 14 38  1  0  0  0
 15 39  1  0  0  0
 17 40  1  0  0  0
 18 41  1  0  0  0
 19 42  1  0  0  0
 20 43  1  0  0  0
 21 44  1  0  0  0
 23 45  1  0  0  0
 27 46  1  0  0  0
 27 47  1  0  0  0
 29 48  1  0  0  0
M  END
$$$$
