### 
### Created by X-TOOL on Mon Sep 10 21:13:09 2018
### 

@<TRIPOS>MOLECULE
4fl3_ligand
   44    46     1     0     0
SMALL
GAST_HUCK


@<TRIPOS>ATOM
      1 PG         -1.9130   -9.5100   -6.2300 P.3       1 ANP         0.1803
      2 O1G        -2.6750   -8.6880   -5.1500 O.co2     1 ANP        -0.5454
      3 O2G        -1.0120   -8.6190   -7.1350 O.co2     1 ANP        -0.5454
      4 O3G        -3.0110  -10.1590   -7.1360 O.co2     1 ANP        -0.5454
      5 PB          0.5790  -10.7010   -5.2750 P.3       1 ANP         0.2543
      6 O1B         0.8710   -9.4650   -4.3960 O.co2     1 ANP        -0.6257
      7 O2B         1.0160  -12.0060   -4.5860 O.co2     1 ANP        -0.6257
      8 N3B        -1.0880  -10.8230   -5.5220 N.am      1 ANP        -0.1803
      9 PA          2.4940   -9.5860   -7.3070 P.3       1 ANP         0.2949
     10 O1A         2.3910   -9.5540   -8.8380 O.co2     1 ANP        -0.6129
     11 O2A         2.4140   -8.1950   -6.6590 O.co2     1 ANP        -0.6129
     12 O3A         1.3420  -10.5550   -6.6920 O.3       1 ANP        -0.1431
     13 O5'         3.9060  -10.2470   -6.9480 O.3       1 ANP        -0.2478
     14 C5'         4.0750  -11.6670   -7.0530 C.3       1 ANP         0.1128
     15 C4'         5.4470  -12.0360   -6.4950 C.3       1 ANP         0.1189
     16 O4'         6.4480  -11.2000   -7.1190 O.3       1 ANP        -0.3364
     17 C3'         5.5350  -11.7280   -4.9810 C.3       1 ANP         0.1149
     18 O3'         5.0070  -12.8240   -4.2330 O.3       1 ANP        -0.3864
     19 C2'         7.0590  -11.5910   -4.7910 C.3       1 ANP         0.1385
     20 O2'         7.7080  -12.8830   -4.7210 O.3       1 ANP        -0.3836
     21 C1'         7.4340  -10.8910   -6.1200 C.3       1 ANP         0.2010
     22 N9          7.6370   -9.4490   -5.9880 N.pl3     1 ANP        -0.1919
     23 C8          6.7500   -8.4240   -6.2030 C.2       1 ANP         0.1123
     24 N7          7.3650   -7.2900   -6.0440 N.2       1 ANP        -0.2958
     25 C5          8.6610   -7.5270   -5.6890 C.ar      1 ANP         0.1045
     26 C6          9.7810   -6.7400   -5.3580 C.ar      1 ANP         0.1298
     27 N6          9.7290   -5.3560   -5.3570 N.pl3     1 ANP        -0.3152
     28 N1         10.9250   -7.3630   -5.0570 N.ar      1 ANP        -0.2698
     29 C2         11.0420   -8.6850   -5.0380 C.ar      1 ANP         0.0533
     30 N3         10.0260   -9.4660   -5.3380 N.ar      1 ANP        -0.2714
     31 C4          8.8410   -8.9220   -5.6580 C.ar      1 ANP         0.1613
     32 H          -1.5920  -11.6677   -5.2521 H         1 ANP         0.2132
     33 H           4.0039  -11.9733   -8.0967 H         1 ANP         0.0648
     34 H           3.2948  -12.1767   -6.4876 H         1 ANP         0.0648
     35 H           5.6029  -13.0981   -6.6838 H         1 ANP         0.0651
     36 H           4.9750  -10.8531   -4.6507 H         1 ANP         0.0648
     37 H           5.5141  -13.6158   -4.4264 H         1 ANP         0.2100
     38 H           7.3505  -11.0729   -3.8774 H         1 ANP         0.0676
     39 H           8.6527  -12.7593   -4.6029 H         1 ANP         0.2101
     40 H           8.4025  -11.2824   -6.4312 H         1 ANP         0.0996
     41 H           5.6986   -8.5420   -6.4650 H         1 ANP         0.1349
     42 H           8.8615   -4.8781   -5.6008 H         1 ANP         0.1820
     43 H          10.5582   -4.8147   -5.1124 H         1 ANP         0.1820
     44 H          11.9986   -9.1328   -4.7686 H         1 ANP         0.0996
@<TRIPOS>BOND
     1    1    2 ar 
     2    1    3 ar 
     3    1    4 ar 
     4    8    1 am 
     5    5    6 ar 
     6    5    7 ar 
     7    5    8 1  
     8   12    5 1  
     9    9   10 ar 
    10    9   11 ar 
    11    9   12 1  
    12    9   13 1  
    13   13   14 1  
    14   14   15 1  
    15   15   16 1  
    16   15   17 1  
    17   16   21 1  
    18   17   18 1  
    19   17   19 1  
    20   19   20 1  
    21   19   21 1  
    22   21   22 1  
    23   22   23 1  
    24   22   31 1  
    25   23   24 2  
    26   24   25 1  
    27   25   26 ar 
    28   25   31 ar 
    29   26   27 1  
    30   26   28 ar 
    31   28   29 ar 
    32   29   30 ar 
    33   30   31 ar 
    34    8   32 1  
    35   14   33 1  
    36   14   34 1  
    37   15   35 1  
    38   17   36 1  
    39   18   37 1  
    40   19   38 1  
    41   20   39 1  
    42   21   40 1  
    43   23   41 1  
    44   27   42 1  
    45   27   43 1  
    46   29   44 1  
@<TRIPOS>SUBSTRUCTURE
     1 ANP         1

