6i8l_ligand
  -I-interpret- 

 66 71  0  0  0  0  0  0  0  0999 V2000
   -6.2000  -36.1950   -7.6240 N   0  0  0  0  0
   -5.5880  -39.2050   -5.8660 C   0  0  0  0  0
   -5.4710  -37.2940   -7.6260 C   0  0  0  0  0
   -7.4670  -36.6000   -7.1950 C   0  0  0  0  0
   -8.5640  -35.7750   -6.9730 C   0  0  0  0  0
   -9.7280  -36.3380   -6.5050 C   0  0  0  0  0
   -8.6800  -38.5450   -6.4210 C   0  0  0  0  0
  -11.8520  -40.2620   -6.6360 C   0  0  0  0  0
  -12.9580  -41.1930   -6.3200 C   0  0  0  0  0
  -11.9490  -33.7730   -5.3590 C   0  0  0  0  0
  -14.1780  -37.5880   -3.4720 C   0  0  0  0  0
  -14.7040  -38.6890   -2.8100 C   0  0  0  0  0
  -15.7880  -39.3660   -3.3390 C   0  0  0  0  0
  -15.8200  -37.8580   -5.2030 C   0  0  0  0  0
  -14.0060  -35.9770   -5.1920 C   0  0  0  0  0
   -4.2020  -37.3260   -8.0470 N   0  0  0  0  0
   -5.1790  -40.6140   -6.2790 C   0  0  0  0  0
  -11.0010  -38.1620   -5.7960 O   0  0  0  0  0
   -6.0010  -40.9900   -7.3870 C   0  0  0  0  0
   -7.5330  -37.9710   -6.9430 C   0  0  0  0  0
  -11.1810  -39.5590   -5.4890 C   0  0  0  0  0
  -13.2350  -39.9040   -6.9960 C   0  0  0  0  0
  -10.6910  -34.2140   -6.0560 C   0  0  0  0  0
  -12.2990  -34.6070   -4.1250 C   0  0  0  0  0
  -13.0230  -36.7100   -3.1010 C   0  0  0  0  0
   -6.1770  -39.7250   -8.1840 C   0  0  0  0  0
  -16.3450  -38.9550   -4.5290 C   0  0  0  0  0
  -14.7320  -37.1760   -4.6760 C   0  0  0  0  0
   -6.1590  -38.5400   -7.1540 C   0  0  0  0  0
   -9.7920  -37.7190   -6.2010 C   0  0  0  0  0
  -12.7250  -35.9880   -4.3700 N   0  3  0  0  0
  -10.8690  -35.6230   -6.2580 O   0  0  0  0  0
   -5.9034  -35.2533   -7.8801 H   0  0  0  0  0
   -4.7413  -38.6443   -5.4699 H   0  0  0  0  0
   -6.3277  -39.2233   -5.0656 H   0  0  0  0  0
   -8.5026  -34.7040   -7.1660 H   0  0  0  0  0
   -8.7176  -39.6091   -6.1876 H   0  0  0  0  0
  -10.9149  -40.3236   -7.1894 H   0  0  0  0  0
  -13.3271  -41.7707   -5.4726 H   0  0  0  0  0
  -13.1998  -42.2493   -6.4374 H   0  0  0  0  0
  -12.7688  -33.8843   -6.0687 H   0  0  0  0  0
  -11.7914  -32.7480   -5.0234 H   0  0  0  0  0
  -14.2616  -39.0209   -1.8708 H   0  0  0  0  0
  -16.2019  -40.2262   -2.8129 H   0  0  0  0  0
  -16.2626  -37.5337   -6.1448 H   0  0  0  0  0
  -14.5751  -35.0538   -5.0832 H   0  0  0  0  0
  -13.8244  -36.0174   -6.2660 H   0  0  0  0  0
   -3.6878  -38.2069   -8.0501 H   0  0  0  0  0
   -5.3132  -41.3093   -5.4503 H   0  0  0  0  0
   -4.1257  -40.6398   -6.5584 H   0  0  0  0  0
   -6.9570  -41.4002   -7.0615 H   0  0  0  0  0
   -5.5442  -41.7823   -7.9800 H   0  0  0  0  0
  -10.2060  -40.0137   -5.3138 H   0  0  0  0  0
  -11.8056  -39.6508   -4.6004 H   0  0  0  0  0
  -13.7845  -39.5383   -7.8635 H   0  0  0  0  0
  -13.9126  -39.0565   -6.8922 H   0  0  0  0  0
   -9.7994  -33.9944   -5.4686 H   0  0  0  0  0
  -10.5358  -33.6825   -6.9949 H   0  0  0  0  0
  -13.1459  -34.1085   -3.6534 H   0  0  0  0  0
  -11.3847  -34.6727   -3.5352 H   0  0  0  0  0
  -12.1686  -37.2739   -2.7267 H   0  0  0  0  0
  -13.2547  -36.0352   -2.2770 H   0  0  0  0  0
   -7.1139  -39.7428   -8.7408 H   0  0  0  0  0
   -5.3800  -39.6140   -8.9193 H   0  0  0  0  0
  -17.1991  -39.4905   -4.9436 H   0  0  0  0  0
  -11.9625  -36.4600   -4.8561 H   0  0  0  0  0
  1  3  1  0  0  0
  4  1  1  0  0  0
  2 17  1  0  0  0
 29  2  1  0  0  0
  3 16  2  0  0  0
 29  3  1  0  0  0
  5  4  4  0  0  0
  4 20  4  0  0  0
  6  5  4  0  0  0
  6 30  4  0  0  0
 32  6  1  0  0  0
  7 20  4  0  0  0
 30  7  4  0  0  0
  8  9  1  0  0  0
 21  8  1  0  0  0
  8 22  1  0  0  0
 22  9  1  0  0  0
 10 23  1  0  0  0
 24 10  1  0  0  0
 11 12  4  0  0  0
 11 25  1  0  0  0
 28 11  4  0  0  0
 12 13  4  0  0  0
 27 13  4  0  0  0
 14 27  4  0  0  0
 28 14  4  0  0  0
 15 28  1  0  0  0
 31 15  1  0  0  0
 17 19  1  0  0  0
 18 21  1  0  0  0
 30 18  1  0  0  0
 19 26  1  0  0  0
 20 29  1  0  0  0
 23 32  1  0  0  0
 24 31  1  0  0  0
 25 31  1  0  0  0
 26 29  1  0  0  0
  1 33  1  0  0  0
  2 34  1  0  0  0
  2 35  1  0  0  0
  5 36  1  0  0  0
  7 37  1  0  0  0
  8 38  1  0  0  0
  9 39  1  0  0  0
  9 40  1  0  0  0
 10 41  1  0  0  0
 10 42  1  0  0  0
 12 43  1  0  0  0
 13 44  1  0  0  0
 14 45  1  0  0  0
 15 46  1  0  0  0
 15 47  1  0  0  0
 16 48  1  0  0  0
 17 49  1  0  0  0
 17 50  1  0  0  0
 19 51  1  0  0  0
 19 52  1  0  0  0
 21 53  1  0  0  0
 21 54  1  0  0  0
 22 55  1  0  0  0
 22 56  1  0  0  0
 23 57  1  0  0  0
 23 58  1  0  0  0
 24 59  1  0  0  0
 24 60  1  0  0  0
 25 61  1  0  0  0
 25 62  1  0  0  0
 26 63  1  0  0  0
 26 64  1  0  0  0
 27 65  1  0  0  0
 31 66  1  0  0  0
M  END
$$$$
