2csn_ligand
  -I-interpret- 

 31 32  0  0  0  0  0  0  0  0999 V2000
  -26.0360   52.5440   48.7070 C   0  0  0  0  0
  -26.3280   53.8600   48.6740 N   0  0  0  0  0
  -25.9600   54.6580   49.7550 C   0  0  0  0  0
  -25.2620   54.1860   50.9050 C   0  0  0  0  0
  -24.2450   52.1740   52.0210 C   0  0  0  0  0
  -23.7540   53.0720   53.3160 Cl  0  0  0  0  0
  -23.9130   50.8010   51.9750 C   0  0  0  0  0
  -24.2980   50.0150   50.8640 C   0  0  0  0  0
  -24.9970   50.6230   49.7940 C   0  0  0  0  0
  -25.3320   51.9980   49.8130 C   0  0  0  0  0
  -24.9430   52.7940   50.9230 C   0  0  0  0  0
  -25.5590   49.6600   48.4320 S   0  0  0  0  0
  -24.9030   48.4270   48.4520 O   0  0  0  0  0
  -26.9120   49.6470   48.6610 O   0  0  0  0  0
  -25.4440   50.4180   46.9100 N   0  0  0  0  0
  -24.4610   50.3720   45.7790 C   0  0  0  0  0
  -24.3230   48.9460   45.1690 C   0  0  0  0  0
  -24.4100   47.6600   45.9210 N   0  3  0  0  0
  -26.3408   51.8982   47.8835 H   0  0  0  0  0
  -26.2236   55.7150   49.7191 H   0  0  0  0  0
  -24.9872   54.8502   51.7244 H   0  0  0  0  0
  -23.3594   50.3472   52.7970 H   0  0  0  0  0
  -24.0589   48.9520   50.8322 H   0  0  0  0  0
  -26.2242   51.0487   46.7260 H   0  0  0  0  0
  -23.4865   50.6681   46.1673 H   0  0  0  0  0
  -24.8174   51.0406   44.9954 H   0  0  0  0  0
  -23.2850   48.9427   44.8364 H   0  0  0  0  0
  -25.2009   48.8904   44.5253 H   0  0  0  0  0
  -24.2838   46.8807   45.2752 H   0  0  0  0  0
  -23.6806   47.6342   46.6335 H   0  0  0  0  0
  -25.3248   47.5893   46.3665 H   0  0  0  0  0
  1 10  4  0  0  0
  1  2  4  0  0  0
  2  3  4  0  0  0
  3  4  4  0  0  0
  4 11  4  0  0  0
 11 10  4  0  0  0
 11  5  4  0  0  0
  5  7  4  0  0  0
  5  6  1  0  0  0
  7  8  4  0  0  0
  8  9  4  0  0  0
  9 12  1  0  0  0
  9 10  4  0  0  0
 12 15  1  0  0  0
 12 14  2  0  0  0
 12 13  2  0  0  0
 15 16  1  0  0  0
 16 17  1  0  0  0
 17 18  1  0  0  0
  1 19  1  0  0  0
  3 20  1  0  0  0
  4 21  1  0  0  0
  7 22  1  0  0  0
  8 23  1  0  0  0
 15 24  1  0  0  0
 16 25  1  0  0  0
 16 26  1  0  0  0
 17 27  1  0  0  0
 17 28  1  0  0  0
 18 29  1  0  0  0
 18 30  1  0  0  0
 18 31  1  0  0  0
M  END
$$$$
