4i9o_ligand
  -I-interpret- 

 40 41  0  0  0  0  0  0  0  0999 V2000
   25.2660   -2.1370   14.4930 O   0  0  0  0  0
   25.9380   -1.6990   15.4100 C   0  0  0  0  0
   27.4430   -1.8340   15.3840 C   0  0  0  0  0
   28.4730   -1.5040   14.4080 C   0  0  0  0  0
   28.7670    0.2840   14.4620 S   0  0  0  0  0
   25.3770   -1.0730   16.4650 N   0  0  0  0  0
   23.9430   -0.7790   16.5870 C   0  0  0  0  0
   23.6850    0.7220   16.5320 C   0  0  0  0  0
   24.4430    1.4560   17.6470 C   0  0  0  0  0
   23.8390    1.1010   18.8930 O   0  0  0  0  0
   25.8950    0.9700   17.7040 C   0  0  0  0  0
   26.1240   -0.5270   17.6050 C   0  0  0  0  0
   24.3810    2.9710   17.4780 C   0  0  0  0  0
   24.4570    3.5730   16.2230 C   0  0  0  0  0
   24.4220    4.9520   16.0900 C   0  0  0  0  0
   24.3270    5.7540   17.2220 C   0  0  0  0  0
   24.3090    7.4750   17.0060 Cl  0  0  0  0  0
   24.2550    5.1870   18.4930 C   0  0  0  0  0
   24.2770    3.8000   18.5910 C   0  0  0  0  0
   24.2130    6.0200   19.7370 C   0  0  0  0  0
   23.1320    6.7870   19.7980 F   0  0  0  0  0
   25.2510    6.8310   19.8080 F   0  0  0  0  0
   24.1410    5.3010   20.8380 F   0  0  0  0  0
   27.5114   -2.9208   15.3365 H   0  0  0  0  0
   27.6894   -1.0915   16.1429 H   0  0  0  0  0
   28.1469   -1.7970   13.4101 H   0  0  0  0  0
   29.3930   -2.0392   14.6432 H   0  0  0  0  0
   29.7059    0.6043   13.5761 H   0  0  0  0  0
   23.5889   -1.1592   17.5452 H   0  0  0  0  0
   23.4175   -1.2542   15.7587 H   0  0  0  0  0
   22.6172    0.8968   16.6635 H   0  0  0  0  0
   24.0301    1.0996   15.5695 H   0  0  0  0  0
   24.2967    1.5487   19.6083 H   0  0  0  0  0
   26.2694    1.2644   18.6844 H   0  0  0  0  0
   26.3891    1.4050   16.8352 H   0  0  0  0  0
   27.1875   -0.7192   17.4630 H   0  0  0  0  0
   25.7796   -1.0046   18.5222 H   0  0  0  0  0
   24.5453    2.9498   15.3331 H   0  0  0  0  0
   24.4688    5.4068   15.1005 H   0  0  0  0  0
   24.2101    3.3440   19.5788 H   0  0  0  0  0
  1  2  2  0  0  0
  2  3  1  0  0  0
  2  6  1  0  0  0
  3  4  1  0  0  0
  4  5  1  0  0  0
  6  7  1  0  0  0
  6 12  1  0  0  0
  7  8  1  0  0  0
  8  9  1  0  0  0
  9 10  1  0  0  0
  9 11  1  0  0  0
  9 13  1  0  0  0
 11 12  1  0  0  0
 13 14  4  0  0  0
 13 19  4  0  0  0
 14 15  4  0  0  0
 15 16  4  0  0  0
 16 17  1  0  0  0
 16 18  4  0  0  0
 18 19  4  0  0  0
 18 20  1  0  0  0
 20 21  1  0  0  0
 20 22  1  0  0  0
 20 23  1  0  0  0
  3 24  1  0  0  0
  3 25  1  0  0  0
  4 26  1  0  0  0
  4 27  1  0  0  0
  5 28  1  0  0  0
  7 29  1  0  0  0
  7 30  1  0  0  0
  8 31  1  0  0  0
  8 32  1  0  0  0
 10 33  1  0  0  0
 11 34  1  0  0  0
 11 35  1  0  0  0
 12 36  1  0  0  0
 12 37  1  0  0  0
 14 38  1  0  0  0
 15 39  1  0  0  0
 19 40  1  0  0  0
M  END
$$$$
