2rcb_ligand
  -I-interpret- 

 15 14  0  0  0  0  0  0  0  0999 V2000
   56.8520   23.9010   24.5850 N   0  3  0  0  0
   57.2810   23.1760   23.3220 C   0  0  0  0  0
   58.0390   24.0780   22.3760 C   0  0  0  0  0
   58.8790   23.5230   21.5900 O   0  0  0  0  0
   57.7780   25.2770   22.4230 O   0  0  0  0  0
   58.0300   21.9010   23.6440 C   0  0  0  0  0
   59.2890   22.1130   24.3470 O   0  0  0  0  0
   56.3514   24.7532   24.3330 H   0  0  0  0  0
   56.2404   23.2953   25.1322 H   0  0  0  0  0
   57.6769   24.1399   25.1353 H   0  0  0  0  0
   56.3756   22.8818   22.7912 H   0  0  0  0  0
   58.8941   22.5775   21.7556 H   0  0  0  0  0
   58.2669   21.4176   22.6962 H   0  0  0  0  0
   57.3910   21.3076   24.2979 H   0  0  0  0  0
   59.7061   21.2652   24.5168 H   0  0  0  0  0
  1  2  1  0  0  0
  2  3  1  0  0  0
  2  6  1  0  0  0
  3  4  1  0  0  0
  3  5  2  0  0  0
  6  7  1  0  0  0
  1  8  1  0  0  0
  1  9  1  0  0  0
  1 10  1  0  0  0
  2 11  1  0  0  0
  4 12  1  0  0  0
  6 13  1  0  0  0
  6 14  1  0  0  0
  7 15  1  0  0  0
M  END
$$$$
