6i61_ligand
  -I-interpret- 

 36 37  0  0  0  0  0  0  0  0999 V2000
  -16.0310   -0.6490  -26.1010 C   0  0  0  0  0
  -18.1090   -2.6570  -26.4070 C   0  0  0  0  0
  -15.5630   -1.9220  -30.3550 C   0  0  0  0  0
  -17.7340   -2.9260  -30.4950 C   0  0  0  0  0
  -16.8760   -6.4340  -25.3830 C   0  0  0  0  0
  -15.0400   -6.3140  -26.9410 C   0  0  0  0  0
  -15.5670   -2.1500  -28.9770 C   0  0  0  0  0
  -17.7380   -3.1500  -29.1180 C   0  0  0  0  0
  -17.1790   -5.1070  -25.6940 C   0  0  0  0  0
  -15.3510   -4.9970  -27.2440 C   0  0  0  0  0
  -15.7350   -2.1630  -26.0640 C   0  0  0  0  0
  -16.6540   -2.3150  -31.1210 C   0  0  0  0  0
  -15.7980   -7.0480  -26.0240 C   0  0  0  0  0
  -16.6540   -2.7580  -28.3280 C   0  0  0  0  0
  -16.4240   -4.3690  -26.6190 C   0  0  0  0  0
  -16.7010   -3.0150  -26.9210 C   0  0  0  0  0
  -16.6640   -2.1110  -32.4690 O   0  0  0  0  0
  -15.4630   -8.3500  -25.7450 O   0  0  0  0  0
  -15.9531   -0.2898  -27.1272 H   0  0  0  0  0
  -17.0386   -0.4678  -25.7267 H   0  0  0  0  0
  -15.3096   -0.1237  -25.4751 H   0  0  0  0  0
  -18.1822   -2.9063  -25.3484 H   0  0  0  0  0
  -18.2836   -1.5897  -26.5431 H   0  0  0  0  0
  -18.8536   -3.2226  -26.9672 H   0  0  0  0  0
  -14.7082   -1.4381  -30.8274 H   0  0  0  0  0
  -18.5930   -3.2356  -31.0903 H   0  0  0  0  0
  -17.4710   -6.9815  -24.6521 H   0  0  0  0  0
  -14.1869   -6.7866  -27.4279 H   0  0  0  0  0
  -14.7012   -1.8472  -28.3881 H   0  0  0  0  0
  -18.5959   -3.6360  -28.6533 H   0  0  0  0  0
  -18.0275   -4.6297  -25.2037 H   0  0  0  0  0
  -14.7529   -4.4519  -27.9742 H   0  0  0  0  0
  -15.8475   -2.4890  -25.0300 H   0  0  0  0  0
  -14.7328   -2.3062  -26.4681 H   0  0  0  0  0
  -17.4879   -2.4406  -32.8353 H   0  0  0  0  0
  -14.7031   -8.6041  -26.2738 H   0  0  0  0  0
 11  1  1  0  0  0
 16  2  1  0  0  0
  7  3  4  0  0  0
  3 12  4  0  0  0
  8  4  4  0  0  0
  4 12  4  0  0  0
  9  5  4  0  0  0
  5 13  4  0  0  0
 10  6  4  0  0  0
  6 13  4  0  0  0
 14  7  4  0  0  0
 14  8  4  0  0  0
 15  9  4  0  0  0
 15 10  4  0  0  0
 16 11  1  0  0  0
 12 17  1  0  0  0
 13 18  1  0  0  0
 16 14  1  0  0  0
 15 16  1  0  0  0
  1 19  1  0  0  0
  1 20  1  0  0  0
  1 21  1  0  0  0
  2 22  1  0  0  0
  2 23  1  0  0  0
  2 24  1  0  0  0
  3 25  1  0  0  0
  4 26  1  0  0  0
  5 27  1  0  0  0
  6 28  1  0  0  0
  7 29  1  0  0  0
  8 30  1  0  0  0
  9 31  1  0  0  0
 10 32  1  0  0  0
 11 33  1  0  0  0
 11 34  1  0  0  0
 17 35  1  0  0  0
 18 36  1  0  0  0
M  END
$$$$
