4i7l_ligand
  -I-interpret- 

 13 13  0  0  0  0  0  0  0  0999 V2000
    4.2410   10.9510    1.0770 C   0  0  0  0  0
    3.9880    9.7870    0.3540 C   0  0  0  0  0
    2.8270    9.0460    0.6190 C   0  0  0  0  0
    1.9590    9.4370    1.6150 C   0  0  0  0  0
    2.2340   10.5730    2.3460 C   0  0  0  0  0
    3.3650   11.3510    2.0860 C   0  0  0  0  0
    5.3180   11.6980    0.7770 O   0  0  0  0  0
    4.6879    9.4545   -0.4126 H   0  0  0  0  0
    2.6097    8.1535    0.0322 H   0  0  0  0  0
    1.0625    8.8531    1.8232 H   0  0  0  0  0
    1.5542   10.8708    3.1443 H   0  0  0  0  0
    3.5596   12.2556    2.6621 H   0  0  0  0  0
    5.3507   12.4594    1.3608 H   0  0  0  0  0
  1  2  4  0  0  0
  1  6  4  0  0  0
  1  7  1  0  0  0
  2  3  4  0  0  0
  3  4  4  0  0  0
  4  5  4  0  0  0
  5  6  4  0  0  0
  2  8  1  0  0  0
  3  9  1  0  0  0
  4 10  1  0  0  0
  5 11  1  0  0  0
  6 12  1  0  0  0
  7 13  1  0  0  0
M  END
$$$$
