6ftw_ligand
  -I-interpret- 

 60 63  0  0  0  0  0  0  0  0999 V2000
  -22.5570  114.0890  355.0100 C   0  0  0  0  0
  -22.5880  120.0310  355.0320 C   0  0  0  0  0
  -21.1620  116.2840  348.9790 C   0  0  0  0  0
  -21.6680  119.0720  346.8090 C   0  0  0  0  0
  -21.0220  120.3020  347.4630 C   0  0  0  0  0
  -21.3510  121.6840  346.9020 C   0  0  0  0  0
  -22.8080  121.9960  346.8260 C   0  0  0  0  0
  -23.5070  121.2340  345.7320 C   0  0  0  0  0
  -24.0760  119.9030  346.1710 C   0  0  0  0  0
  -23.1930  118.9970  347.0320 C   0  0  0  0  0
  -20.0350  117.1480  346.5610 C   0  0  0  0  0
  -22.0920  115.5300  353.1090 C   0  0  0  0  0
  -19.4810  115.8800  347.1810 C   0  0  0  0  0
  -18.8600  114.8610  346.2030 C   0  0  0  0  0
  -19.8510  113.9190  345.6080 C   0  0  0  0  0
  -21.1010  113.8290  346.0110 C   0  0  0  0  0
  -21.6340  114.5270  347.2200 C   0  0  0  0  0
  -20.5620  115.2160  348.0620 C   0  0  0  0  0
  -21.7780  114.4660  352.2620 C   0  0  0  0  0
  -21.4880  114.6880  350.9250 C   0  0  0  0  0
  -21.4890  115.9790  350.4010 C   0  0  0  0  0
  -21.7950  117.0570  351.2430 C   0  0  0  0  0
  -22.1060  116.8490  352.5860 C   0  0  0  0  0
  -22.4030  117.9820  353.4150 C   0  0  0  0  0
  -22.5220  118.9650  354.0850 C   0  0  0  0  0
  -22.1370  121.1870  354.5400 N   0  0  0  0  0
  -21.3610  117.4950  348.5840 N   0  0  0  0  0
  -21.0010  117.8390  347.3120 N   0  0  0  0  0
  -22.3990  115.3920  354.4440 O   0  0  0  0  0
  -22.9980  119.8680  356.1850 O   0  0  0  0  0
  -19.6150  117.5950  345.4990 O   0  0  0  0  0
  -23.3654  113.5673  354.4977 H   0  0  0  0  0
  -21.6295  113.5285  354.8929 H   0  0  0  0  0
  -22.7961  114.1810  356.0695 H   0  0  0  0  0
  -21.5260  119.1615  345.7320 H   0  0  0  0  0
  -19.9506  120.1785  347.3053 H   0  0  0  0  0
  -21.4001  120.3124  348.4853 H   0  0  0  0  0
  -20.9672  121.7118  345.8822 H   0  0  0  0  0
  -20.9051  122.4145  347.5770 H   0  0  0  0  0
  -22.9125  123.0599  346.6132 H   0  0  0  0  0
  -23.2618  121.7118  347.7754 H   0  0  0  0  0
  -22.7665  121.0284  344.9590 H   0  0  0  0  0
  -24.3436  121.8469  345.3965 H   0  0  0  0  0
  -24.2542  119.3458  345.2513 H   0  0  0  0  0
  -24.9368  120.1464  346.7938 H   0  0  0  0  0
  -23.3561  119.3186  348.0606 H   0  0  0  0  0
  -23.4782  117.9771  346.7742 H   0  0  0  0  0
  -18.6337  116.2048  347.7849 H   0  0  0  0  0
  -18.1419  114.2651  346.7663 H   0  0  0  0  0
  -18.4150  115.4256  345.3837 H   0  0  0  0  0
  -19.5229  113.2702  344.7959 H   0  0  0  0  0
  -21.7855  113.2107  345.4303 H   0  0  0  0  0
  -22.1034  113.7710  347.8494 H   0  0  0  0  0
  -22.3184  115.3005  346.8716 H   0  0  0  0  0
  -20.1057  114.4324  348.6669 H   0  0  0  0  0
  -21.7607  113.4499  352.6561 H   0  0  0  0  0
  -21.2566  113.8432  350.2762 H   0  0  0  0  0
  -21.7897  118.0708  350.8427 H   0  0  0  0  0
  -22.1145  122.0184  355.1305 H   0  0  0  0  0
  -21.8149  121.2389  353.5736 H   0  0  0  0  0
 29  1  1  0  0  0
 25  2  1  0  0  0
  2 26  1  0  0  0
  2 30  2  0  0  0
  3 18  1  0  0  0
 21  3  1  0  0  0
  3 27  2  0  0  0
  4  5  1  0  0  0
  4 10  1  0  0  0
 28  4  1  0  0  0
  5  6  1  0  0  0
  6  7  1  0  0  0
  8  7  1  0  0  0
  9  8  1  0  0  0
 10  9  1  0  0  0
 13 11  1  0  0  0
 11 28  1  0  0  0
 11 31  2  0  0  0
 12 19  4  0  0  0
 23 12  4  0  0  0
 12 29  1  0  0  0
 13 14  1  0  0  0
 18 13  1  0  0  0
 14 15  1  0  0  0
 16 15  2  0  0  0
 17 16  1  0  0  0
 18 17  1  0  0  0
 19 20  4  0  0  0
 21 20  4  0  0  0
 22 21  4  0  0  0
 23 22  4  0  0  0
 24 23  1  0  0  0
 24 25  3  0  0  0
 27 28  1  0  0  0
  1 32  1  0  0  0
  1 33  1  0  0  0
  1 34  1  0  0  0
  4 35  1  0  0  0
  5 36  1  0  0  0
  5 37  1  0  0  0
  6 38  1  0  0  0
  6 39  1  0  0  0
  7 40  1  0  0  0
  7 41  1  0  0  0
  8 42  1  0  0  0
  8 43  1  0  0  0
  9 44  1  0  0  0
  9 45  1  0  0  0
 10 46  1  0  0  0
 10 47  1  0  0  0
 13 48  1  0  0  0
 14 49  1  0  0  0
 14 50  1  0  0  0
 15 51  1  0  0  0
 16 52  1  0  0  0
 17 53  1  0  0  0
 17 54  1  0  0  0
 18 55  1  0  0  0
 19 56  1  0  0  0
 20 57  1  0  0  0
 22 58  1  0  0  0
 26 59  1  0  0  0
 26 60  1  0  0  0
M  END
$$$$
