5kw2_ligand
  -I-interpret- 

 91 96  0  0  0  0  0  0  0  0999 V2000
   22.9500   30.6620   20.3940 O   0  0  0  0  0
   20.1870   31.8650   24.0140 C   0  0  0  0  0
   23.9740   30.8720   22.3560 O   0  0  0  0  0
   22.9610   30.7230   21.7020 C   0  0  0  0  0
   21.5210   33.6400   20.8650 C   0  0  0  0  0
   19.1890   31.3370   32.5790 N   0  0  0  0  0
   21.5920   30.6100   22.3180 C   0  0  0  0  0
   21.1290   31.9810   22.8310 C   0  0  0  0  0
   20.5580   32.8090   21.6570 C   0  0  0  0  0
   20.5550   34.3010   21.7920 C   0  0  0  0  0
   16.1730   32.5890   33.8180 O   0  0  0  0  0
   17.2850   33.0650   33.9360 C   0  0  0  0  0
   17.5780   34.3180   33.4790 N   0  0  0  0  0
   16.9040   35.4760   34.0830 C   0  0  0  0  0
   16.0120   36.3120   33.1410 C   0  0  0  0  0
   14.9050   36.9640   33.9620 C   0  0  0  0  0
   16.8560   37.4000   32.4840 C   0  0  0  0  0
   15.3740   35.4510   32.0510 C   0  0  0  0  0
   18.7890   34.5230   32.7790 C   0  0  0  0  0
   18.6190   34.5900   31.4500 N   0  0  0  0  0
   19.7110   34.7920   30.6870 C   0  0  0  0  0
   19.4910   34.8600   29.2050 C   0  0  0  0  0
   20.9860   34.9240   31.2450 C   0  0  0  0  0
   21.1330   34.8530   32.6190 C   0  0  0  0  0
   20.0220   34.6550   33.4190 C   0  0  0  0  0
   18.3630   32.2890   34.6410 C   0  0  0  0  0
   18.4410   32.4230   36.0240 C   0  0  0  0  0
   19.4060   31.7510   36.7490 C   0  0  0  0  0
   20.3110   30.9340   36.0970 C   0  0  0  0  0
   21.1840   30.3540   36.9790 O   0  0  0  0  0
   22.1840   29.4810   36.4690 C   0  0  0  0  0
   20.2650   30.7740   34.7180 C   0  0  0  0  0
   19.2850   31.4480   33.9880 C   0  0  0  0  0
   18.0690   30.5810   32.0180 C   0  0  0  0  0
   17.8440   30.9500   30.5530 C   0  0  0  0  0
   20.4250   31.0380   31.8590 C   0  0  0  0  0
   20.3070   31.4170   30.3890 C   0  0  0  0  0
   19.1190   30.6970   29.7390 C   0  0  0  0  0
   18.9490   31.0500   28.3140 C   0  0  0  0  0
   20.1350   31.0120   27.5970 O   0  0  0  0  0
   19.8120   31.3830   26.3110 C   0  0  0  0  0
   20.6930   31.4770   25.2550 C   0  0  0  0  0
   17.9230   31.4300   27.5390 C   0  0  0  0  0
   18.4560   31.6510   26.2180 C   0  0  0  0  0
   17.9640   32.0400   24.9730 C   0  0  0  0  0
   18.8210   32.1440   23.8890 C   0  0  0  0  0
   22.0480   30.5419   20.0880 H   0  0  0  0  0
   21.8597   33.7369   19.8335 H   0  0  0  0  0
   22.5880   33.6651   20.6436 H   0  0  0  0  0
   21.6323   29.9107   23.1531 H   0  0  0  0  0
   20.8892   30.2541   21.5647 H   0  0  0  0  0
   21.9897   32.5231   23.2228 H   0  0  0  0  0
   19.8077   32.0551   21.4186 H   0  0  0  0  0
   19.8371   35.1210   21.7743 H   0  0  0  0  0
   20.5655   35.0491   22.5847 H   0  0  0  0  0
   17.6943   36.1436   34.4263 H   0  0  0  0  0
   16.2438   35.0768   34.8530 H   0  0  0  0  0
   14.3089   36.1899   34.4453 H   0  0  0  0  0
   15.3487   37.6092   34.7203 H   0  0  0  0  0
   14.2688   37.5573   33.3053 H   0  0  0  0  0
   17.2797   38.0443   33.2544 H   0  0  0  0  0
   17.6606   36.9381   31.9119 H   0  0  0  0  0
   16.2285   37.9922   31.8179 H   0  0  0  0  0
   16.1572   34.9823   31.4551 H   0  0  0  0  0
   14.7570   34.6804   32.5131 H   0  0  0  0  0
   14.7545   36.0785   31.4102 H   0  0  0  0  0
   19.0562   33.9219   28.8601 H   0  0  0  0  0
   18.8124   35.6819   28.9771 H   0  0  0  0  0
   20.4451   35.0254   28.7046 H   0  0  0  0  0
   21.8543   35.0810   30.6051 H   0  0  0  0  0
   22.1206   34.9527   33.0694 H   0  0  0  0  0
   20.1062   34.6042   34.5046 H   0  0  0  0  0
   17.7308   33.0672   36.5424 H   0  0  0  0  0
   19.4538   31.8646   37.8320 H   0  0  0  0  0
   21.7078   28.6448   35.9571 H   0  0  0  0  0
   22.8164   30.0254   35.7677 H   0  0  0  0  0
   22.7916   29.1061   37.2926 H   0  0  0  0  0
   20.9850   30.1304   34.2126 H   0  0  0  0  0
   17.1673   30.8185   32.5824 H   0  0  0  0  0
   18.2969   29.5170   32.0811 H   0  0  0  0  0
   17.5838   32.0065   30.4879 H   0  0  0  0  0
   17.0375   30.3367   30.1512 H   0  0  0  0  0
   20.6199   29.9679   31.9292 H   0  0  0  0  0
   21.2365   31.6138   32.3041 H   0  0  0  0  0
   21.2220   31.1238   29.8743 H   0  0  0  0  0
   20.1518   32.4932   30.3133 H   0  0  0  0  0
   19.3293   29.6276   29.7508 H   0  0  0  0  0
   21.7522   31.2551   25.3855 H   0  0  0  0  0
   16.8847   31.5490   27.8486 H   0  0  0  0  0
   16.9039   32.2626   24.8520 H   0  0  0  0  0
   18.4239   32.4488   22.9207 H   0  0  0  0  0
  4  1  1  0  0  0
  2  8  1  0  0  0
 42  2  4  0  0  0
  2 46  4  0  0  0
  4  3  2  0  0  0
  7  4  1  0  0  0
  9  5  1  0  0  0
 10  5  1  0  0  0
  6 33  1  0  0  0
 34  6  1  0  0  0
 36  6  1  0  0  0
  8  7  1  0  0  0
  8  9  1  0  0  0
  9 10  1  0  0  0
 12 11  2  0  0  0
 12 13  1  0  0  0
 26 12  1  0  0  0
 13 14  1  0  0  0
 13 19  1  0  0  0
 14 15  1  0  0  0
 15 16  1  0  0  0
 15 17  1  0  0  0
 15 18  1  0  0  0
 19 20  4  0  0  0
 19 25  4  0  0  0
 20 21  4  0  0  0
 21 22  1  0  0  0
 21 23  4  0  0  0
 24 23  4  0  0  0
 25 24  4  0  0  0
 26 27  4  0  0  0
 33 26  4  0  0  0
 27 28  4  0  0  0
 29 28  4  0  0  0
 29 30  1  0  0  0
 32 29  4  0  0  0
 30 31  1  0  0  0
 33 32  4  0  0  0
 35 34  1  0  0  0
 38 35  1  0  0  0
 37 36  1  0  0  0
 38 37  1  0  0  0
 39 38  1  0  0  0
 40 39  4  0  0  0
 39 43  4  0  0  0
 41 40  4  0  0  0
 41 42  4  0  0  0
 41 44  4  0  0  0
 43 44  4  0  0  0
 44 45  4  0  0  0
 45 46  4  0  0  0
  1 47  1  0  0  0
  5 48  1  0  0  0
  5 49  1  0  0  0
  7 50  1  0  0  0
  7 51  1  0  0  0
  8 52  1  0  0  0
  9 53  1  0  0  0
 10 54  1  0  0  0
 10 55  1  0  0  0
 14 56  1  0  0  0
 14 57  1  0  0  0
 16 58  1  0  0  0
 16 59  1  0  0  0
 16 60  1  0  0  0
 17 61  1  0  0  0
 17 62  1  0  0  0
 17 63  1  0  0  0
 18 64  1  0  0  0
 18 65  1  0  0  0
 18 66  1  0  0  0
 22 67  1  0  0  0
 22 68  1  0  0  0
 22 69  1  0  0  0
 23 70  1  0  0  0
 24 71  1  0  0  0
 25 72  1  0  0  0
 27 73  1  0  0  0
 28 74  1  0  0  0
 31 75  1  0  0  0
 31 76  1  0  0  0
 31 77  1  0  0  0
 32 78  1  0  0  0
 34 79  1  0  0  0
 34 80  1  0  0  0
 35 81  1  0  0  0
 35 82  1  0  0  0
 36 83  1  0  0  0
 36 84  1  0  0  0
 37 85  1  0  0  0
 37 86  1  0  0  0
 38 87  1  0  0  0
 42 88  1  0  0  0
 43 89  1  0  0  0
 45 90  1  0  0  0
 46 91  1  0  0  0
M  END
$$$$
