4d8a_ligand
  -I-interpret- 

 33 34  0  0  0  0  0  0  0  0999 V2000
  -14.2120   27.6740    3.7010 O   0  0  0  0  0
  -16.4860   23.5280    2.3500 N   0  0  0  0  0
  -13.8390   25.6050    4.9930 C   0  0  0  0  0
  -14.4760   26.3390    3.9190 C   0  0  0  0  0
  -14.9770   23.5860    4.2890 N   0  0  0  0  0
  -12.9030   25.9910    9.8740 C   0  0  0  0  0
  -12.6230   24.0530    7.0810 N   0  0  0  0  0
  -12.3030   25.3060    7.0470 C   0  0  0  0  0
  -14.5660   26.4130   11.3410 C   0  0  0  0  0
  -14.1310   24.2690    5.1140 C   0  0  0  0  0
  -12.8770   26.1780    5.9970 C   0  0  0  0  0
  -11.7320   26.6120    9.1810 C   0  0  0  0  0
  -13.4850   23.5590    6.1710 N   0  0  0  0  0
  -15.6220   24.2370    3.2310 C   0  0  0  0  0
  -10.2870   24.7770    8.3770 C   0  0  0  0  0
  -15.3570   25.6700    3.0510 N   0  0  0  0  0
  -12.8070   24.8560   10.4170 O   0  0  0  0  0
  -13.8330   26.7520   10.2280 O   0  0  0  0  0
  -11.2380   25.8660    7.9740 C   0  0  0  0  0
  -12.5680   27.5110    6.0010 O   0  0  0  0  0
  -16.6435   22.5292    2.4844 H   0  0  0  0  0
  -16.9478   24.0186    1.5842 H   0  0  0  0  0
  -15.0410   25.4451   11.1807 H   0  0  0  0  0
  -13.9053   26.3561   12.2061 H   0  0  0  0  0
  -15.3306   27.1700   11.5153 H   0  0  0  0  0
  -10.9124   26.6251    9.8995 H   0  0  0  0  0
  -12.0566   27.5927    8.8331 H   0  0  0  0  0
  -10.8360   23.9897    8.8935 H   0  0  0  0  0
   -9.8099   24.3655    7.4875 H   0  0  0  0  0
   -9.5269   25.1877    9.0416 H   0  0  0  0  0
  -15.8128   26.1810    2.2950 H   0  0  0  0  0
  -10.7315   26.6299    7.3841 H   0  0  0  0  0
  -11.9428   27.6913    6.7068 H   0  0  0  0  0
  4  1  2  0  0  0
 14  2  1  0  0  0
  3  4  1  0  0  0
  3 10  4  0  0  0
 11  3  4  0  0  0
  4 16  1  0  0  0
 10  5  1  0  0  0
  5 14  2  0  0  0
 12  6  1  0  0  0
  6 17  2  0  0  0
  6 18  1  0  0  0
  8  7  4  0  0  0
  7 13  4  0  0  0
  8 11  4  0  0  0
 19  8  1  0  0  0
 18  9  1  0  0  0
 13 10  4  0  0  0
 11 20  1  0  0  0
 12 19  1  0  0  0
 14 16  1  0  0  0
 19 15  1  0  0  0
  2 21  1  0  0  0
  2 22  1  0  0  0
  9 23  1  0  0  0
  9 24  1  0  0  0
  9 25  1  0  0  0
 12 26  1  0  0  0
 12 27  1  0  0  0
 15 28  1  0  0  0
 15 29  1  0  0  0
 15 30  1  0  0  0
 16 31  1  0  0  0
 19 32  1  0  0  0
 20 33  1  0  0  0
M  END
$$$$
