2uuo_ligand
  -I-interpret- 

 54 55  0  0  0  0  0  0  0  0999 V2000
  -22.2820    5.7350   19.3580 O   0  0  0  0  0
  -22.2230    4.6440   18.3960 S   0  0  0  0  0
  -21.8220    5.1950   17.0650 O   0  0  0  0  0
  -23.6920    3.9820   18.2340 N   0  0  0  0  0
  -24.4920    3.8770   19.4700 C   0  0  0  0  0
  -25.0090    5.2660   19.8740 C   0  0  0  0  0
  -25.3130    6.0400   18.9430 O   0  0  0  0  0
  -25.0960    5.5670   21.1000 O   0  0  0  0  0
  -25.6110    2.8380   19.2560 C   0  0  0  0  0
  -26.4690    2.6900   20.5120 C   0  0  0  0  0
  -27.4470    1.5390   20.4050 C   0  0  0  0  0
  -27.4070    0.8430   19.3680 O   0  0  0  0  0
  -28.2410    1.3710   21.3610 O   0  0  0  0  0
  -21.1420    3.4350   18.9580 C   0  0  0  0  0
  -21.0220    3.2250   20.3280 C   0  0  0  0  0
  -20.1790    2.2630   20.8740 C   0  0  0  0  0
  -19.4210    1.4740   20.0170 C   0  0  0  0  0
  -18.5810    0.4860   20.5430 C   0  0  0  0  0
  -17.8160   -0.3320   19.6900 C   0  0  0  0  0
  -17.8730   -0.1460   18.3020 C   0  0  0  0  0
  -18.7130    0.8620   17.7800 C   0  0  0  0  0
  -19.4980    1.6710   18.6300 C   0  0  0  0  0
  -20.3560    2.6430   18.1010 C   0  0  0  0  0
  -17.0540   -1.3520   20.2100 O   0  0  0  0  0
  -16.6440   -1.1910   21.5730 C   0  0  0  0  0
  -15.2800   -0.4910   21.5280 C   0  0  0  0  0
  -14.2550   -1.4170   20.8690 C   0  0  0  0  0
  -12.8900   -0.7390   20.9050 C   0  0  0  0  0
  -11.8540   -1.6240   20.2470 C   0  0  0  0  0
  -24.0430    3.6574   17.3330 H   0  0  0  0  0
  -23.8841    3.5247   20.3033 H   0  0  0  0  0
  -24.8102    4.8211   21.6325 H   0  0  0  0  0
  -25.1546    1.8745   19.0289 H   0  0  0  0  0
  -26.2465    3.1725   18.4360 H   0  0  0  0  0
  -27.0403    3.6091   20.6424 H   0  0  0  0  0
  -25.8057    2.4939   21.3544 H   0  0  0  0  0
  -28.0720    2.0325   22.0359 H   0  0  0  0  0
  -21.6149    3.8417   21.0034 H   0  0  0  0  0
  -20.1140    2.1303   21.9539 H   0  0  0  0  0
  -18.5185    0.3486   21.6225 H   0  0  0  0  0
  -17.2778   -0.7701   17.6354 H   0  0  0  0  0
  -18.7561    1.0182   16.7021 H   0  0  0  0  0
  -20.4151    2.7865   17.0221 H   0  0  0  0  0
  -16.5758   -2.1536   22.0798 H   0  0  0  0  0
  -17.3696   -0.6033   22.1354 H   0  0  0  0  0
  -14.9583   -0.2551   22.5424 H   0  0  0  0  0
  -15.3624    0.4301   20.9510 H   0  0  0  0  0
  -14.5436   -1.6139   19.8365 H   0  0  0  0  0
  -14.2123   -2.3643   21.4064 H   0  0  0  0  0
  -12.6045   -0.5634   21.9422 H   0  0  0  0  0
  -12.9459    0.2077   20.3676 H   0  0  0  0  0
  -11.7975   -2.5731   20.7800 H   0  0  0  0  0
  -12.1379   -1.8044   19.2102 H   0  0  0  0  0
  -10.8830   -1.1297   20.2785 H   0  0  0  0  0
  1  2  2  0  0  0
  2  3  2  0  0  0
  2  4  1  0  0  0
  2 14  1  0  0  0
  4  5  1  0  0  0
  5  6  1  0  0  0
  5  9  1  0  0  0
  6  7  2  0  0  0
  6  8  1  0  0  0
  9 10  1  0  0  0
 10 11  1  0  0  0
 11 12  2  0  0  0
 11 13  1  0  0  0
 14 15  4  0  0  0
 14 23  4  0  0  0
 15 16  4  0  0  0
 16 17  4  0  0  0
 17 18  4  0  0  0
 17 22  4  0  0  0
 18 19  4  0  0  0
 19 20  4  0  0  0
 19 24  1  0  0  0
 20 21  4  0  0  0
 21 22  4  0  0  0
 22 23  4  0  0  0
 24 25  1  0  0  0
 25 26  1  0  0  0
 26 27  1  0  0  0
 27 28  1  0  0  0
 28 29  1  0  0  0
  4 30  1  0  0  0
  5 31  1  0  0  0
  8 32  1  0  0  0
  9 33  1  0  0  0
  9 34  1  0  0  0
 10 35  1  0  0  0
 10 36  1  0  0  0
 13 37  1  0  0  0
 15 38  1  0  0  0
 16 39  1  0  0  0
 18 40  1  0  0  0
 20 41  1  0  0  0
 21 42  1  0  0  0
 23 43  1  0  0  0
 25 44  1  0  0  0
 25 45  1  0  0  0
 26 46  1  0  0  0
 26 47  1  0  0  0
 27 48  1  0  0  0
 27 49  1  0  0  0
 28 50  1  0  0  0
 28 51  1  0  0  0
 29 52  1  0  0  0
 29 53  1  0  0  0
 29 54  1  0  0  0
M  END
$$$$
