3fqs_ligand
  -I-interpret- 

 57 60  0  0  0  0  0  0  0  0999 V2000
    2.3230    4.8800   10.1750 N   0  0  0  0  0
    2.7780    0.2080   14.5220 N   0  0  0  0  0
    2.1900    3.5960   10.7240 C   0  0  0  0  0
    3.9150    0.7920   14.1530 C   0  0  0  0  0
    1.2540    5.4280    9.5410 C   0  0  0  0  0
    3.0910    3.1620   11.5890 N   0  0  0  0  0
    2.7120   -0.5290   15.6230 C   0  0  0  0  0
    0.1510    3.2330    9.4820 O   0  0  0  0  0
   -0.0440    4.6500    9.4320 C   0  0  0  0  0
    4.0310    1.5900   13.0240 N   0  0  0  0  0
    5.0510    0.6010   14.9350 C   0  0  0  0  0
   -2.3270   -0.4880   14.3850 C   0  0  0  0  0
    1.0940    2.8040   10.3670 C   0  0  0  0  0
    3.0060    1.9600   12.1470 C   0  0  0  0  0
   -2.0030   -1.6810   15.0590 C   0  0  0  0  0
   -1.3660    0.5310   14.2540 C   0  0  0  0  0
    3.7790   -0.7230   16.3820 N   0  0  0  0  0
    0.2540   -0.8560   15.4420 C   0  0  0  0  0
   -0.7180   -1.8510   15.5750 C   0  0  0  0  0
   -0.0750    0.3440   14.7850 C   0  0  0  0  0
    1.5190   -1.1250   16.0040 N   0  0  0  0  0
    4.9520   -0.1760   16.0800 C   0  0  0  0  0
    1.3490    6.5430    9.0750 O   0  0  0  0  0
    0.9710    1.5310   10.9260 C   0  0  0  0  0
    6.2000    1.2050   14.5850 F   0  0  0  0  0
    1.9440    1.1070   11.8240 C   0  0  0  0  0
   -3.5940   -0.2900   13.8970 O   0  0  0  0  0
   -1.7420    1.6720   13.5910 O   0  0  0  0  0
   -2.9520   -2.6650   15.1940 O   0  0  0  0  0
   -1.0060    5.0790   10.5480 C   0  0  0  0  0
   -0.6990    4.9680    8.0800 C   0  0  0  0  0
   -3.7820   -0.8050   12.5770 C   0  0  0  0  0
   -0.7190    2.6820   13.6160 C   0  0  0  0  0
   -2.4020   -3.8060   15.8710 C   0  0  0  0  0
    3.2027    5.3907   10.2502 H   0  0  0  0  0
    4.9632    1.9447   12.8107 H   0  0  0  0  0
   -0.4675   -2.7775   16.0917 H   0  0  0  0  0
    0.6720    1.1317   14.6867 H   0  0  0  0  0
    1.5601   -1.8157   16.7534 H   0  0  0  0  0
    5.8199   -0.3349   16.7199 H   0  0  0  0  0
    0.1327    0.8851   10.6649 H   0  0  0  0  0
    1.8803    0.1162   12.2739 H   0  0  0  0  0
   -1.9639    4.5767   10.4132 H   0  0  0  0  0
   -0.5838    4.8055   11.5150 H   0  0  0  0  0
   -1.1512    6.1585   10.5057 H   0  0  0  0  0
   -0.0423    4.6411    7.2738 H   0  0  0  0  0
   -1.6528    4.4454    8.0080 H   0  0  0  0  0
   -0.8651    6.0424    8.0020 H   0  0  0  0  0
   -3.0878   -0.3144   11.8947 H   0  0  0  0  0
   -3.5952   -1.8789   12.5773 H   0  0  0  0  0
   -4.8058   -0.6131   12.2559 H   0  0  0  0  0
   -0.4992    2.9492   14.6496 H   0  0  0  0  0
    0.1823    2.2963   13.1395 H   0  0  0  0  0
   -1.0673    3.5635   13.0777 H   0  0  0  0  0
   -1.5636   -4.1988   15.2959 H   0  0  0  0  0
   -2.0572   -3.5080   16.8612 H   0  0  0  0  0
   -3.1693   -4.5741   15.9680 H   0  0  0  0  0
  3  1  1  0  0  0
  1  5  1  0  0  0
  2  4  4  0  0  0
  7  2  4  0  0  0
  6  3  4  0  0  0
  3 13  4  0  0  0
  4 10  1  0  0  0
  4 11  4  0  0  0
  5  9  1  0  0  0
  5 23  2  0  0  0
 14  6  4  0  0  0
  7 17  4  0  0  0
 21  7  1  0  0  0
  8  9  1  0  0  0
 13  8  1  0  0  0
  9 30  1  0  0  0
  9 31  1  0  0  0
 10 14  1  0  0  0
 22 11  4  0  0  0
 11 25  1  0  0  0
 15 12  4  0  0  0
 16 12  4  0  0  0
 12 27  1  0  0  0
 13 24  4  0  0  0
 14 26  4  0  0  0
 19 15  4  0  0  0
 15 29  1  0  0  0
 20 16  4  0  0  0
 16 28  1  0  0  0
 17 22  4  0  0  0
 18 19  4  0  0  0
 18 20  4  0  0  0
 18 21  1  0  0  0
 24 26  4  0  0  0
 27 32  1  0  0  0
 28 33  1  0  0  0
 29 34  1  0  0  0
  1 35  1  0  0  0
 10 36  1  0  0  0
 19 37  1  0  0  0
 20 38  1  0  0  0
 21 39  1  0  0  0
 22 40  1  0  0  0
 24 41  1  0  0  0
 26 42  1  0  0  0
 30 43  1  0  0  0
 30 44  1  0  0  0
 30 45  1  0  0  0
 31 46  1  0  0  0
 31 47  1  0  0  0
 31 48  1  0  0  0
 32 49  1  0  0  0
 32 50  1  0  0  0
 32 51  1  0  0  0
 33 52  1  0  0  0
 33 53  1  0  0  0
 33 54  1  0  0  0
 34 55  1  0  0  0
 34 56  1  0  0  0
 34 57  1  0  0  0
M  END
$$$$
