4ayp_ligand
  -I-interpret- 

 48 49  0  0  0  0  0  0  0  0999 V2000
  -27.3730  -14.8440  -14.3440 O   0  0  0  0  0
  -27.6430  -13.5110  -13.9120 C   0  0  0  0  0
  -27.5580  -12.6200  -15.1350 C   0  0  0  0  0
  -28.3010  -13.2160  -16.2050 O   0  0  0  0  0
  -28.0890  -11.2290  -14.8100 C   0  0  0  0  0
  -27.2980  -10.6220  -13.7860 O   0  0  0  0  0
  -29.5510  -11.2920  -14.3450 C   0  0  0  0  0
  -30.4720  -10.9430  -15.5130 C   0  0  0  0  0
  -31.8530  -11.0800  -15.2030 O   0  0  0  0  0
  -29.9660  -12.6030  -13.9100 O   0  0  0  0  0
  -29.0200  -13.4110  -13.2050 C   0  0  0  0  0
  -28.7020  -12.9060  -11.4820 S   0  0  0  0  0
  -30.2590  -13.3220  -10.6560 C   0  0  0  0  0
  -30.3310  -12.5080   -9.3640 C   0  0  0  0  0
  -31.6460  -12.6030   -8.8510 O   0  0  0  0  0
  -31.8040  -11.8930   -7.6140 C   0  0  0  0  0
  -29.3740  -12.9780   -8.4150 O   0  0  0  0  0
  -30.4140  -14.8120  -10.3120 C   0  0  0  0  0
  -30.2340  -15.6000  -11.4880 O   0  0  0  0  0
  -29.4390  -15.2590   -9.2280 C   0  0  0  0  0
  -29.7360  -16.5900   -8.8100 O   0  0  0  0  0
  -29.5590  -14.3430   -8.0150 C   0  0  0  0  0
  -28.5190  -14.6210   -6.9550 C   0  0  0  0  0
  -28.7580  -13.7340   -5.8600 O   0  0  0  0  0
  -26.5162  -14.8718  -14.7762 H   0  0  0  0  0
  -26.9128  -13.1908  -13.1688 H   0  0  0  0  0
  -26.5175  -12.5172  -15.4430 H   0  0  0  0  0
  -27.9482  -14.0894  -16.3904 H   0  0  0  0  0
  -28.0322  -10.6317  -15.7200 H   0  0  0  0  0
  -26.3827  -10.5805  -14.0726 H   0  0  0  0  0
  -29.6182  -10.5946  -13.5100 H   0  0  0  0  0
  -30.2476  -11.6332  -16.3262 H   0  0  0  0  0
  -30.2949   -9.8988  -15.7707 H   0  0  0  0  0
  -32.3772  -10.8477  -15.9729 H   0  0  0  0  0
  -29.5192  -14.3800  -13.2001 H   0  0  0  0  0
  -31.0656  -13.0872  -11.3505 H   0  0  0  0  0
  -30.0928  -11.4643   -9.5689 H   0  0  0  0  0
  -31.1217  -12.3049   -6.8704 H   0  0  0  0  0
  -31.5789  -10.8381   -7.7707 H   0  0  0  0  0
  -32.8310  -11.9986   -7.2645 H   0  0  0  0  0
  -31.4209  -14.9562   -9.9202 H   0  0  0  0  0
  -30.3318  -16.5292  -11.2673 H   0  0  0  0  0
  -28.4305  -15.2163   -9.6393 H   0  0  0  0  0
  -29.1145  -16.8564   -8.1285 H   0  0  0  0  0
  -30.5508  -14.5277   -7.6024 H   0  0  0  0  0
  -27.5186  -14.4621   -7.3575 H   0  0  0  0  0
  -28.5868  -15.6569   -6.6228 H   0  0  0  0  0
  -28.1070  -13.8933   -5.1726 H   0  0  0  0  0
  1  2  1  0  0  0
  2  3  1  0  0  0
  2 11  1  0  0  0
  3  4  1  0  0  0
  3  5  1  0  0  0
  5  6  1  0  0  0
  5  7  1  0  0  0
  7  8  1  0  0  0
  7 10  1  0  0  0
  8  9  1  0  0  0
 10 11  1  0  0  0
 11 12  1  0  0  0
 12 13  1  0  0  0
 13 14  1  0  0  0
 13 18  1  0  0  0
 14 15  1  0  0  0
 14 17  1  0  0  0
 15 16  1  0  0  0
 17 22  1  0  0  0
 18 19  1  0  0  0
 18 20  1  0  0  0
 20 21  1  0  0  0
 20 22  1  0  0  0
 22 23  1  0  0  0
 23 24  1  0  0  0
  1 25  1  0  0  0
  2 26  1  0  0  0
  3 27  1  0  0  0
  4 28  1  0  0  0
  5 29  1  0  0  0
  6 30  1  0  0  0
  7 31  1  0  0  0
  8 32  1  0  0  0
  8 33  1  0  0  0
  9 34  1  0  0  0
 11 35  1  0  0  0
 13 36  1  0  0  0
 14 37  1  0  0  0
 16 38  1  0  0  0
 16 39  1  0  0  0
 16 40  1  0  0  0
 18 41  1  0  0  0
 19 42  1  0  0  0
 20 43  1  0  0  0
 21 44  1  0  0  0
 22 45  1  0  0  0
 23 46  1  0  0  0
 23 47  1  0  0  0
 24 48  1  0  0  0
M  END
$$$$
