1bgq_ligand
  -I-interpret- 

 42 44  0  0  0  0  0  0  0  0999 V2000
   18.4690   -2.4070   -5.8760 C   0  0  0  0  0
   18.5100   -3.2310   -4.6240 C   0  0  0  0  0
   19.4790   -4.3160   -4.5800 C   0  0  0  0  0
   19.6000   -5.1560   -3.4760 C   0  0  0  0  0
   18.7830   -4.9600   -2.3700 C   0  0  0  0  0
   17.8120   -3.9000   -2.3540 C   0  0  0  0  0
   17.6550   -3.0250   -3.4560 C   0  0  0  0  0
   16.5890   -1.8830   -3.4010 C   0  0  0  0  0
   15.0750   -2.2340   -3.3570 C   0  0  0  0  0
   14.5570   -3.4150   -4.0690 C   0  0  0  0  0
   14.6440   -3.6110   -5.3810 C   0  0  0  0  0
   14.1340   -4.7860   -6.0820 C   0  0  0  0  0
   14.2120   -5.0040   -7.3960 C   0  0  0  0  0
   14.7920   -4.2240   -8.5820 C   0  0  0  0  0
   15.0290   -2.8100   -8.6020 C   0  0  0  0  0
   16.4730   -2.3270   -8.7000 C   0  0  0  0  0
   17.0310   -1.4340   -7.6190 C   0  0  0  0  0
   16.2030   -0.2300   -7.2080 C   0  0  0  0  0
   17.2500   -2.2200   -6.3820 O   0  0  0  0  0
   19.4910   -1.9350   -6.4090 O   0  0  0  0  0
   20.3200   -4.5840   -5.6190 O   0  0  0  0  0
   18.8700   -5.7710   -1.2580 O   0  0  0  0  0
   14.3110   -1.5570   -2.7190 O   0  0  0  0  0
   14.2030   -3.4490   -9.5650 O   0  0  0  0  0
   16.8650   -3.7540   -0.9320 Cl  0  0  0  0  0
   20.3323   -5.9634   -3.4798 H   0  0  0  0  0
   16.7169   -1.3455   -4.3406 H   0  0  0  0  0
   16.7792   -1.3781   -2.4539 H   0  0  0  0  0
   14.0655   -4.1860   -3.4756 H   0  0  0  0  0
   15.1312   -2.8389   -5.9764 H   0  0  0  0  0
   13.6468   -5.5522   -5.4789 H   0  0  0  0  0
   13.7615   -5.9508   -7.6938 H   0  0  0  0  0
   15.3629   -5.1515   -8.6257 H   0  0  0  0  0
   14.8678   -1.9064   -8.0142 H   0  0  0  0  0
   16.5012   -1.7188   -9.6041 H   0  0  0  0  0
   17.0734   -3.2352   -8.6467 H   0  0  0  0  0
   17.9390   -1.0448   -8.0795 H   0  0  0  0  0
   16.0548    0.4191   -8.0710 H   0  0  0  0  0
   15.2358   -0.5662   -6.8343 H   0  0  0  0  0
   16.7259    0.3186   -6.4246 H   0  0  0  0  0
   20.8769   -5.3328   -5.3935 H   0  0  0  0  0
   18.2307   -5.4828   -0.6024 H   0  0  0  0  0
  1 20  2  0  0  0
  1 19  1  0  0  0
  1  2  1  0  0  0
  2  7  4  0  0  0
  2  3  4  0  0  0
  3 21  1  0  0  0
  3  4  4  0  0  0
  4  5  4  0  0  0
  5 22  1  0  0  0
  5  6  4  0  0  0
  6  7  4  0  0  0
  7  8  1  0  0  0
  8  9  1  0  0  0
  9 23  2  0  0  0
  9 10  1  0  0  0
 10 11  2  0  0  0
 11 12  1  0  0  0
 12 13  2  0  0  0
 13 14  1  0  0  0
 14 24  1  0  0  0
 14 15  1  0  0  0
 15 24  1  0  0  0
 15 16  1  0  0  0
 16 17  1  0  0  0
 17 19  1  0  0  0
 17 18  1  0  0  0
  6 25  1  0  0  0
  4 26  1  0  0  0
  8 27  1  0  0  0
  8 28  1  0  0  0
 10 29  1  0  0  0
 11 30  1  0  0  0
 12 31  1  0  0  0
 13 32  1  0  0  0
 14 33  1  0  0  0
 15 34  1  0  0  0
 16 35  1  0  0  0
 16 36  1  0  0  0
 17 37  1  0  0  0
 18 38  1  0  0  0
 18 39  1  0  0  0
 18 40  1  0  0  0
 21 41  1  0  0  0
 22 42  1  0  0  0
M  END
$$$$
