4l33_ligand
  -I-interpret- 

 34 36  0  0  0  0  0  0  0  0999 V2000
  -43.0750  -12.2890    4.3200 N   0  0  0  0  0
  -42.1600  -11.6590    4.3390 C   0  0  0  0  0
  -40.9360  -10.8350    4.5170 C   0  0  0  0  0
  -40.4300  -11.3980    5.7380 O   0  0  0  0  0
  -39.4080  -10.8030    6.3720 C   0  0  0  0  0
  -38.4830  -10.2640    5.7370 O   0  0  0  0  0
  -39.3830  -11.0060    7.7920 C   0  0  0  0  0
  -38.5970  -10.2150    8.6120 C   0  0  0  0  0
  -38.5310  -10.4380    9.9950 C   0  0  0  0  0
  -40.1020  -12.0460    8.4140 C   0  0  0  0  0
  -40.0510  -12.2760    9.7990 C   0  0  0  0  0
  -39.2590  -11.4660   10.6330 C   0  0  0  0  0
  -39.2190  -11.6790   12.0460 C   0  0  0  0  0
  -39.9430  -12.7250   12.5170 O   0  0  0  0  0
  -40.0480  -13.0180   13.8340 C   0  0  0  0  0
  -40.9080  -14.0460   14.2190 C   0  0  0  0  0
  -41.0620  -14.3430   15.5780 C   0  0  0  0  0
  -40.3130  -13.5750   16.4980 C   0  0  0  0  0
  -39.4670  -12.5480   16.1030 C   0  0  0  0  0
  -39.3040  -12.2790   14.7490 C   0  0  0  0  0
  -38.4490  -11.2510   14.2810 C   0  0  0  0  0
  -37.6550  -10.6450   15.0080 O   0  0  0  0  0
  -38.4250  -10.9690   12.9270 C   0  0  0  0  0
  -41.1187   -9.7612    4.5585 H   0  0  0  0  0
  -40.2395  -10.8773    3.6796 H   0  0  0  0  0
  -38.0176   -9.4023    8.1739 H   0  0  0  0  0
  -37.8936   -9.7934   10.6003 H   0  0  0  0  0
  -40.7214  -12.6969    7.7970 H   0  0  0  0  0
  -40.6313  -13.0908   10.2320 H   0  0  0  0  0
  -41.4561  -14.6139   13.4672 H   0  0  0  0  0
  -41.7323  -15.1344   15.9132 H   0  0  0  0  0
  -40.4034  -13.7983   17.5611 H   0  0  0  0  0
  -38.9347  -11.9572   16.8485 H   0  0  0  0  0
  -37.7740  -10.1796   12.5513 H   0  0  0  0  0
  1  2  3  0  0  0
  2  3  1  0  0  0
  3  4  1  0  0  0
  4  5  1  0  0  0
  5  6  2  0  0  0
  5  7  1  0  0  0
  7  8  4  0  0  0
  7 10  4  0  0  0
  8  9  4  0  0  0
  9 12  4  0  0  0
 10 11  4  0  0  0
 11 12  4  0  0  0
 12 13  1  0  0  0
 13 14  1  0  0  0
 13 23  2  0  0  0
 14 15  1  0  0  0
 15 16  4  0  0  0
 15 20  4  0  0  0
 16 17  4  0  0  0
 17 18  4  0  0  0
 18 19  4  0  0  0
 19 20  4  0  0  0
 20 21  1  0  0  0
 21 22  2  0  0  0
 21 23  1  0  0  0
  3 24  1  0  0  0
  3 25  1  0  0  0
  8 26  1  0  0  0
  9 27  1  0  0  0
 10 28  1  0  0  0
 11 29  1  0  0  0
 16 30  1  0  0  0
 17 31  1  0  0  0
 18 32  1  0  0  0
 19 33  1  0  0  0
 23 34  1  0  0  0
M  END
$$$$
