1urc_ligand
  -I-interpret- 

 95 96  0  0  0  0  0  0  0  0999 V2000
   35.3960   18.7820   -2.0240 C   0  0  0  0  0
   34.2160   18.5140   -2.2200 O   0  0  0  0  0
   36.4040   17.6870   -1.7060 C   0  0  0  0  0
   35.8140   20.0360   -1.9690 N   0  0  0  0  0
   37.2040   20.4270   -1.8800 C   0  0  0  0  0
   37.4680   21.4440   -0.7980 C   0  0  0  0  0
   36.9090   22.5280   -0.6940 O   0  0  0  0  0
   37.4910   21.0380   -3.2630 C   0  0  0  0  0
   38.9500   21.3700   -3.4170 C   0  0  0  0  0
   39.3240   21.4400   -4.9050 C   0  0  0  0  0
   40.5590   22.2240   -4.8790 N   0  0  0  0  0
   40.7030   23.2440   -5.7010 C   0  0  0  0  0
   41.8030   23.9950   -5.6050 N   0  0  0  0  0
   39.7450   23.4320   -6.6120 N   0  0  0  0  0
   38.3650   21.0430    0.0520 N   0  0  0  0  0
   38.7490   21.9250    1.1170 C   0  0  0  0  0
   40.0810   22.5030    0.6640 C   0  0  0  0  0
   40.9740   21.7450    0.3110 O   0  0  0  0  0
   39.0910   21.0460    2.2950 C   0  0  0  0  0
   40.0280   21.8980    3.1590 C   0  0  0  0  0
   39.8950   21.5260    4.6350 C   0  0  0  0  0
   41.2390   20.9560    5.1420 C   0  0  0  0  0
   42.2900   21.9800    5.0020 N   0  0  0  0  0
   40.1840   23.8200    0.6760 N   0  0  0  0  0
   41.4040   24.5390    0.2970 C   0  0  0  0  0
   42.1710   24.9470    1.5760 C   0  0  0  0  0
   41.5770   25.1670    2.6300 O   0  0  0  0  0
   40.8960   25.8450   -0.3390 C   0  0  0  0  0
   39.9450   25.6300   -1.5470 C   0  0  0  0  0
   40.5990   25.1090   -2.8200 C   0  0  0  0  0
   39.4580   27.0200   -1.9170 C   0  0  0  0  0
   43.4890   25.0680    1.4840 N   0  0  0  0  0
   44.3190   25.5470    2.6140 C   0  0  0  0  0
   44.5660   24.6400    3.8240 C   0  0  0  0  0
   45.6970   24.2050    4.0330 O   0  0  0  0  0
   44.0670   27.0060    3.0120 C   0  0  0  0  0
   43.7400   27.8260    1.7660 C   0  0  0  0  0
   42.4470   28.3040    1.5410 C   0  0  0  0  0
   44.3890   28.6930   -0.3830 C   0  0  0  0  0
   42.1290   28.9890    0.3620 C   0  0  0  0  0
   44.7230   28.0190    0.7970 C   0  0  0  0  0
   43.1150   29.2220   -0.5940 C   0  0  0  0  0
   43.5770   24.3810    4.6660 N   0  0  0  0  0
   43.9330   23.5470    5.8210 C   0  0  0  0  0
   42.8750   22.4960    6.0800 C   0  0  0  0  0
   42.6180   22.1620    7.2370 O   0  0  0  0  0
   36.1041   17.1729   -0.7928 H   0  0  0  0  0
   36.4377   16.9752   -2.5308 H   0  0  0  0  0
   37.3896   18.1314   -1.5674 H   0  0  0  0  0
   35.1110   20.7747   -1.9907 H   0  0  0  0  0
   37.8385   19.5788   -1.6229 H   0  0  0  0  0
   36.9120   21.9558   -3.3655 H   0  0  0  0  0
   37.2160   20.3124   -4.0285 H   0  0  0  0  0
   39.5452   20.5940   -2.9357 H   0  0  0  0  0
   39.1466   22.3369   -2.9539 H   0  0  0  0  0
   38.5450   21.8870   -5.5226 H   0  0  0  0  0
   39.4483   20.4586   -5.3628 H   0  0  0  0  0
   41.3055   21.9821   -4.2273 H   0  0  0  0  0
   41.9506   24.7686   -6.2532 H   0  0  0  0  0
   42.4957   23.7951   -4.8834 H   0  0  0  0  0
   38.9458   22.7993   -6.6497 H   0  0  0  0  0
   38.7882   20.1191   -0.0359 H   0  0  0  0  0
   37.9885   22.6693    1.3532 H   0  0  0  0  0
   39.5618   20.1137    1.9830 H   0  0  0  0  0
   38.2010   20.7376    2.8436 H   0  0  0  0  0
   39.7612   22.9477    3.0361 H   0  0  0  0  0
   41.0559   21.7195    2.8432 H   0  0  0  0  0
   39.1131   20.7758    4.7529 H   0  0  0  0  0
   39.6341   22.4129    5.2124 H   0  0  0  0  0
   41.5064   20.0777    4.5544 H   0  0  0  0  0
   41.1424   20.6750    6.1907 H   0  0  0  0  0
   42.5705   22.2949    4.0733 H   0  0  0  0  0
   39.3717   24.3654    0.9642 H   0  0  0  0  0
   42.0451   23.9404   -0.3501 H   0  0  0  0  0
   41.7678   26.3867   -0.7059 H   0  0  0  0  0
   40.3321   26.3793    0.4256 H   0  0  0  0  0
   39.2013   24.8962   -1.2363 H   0  0  0  0  0
   41.3594   25.8159   -3.1518 H   0  0  0  0  0
   41.0620   24.1427   -2.6199 H   0  0  0  0  0
   39.8420   24.9968   -3.5962 H   0  0  0  0  0
   38.9360   27.4590   -1.0668 H   0  0  0  0  0
   40.3114   27.6439   -2.1825 H   0  0  0  0  0
   38.7783   26.9513   -2.7663 H   0  0  0  0  0
   43.9463   24.8230    0.6058 H   0  0  0  0  0
   45.2889   25.4843    2.1206 H   0  0  0  0  0
   44.9594   27.4112    3.4890 H   0  0  0  0  0
   43.2289   27.0528    3.7073 H   0  0  0  0  0
   41.6752   28.1416    2.2933 H   0  0  0  0  0
   45.1454   28.8081   -1.1594 H   0  0  0  0  0
   41.1110   29.3396    0.1924 H   0  0  0  0  0
   45.7365   27.6506    0.9559 H   0  0  0  0  0
   42.8960   29.8054   -1.4883 H   0  0  0  0  0
   42.6320   24.7368    4.5219 H   0  0  0  0  0
   44.0137   24.1853    6.7009 H   0  0  0  0  0
   44.8785   23.0465    5.6120 H   0  0  0  0  0
  1  2  2  0  0  0
  1  3  1  0  0  0
  1  4  1  0  0  0
  4  5  1  0  0  0
  5  6  1  0  0  0
  5  8  1  0  0  0
  6  7  2  0  0  0
  6 15  1  0  0  0
  8  9  1  0  0  0
  9 10  1  0  0  0
 10 11  1  0  0  0
 11 12  1  0  0  0
 12 13  1  0  0  0
 12 14  2  0  0  0
 15 16  1  0  0  0
 16 17  1  0  0  0
 16 19  1  0  0  0
 17 18  2  0  0  0
 17 24  1  0  0  0
 19 20  1  0  0  0
 20 21  1  0  0  0
 21 22  1  0  0  0
 22 23  1  0  0  0
 23 45  1  0  0  0
 24 25  1  0  0  0
 25 26  1  0  0  0
 25 28  1  0  0  0
 26 27  2  0  0  0
 26 32  1  0  0  0
 28 29  1  0  0  0
 29 30  1  0  0  0
 29 31  1  0  0  0
 32 33  1  0  0  0
 33 34  1  0  0  0
 33 36  1  0  0  0
 34 35  2  0  0  0
 34 43  1  0  0  0
 36 37  1  0  0  0
 37 38  4  0  0  0
 37 41  4  0  0  0
 38 40  4  0  0  0
 41 39  4  0  0  0
 39 42  4  0  0  0
 40 42  4  0  0  0
 43 44  1  0  0  0
 44 45  1  0  0  0
 45 46  2  0  0  0
  3 47  1  0  0  0
  3 48  1  0  0  0
  3 49  1  0  0  0
  4 50  1  0  0  0
  5 51  1  0  0  0
  8 52  1  0  0  0
  8 53  1  0  0  0
  9 54  1  0  0  0
  9 55  1  0  0  0
 10 56  1  0  0  0
 10 57  1  0  0  0
 11 58  1  0  0  0
 13 59  1  0  0  0
 13 60  1  0  0  0
 14 61  1  0  0  0
 15 62  1  0  0  0
 16 63  1  0  0  0
 19 64  1  0  0  0
 19 65  1  0  0  0
 20 66  1  0  0  0
 20 67  1  0  0  0
 21 68  1  0  0  0
 21 69  1  0  0  0
 22 70  1  0  0  0
 22 71  1  0  0  0
 23 72  1  0  0  0
 24 73  1  0  0  0
 25 74  1  0  0  0
 28 75  1  0  0  0
 28 76  1  0  0  0
 29 77  1  0  0  0
 30 78  1  0  0  0
 30 79  1  0  0  0
 30 80  1  0  0  0
 31 81  1  0  0  0
 31 82  1  0  0  0
 31 83  1  0  0  0
 32 84  1  0  0  0
 33 85  1  0  0  0
 36 86  1  0  0  0
 36 87  1  0  0  0
 38 88  1  0  0  0
 39 89  1  0  0  0
 40 90  1  0  0  0
 41 91  1  0  0  0
 42 92  1  0  0  0
 43 93  1  0  0  0
 44 94  1  0  0  0
 44 95  1  0  0  0
M  END
$$$$
