4waf_ligand
  -I-interpret- 

 54 58  0  0  0  0  0  0  0  0999 V2000
   -2.6790   12.4200  -18.0750 C   0  0  0  0  0
   -3.3220   12.6130  -16.7070 C   0  0  0  0  0
   -1.8860   10.9240  -13.9840 C   0  0  0  0  0
    0.0820    3.5740  -14.6180 O   0  0  0  0  0
    2.7400    4.4840  -15.2210 C   0  0  0  0  0
    3.0550    4.0110  -12.8170 C   0  0  0  0  0
   -2.1680   10.4540  -16.1170 C   0  0  0  0  0
   -2.1990    9.9680  -17.5330 C   0  0  0  0  0
   -2.8480   10.6390  -19.8270 C   0  0  0  0  0
   -1.9370    9.8000  -20.4700 C   0  0  0  0  0
   -2.0130    9.6560  -21.8450 C   0  0  0  0  0
   -3.8050   11.0650  -21.9780 C   0  0  0  0  0
   -5.4850   12.4650  -21.5360 C   0  0  0  0  0
   -4.9370   12.1620  -20.3300 C   0  0  0  0  0
   -3.8440   11.2730  -20.5910 C   0  0  0  0  0
    0.5860    4.5100  -13.6520 S   0  0  0  0  0
    0.3520    4.2740  -12.2640 O   0  0  0  0  0
    2.1980    4.5850  -13.8610 N   0  0  0  0  0
   -0.0670    6.0890  -14.0430 C   0  0  0  0  0
    0.0250    6.5760  -15.3410 C   0  0  0  0  0
   -0.4480    7.8430  -15.6310 C   0  0  0  0  0
   -0.6340    6.8630  -13.0420 C   0  0  0  0  0
   -1.1060    8.1260  -13.3380 C   0  0  0  0  0
   -1.0310    8.6300  -14.6390 C   0  0  0  0  0
   -1.6290    9.9480  -14.9570 C   0  0  0  0  0
   -2.5540   11.9460  -14.4660 N   0  0  0  0  0
   -2.7220   11.6660  -15.8010 N   0  0  0  0  0
   -2.7000   10.9930  -18.4550 N   0  0  0  0  0
   -1.2720   13.0140  -18.1690 C   0  0  0  0  0
   -4.8060   11.8060  -22.5340 N   0  0  0  0  0
   -2.9200   10.2770  -22.6140 N   0  0  0  0  0
   -3.2784   12.9797  -18.7930 H   0  0  0  0  0
   -4.3979   12.4492  -16.7679 H   0  0  0  0  0
   -3.1598   13.6310  -16.3527 H   0  0  0  0  0
   -1.5672   10.8433  -12.9448 H   0  0  0  0  0
    2.4493    3.5280  -15.6565 H   0  0  0  0  0
    2.3446    5.2972  -15.8297 H   0  0  0  0  0
    3.8272    4.5521  -15.1834 H   0  0  0  0  0
    2.8668    4.5219  -11.8727 H   0  0  0  0  0
    2.8316    2.9497  -12.7082 H   0  0  0  0  0
    4.1008    4.1366  -13.0974 H   0  0  0  0  0
   -2.8670    9.1082  -17.5837 H   0  0  0  0  0
   -1.1813    9.7124  -17.8280 H   0  0  0  0  0
   -1.1774    9.2663  -19.8987 H   0  0  0  0  0
   -1.2926    8.9986  -22.3318 H   0  0  0  0  0
   -6.3348   13.1302  -21.6893 H   0  0  0  0  0
   -5.2646   12.5241  -19.3555 H   0  0  0  0  0
    0.4674    5.9631  -16.1263 H   0  0  0  0  0
   -0.3640    8.2304  -16.6464 H   0  0  0  0  0
   -0.7067    6.4758  -12.0257 H   0  0  0  0  0
   -1.5422    8.7371  -12.5478 H   0  0  0  0  0
   -0.6045   12.4716  -17.4994 H   0  0  0  0  0
   -0.9101   12.9272  -19.1935 H   0  0  0  0  0
   -1.3026   14.0648  -17.8809 H   0  0  0  0  0
  2  1  1  0  0  0
 28  1  1  0  0  0
  1 29  1  0  0  0
 27  2  1  0  0  0
 25  3  4  0  0  0
  3 26  4  0  0  0
 16  4  2  0  0  0
 18  5  1  0  0  0
 18  6  1  0  0  0
  7  8  1  0  0  0
 25  7  4  0  0  0
  7 27  4  0  0  0
  8 28  1  0  0  0
  9 10  4  0  0  0
  9 15  4  0  0  0
 28  9  1  0  0  0
 10 11  4  0  0  0
 11 31  4  0  0  0
 15 12  4  0  0  0
 12 30  4  0  0  0
 12 31  4  0  0  0
 14 13  4  0  0  0
 13 30  4  0  0  0
 15 14  4  0  0  0
 16 17  2  0  0  0
 16 18  1  0  0  0
 19 16  1  0  0  0
 20 19  4  0  0  0
 22 19  4  0  0  0
 21 20  4  0  0  0
 24 21  4  0  0  0
 23 22  4  0  0  0
 24 23  4  0  0  0
 24 25  1  0  0  0
 26 27  4  0  0  0
  1 32  1  0  0  0
  2 33  1  0  0  0
  2 34  1  0  0  0
  3 35  1  0  0  0
  5 36  1  0  0  0
  5 37  1  0  0  0
  5 38  1  0  0  0
  6 39  1  0  0  0
  6 40  1  0  0  0
  6 41  1  0  0  0
  8 42  1  0  0  0
  8 43  1  0  0  0
 10 44  1  0  0  0
 11 45  1  0  0  0
 13 46  1  0  0  0
 14 47  1  0  0  0
 20 48  1  0  0  0
 21 49  1  0  0  0
 22 50  1  0  0  0
 23 51  1  0  0  0
 29 52  1  0  0  0
 29 53  1  0  0  0
 29 54  1  0  0  0
M  END
$$$$
