1vja_ligand
  -I-interpret- 

 60 61  0  0  0  0  0  0  0  0999 V2000
   26.6200   11.5010   30.3330 O   0  0  0  0  0
   27.6950   11.4140   31.2160 C   0  0  0  0  0
   28.9390   10.5140   31.0670 C   0  0  0  0  0
   30.0860   11.4000   31.0500 N   0  0  0  0  0
   31.4060   10.9170   30.9290 C   0  0  0  0  0
   32.5150   11.9670   30.9090 C   0  0  0  0  0
   33.5050   11.7890   29.8860 N   0  0  0  0  0
   33.4490   12.0880   28.2590 S   0  0  0  0  0
   32.0990   11.1390   27.5200 C   0  0  0  0  0
   32.1310   11.3430   26.0080 C   0  0  0  0  0
   31.8260   12.6110   25.3700 C   0  0  0  0  0
   31.8810   12.7340   23.9270 C   0  0  0  0  0
   32.2400   11.5820   23.1410 C   0  0  0  0  0
   32.5410   10.3240   23.7700 C   0  0  0  0  0
   32.4870   10.2030   25.2030 C   0  0  0  0  0
   33.1630   13.4880   28.1530 O   0  0  0  0  0
   34.8170   11.6920   27.8400 O   0  0  0  0  0
   33.3410   12.0460   32.1970 C   0  0  0  0  0
   32.4440   12.2230   33.2660 O   0  0  0  0  0
   31.6740    9.7320   30.8350 O   0  0  0  0  0
   28.8140    9.7060   29.7820 C   0  0  0  0  0
   28.9940   10.2470   28.7110 O   0  0  0  0  0
   28.5130    8.3620   29.9660 N   0  0  0  0  0
   28.3800    7.4570   28.8450 C   0  0  0  0  0
   29.6510    6.6940   28.4840 C   0  0  0  0  0
   29.7260    5.2930   28.7870 C   0  0  0  0  0
   30.8930    4.5330   28.4710 C   0  0  0  0  0
   32.0570    5.1440   27.8310 C   0  0  0  0  0
   32.0060    6.5630   27.5140 C   0  0  0  0  0
   30.8100    7.3170   27.8420 C   0  0  0  0  0
   33.1900    4.3320   27.5450 C   0  0  0  0  0
   33.1990    3.0170   27.8500 N   0  0  0  0  0
   34.3300    4.7580   26.9660 N   0  0  0  0  0
   25.9836   12.1374   30.6671 H   0  0  0  0  0
   27.2197   10.9871   32.0992 H   0  0  0  0  0
   28.1320   12.4088   31.1286 H   0  0  0  0  0
   29.0435    9.7994   31.8834 H   0  0  0  0  0
   29.9338   12.4056   31.1281 H   0  0  0  0  0
   31.9204   12.8653   30.7427 H   0  0  0  0  0
   34.3941   11.4148   30.2175 H   0  0  0  0  0
   31.1439   11.4791   27.9202 H   0  0  0  0  0
   32.2174   10.0811   27.7543 H   0  0  0  0  0
   31.5547   13.4736   25.9785 H   0  0  0  0  0
   31.6540   13.6843   23.4438 H   0  0  0  0  0
   32.2842   11.6645   22.0550 H   0  0  0  0  0
   32.8103    9.4613   23.1606 H   0  0  0  0  0
   32.7154    9.2493   25.6788 H   0  0  0  0  0
   34.0438   12.8778   32.1481 H   0  0  0  0  0
   33.9209   11.1333   32.3339 H   0  0  0  0  0
   32.9353   12.2761   34.0891 H   0  0  0  0  0
   28.3829    8.0054   30.9127 H   0  0  0  0  0
   28.1181    8.0636   27.9781 H   0  0  0  0  0
   27.6337    6.7137   29.1253 H   0  0  0  0  0
   28.8790    4.8015   29.2657 H   0  0  0  0  0
   30.9166    3.4705   28.7131 H   0  0  0  0  0
   32.8545    7.0532   27.0366 H   0  0  0  0  0
   30.7735    8.3798   27.6030 H   0  0  0  0  0
   34.0200    2.4499   27.6382 H   0  0  0  0  0
   32.3848    2.5904   28.2922 H   0  0  0  0  0
   34.4297    5.7362   26.6949 H   0  0  0  0  0
  1  2  1  0  0  0
  2  3  1  0  0  0
  3  4  1  0  0  0
  3 21  1  0  0  0
  4  5  1  0  0  0
  5  6  1  0  0  0
  5 20  2  0  0  0
  6  7  1  0  0  0
  6 18  1  0  0  0
  7  8  1  0  0  0
  8  9  1  0  0  0
  8 16  2  0  0  0
  8 17  2  0  0  0
  9 10  1  0  0  0
 10 11  4  0  0  0
 10 15  4  0  0  0
 11 12  4  0  0  0
 12 13  4  0  0  0
 13 14  4  0  0  0
 14 15  4  0  0  0
 18 19  1  0  0  0
 21 22  2  0  0  0
 21 23  1  0  0  0
 23 24  1  0  0  0
 24 25  1  0  0  0
 25 26  4  0  0  0
 25 30  4  0  0  0
 26 27  4  0  0  0
 27 28  4  0  0  0
 28 29  4  0  0  0
 28 31  1  0  0  0
 29 30  4  0  0  0
 31 32  1  0  0  0
 31 33  2  0  0  0
  1 34  1  0  0  0
  2 35  1  0  0  0
  2 36  1  0  0  0
  3 37  1  0  0  0
  4 38  1  0  0  0
  6 39  1  0  0  0
  7 40  1  0  0  0
  9 41  1  0  0  0
  9 42  1  0  0  0
 11 43  1  0  0  0
 12 44  1  0  0  0
 13 45  1  0  0  0
 14 46  1  0  0  0
 15 47  1  0  0  0
 18 48  1  0  0  0
 18 49  1  0  0  0
 19 50  1  0  0  0
 23 51  1  0  0  0
 24 52  1  0  0  0
 24 53  1  0  0  0
 26 54  1  0  0  0
 27 55  1  0  0  0
 29 56  1  0  0  0
 30 57  1  0  0  0
 32 58  1  0  0  0
 32 59  1  0  0  0
 33 60  1  0  0  0
M  END
$$$$
