### 
### Created by X-TOOL on Mon Sep 10 21:12:55 2018
### 

@<TRIPOS>MOLECULE
2p3d_ligand
  130   133     1     0     0
SMALL
GAST_HUCK


@<TRIPOS>ATOM
      1 N1         10.0830  -14.7970    1.8350 N.am      1 3TL        -0.2774
      2 C1         10.1660  -14.7070    0.3810 C.3       1 3TL         0.0799
      3 N2         10.0880  -13.0740    4.7650 N.am      1 3TL        -0.2635
      4 C2          9.7520  -16.0350   -0.2850 C.3       1 3TL         0.1079
      5 C3         11.5680  -14.2900   -0.0770 C.3       1 3TL         0.0065
      6 C4         11.8510  -12.8270    0.2040 C.ar      1 3TL        -0.0408
      7 C5         12.6200  -12.4840    1.3190 C.ar      1 3TL        -0.0603
      8 O1         10.6130  -17.0820    0.1650 O.3       1 3TL        -0.3867
      9 C6         12.8930  -11.1390    1.6010 C.ar      1 3TL        -0.0686
     10 C7         12.3920  -10.1390    0.7670 C.ar      1 3TL        -0.0687
     11 O2          8.6460  -13.0660    2.1440 O.2       1 3TL        -0.3945
     12 C8         11.6280  -10.4780   -0.3490 C.ar      1 3TL        -0.0686
     13 C9         11.3620  -11.8130   -0.6320 C.ar      1 3TL        -0.0603
     14 C10         9.4370  -14.1970    4.0920 C.3       1 3TL         0.1331
     15 C11         9.3530  -13.9660    2.5980 C.2       1 3TL         0.2024
     16 C12         8.0340  -14.4670    4.6410 C.3       1 3TL        -0.0063
     17 C13        11.7970   -7.8610    9.6870 C.ar      1 3TL        -0.0578
     18 C14        12.1960   -6.7500    8.9280 C.ar      1 3TL        -0.0685
     19 N4         12.2240  -12.2150    7.4870 N.am      1 3TL        -0.2413
     20 C15        13.3650   -6.7850    8.1610 C.ar      1 3TL        -0.0687
     21 C16        14.1210   -7.9670    8.1620 C.ar      1 3TL        -0.0685
     22 C17        13.7150   -9.0850    8.9200 C.ar      1 3TL        -0.0578
     23 O4         11.8300  -14.2660    5.5930 O.2       1 3TL        -0.3944
     24 C18        11.7720  -11.9780    6.1080 C.3       1 3TL         0.1300
     25 C19        11.2260  -13.2090    5.4610 C.2       1 3TL         0.2036
     26 C20        12.9000  -11.4530    5.2180 C.3       1 3TL        -0.0244
     27 O58         3.7260  -14.6590   -7.2290 O.2       1 3TL        -0.3773
     28 C81         3.8350  -15.7550   -7.7810 C.2       1 3TL         0.3239
     29 O59         3.3830  -15.9650   -9.1460 O.3       1 3TL        -0.2506
     30 CA5         3.2010  -14.8750  -10.0620 C.3       1 3TL         0.1113
     31 C50         1.7280  -14.5600  -10.2380 C.ar      1 3TL        -0.0130
     32 C63         1.3440  -13.3330  -10.7710 C.ar      1 3TL        -0.0578
     33 C64        -0.0040  -13.0180  -10.9380 C.ar      1 3TL        -0.0685
     34 C65        -0.9860  -13.9410  -10.5690 C.ar      1 3TL        -0.0687
     35 C66        -0.5970  -15.1660  -10.0390 C.ar      1 3TL        -0.0685
     36 C67         0.7550  -15.4790   -9.8740 C.ar      1 3TL        -0.0578
     37 N54         4.3500  -16.8080   -7.1670 N.am      1 3TL        -0.2413
     38 C68         4.4850  -16.7530   -5.7320 C.3       1 3TL         0.1300
     39 C70         3.6390  -17.8460   -5.0960 C.3       1 3TL        -0.0244
     40 C69         5.9320  -16.8480   -5.3630 C.2       1 3TL         0.2036
     41 O54         6.5420  -17.9050   -5.4650 O.2       1 3TL        -0.3944
     42 N52         6.4570  -15.6920   -4.9600 N.am      1 3TL        -0.2635
     43 C60         7.8020  -15.5230   -4.4430 C.3       1 3TL         0.1331
     44 C62         8.6010  -14.5880   -5.3730 C.3       1 3TL        -0.0063
     45 CG6         8.4020  -14.9070   -6.8500 C.3       1 3TL        -0.0584
     46 CG5        10.0940  -14.5650   -5.1150 C.3       1 3TL        -0.0584
     47 C61         7.6390  -14.9780   -3.0440 C.2       1 3TL         0.2024
     48 O52         8.0020  -13.8420   -2.7430 O.2       1 3TL        -0.3945
     49 N51         7.0460  -15.7940   -2.1580 N.am      1 3TL        -0.2774
     50 C51         7.2370  -15.5780   -0.7300 C.3       1 3TL         0.0799
     51 C53         5.9540  -15.6670    0.0800 C.3       1 3TL         0.0065
     52 C54         4.7420  -16.2480   -0.5970 C.ar      1 3TL        -0.0408
     53 C55         3.9520  -15.4540   -1.4460 C.ar      1 3TL        -0.0603
     54 C56         2.8040  -15.9920   -2.0370 C.ar      1 3TL        -0.0686
     55 C57         2.4430  -17.3170   -1.7700 C.ar      1 3TL        -0.0687
     56 C58         3.2200  -18.1050   -0.9200 C.ar      1 3TL        -0.0686
     57 C59         4.3660  -17.5670   -0.3230 C.ar      1 3TL        -0.0603
     58 C52         8.2840  -16.4790   -0.0670 C.3       1 3TL         0.1079
     59 O51         8.0430  -17.7930   -0.5480 O.3       1 3TL        -0.3867
     60 CG2         7.9460  -14.4570    6.1540 C.3       1 3TL        -0.0584
     61 CG1         7.4900  -15.7850    4.1160 C.3       1 3TL        -0.0584
     62 C31        11.5580  -11.6150    8.4780 C.2       1 3TL         0.3239
     63 O8         10.4450  -11.1330    8.2940 O.2       1 3TL        -0.3773
     64 O9         12.1330  -11.5000    9.8140 O.3       1 3TL        -0.2506
     65 CA         12.0730  -10.2390   10.5180 C.3       1 3TL         0.1113
     66 C          12.5410   -9.0410    9.6920 C.ar      1 3TL        -0.0130
     67 H1         10.6006  -15.5208    2.2912 H         1 3TL         0.1857
     68 H2          9.4597  -13.9301    0.0532 H         1 3TL         0.0605
     69 H3          9.6675  -12.1688    4.7037 H         1 3TL         0.1883
     70 H4          9.8945  -15.9082   -1.3683 H         1 3TL         0.0645
     71 H5         11.6540  -14.4658   -1.1594 H         1 3TL         0.0449
     72 H6         12.3111  -14.9029    0.4542 H         1 3TL         0.0449
     73 H7         13.0068  -13.2612    1.9682 H         1 3TL         0.0557
     74 H8         11.5101  -16.8756   -0.0697 H         1 3TL         0.2100
     75 H9         13.4921  -10.8759    2.4652 H         1 3TL         0.0599
     76 H10        12.5969   -9.0975    0.9869 H         1 3TL         0.0559
     77 H11        11.2409   -9.6998   -0.9968 H         1 3TL         0.0599
     78 H12        10.7729  -12.0716   -1.5044 H         1 3TL         0.0557
     79 H13        10.0502  -15.0930    4.2683 H         1 3TL         0.0802
     80 H14         7.3839  -13.6607    4.2706 H         1 3TL         0.0343
     81 H15        10.8924   -7.8010   10.2813 H         1 3TL         0.0557
     82 H16        11.5893   -5.8517    8.9363 H         1 3TL         0.0599
     83 H17        13.0066  -12.8076    7.6776 H         1 3TL         0.1899
     84 H18        13.6780   -5.9235    7.5823 H         1 3TL         0.0559
     85 H19        15.0290   -8.0217    7.5725 H         1 3TL         0.0599
     86 H20        14.3147   -9.9879    8.9071 H         1 3TL         0.0557
     87 H21        10.9742  -11.2216    6.1456 H         1 3TL         0.0796
     88 H22        12.5179  -11.2906    4.1994 H         1 3TL         0.0277
     89 H23        13.7175  -12.1885    5.1900 H         1 3TL         0.0277
     90 H24        13.2757  -10.5024    5.6246 H         1 3TL         0.0277
     91 H25         3.6305  -15.1479  -11.0372 H         1 3TL         0.0776
     92 H26         3.7158  -13.9852   -9.6706 H         1 3TL         0.0776
     93 H27         2.1019  -12.6137  -11.0597 H         1 3TL         0.0557
     94 H28        -0.2897  -12.0584  -11.3535 H         1 3TL         0.0599
     95 H29        -2.0366  -13.7052  -10.6942 H         1 3TL         0.0559
     96 H30        -1.3523  -15.8878   -9.7499 H         1 3TL         0.0599
     97 H31         1.0430  -16.4393   -9.4618 H         1 3TL         0.0557
     98 H32         4.6365  -17.6162   -7.6815 H         1 3TL         0.1899
     99 H33         4.1068  -15.7821   -5.3795 H         1 3TL         0.0796
    100 H34         3.7442  -17.8012   -4.0020 H         1 3TL         0.0277
    101 H35         3.9774  -18.8284   -5.4570 H         1 3TL         0.0277
    102 H36         2.5837  -17.6986   -5.3691 H         1 3TL         0.0277
    103 H37         5.8794  -14.8777   -5.0183 H         1 3TL         0.1883
    104 H38         8.3148  -16.4951   -4.3980 H         1 3TL         0.0802
    105 H39         8.2193  -13.5721   -5.1937 H         1 3TL         0.0343
    106 H40         8.9951  -14.2089   -7.4590 H         1 3TL         0.0234
    107 H41         7.3374  -14.8045   -7.1071 H         1 3TL         0.0234
    108 H42         8.7300  -15.9377   -7.0500 H         1 3TL         0.0234
    109 H43        10.2794  -14.3370   -4.0550 H         1 3TL         0.0234
    110 H44        10.5629  -13.7935   -5.7434 H         1 3TL         0.0234
    111 H45        10.5235  -15.5478   -5.3592 H         1 3TL         0.0234
    112 H46         6.4739  -16.5492   -2.4779 H         1 3TL         0.1857
    113 H47         7.6047  -14.5457   -0.6347 H         1 3TL         0.0605
    114 H48         5.6951  -14.6468    0.3997 H         1 3TL         0.0449
    115 H49         6.1653  -16.2859    0.9645 H         1 3TL         0.0449
    116 H50         4.2321  -14.4255   -1.6427 H         1 3TL         0.0557
    117 H51         2.1968  -15.3850   -2.6988 H         1 3TL         0.0599
    118 H52         1.5531  -17.7346   -2.2268 H         1 3TL         0.0559
    119 H53         2.9365  -19.1324   -0.7223 H         1 3TL         0.0599
    120 H54         4.9615  -18.1720    0.3511 H         1 3TL         0.0557
    121 H55         8.1048  -16.4664    1.0182 H         1 3TL         0.0645
    122 H56         8.6722  -18.3908   -0.1617 H         1 3TL         0.2100
    123 H57         6.9094  -14.6583    6.4623 H         1 3TL         0.0234
    124 H58         8.2565  -13.4721    6.5329 H         1 3TL         0.0234
    125 H59         8.6080  -15.2334    6.5650 H         1 3TL         0.0234
    126 H60         7.5523  -15.7959    3.0178 H         1 3TL         0.0234
    127 H61         6.4403  -15.8975    4.4248 H         1 3TL         0.0234
    128 H62         8.0836  -16.6157    4.5252 H         1 3TL         0.0234
    129 H63        12.7093  -10.3118   11.4123 H         1 3TL         0.0776
    130 H64        11.0309  -10.0626   10.8228 H         1 3TL         0.0776
@<TRIPOS>BOND
     1    1    2 1  
     2   15    1 am 
     3    2    4 1  
     4    2    5 1  
     5    3   14 1  
     6   25    3 am 
     7    4    8 1  
     8    4   58 1  
     9    5    6 1  
    10    6    7 ar 
    11    6   13 ar 
    12    7    9 ar 
    13    9   10 ar 
    14   12   10 ar 
    15   15   11 2  
    16   13   12 ar 
    17   14   15 1  
    18   14   16 1  
    19   16   60 1  
    20   16   61 1  
    21   17   18 ar 
    22   66   17 ar 
    23   18   20 ar 
    24   19   24 1  
    25   62   19 am 
    26   21   20 ar 
    27   22   21 ar 
    28   66   22 ar 
    29   25   23 2  
    30   24   25 1  
    31   24   26 1  
    32   28   27 2  
    33   28   29 1  
    34   37   28 am 
    35   29   30 1  
    36   30   31 1  
    37   31   32 ar 
    38   31   36 ar 
    39   32   33 ar 
    40   33   34 ar 
    41   35   34 ar 
    42   36   35 ar 
    43   38   37 1  
    44   38   39 1  
    45   40   38 1  
    46   40   41 2  
    47   42   40 am 
    48   43   42 1  
    49   43   44 1  
    50   47   43 1  
    51   44   45 1  
    52   44   46 1  
    53   47   48 2  
    54   49   47 am 
    55   50   49 1  
    56   50   51 1  
    57   58   50 1  
    58   51   52 1  
    59   52   53 ar 
    60   52   57 ar 
    61   53   54 ar 
    62   54   55 ar 
    63   56   55 ar 
    64   57   56 ar 
    65   58   59 1  
    66   62   63 2  
    67   64   62 1  
    68   65   64 1  
    69   65   66 1  
    70    1   67 1  
    71    2   68 1  
    72    3   69 1  
    73    4   70 1  
    74    5   71 1  
    75    5   72 1  
    76    7   73 1  
    77    8   74 1  
    78    9   75 1  
    79   10   76 1  
    80   12   77 1  
    81   13   78 1  
    82   14   79 1  
    83   16   80 1  
    84   17   81 1  
    85   18   82 1  
    86   19   83 1  
    87   20   84 1  
    88   21   85 1  
    89   22   86 1  
    90   24   87 1  
    91   26   88 1  
    92   26   89 1  
    93   26   90 1  
    94   30   91 1  
    95   30   92 1  
    96   32   93 1  
    97   33   94 1  
    98   34   95 1  
    99   35   96 1  
   100   36   97 1  
   101   37   98 1  
   102   38   99 1  
   103   39  100 1  
   104   39  101 1  
   105   39  102 1  
   106   42  103 1  
   107   43  104 1  
   108   44  105 1  
   109   45  106 1  
   110   45  107 1  
   111   45  108 1  
   112   46  109 1  
   113   46  110 1  
   114   46  111 1  
   115   49  112 1  
   116   50  113 1  
   117   51  114 1  
   118   51  115 1  
   119   53  116 1  
   120   54  117 1  
   121   55  118 1  
   122   56  119 1  
   123   57  120 1  
   124   58  121 1  
   125   59  122 1  
   126   60  123 1  
   127   60  124 1  
   128   60  125 1  
   129   61  126 1  
   130   61  127 1  
   131   61  128 1  
   132   65  129 1  
   133   65  130 1  
@<TRIPOS>SUBSTRUCTURE
     1 3TL         1

