2p3d_ligand
  -I-interpret- 

130133  0  0  0  0  0  0  0  0999 V2000
   10.0830  -14.7970    1.8350 N   0  0  0  0  0
   10.1660  -14.7070    0.3810 C   0  0  0  0  0
   10.0880  -13.0740    4.7650 N   0  0  0  0  0
    9.7520  -16.0350   -0.2850 C   0  0  0  0  0
   11.5680  -14.2900   -0.0770 C   0  0  0  0  0
   11.8510  -12.8270    0.2040 C   0  0  0  0  0
   12.6200  -12.4840    1.3190 C   0  0  0  0  0
   10.6130  -17.0820    0.1650 O   0  0  0  0  0
   12.8930  -11.1390    1.6010 C   0  0  0  0  0
   12.3920  -10.1390    0.7670 C   0  0  0  0  0
    8.6460  -13.0660    2.1440 O   0  0  0  0  0
   11.6280  -10.4780   -0.3490 C   0  0  0  0  0
   11.3620  -11.8130   -0.6320 C   0  0  0  0  0
    9.4370  -14.1970    4.0920 C   0  0  0  0  0
    9.3530  -13.9660    2.5980 C   0  0  0  0  0
    8.0340  -14.4670    4.6410 C   0  0  0  0  0
   11.7970   -7.8610    9.6870 C   0  0  0  0  0
   12.1960   -6.7500    8.9280 C   0  0  0  0  0
   12.2240  -12.2150    7.4870 N   0  0  0  0  0
   13.3650   -6.7850    8.1610 C   0  0  0  0  0
   14.1210   -7.9670    8.1620 C   0  0  0  0  0
   13.7150   -9.0850    8.9200 C   0  0  0  0  0
   11.8300  -14.2660    5.5930 O   0  0  0  0  0
   11.7720  -11.9780    6.1080 C   0  0  0  0  0
   11.2260  -13.2090    5.4610 C   0  0  0  0  0
   12.9000  -11.4530    5.2180 C   0  0  0  0  0
    3.7260  -14.6590   -7.2290 O   0  0  0  0  0
    3.8350  -15.7550   -7.7810 C   0  0  0  0  0
    3.3830  -15.9650   -9.1460 O   0  0  0  0  0
    3.2010  -14.8750  -10.0620 C   0  0  0  0  0
    1.7280  -14.5600  -10.2380 C   0  0  0  0  0
    1.3440  -13.3330  -10.7710 C   0  0  0  0  0
   -0.0040  -13.0180  -10.9380 C   0  0  0  0  0
   -0.9860  -13.9410  -10.5690 C   0  0  0  0  0
   -0.5970  -15.1660  -10.0390 C   0  0  0  0  0
    0.7550  -15.4790   -9.8740 C   0  0  0  0  0
    4.3500  -16.8080   -7.1670 N   0  0  0  0  0
    4.4850  -16.7530   -5.7320 C   0  0  0  0  0
    3.6390  -17.8460   -5.0960 C   0  0  0  0  0
    5.9320  -16.8480   -5.3630 C   0  0  0  0  0
    6.5420  -17.9050   -5.4650 O   0  0  0  0  0
    6.4570  -15.6920   -4.9600 N   0  0  0  0  0
    7.8020  -15.5230   -4.4430 C   0  0  0  0  0
    8.6010  -14.5880   -5.3730 C   0  0  0  0  0
    8.4020  -14.9070   -6.8500 C   0  0  0  0  0
   10.0940  -14.5650   -5.1150 C   0  0  0  0  0
    7.6390  -14.9780   -3.0440 C   0  0  0  0  0
    8.0020  -13.8420   -2.7430 O   0  0  0  0  0
    7.0460  -15.7940   -2.1580 N   0  0  0  0  0
    7.2370  -15.5780   -0.7300 C   0  0  0  0  0
    5.9540  -15.6670    0.0800 C   0  0  0  0  0
    4.7420  -16.2480   -0.5970 C   0  0  0  0  0
    3.9520  -15.4540   -1.4460 C   0  0  0  0  0
    2.8040  -15.9920   -2.0370 C   0  0  0  0  0
    2.4430  -17.3170   -1.7700 C   0  0  0  0  0
    3.2200  -18.1050   -0.9200 C   0  0  0  0  0
    4.3660  -17.5670   -0.3230 C   0  0  0  0  0
    8.2840  -16.4790   -0.0670 C   0  0  0  0  0
    8.0430  -17.7930   -0.5480 O   0  0  0  0  0
    7.9460  -14.4570    6.1540 C   0  0  0  0  0
    7.4900  -15.7850    4.1160 C   0  0  0  0  0
   11.5580  -11.6150    8.4780 C   0  0  0  0  0
   10.4450  -11.1330    8.2940 O   0  0  0  0  0
   12.1330  -11.5000    9.8140 O   0  0  0  0  0
   12.0730  -10.2390   10.5180 C   0  0  0  0  0
   12.5410   -9.0410    9.6920 C   0  0  0  0  0
   10.6110  -15.5353    2.3003 H   0  0  0  0  0
    9.4657  -13.9338    0.0651 H   0  0  0  0  0
    9.6591  -12.1507    4.7025 H   0  0  0  0  0
    9.8440  -15.8440   -1.3542 H   0  0  0  0  0
   11.6338  -14.4474   -1.1536 H   0  0  0  0  0
   12.2958  -14.8877    0.4719 H   0  0  0  0  0
   13.0089  -13.2655    1.9717 H   0  0  0  0  0
   11.5276  -16.8204    0.0358 H   0  0  0  0  0
   13.4954  -10.8745    2.4700 H   0  0  0  0  0
   12.5980   -9.0917    0.9881 H   0  0  0  0  0
   11.2388   -9.6955   -1.0004 H   0  0  0  0  0
   10.7696  -12.0730   -1.5092 H   0  0  0  0  0
   10.0564  -15.0719    4.2892 H   0  0  0  0  0
    7.4261  -13.6358    4.2838 H   0  0  0  0  0
   10.8874   -7.8006   10.2846 H   0  0  0  0  0
   11.5860   -5.8467    8.9364 H   0  0  0  0  0
   13.0223  -12.8195    7.6814 H   0  0  0  0  0
   13.6798   -5.9188    7.5791 H   0  0  0  0  0
   15.0341   -8.0220    7.5692 H   0  0  0  0  0
   14.3180   -9.9929    8.9071 H   0  0  0  0  0
   10.9824  -11.2319    6.1975 H   0  0  0  0  0
   13.2714  -10.5112    5.6219 H   0  0  0  0  0
   13.7094  -12.1826    5.1911 H   0  0  0  0  0
   12.5202  -11.2925    4.2090 H   0  0  0  0  0
    3.6186  -15.1550  -11.0291 H   0  0  0  0  0
    3.7039  -13.9936   -9.6640 H   0  0  0  0  0
    2.1060  -12.6097  -11.0613 H   0  0  0  0  0
   -0.2913  -12.0531  -11.3558 H   0  0  0  0  0
   -2.0424  -13.7039  -10.6949 H   0  0  0  0  0
   -1.3565  -15.8918   -9.7483 H   0  0  0  0  0
    1.0446  -16.4446   -9.4596 H   0  0  0  0  0
    4.6422  -17.6324   -7.6918 H   0  0  0  0  0
    4.1167  -15.8014   -5.3487 H   0  0  0  0  0
    2.5937  -17.6988   -5.3674 H   0  0  0  0  0
    3.9753  -18.8189   -5.4545 H   0  0  0  0  0
    3.7441  -17.8006   -4.0120 H   0  0  0  0  0
    5.8679  -14.8615   -5.0195 H   0  0  0  0  0
    8.3676  -16.4541   -4.4067 H   0  0  0  0  0
    8.1889  -13.6078   -5.1334 H   0  0  0  0  0
    8.7273  -15.9285   -7.0468 H   0  0  0  0  0
    7.3468  -14.8052   -7.1034 H   0  0  0  0  0
    8.9901  -14.2146   -7.4524 H   0  0  0  0  0
   10.2800  -14.2303   -4.0945 H   0  0  0  0  0
   10.5002  -15.5675   -5.2496 H   0  0  0  0  0
   10.5721  -13.8807   -5.8160 H   0  0  0  0  0
    6.4624  -16.5643   -2.4843 H   0  0  0  0  0
    7.6127  -14.5550   -0.7112 H   0  0  0  0  0
    5.6888  -14.6379    0.3225 H   0  0  0  0  0
    6.1769  -16.3391    0.9087 H   0  0  0  0  0
    4.2337  -14.4198   -1.6438 H   0  0  0  0  0
    2.1935  -15.3817   -2.7025 H   0  0  0  0  0
    1.5481  -17.7369   -2.2294 H   0  0  0  0  0
    2.9349  -19.1381   -0.7212 H   0  0  0  0  0
    4.9648  -18.1754    0.3548 H   0  0  0  0  0
    8.1718  -16.4188    1.0155 H   0  0  0  0  0
    8.6788  -18.3971   -0.1576 H   0  0  0  0  0
    8.6024  -15.2267    6.5599 H   0  0  0  0  0
    8.2540  -13.4806    6.5281 H   0  0  0  0  0
    6.9185  -14.6565    6.4582 H   0  0  0  0  0
    7.4398  -15.7482    3.0278 H   0  0  0  0  0
    8.1492  -16.5969    4.4233 H   0  0  0  0  0
    6.4922  -15.9521    4.5216 H   0  0  0  0  0
   12.7380  -10.3176   11.3781 H   0  0  0  0  0
   11.0290  -10.0638   10.7778 H   0  0  0  0  0
  1  2  1  0  0  0
 15  1  1  0  0  0
  2  4  1  0  0  0
  2  5  1  0  0  0
  3 14  1  0  0  0
 25  3  1  0  0  0
  4  8  1  0  0  0
  4 58  1  0  0  0
  5  6  1  0  0  0
  6  7  4  0  0  0
  6 13  4  0  0  0
  7  9  4  0  0  0
  9 10  4  0  0  0
 12 10  4  0  0  0
 15 11  2  0  0  0
 13 12  4  0  0  0
 14 15  1  0  0  0
 14 16  1  0  0  0
 16 60  1  0  0  0
 16 61  1  0  0  0
 17 18  4  0  0  0
 66 17  4  0  0  0
 18 20  4  0  0  0
 19 24  1  0  0  0
 62 19  1  0  0  0
 21 20  4  0  0  0
 22 21  4  0  0  0
 66 22  4  0  0  0
 25 23  2  0  0  0
 24 25  1  0  0  0
 24 26  1  0  0  0
 28 27  2  0  0  0
 28 29  1  0  0  0
 37 28  1  0  0  0
 29 30  1  0  0  0
 30 31  1  0  0  0
 31 32  4  0  0  0
 31 36  4  0  0  0
 32 33  4  0  0  0
 33 34  4  0  0  0
 35 34  4  0  0  0
 36 35  4  0  0  0
 38 37  1  0  0  0
 38 39  1  0  0  0
 40 38  1  0  0  0
 40 41  2  0  0  0
 42 40  1  0  0  0
 43 42  1  0  0  0
 43 44  1  0  0  0
 47 43  1  0  0  0
 44 45  1  0  0  0
 44 46  1  0  0  0
 47 48  2  0  0  0
 49 47  1  0  0  0
 50 49  1  0  0  0
 50 51  1  0  0  0
 58 50  1  0  0  0
 51 52  1  0  0  0
 52 53  4  0  0  0
 52 57  4  0  0  0
 53 54  4  0  0  0
 54 55  4  0  0  0
 56 55  4  0  0  0
 57 56  4  0  0  0
 58 59  1  0  0  0
 62 63  2  0  0  0
 64 62  1  0  0  0
 65 64  1  0  0  0
 65 66  1  0  0  0
  1 67  1  0  0  0
  2 68  1  0  0  0
  3 69  1  0  0  0
  4 70  1  0  0  0
  5 71  1  0  0  0
  5 72  1  0  0  0
  7 73  1  0  0  0
  8 74  1  0  0  0
  9 75  1  0  0  0
 10 76  1  0  0  0
 12 77  1  0  0  0
 13 78  1  0  0  0
 14 79  1  0  0  0
 16 80  1  0  0  0
 17 81  1  0  0  0
 18 82  1  0  0  0
 19 83  1  0  0  0
 20 84  1  0  0  0
 21 85  1  0  0  0
 22 86  1  0  0  0
 24 87  1  0  0  0
 26 88  1  0  0  0
 26 89  1  0  0  0
 26 90  1  0  0  0
 30 91  1  0  0  0
 30 92  1  0  0  0
 32 93  1  0  0  0
 33 94  1  0  0  0
 34 95  1  0  0  0
 35 96  1  0  0  0
 36 97  1  0  0  0
 37 98  1  0  0  0
 38 99  1  0  0  0
 39100  1  0  0  0
 39101  1  0  0  0
 39102  1  0  0  0
 42103  1  0  0  0
 43104  1  0  0  0
 44105  1  0  0  0
 45106  1  0  0  0
 45107  1  0  0  0
 45108  1  0  0  0
 46109  1  0  0  0
 46110  1  0  0  0
 46111  1  0  0  0
 49112  1  0  0  0
 50113  1  0  0  0
 51114  1  0  0  0
 51115  1  0  0  0
 53116  1  0  0  0
 54117  1  0  0  0
 55118  1  0  0  0
 56119  1  0  0  0
 57120  1  0  0  0
 58121  1  0  0  0
 59122  1  0  0  0
 60123  1  0  0  0
 60124  1  0  0  0
 60125  1  0  0  0
 61126  1  0  0  0
 61127  1  0  0  0
 61128  1  0  0  0
 65129  1  0  0  0
 65130  1  0  0  0
M  END
$$$$
