5cqj_ligand
  -I-interpret- 

 40 42  0  0  0  0  0  0  0  0999 V2000
  -15.4740   -0.9170   -7.0600 C   0  0  0  0  0
  -13.9270   -1.5030   -5.3050 C   0  0  0  0  0
  -13.1390   -2.4360   -4.6490 C   0  0  0  0  0
  -12.4220   -2.0550   -3.5270 C   0  0  0  0  0
  -12.4770   -0.7500   -3.0450 C   0  0  0  0  0
  -13.2620    0.1750   -3.7320 C   0  0  0  0  0
  -13.9890   -0.1960   -4.8500 C   0  0  0  0  0
  -11.7400   -0.3610   -1.8150 C   0  0  0  0  0
  -11.8640   -1.0450   -0.6140 C   0  0  0  0  0
  -12.7860   -2.1490   -0.2750 C   0  0  0  0  0
  -12.4070   -3.4740   -0.4760 C   0  0  0  0  0
  -10.8160   -0.7270    0.7240 Cl  0  0  0  0  0
  -14.0110   -1.8880    0.3280 C   0  0  0  0  0
  -14.8350   -2.9270    0.7260 C   0  0  0  0  0
  -14.4470   -4.2350    0.5300 C   0  0  0  0  0
  -13.2360   -4.5070   -0.0700 C   0  0  0  0  0
  -10.7910    0.7760   -1.9870 C   0  0  0  0  0
  -10.0990    0.9430   -3.1840 C   0  0  0  0  0
   -9.2140    1.9940   -3.3460 C   0  0  0  0  0
   -9.0030    2.8890   -2.3230 C   0  0  0  0  0
   -9.6870    2.7440   -1.1360 C   0  0  0  0  0
  -10.5780    1.7000   -0.9680 C   0  0  0  0  0
  -14.6530   -1.8970   -6.4070 O   0  0  0  0  0
  -16.2130   -0.5360   -6.3551 H   0  0  0  0  0
  -14.8483   -0.0965   -7.4113 H   0  0  0  0  0
  -15.9819   -1.3770   -7.9077 H   0  0  0  0  0
  -13.0841   -3.4618   -5.0135 H   0  0  0  0  0
  -11.8035   -2.7901   -3.0120 H   0  0  0  0  0
  -13.3039    1.2068   -3.3832 H   0  0  0  0  0
  -14.6069    0.5363   -5.3696 H   0  0  0  0  0
  -11.4540   -3.6992   -0.9548 H   0  0  0  0  0
  -14.3254   -0.8568    0.4888 H   0  0  0  0  0
  -15.7941   -2.7098    1.1961 H   0  0  0  0  0
  -15.0953   -5.0514    0.8483 H   0  0  0  0  0
  -12.9289   -5.5412   -0.2259 H   0  0  0  0  0
  -10.2562    0.2389   -4.0011 H   0  0  0  0  0
   -8.6811    2.1135   -4.2893 H   0  0  0  0  0
   -8.2973    3.7098   -2.4510 H   0  0  0  0  0
   -9.5252    3.4551   -0.3259 H   0  0  0  0  0
  -11.1195    1.5995   -0.0274 H   0  0  0  0  0
 23  1  1  0  0  0
  2  3  4  0  0  0
  2  7  4  0  0  0
  2 23  1  0  0  0
  3  4  4  0  0  0
  4  5  4  0  0  0
  5  6  4  0  0  0
  5  8  1  0  0  0
  6  7  4  0  0  0
  8  9  2  0  0  0
  8 17  1  0  0  0
  9 10  1  0  0  0
  9 12  1  0  0  0
 10 11  4  0  0  0
 10 13  4  0  0  0
 11 16  4  0  0  0
 13 14  4  0  0  0
 14 15  4  0  0  0
 15 16  4  0  0  0
 17 18  4  0  0  0
 17 22  4  0  0  0
 18 19  4  0  0  0
 19 20  4  0  0  0
 20 21  4  0  0  0
 21 22  4  0  0  0
  1 24  1  0  0  0
  1 25  1  0  0  0
  1 26  1  0  0  0
  3 27  1  0  0  0
  4 28  1  0  0  0
  6 29  1  0  0  0
  7 30  1  0  0  0
 11 31  1  0  0  0
 13 32  1  0  0  0
 14 33  1  0  0  0
 15 34  1  0  0  0
 16 35  1  0  0  0
 18 36  1  0  0  0
 19 37  1  0  0  0
 20 38  1  0  0  0
 21 39  1  0  0  0
 22 40  1  0  0  0
M  END
$$$$
