5fi2_ligand
  -I-interpret- 

 59 63  0  0  0  0  0  0  0  0999 V2000
  122.6410  302.5390  173.4430 C   0  0  0  0  0
  119.7410  305.1180  172.6890 C   0  0  0  0  0
  117.8130  306.3720  173.7130 C   0  0  0  0  0
  115.9500  305.2490  174.7470 C   0  0  0  0  0
  129.5620  302.0130  176.8410 C   0  0  0  0  0
  131.2410  306.1620  177.4480 C   0  0  0  0  0
  126.8790  299.3890  176.1350 C   0  0  0  0  0
  127.6910  300.1860  177.1950 C   0  0  0  0  0
  128.4140  301.2860  176.4020 N   0  3  0  0  0
  128.0420  301.1160  175.1600 C   0  0  0  0  0
  126.6590  300.2630  175.2390 C   0  0  0  0  0
  125.5910  301.0750  175.7240 N   0  0  0  0  0
  124.5920  301.5110  174.7730 C   0  0  0  0  0
  124.5070  301.1910  173.4730 N   0  0  0  0  0
  123.4850  301.7290  172.7700 N   0  0  0  0  0
  121.4960  303.2300  172.8770 N   0  0  0  0  0
  120.9260  304.4520  173.3910 C   0  0  0  0  0
  118.4050  305.1480  173.4260 C   0  0  0  0  0
  116.5910  306.4200  174.3740 C   0  0  0  0  0
  116.5290  304.0220  174.4590 C   0  0  0  0  0
  117.7480  303.9760  173.7890 C   0  0  0  0  0
  121.3830  304.9600  174.3820 O   0  0  0  0  0
  123.2570  302.5720  175.0550 S   0  0  0  0  0
  130.0670  302.0940  178.0870 N   0  0  0  0  0
  131.1840  302.8500  178.2240 N   0  0  0  0  0
  131.6590  303.4210  177.1080 C   0  0  0  0  0
  132.8200  304.2550  177.0140 N   0  0  0  0  0
  132.6590  305.6620  177.1730 C   0  0  0  0  0
  130.4880  307.0240  176.4220 C   0  0  0  0  0
  130.5730  308.4100  176.4510 C   0  0  0  0  0
  129.8570  309.1670  175.5250 C   0  0  0  0  0
  129.0480  308.5330  174.5880 C   0  0  0  0  0
  128.9530  307.1510  174.5690 C   0  0  0  0  0
  129.6680  306.3930  175.4900 C   0  0  0  0  0
  133.6200  306.4000  177.1270 O   0  0  0  0  0
  130.5860  302.9490  175.8350 S   0  0  0  0  0
  119.5649  304.5271  171.7902 H   0  0  0  0  0
  120.0270  306.1620  172.5613 H   0  0  0  0  0
  118.3083  307.2973  173.4189 H   0  0  0  0  0
  114.9924  305.2924  175.2658 H   0  0  0  0  0
  131.3567  306.8198  178.3094 H   0  0  0  0  0
  130.6480  305.2495  177.5103 H   0  0  0  0  0
  125.9650  298.9530  176.5382 H   0  0  0  0  0
  127.4125  298.5168  175.7573 H   0  0  0  0  0
  128.3937  299.5462  177.7288 H   0  0  0  0  0
  127.0447  300.6043  177.9666 H   0  0  0  0  0
  128.5501  301.4702  174.2631 H   0  0  0  0  0
  126.3894  299.8647  174.2609 H   0  0  0  0  0
  125.5338  301.3391  176.7076 H   0  0  0  0  0
  121.0604  302.8193  172.0512 H   0  0  0  0  0
  116.1345  307.3836  174.6002 H   0  0  0  0  0
  116.0319  303.0985  174.7559 H   0  0  0  0  0
  118.1932  303.0112  173.5458 H   0  0  0  0  0
  133.7400  303.8514  176.8375 H   0  0  0  0  0
  131.1975  308.9041  177.1953 H   0  0  0  0  0
  129.9311  310.2544  175.5352 H   0  0  0  0  0
  128.4866  309.1258  173.8658 H   0  0  0  0  0
  128.3182  306.6581  173.8326 H   0  0  0  0  0
  129.5866  305.3061  175.4824 H   0  0  0  0  0
  1 15  4  0  0  0
  1 16  1  0  0  0
 23  1  4  0  0  0
 17  2  1  0  0  0
  2 18  1  0  0  0
 18  3  4  0  0  0
  3 19  4  0  0  0
 19  4  4  0  0  0
 20  4  4  0  0  0
  5  9  1  0  0  0
  5 24  4  0  0  0
 36  5  4  0  0  0
 28  6  1  0  0  0
  6 29  1  0  0  0
  8  7  1  0  0  0
 11  7  1  0  0  0
  9  8  1  0  0  0
  9 10  2  0  0  0
 10 11  1  0  0  0
 11 12  1  0  0  0
 12 13  1  0  0  0
 13 14  4  0  0  0
 13 23  4  0  0  0
 14 15  4  0  0  0
 16 17  1  0  0  0
 17 22  2  0  0  0
 18 21  4  0  0  0
 21 20  4  0  0  0
 25 24  4  0  0  0
 26 25  4  0  0  0
 27 26  1  0  0  0
 26 36  4  0  0  0
 27 28  1  0  0  0
 28 35  2  0  0  0
 29 30  4  0  0  0
 29 34  4  0  0  0
 30 31  4  0  0  0
 31 32  4  0  0  0
 32 33  4  0  0  0
 33 34  4  0  0  0
  2 37  1  0  0  0
  2 38  1  0  0  0
  3 39  1  0  0  0
  4 40  1  0  0  0
  6 41  1  0  0  0
  6 42  1  0  0  0
  7 43  1  0  0  0
  7 44  1  0  0  0
  8 45  1  0  0  0
  8 46  1  0  0  0
 10 47  1  0  0  0
 11 48  1  0  0  0
 12 49  1  0  0  0
 16 50  1  0  0  0
 19 51  1  0  0  0
 20 52  1  0  0  0
 21 53  1  0  0  0
 27 54  1  0  0  0
 30 55  1  0  0  0
 31 56  1  0  0  0
 32 57  1  0  0  0
 33 58  1  0  0  0
 34 59  1  0  0  0
M  END
$$$$
