### 
### Created by X-TOOL on Mon Sep 10 21:13:08 2018
### 

@<TRIPOS>MOLECULE
3pqz_ligand
  180   186     1     0     0
SMALL
GAST_HUCK


@<TRIPOS>ATOM
      1 N          -3.3480  -10.4250   15.1740 N.4       1 TRP         0.2693
      2 CA         -2.3790  -11.0770   14.3000 C.3       1 TRP         0.0734
      3 C          -1.7040  -10.0790   13.3640 C.2       1 TRP         0.2283
      4 O          -2.1240   -8.9250   13.2630 O.2       1 TRP        -0.3906
      5 CB         -3.0550  -12.1790   13.4720 C.3       1 TRP         0.0246
      6 CG         -3.8470  -11.6700   12.2820 C.2       1 TRP        -0.0386
      7 CD1        -3.4340  -11.6340   10.9780 C.2       1 TRP         0.0168
      8 CD2        -5.1810  -11.1400   12.2900 C.ar      1 TRP        -0.0213
      9 NE1        -4.4240  -11.1130   10.1790 N.pl3     1 TRP        -0.2890
     10 CE2        -5.5060  -10.8010   10.9590 C.ar      1 TRP         0.0603
     11 CE3        -6.1310  -10.9160   13.2920 C.ar      1 TRP        -0.0747
     12 CZ2        -6.7350  -10.2540   10.6060 C.ar      1 TRP        -0.0443
     13 CZ3        -7.3510  -10.3720   12.9380 C.ar      1 TRP        -0.0792
     14 CH2        -7.6420  -10.0470   11.6070 C.ar      1 TRP        -0.0768
     15 N          -0.6520  -10.5360   12.6910 N.am      1 PHE        -0.2591
     16 CA         -0.0430   -9.7940   11.5970 C.3       1 PHE         0.1406
     17 C           0.0720  -10.7310   10.4050 C.2       1 PHE         0.2060
     18 O           0.7950  -11.7270   10.4610 O.2       1 PHE        -0.3942
     19 CB          1.3450   -9.2800   11.9790 C.3       1 PHE         0.0214
     20 CG          1.3270   -8.1020   12.9080 C.ar      1 PHE        -0.0386
     21 CD1         1.9230   -8.1790   14.1560 C.ar      1 PHE        -0.0601
     22 CD2         0.7200   -6.9150   12.5330 C.ar      1 PHE        -0.0601
     23 CE1         1.9120   -7.0950   15.0130 C.ar      1 PHE        -0.0686
     24 CE2         0.7050   -5.8290   13.3860 C.ar      1 PHE        -0.0686
     25 CZ          1.3020   -5.9190   14.6270 C.ar      1 PHE        -0.0687
     26 N          -0.6480  -10.4220    9.3310 N.am      1 GLU        -0.2635
     27 CA         -0.6430  -11.2780    8.1510 C.3       1 GLU         0.1325
     28 C           0.7720  -11.5540    7.6600 C.2       1 GLU         0.2038
     29 O           1.5040  -10.6360    7.2920 O.2       1 GLU        -0.3944
     30 CB         -1.4740  -10.6650    7.0260 C.3       1 GLU        -0.0008
     31 CG         -1.2580  -11.3470    5.6890 C.3       1 GLU         0.0044
     32 CD         -2.5380  -11.5100    4.9000 C.2       1 GLU         0.0350
     33 OE1        -3.5530  -10.8900    5.2770 O.co2     1 GLU        -0.5690
     34 OE2        -2.5280  -12.2650    3.9060 O.co2     1 GLU        -0.5690
     35 N           1.1500  -12.8270    7.6610 N.am      1 GLY        -0.2664
     36 CA          2.4630  -13.2300    7.1970 C.3       1 GLY         0.1201
     37 C           3.4300  -13.5080    8.3300 C.2       1 GLY         0.2009
     38 O           4.5650  -13.9220    8.0980 O.2       1 GLY        -0.3947
     39 N           2.9830  -13.2770    9.5600 N.am      1 TYR        -0.2624
     40 CA          3.8150  -13.5360   10.7300 C.3       1 TYR         0.1390
     41 C           3.0860  -14.4140   11.7430 C.2       1 TYR         0.2058
     42 O           1.9070  -14.7240   11.5730 O.2       1 TYR        -0.3942
     43 CB          4.2800  -12.2220   11.3630 C.3       1 TYR         0.0163
     44 CG          5.1560  -11.4020   10.4420 C.ar      1 TYR        -0.0493
     45 CD1         6.5380  -11.5470   10.4530 C.ar      1 TYR        -0.0685
     46 CD2         4.6010  -10.4940    9.5510 C.ar      1 TYR        -0.0685
     47 CE1         7.3420  -10.8040    9.6090 C.ar      1 TYR        -0.0398
     48 CE2         5.3970   -9.7460    8.7020 C.ar      1 TYR        -0.0398
     49 CZ          6.7660   -9.9060    8.7350 C.ar      1 TYR         0.0805
     50 OH          7.5600   -9.1630    7.8920 O.3       1 TYR        -0.3376
     51 N           3.7920  -14.8190   12.7930 N.am      1 ASP        -0.2620
     52 CA          3.2460  -15.7680   13.7550 C.3       1 ASP         0.1423
     53 C           2.7640  -15.1120   15.0450 C.2       1 ASP         0.2057
     54 O           2.4090  -15.7960   16.0030 O.2       1 ASP        -0.3943
     55 CB          4.2680  -16.8620   14.0680 C.3       1 ASP         0.0406
     56 CG          4.5770  -17.7290   12.8640 C.2       1 ASP         0.0393
     57 OD1         3.7100  -18.5420   12.4830 O.co2     1 ASP        -0.5688
     58 OD2         5.6850  -17.6010   12.3020 O.co2     1 ASP        -0.5688
     59 N           2.7520  -13.7850   15.0640 N.am      1 ASN        -0.2615
     60 CA          2.2440  -13.0470   16.2090 C.3       1 ASN         0.1476
     61 C           0.8250  -13.4790   16.5500 C.2       1 ASN         0.2063
     62 O          -0.0480  -13.5080   15.6830 O.2       1 ASN        -0.3942
     63 CB          2.2620  -11.5440   15.9260 C.3       1 ASN         0.0773
     64 CG          3.6360  -11.0360   15.5450 C.2       1 ASN         0.1780
     65 OD1         4.2180  -11.4720   14.5520 O.2       1 ASN        -0.3970
     66 ND2         4.1550  -10.0940   16.3230 N.am      1 ASN        -0.3007
     67 N           0.6000  -13.8250   17.8120 N.am      1 THR        -0.2612
     68 CA         -0.7480  -14.0930   18.2940 C.3       1 THR         0.1565
     69 C          -0.9800  -13.3890   19.6260 C.2       1 THR         0.2066
     70 O          -0.2570  -13.6100   20.5970 O.2       1 THR        -0.3943
     71 CB         -1.0460  -15.6050   18.4140 C.3       1 THR         0.0924
     72 OG1        -2.3630  -15.7930   18.9440 O.3       1 THR        -0.3874
     73 CG2        -0.0380  -16.2880   19.3240 C.3       1 THR        -0.0346
     74 N          -1.9880  -12.5260   19.6530 N.am      1 PHE        -0.2618
     75 CA         -2.3080  -11.7420   20.8360 C.3       1 PHE         0.1406
     76 C          -3.7680  -11.3040   20.7760 C.2       1 PHE         0.2085
     77 O          -4.4480  -11.5590   19.7830 O.2       1 PHE        -0.3940
     78 CB         -1.3720  -10.5320   20.9410 C.3       1 PHE         0.0214
     79 CG         -1.3710   -9.6520   19.7230 C.ar      1 PHE        -0.0386
     80 CD1        -2.1740   -8.5240   19.6660 C.ar      1 PHE        -0.0601
     81 CD2        -0.5630   -9.9470   18.6380 C.ar      1 PHE        -0.0601
     82 CE1        -2.1730   -7.7100   18.5480 C.ar      1 PHE        -0.0686
     83 CE2        -0.5590   -9.1380   17.5170 C.ar      1 PHE        -0.0686
     84 CZ         -1.3640   -8.0180   17.4720 C.ar      1 PHE        -0.0687
     85 N          -4.2640  -10.6610   21.8460 N.am      1 PRO        -0.2497
     86 CA         -5.6490  -10.1780   21.8490 C.3       1 PRO         0.1337
     87 C          -5.9240   -9.2370   20.6840 C.2       1 PRO         0.2036
     88 O          -5.2480   -8.2160   20.5450 O.2       1 PRO        -0.3944
     89 CB         -5.7430   -9.4140   23.1700 C.3       1 PRO        -0.0104
     90 CG         -4.7460  -10.0760   24.0490 C.3       1 PRO        -0.0281
     91 CD         -3.6050  -10.4450   23.1470 C.3       1 PRO         0.0369
     92 N          -6.9100   -9.5760   19.8610 N.am      1 CCS        -0.2687
     93 CA         -7.2360   -8.7510   18.6900 C.3       1 CCS         0.1033
     94 CB         -7.5760   -9.6360   17.4830 C.3       1 CCS         0.0289
     95 SG         -6.2630  -10.8480   17.0640 S.3       1 CCS        -0.1485
     96 CD         -4.7960   -9.7830   16.8350 C.3       1 CCS         0.0630
     97 CE         -3.5610  -10.6090   16.4470 C.3       1 CCS         0.0916
     98 OZ1        -3.4670  -11.7920   16.7710 O.3       1 CCS        -0.3522
     99 C          -8.4030   -7.8060   19.0060 C.2       1 CCS         0.0609
    100 O          -8.8540   -7.0380   18.1590 O.co2     1 CCS        -0.5666
    101 H          -4.2216  -10.7785   14.7837 H         1 TRP         0.2065
    102 H          -2.9853   -9.4717   15.1795 H         1 TRP         0.2065
    103 H          -1.6148  -11.5194   14.9390 H         1 TRP         0.1115
    104 H          -3.7582  -12.6889   14.1305 H         1 TRP         0.0430
    105 H          -2.2628  -12.8172   13.0804 H         1 TRP         0.0430
    106 H          -2.4596  -11.9702   10.6235 H         1 TRP         0.0795
    107 H          -4.3628  -10.9803    9.1695 H         1 TRP         0.2216
    108 H          -5.9135  -11.1654   14.3305 H         1 TRP         0.0540
    109 H          -6.9658  -10.0003    9.5714 H         1 TRP         0.0541
    110 H          -8.1006  -10.1925   13.7087 H         1 TRP         0.0510
    111 H          -8.6146   -9.6190   11.3640 H         1 TRP         0.0530
    112 H          -0.2573  -11.4399   12.9511 H         1 PHE         0.1886
    113 H          -0.6620   -8.9291   11.3587 H         1 PHE         0.0823
    114 H           1.8344   -8.9585   11.0596 H         1 PHE         0.0474
    115 H           1.8584  -10.0908   12.4958 H         1 PHE         0.0474
    116 H           2.4064   -9.1056   14.4657 H         1 PHE         0.0557
    117 H           0.2487   -6.8370   11.5533 H         1 PHE         0.0557
    118 H           2.3845   -7.1688   15.9925 H         1 PHE         0.0599
    119 H           0.2219   -4.9013   13.0793 H         1 PHE         0.0599
    120 H           1.2917   -5.0625   15.3011 H         1 PHE         0.0559
    121 H          -1.2128   -9.5726    9.3326 H         1 GLU         0.1883
    122 H          -1.0915  -12.2271    8.4445 H         1 GLU         0.0801
    123 H          -1.1711   -9.6233    6.9197 H         1 GLU         0.0330
    124 H          -2.5253  -10.7789    7.2904 H         1 GLU         0.0330
    125 H          -0.8567  -12.3417    5.8829 H         1 GLU         0.0433
    126 H          -0.5816  -10.7251    5.1027 H         1 GLU         0.0433
    127 H           0.5007  -13.5386    7.9964 H         1 GLY         0.1881
    128 H           2.8718  -12.4119    6.6040 H         1 GLY         0.0763
    129 H           2.3458  -14.1511    6.6261 H         1 GLY         0.0763
    130 H           2.0395  -12.9114    9.6886 H         1 TYR         0.1885
    131 H           4.6992  -14.0831   10.4029 H         1 TYR         0.0821
    132 H           4.8666  -12.4683   12.2481 H         1 TYR         0.0453
    133 H           3.3933  -11.6310   11.5923 H         1 TYR         0.0453
    134 H           6.9961  -12.2592   11.1393 H         1 TYR         0.0530
    135 H           3.5188  -10.3680    9.5196 H         1 TYR         0.0530
    136 H           8.4247  -10.9271    9.6341 H         1 TYR         0.0525
    137 H           4.9446   -9.0345    8.0112 H         1 TYR         0.0525
    138 H           8.4810   -9.3909    8.0382 H         1 TYR         0.2458
    139 H           4.7363  -14.4581   12.9288 H         1 ASP         0.1884
    140 H           2.3682  -16.2099   13.2836 H         1 ASP         0.0819
    141 H           3.8487  -17.5018   14.8445 H         1 ASP         0.0478
    142 H           5.1934  -16.3783   14.3805 H         1 ASP         0.0478
    143 H           3.1071  -13.2715   14.2574 H         1 ASN         0.1885
    144 H           2.8920  -13.2639   17.0582 H         1 ASN         0.0826
    145 H           1.9561  -11.0289   16.8366 H         1 ASN         0.0551
    146 H           1.5913  -11.3538   15.0881 H         1 ASN         0.0551
    147 H           5.0717   -9.7022   16.1072 H         1 ASN         0.1814
    148 H           3.6371   -9.7620   17.1366 H         1 ASN         0.1814
    149 H           1.3866  -13.9047   18.4565 H         1 THR         0.1884
    150 H          -1.4415  -13.6960   17.5527 H         1 THR         0.0826
    151 H          -0.9749  -16.0482   17.4207 H         1 THR         0.0639
    152 H          -2.5460  -16.7325   19.0177 H         1 THR         0.2101
    153 H           0.9641  -16.1599   18.9149 H         1 THR         0.0257
    154 H          -0.0862  -15.8416   20.3172 H         1 THR         0.0257
    155 H          -0.2717  -17.3506   19.3901 H         1 THR         0.0257
    156 H          -2.5580  -12.4084   18.8154 H         1 PHE         0.1885
    157 H          -2.1640  -12.3528   21.7272 H         1 PHE         0.0823
    158 H          -0.3593  -10.9164   21.0628 H         1 PHE         0.0474
    159 H          -1.7200   -9.9258   21.7774 H         1 PHE         0.0474
    160 H          -2.8141   -8.2754   20.5125 H         1 PHE         0.0557
    161 H           0.0779  -10.8281   18.6681 H         1 PHE         0.0557
    162 H          -2.8101   -6.8262   18.5161 H         1 PHE         0.0599
    163 H           0.0798   -9.3847   16.6689 H         1 PHE         0.0599
    164 H          -1.3613   -7.3782   16.5895 H         1 PHE         0.0559
    165 H          -6.3709  -10.9886   21.7494 H         1 PRO         0.0802
    166 H          -6.7475   -9.4464   23.5920 H         1 PRO         0.0313
    167 H          -5.5374   -8.3509   23.0445 H         1 PRO         0.0313
    168 H          -5.1661  -10.9521   24.5430 H         1 PRO         0.0287
    169 H          -4.4228   -9.4178   24.8555 H         1 PRO         0.0287
    170 H          -2.8340   -9.6756   23.1064 H         1 PRO         0.0524
    171 H          -3.0600  -11.3227   23.4943 H         1 PRO         0.0524
    172 H          -7.4491  -10.4221   20.0449 H         1 CCS         0.1876
    173 H          -6.3615   -8.1500   18.4408 H         1 CCS         0.0734
    174 H          -7.7003   -8.9793   16.6220 H         1 CCS         0.0417
    175 H          -8.4730  -10.2014   17.7357 H         1 CCS         0.0417
    176 H          -4.5893   -9.2708   17.7747 H         1 CCS         0.0458
    177 H          -5.0042   -9.0736   16.0341 H         1 CCS         0.0458
    178 H          -2.7735  -10.2147   17.0893 H         1 CCS         0.1192
    179 H          -3.6311  -11.8787   17.7129 H         1 CCS         0.2154
    180 O1         -8.9101   -7.8176   20.1594 O.co2     1 CCS        -0.5666
@<TRIPOS>BOND
     1    1    2 1  
     2    1   97 1  
     3    2    3 1  
     4    2    5 1  
     5    3    4 2  
     6    3   15 am 
     7    5    6 1  
     8    6    7 2  
     9    6    8 1  
    10    7    9 1  
    11    8   10 ar 
    12    8   11 ar 
    13    9   10 1  
    14   10   12 ar 
    15   11   13 ar 
    16   12   14 ar 
    17   13   14 ar 
    18   15   16 1  
    19   16   17 1  
    20   16   19 1  
    21   17   18 2  
    22   17   26 am 
    23   19   20 1  
    24   20   21 ar 
    25   20   22 ar 
    26   21   23 ar 
    27   22   24 ar 
    28   23   25 ar 
    29   24   25 ar 
    30   26   27 1  
    31   27   28 1  
    32   27   30 1  
    33   28   29 2  
    34   28   35 am 
    35   30   31 1  
    36   31   32 1  
    37   32   33 ar 
    38   32   34 ar 
    39   35   36 1  
    40   36   37 1  
    41   37   38 2  
    42   37   39 am 
    43   39   40 1  
    44   40   41 1  
    45   40   43 1  
    46   41   42 2  
    47   41   51 am 
    48   43   44 1  
    49   44   45 ar 
    50   44   46 ar 
    51   45   47 ar 
    52   46   48 ar 
    53   47   49 ar 
    54   48   49 ar 
    55   49   50 1  
    56   51   52 1  
    57   52   53 1  
    58   52   55 1  
    59   53   54 2  
    60   53   59 am 
    61   55   56 1  
    62   56   57 ar 
    63   56   58 ar 
    64   59   60 1  
    65   60   61 1  
    66   60   63 1  
    67   61   62 2  
    68   61   67 am 
    69   63   64 1  
    70   64   65 2  
    71   64   66 am 
    72   67   68 1  
    73   68   69 1  
    74   68   71 1  
    75   69   70 2  
    76   69   74 am 
    77   71   72 1  
    78   71   73 1  
    79   74   75 1  
    80   75   76 1  
    81   75   78 1  
    82   76   77 2  
    83   76   85 am 
    84   78   79 1  
    85   79   80 ar 
    86   79   81 ar 
    87   80   82 ar 
    88   81   83 ar 
    89   82   84 ar 
    90   83   84 ar 
    91   85   86 1  
    92   85   91 1  
    93   86   87 1  
    94   86   89 1  
    95   87   88 2  
    96   87   92 am 
    97   89   90 1  
    98   90   91 1  
    99   92   93 1  
   100   93   94 1  
   101   93   99 1  
   102   94   95 1  
   103   95   96 1  
   104   96   97 1  
   105   97   98 1  
   106   99  100 ar 
   107    1  101 1  
   108    1  102 1  
   109    2  103 1  
   110    5  104 1  
   111    5  105 1  
   112    7  106 1  
   113    9  107 1  
   114   11  108 1  
   115   12  109 1  
   116   13  110 1  
   117   14  111 1  
   118   15  112 1  
   119   16  113 1  
   120   19  114 1  
   121   19  115 1  
   122   21  116 1  
   123   22  117 1  
   124   23  118 1  
   125   24  119 1  
   126   25  120 1  
   127   26  121 1  
   128   27  122 1  
   129   30  123 1  
   130   30  124 1  
   131   31  125 1  
   132   31  126 1  
   133   35  127 1  
   134   36  128 1  
   135   36  129 1  
   136   39  130 1  
   137   40  131 1  
   138   43  132 1  
   139   43  133 1  
   140   45  134 1  
   141   46  135 1  
   142   47  136 1  
   143   48  137 1  
   144   50  138 1  
   145   51  139 1  
   146   52  140 1  
   147   55  141 1  
   148   55  142 1  
   149   59  143 1  
   150   60  144 1  
   151   63  145 1  
   152   63  146 1  
   153   66  147 1  
   154   66  148 1  
   155   67  149 1  
   156   68  150 1  
   157   71  151 1  
   158   72  152 1  
   159   73  153 1  
   160   73  154 1  
   161   73  155 1  
   162   74  156 1  
   163   75  157 1  
   164   78  158 1  
   165   78  159 1  
   166   80  160 1  
   167   81  161 1  
   168   82  162 1  
   169   83  163 1  
   170   84  164 1  
   171   86  165 1  
   172   89  166 1  
   173   89  167 1  
   174   90  168 1  
   175   90  169 1  
   176   91  170 1  
   177   91  171 1  
   178   92  172 1  
   179   93  173 1  
   180   94  174 1  
   181   94  175 1  
   182   96  176 1  
   183   96  177 1  
   184   97  178 1  
   185   98  179 1  
   186   99  180 ar 
@<TRIPOS>SUBSTRUCTURE
     1 TRP         1

