3kqr_ligand
  -I-interpret- 

 17 16  0  0  0  0  0  0  0  0999 V2000
   17.6950   14.1940   56.2520 C   0  0  0  0  0
   18.0060   13.6200   54.8940 C   0  0  0  0  0
   15.4830   17.2880   56.8380 O   0  0  0  0  0
   17.9730   17.3480   57.2680 O   0  0  0  0  0
   16.5610   15.6960   58.5480 O   0  0  0  0  0
   16.9680   15.3580   55.9940 O   0  0  0  0  0
   18.8160   14.6110   54.1520 N   0  3  0  0  0
   16.6900   16.3590   57.2420 P   0  0  0  0  0
   18.6017   14.4014   56.8204 H   0  0  0  0  0
   17.1308   13.4932   56.8674 H   0  0  0  0  0
   17.0827   13.4091   54.3544 H   0  0  0  0  0
   18.5575   12.6856   54.9979 H   0  0  0  0  0
   15.6535   17.6758   55.9765 H   0  0  0  0  0
   18.0586   17.7817   56.4159 H   0  0  0  0  0
   19.0387   14.2425   53.2273 H   0  0  0  0  0
   18.2864   15.4774   54.0555 H   0  0  0  0  0
   19.6794   14.7940   54.6634 H   0  0  0  0  0
  1  2  1  0  0  0
  6  1  1  0  0  0
  2  7  1  0  0  0
  8  3  1  0  0  0
  8  4  1  0  0  0
  8  5  2  0  0  0
  6  8  1  0  0  0
  1  9  1  0  0  0
  1 10  1  0  0  0
  2 11  1  0  0  0
  2 12  1  0  0  0
  3 13  1  0  0  0
  4 14  1  0  0  0
  7 15  1  0  0  0
  7 16  1  0  0  0
  7 17  1  0  0  0
M  END
$$$$
