4f6s_ligand
  -I-interpret- 

 40 41  0  0  0  0  0  0  0  0999 V2000
   41.0150   57.9100   59.7370 O   0  0  0  0  0
   39.8840   58.3210   59.8420 C   0  0  0  0  0
   39.3890   59.1780   58.8740 N   0  0  0  0  0
   39.0880   57.9820   60.9220 N   0  0  0  0  0
   39.4500   57.0770   61.9750 C   0  0  0  0  0
   40.7030   56.5660   62.2830 C   0  0  0  0  0
   40.5240   55.6980   63.3390 C   0  0  0  0  0
   41.5830   54.8750   64.0760 C   0  0  0  0  0
   42.3490   55.7830   65.0440 C   0  0  0  0  0
   40.9310   53.7690   64.8990 C   0  0  0  0  0
   42.5480   54.2050   63.1020 C   0  0  0  0  0
   39.2120   55.7060   63.6390 N   0  0  0  0  0
   38.6030   56.5000   62.8670 N   0  0  0  0  0
   37.1370   56.6470   63.0100 C   0  0  0  0  0
   36.3480   56.6900   61.8560 C   0  0  0  0  0
   34.9670   56.7930   61.9560 C   0  0  0  0  0
   34.3570   56.8370   63.2010 C   0  0  0  0  0
   32.8550   56.9610   63.2860 C   0  0  0  0  0
   35.1360   56.7830   64.3540 C   0  0  0  0  0
   36.5200   56.6860   64.2640 C   0  0  0  0  0
   39.9772   59.4531   58.0874 H   0  0  0  0  0
   38.4361   59.5343   58.9474 H   0  0  0  0  0
   38.1647   58.4124   60.9740 H   0  0  0  0  0
   41.6441   56.8042   61.7872 H   0  0  0  0  0
   42.8331   56.5829   64.4837 H   0  0  0  0  0
   41.6533   56.2122   65.7650 H   0  0  0  0  0
   43.1035   55.1975   65.5693 H   0  0  0  0  0
   40.2564   54.2124   65.6314 H   0  0  0  0  0
   40.3688   53.1093   64.2380 H   0  0  0  0  0
   41.7034   53.1975   65.4138 H   0  0  0  0  0
   41.9919   53.5403   62.4410 H   0  0  0  0  0
   43.0534   54.9683   62.5104 H   0  0  0  0  0
   43.2856   53.6295   63.6614 H   0  0  0  0  0
   36.8191   56.6425   60.8742 H   0  0  0  0  0
   34.3595   56.8395   61.0522 H   0  0  0  0  0
   32.5396   57.8831   62.7978 H   0  0  0  0  0
   32.3926   56.1085   62.7885 H   0  0  0  0  0
   32.5520   56.9806   64.3329 H   0  0  0  0  0
   34.6578   56.8170   65.3329 H   0  0  0  0  0
   37.1236   56.6404   65.1705 H   0  0  0  0  0
  1  2  2  0  0  0
  2  3  1  0  0  0
  2  4  1  0  0  0
  4  5  1  0  0  0
  5  6  4  0  0  0
  5 13  4  0  0  0
  6  7  4  0  0  0
  7  8  1  0  0  0
  7 12  4  0  0  0
  8  9  1  0  0  0
  8 10  1  0  0  0
  8 11  1  0  0  0
 12 13  4  0  0  0
 13 14  1  0  0  0
 14 15  4  0  0  0
 14 20  4  0  0  0
 15 16  4  0  0  0
 16 17  4  0  0  0
 17 18  1  0  0  0
 17 19  4  0  0  0
 19 20  4  0  0  0
  3 21  1  0  0  0
  3 22  1  0  0  0
  4 23  1  0  0  0
  6 24  1  0  0  0
  9 25  1  0  0  0
  9 26  1  0  0  0
  9 27  1  0  0  0
 10 28  1  0  0  0
 10 29  1  0  0  0
 10 30  1  0  0  0
 11 31  1  0  0  0
 11 32  1  0  0  0
 11 33  1  0  0  0
 15 34  1  0  0  0
 16 35  1  0  0  0
 18 36  1  0  0  0
 18 37  1  0  0  0
 18 38  1  0  0  0
 19 39  1  0  0  0
 20 40  1  0  0  0
M  END
$$$$
