2qwe_ligand
  -I-interpret- 

 43 43  0  0  0  0  0  0  0  0999 V2000
   23.5900   19.7430   64.7850 C   0  0  0  0  0
   24.3030   18.7620   64.0840 C   0  0  0  0  0
   23.6740   17.6240   63.5690 C   0  0  0  0  0
   24.3480   16.6530   62.6020 C   0  0  0  0  0
   25.8650   16.7360   62.8420 C   0  0  0  0  0
   26.3000   18.2030   62.7870 C   0  0  0  0  0
   27.8160   18.3480   62.9150 C   0  0  0  0  0
   28.2250   19.8380   63.0090 C   0  0  0  0  0
   29.7320   20.1250   63.1090 C   0  0  0  0  0
   27.0310   14.7840   61.9000 C   0  0  0  0  0
   27.6800   14.2030   60.6390 C   0  0  0  0  0
   26.5400   16.0100   61.7400 N   0  0  0  0  0
   23.8240   15.2990   62.7340 N   0  0  0  0  0
   23.7700   14.3740   61.7680 C   0  0  0  0  0
   23.8750   14.7120   60.4780 N   0  0  0  0  0
   23.6430   13.0920   62.1020 N   0  0  0  0  0
   24.1940   20.7960   65.0460 O   0  0  0  0  0
   22.3740   19.6110   65.0730 O   0  0  0  0  0
   25.6830   18.9100   63.8820 O   0  0  0  0  0
   28.2320   17.6940   64.0550 O   0  0  0  0  0
   27.8180   20.3710   61.8230 O   0  0  0  0  0
   30.4290   19.4520   62.1410 O   0  0  0  0  0
   26.9920   14.1770   62.9710 O   0  0  0  0  0
   22.6478   17.4192   63.8741 H   0  0  0  0  0
   24.1307   16.9330   61.5712 H   0  0  0  0  0
   26.1206   16.3068   63.8108 H   0  0  0  0  0
   25.9933   18.6116   61.8241 H   0  0  0  0  0
   28.2844   17.9155   62.0309 H   0  0  0  0  0
   27.7857   20.2429   63.9207 H   0  0  0  0  0
   30.0853   19.7945   64.0858 H   0  0  0  0  0
   29.8925   21.1946   62.9735 H   0  0  0  0  0
   28.7332   14.0011   60.8340 H   0  0  0  0  0
   27.1755   13.2761   60.3664 H   0  0  0  0  0
   27.5912   14.9201   59.8229 H   0  0  0  0  0
   26.6308   16.4643   60.8313 H   0  0  0  0  0
   23.4641   15.0309   63.6500 H   0  0  0  0  0
   23.8574   13.9893   59.7584 H   0  0  0  0  0
   23.9726   15.6924   60.2140 H   0  0  0  0  0
   23.5880   12.8240   63.0846 H   0  0  0  0  0
   22.0746   18.7404   64.8010 H   0  0  0  0  0
   27.9806   16.7690   64.0017 H   0  0  0  0  0
   28.0378   21.3052   61.8011 H   0  0  0  0  0
   31.3647   19.6489   62.2267 H   0  0  0  0  0
  1 18  1  0  0  0
  1 17  2  0  0  0
  1  2  1  0  0  0
  2 19  1  0  0  0
  2  3  2  0  0  0
  3  4  1  0  0  0
  4 13  1  0  0  0
  4  5  1  0  0  0
  5 12  1  0  0  0
  5  6  1  0  0  0
  6 19  1  0  0  0
  6  7  1  0  0  0
  7 20  1  0  0  0
  7  8  1  0  0  0
  8 21  1  0  0  0
  8  9  1  0  0  0
  9 22  1  0  0  0
 12 10  1  0  0  0
 10 23  2  0  0  0
 10 11  1  0  0  0
 13 14  1  0  0  0
 14 16  2  0  0  0
 14 15  1  0  0  0
  3 24  1  0  0  0
  4 25  1  0  0  0
  5 26  1  0  0  0
  6 27  1  0  0  0
  7 28  1  0  0  0
  8 29  1  0  0  0
  9 30  1  0  0  0
  9 31  1  0  0  0
 11 32  1  0  0  0
 11 33  1  0  0  0
 11 34  1  0  0  0
 12 35  1  0  0  0
 13 36  1  0  0  0
 15 37  1  0  0  0
 15 38  1  0  0  0
 16 39  1  0  0  0
 18 40  1  0  0  0
 20 41  1  0  0  0
 21 42  1  0  0  0
 22 43  1  0  0  0
M  END
$$$$
