4fbe_ligand
  -I-interpret- 

 42 43  0  0  0  0  0  0  0  0999 V2000
   27.4800   50.2950   43.9510 C   0  0  0  0  0
   27.9350   50.5480   49.3480 C   0  0  0  0  0
   22.2610   46.1500   49.6850 S   0  0  0  0  0
   28.7020   41.1730   46.6110 C   0  0  0  0  0
   24.7910   48.2000   46.3530 C   0  0  0  0  0
   25.8070   48.6550   45.5250 C   0  0  0  0  0
   27.8570   41.7470   47.4670 C   0  0  0  0  0
   26.6960   41.0220   45.7790 C   0  0  0  0  0
   25.8640   49.2000   48.2610 C   0  0  0  0  0
   25.6050   43.5860   48.0300 C   0  0  0  0  0
   24.2970   44.3000   48.4070 C   0  0  0  0  0
   25.3700   42.1360   47.5660 C   0  0  0  0  0
   27.9820   40.7080   45.5690 N   0  0  0  0  0
   24.4690   45.7590   48.1980 N   0  0  0  0  0
   23.8160   47.9880   48.4750 N   0  0  0  0  0
   27.8670   49.8400   45.2420 O   0  0  0  0  0
   27.9470   50.3890   47.9020 O   0  0  0  0  0
   23.6250   46.6720   48.6940 C   0  0  0  0  0
   24.8090   48.4610   47.7210 C   0  0  0  0  0
   26.8550   49.3980   46.0490 C   0  0  0  0  0
   26.8890   49.6730   47.4230 C   0  0  0  0  0
   26.6200   41.6180   46.9530 N   0  0  0  0  0
   26.9940   49.4822   43.4113 H   0  0  0  0  0
   26.7869   51.1299   44.0541 H   0  0  0  0  0
   28.3636   50.6203   43.4018 H   0  0  0  0  0
   27.0258   51.0693   49.6474 H   0  0  0  0  0
   27.9647   49.5662   49.8205 H   0  0  0  0  0
   28.8056   51.1272   49.6558 H   0  0  0  0  0
   21.5604   47.2137   50.0678 H   0  0  0  0  0
   29.7824   41.0934   46.7313 H   0  0  0  0  0
   23.9660   47.6295   45.9264 H   0  0  0  0  0
   25.7818   48.4280   44.4592 H   0  0  0  0  0
   28.1190   42.2307   48.4080 H   0  0  0  0  0
   25.8648   40.8214   45.1030 H   0  0  0  0  0
   25.8926   49.4096   49.3303 H   0  0  0  0  0
   26.2410   43.5580   48.9148 H   0  0  0  0  0
   26.0628   44.1337   47.2062 H   0  0  0  0  0
   24.0574   44.1030   49.4519 H   0  0  0  0  0
   23.4828   43.9316   47.7829 H   0  0  0  0  0
   24.5625   42.1097   46.8343 H   0  0  0  0  0
   25.0939   41.5164   48.4192 H   0  0  0  0  0
   23.1722   48.6519   48.9052 H   0  0  0  0  0
 16  1  1  0  0  0
 17  2  1  0  0  0
 18  3  1  0  0  0
  7  4  4  0  0  0
 13  4  4  0  0  0
  5  6  4  0  0  0
 19  5  4  0  0  0
  6 20  4  0  0  0
 22  7  4  0  0  0
  8 13  4  0  0  0
 22  8  4  0  0  0
  9 19  4  0  0  0
 21  9  4  0  0  0
 11 10  1  0  0  0
 10 12  1  0  0  0
 14 11  1  0  0  0
 12 22  1  0  0  0
 18 14  2  0  0  0
 15 18  1  0  0  0
 19 15  1  0  0  0
 20 16  1  0  0  0
 17 21  1  0  0  0
 20 21  4  0  0  0
  1 23  1  0  0  0
  1 24  1  0  0  0
  1 25  1  0  0  0
  2 26  1  0  0  0
  2 27  1  0  0  0
  2 28  1  0  0  0
  3 29  1  0  0  0
  4 30  1  0  0  0
  5 31  1  0  0  0
  6 32  1  0  0  0
  7 33  1  0  0  0
  8 34  1  0  0  0
  9 35  1  0  0  0
 10 36  1  0  0  0
 10 37  1  0  0  0
 11 38  1  0  0  0
 11 39  1  0  0  0
 12 40  1  0  0  0
 12 41  1  0  0  0
 15 42  1  0  0  0
M  END
$$$$
