4tkg_ligand
  -I-interpret- 

 53 57  0  0  0  0  0  0  0  0999 V2000
   19.2860   36.3880    0.1760 C   0  0  0  0  0
   19.9710   35.6940    1.2940 C   0  0  0  0  0
   20.4100   37.0590    0.8910 C   0  0  0  0  0
   19.8590   38.2850    1.7400 C   0  0  0  0  0
   18.8910   38.2200    2.5690 O   0  0  0  0  0
   20.4660   39.6110    1.5440 N   0  0  0  0  0
   20.0410   40.7570    2.3010 C   0  0  0  0  0
   21.1760   41.2340    3.1270 C   0  0  0  0  0
   21.5850   39.9290    0.6860 C   0  0  0  0  0
   22.7200   40.1510    1.6130 C   0  0  0  0  0
   22.4340   41.3170    2.4180 N   0  0  0  0  0
   23.3070   42.4870    2.5930 C   0  0  0  0  0
   22.8840   43.4520    3.2150 O   0  0  0  0  0
   24.6580   42.6570    1.8940 C   0  0  0  0  0
   25.0510   44.0010    1.5380 C   0  0  0  0  0
   25.5230   41.5600    1.6280 C   0  0  0  0  0
   25.2250   40.2820    1.9940 F   0  0  0  0  0
   26.7430   41.7670    0.9530 C   0  0  0  0  0
   27.0730   43.0860    0.5890 C   0  0  0  0  0
   26.2180   44.1920    0.8720 C   0  0  0  0  0
   26.6860   45.5960    0.4040 C   0  0  0  0  0
   25.5710   46.3750   -0.3110 C   0  0  0  0  0
   25.3740   47.7980   -0.1180 C   0  0  0  0  0
   26.2620   48.6150    0.7330 C   0  0  0  0  0
   25.9750   49.9800    0.9490 C   0  0  0  0  0
   24.8830   50.5780    0.2820 C   0  0  0  0  0
   24.0450   49.8050   -0.5920 C   0  0  0  0  0
   24.3100   48.4170   -0.7880 C   0  0  0  0  0
   23.4830   47.6360   -1.6610 C   0  0  0  0  0
   22.5370   48.1330   -2.2780 O   0  0  0  0  0
   23.6990   46.3180   -1.8090 N   0  0  0  0  0
   24.7520   45.6780   -1.1220 N   0  0  0  0  0
   18.5209   36.3993   -0.6002 H   0  0  0  0  0
   20.0762   34.8219    1.9393 H   0  0  0  0  0
   21.3903   37.4773    0.6624 H   0  0  0  0  0
   19.2053   40.4840    2.9453 H   0  0  0  0  0
   19.7201   41.5481    1.6234 H   0  0  0  0  0
   21.3097   40.5144    3.9347 H   0  0  0  0  0
   20.9287   42.2417    3.4608 H   0  0  0  0  0
   21.3874   40.8052    0.0685 H   0  0  0  0  0
   21.7917   39.1293   -0.0252 H   0  0  0  0  0
   23.6381   40.3064    1.0463 H   0  0  0  0  0
   22.8523   39.2796    2.2543 H   0  0  0  0  0
   24.4192   44.8495    1.8006 H   0  0  0  0  0
   27.4076   40.9348    0.7210 H   0  0  0  0  0
   28.0153   43.2687    0.0725 H   0  0  0  0  0
   27.5082   45.4612   -0.2988 H   0  0  0  0  0
   26.9834   46.1642    1.2854 H   0  0  0  0  0
   27.1400   48.1635    1.1949 H   0  0  0  0  0
   26.5926   50.5693    1.6267 H   0  0  0  0  0
   24.6739   51.6372    0.4320 H   0  0  0  0  0
   23.2077   50.2784   -1.1048 H   0  0  0  0  0
   23.0948   45.7741   -2.4250 H   0  0  0  0  0
  1  2  2  0  0  0
  1  3  1  0  0  0
  2  3  1  0  0  0
  3  4  1  0  0  0
  4  5  2  0  0  0
  4  6  1  0  0  0
  6  7  1  0  0  0
  6  9  1  0  0  0
  7  8  1  0  0  0
  8 11  1  0  0  0
  9 10  1  0  0  0
 10 11  1  0  0  0
 11 12  1  0  0  0
 12 13  2  0  0  0
 12 14  1  0  0  0
 14 15  4  0  0  0
 14 16  4  0  0  0
 15 20  4  0  0  0
 16 17  1  0  0  0
 16 18  4  0  0  0
 18 19  4  0  0  0
 19 20  4  0  0  0
 20 21  1  0  0  0
 21 22  1  0  0  0
 22 23  1  0  0  0
 22 32  2  0  0  0
 23 24  4  0  0  0
 23 28  4  0  0  0
 24 25  4  0  0  0
 25 26  4  0  0  0
 26 27  4  0  0  0
 27 28  4  0  0  0
 28 29  1  0  0  0
 29 30  2  0  0  0
 29 31  1  0  0  0
 31 32  1  0  0  0
  1 33  1  0  0  0
  2 34  1  0  0  0
  3 35  1  0  0  0
  7 36  1  0  0  0
  7 37  1  0  0  0
  8 38  1  0  0  0
  8 39  1  0  0  0
  9 40  1  0  0  0
  9 41  1  0  0  0
 10 42  1  0  0  0
 10 43  1  0  0  0
 15 44  1  0  0  0
 18 45  1  0  0  0
 19 46  1  0  0  0
 21 47  1  0  0  0
 21 48  1  0  0  0
 24 49  1  0  0  0
 25 50  1  0  0  0
 26 51  1  0  0  0
 27 52  1  0  0  0
 31 53  1  0  0  0
M  END
$$$$
