3cl2_ligand
  -I-interpret- 

 45 45  0  0  0  0  0  0  0  0999 V2000
 -127.9340  -36.5950   30.9200 C   0  0  0  0  0
 -128.1440  -36.3380   32.0640 O   0  0  0  0  0
 -128.3390  -35.8730   30.0600 O   0  0  0  0  0
 -126.9690  -37.7510   30.6080 C   0  0  0  0  0
 -126.7790  -38.2760   29.1590 C   0  0  0  0  0
 -125.3480  -38.7740   28.9930 C   0  0  0  0  0
 -125.1040  -39.8570   30.0320 C   0  0  0  0  0
 -123.7790  -40.4090   29.7800 N   0  0  0  0  0
 -123.6830  -41.8020   29.3430 C   0  0  0  0  0
 -124.6500  -42.4800   29.2560 O   0  0  0  0  0
 -122.2970  -42.4190   29.1380 C   0  0  0  0  0
 -125.1210  -39.2780   31.4450 C   0  0  0  0  0
 -126.3390  -38.3470   31.6500 C   0  0  0  0  0
 -125.2100  -40.3050   32.4160 O   0  0  0  0  0
 -124.0580  -40.5420   33.1840 C   0  0  0  0  0
 -123.6930  -39.3150   34.0410 C   0  0  0  0  0
 -124.2280  -41.8420   34.0110 C   0  0  0  0  0
 -124.1550  -43.0580   33.0630 C   0  0  0  0  0
 -124.7630  -39.1010   35.1260 C   0  0  0  0  0
 -125.1470  -39.3370   27.6390 N   0  3  0  0  0
 -128.0845  -36.2235   29.2033 H   0  0  0  0  0
 -126.9721  -37.4717   28.4492 H   0  0  0  0  0
 -127.4758  -39.0927   28.9704 H   0  0  0  0  0
 -124.6527  -37.9451   29.1256 H   0  0  0  0  0
 -125.8861  -40.6127   29.9588 H   0  0  0  0  0
 -122.9417  -39.8400   29.9048 H   0  0  0  0  0
 -122.1374  -43.2043   29.8769 H   0  0  0  0  0
 -122.2341  -42.8430   28.1358 H   0  0  0  0  0
 -121.5362  -41.6474   29.2559 H   0  0  0  0  0
 -124.1914  -38.7214   31.5636 H   0  0  0  0  0
 -126.7014  -38.1648   32.6617 H   0  0  0  0  0
 -123.2088  -40.6971   32.5184 H   0  0  0  0  0
 -123.6437  -38.4319   33.4039 H   0  0  0  0  0
 -122.7261  -39.4815   34.5159 H   0  0  0  0  0
 -125.1929  -41.8301   34.5180 H   0  0  0  0  0
 -123.4342  -41.9093   34.7550 H   0  0  0  0  0
 -124.9513  -42.9877   32.3220 H   0  0  0  0  0
 -123.1883  -43.0671   32.5596 H   0  0  0  0  0
 -124.2741  -43.9748   33.6403 H   0  0  0  0  0
 -125.7308  -38.9360   34.6525 H   0  0  0  0  0
 -124.8145  -39.9841   35.7629 H   0  0  0  0  0
 -124.4989  -38.2319   35.7285 H   0  0  0  0  0
 -125.3107  -38.6103   26.9422 H   0  0  0  0  0
 -124.1909  -39.6820   27.5540 H   0  0  0  0  0
 -125.8014  -40.1053   27.4910 H   0  0  0  0  0
  1  2  2  0  0  0
  1  3  1  0  0  0
  1  4  1  0  0  0
  4  5  1  0  0  0
  4 13  2  0  0  0
  5  6  1  0  0  0
  6  7  1  0  0  0
  6 20  1  0  0  0
  7  8  1  0  0  0
  7 12  1  0  0  0
  8  9  1  0  0  0
  9 10  2  0  0  0
  9 11  1  0  0  0
 12 13  1  0  0  0
 12 14  1  0  0  0
 14 15  1  0  0  0
 15 16  1  0  0  0
 15 17  1  0  0  0
 16 19  1  0  0  0
 17 18  1  0  0  0
  3 21  1  0  0  0
  5 22  1  0  0  0
  5 23  1  0  0  0
  6 24  1  0  0  0
  7 25  1  0  0  0
  8 26  1  0  0  0
 11 27  1  0  0  0
 11 28  1  0  0  0
 11 29  1  0  0  0
 12 30  1  0  0  0
 13 31  1  0  0  0
 15 32  1  0  0  0
 16 33  1  0  0  0
 16 34  1  0  0  0
 17 35  1  0  0  0
 17 36  1  0  0  0
 18 37  1  0  0  0
 18 38  1  0  0  0
 18 39  1  0  0  0
 19 40  1  0  0  0
 19 41  1  0  0  0
 19 42  1  0  0  0
 20 43  1  0  0  0
 20 44  1  0  0  0
 20 45  1  0  0  0
M  END
$$$$
