4x8g_ligand
  -I-interpret- 

 61 65  0  0  0  0  0  0  0  0999 V2000
   31.8690   45.2580   32.8880 C   0  0  0  0  0
   30.6480   44.6680   32.6810 C   0  0  0  0  0
   28.9830   44.0640   30.7870 C   0  0  0  0  0
   27.1370   42.5140   25.4140 C   0  0  0  0  0
   24.9560   43.5890   25.3320 C   0  0  0  0  0
   32.5460   45.7350   31.7930 C   0  0  0  0  0
   30.1540   44.5780   31.3980 C   0  0  0  0  0
   25.9140   42.7450   24.8270 C   0  0  0  0  0
   27.3850   43.1920   26.5910 C   0  0  0  0  0
   26.4330   44.0440   27.1100 C   0  0  0  0  0
   25.2220   44.2530   26.5020 C   0  0  0  0  0
   29.0990   44.2920   29.4340 C   0  0  0  0  0
   30.9450   45.1020   30.3990 C   0  0  0  0  0
   28.2230   43.9870   28.3710 C   0  0  0  0  0
   25.6180   42.0490   23.5830 C   0  0  0  0  0
   24.3420   44.9150   21.8780 C   0  0  0  0  0
   24.1400   44.3650   20.4890 C   0  0  0  0  0
   25.5220   44.2320   22.5200 C   0  0  0  0  0
   25.0460   42.1900   21.2150 C   0  0  0  0  0
   23.8730   42.8830   20.5670 C   0  0  0  0  0
   32.1130   44.6610   27.6630 C   0  0  0  0  0
   26.3780   45.4840   29.1650 C   0  0  0  0  0
   23.6590   46.0430   26.2840 C   0  0  0  0  0
   30.7870   45.3300   27.9220 C   0  0  0  0  0
   32.1360   45.6870   30.5240 N   0  0  0  0  0
   28.5020   43.1650   27.3860 N   0  0  0  0  0
   26.9850   44.5430   28.2510 N   0  0  0  0  0
   30.2910   44.9200   29.2160 N   0  0  0  0  0
   25.3490   42.8080   22.4750 N   0  0  0  0  0
   23.8140   42.3950   19.1700 N   0  3  0  0  0
   25.6240   40.8270   23.5560 O   0  0  0  0  0
   24.3540   45.1260   27.1130 O   0  0  0  0  0
   32.2885   45.3453   33.8903 H   0  0  0  0  0
   30.0756   44.2752   33.5213 H   0  0  0  0  0
   28.1479   43.5795   31.2929 H   0  0  0  0  0
   27.8679   41.8349   24.9751 H   0  0  0  0  0
   24.0065   43.7280   24.8151 H   0  0  0  0  0
   33.5147   46.1990   31.9786 H   0  0  0  0  0
   23.4479   44.7343   22.4747 H   0  0  0  0  0
   24.5287   45.9874   21.8213 H   0  0  0  0  0
   25.0370   44.5411   19.8953 H   0  0  0  0  0
   23.2900   44.8625   20.0221 H   0  0  0  0  0
   25.5993   44.5512   23.5593 H   0  0  0  0  0
   26.4296   44.5003   21.9792 H   0  0  0  0  0
   25.9140   42.2678   20.5603 H   0  0  0  0  0
   24.7955   41.1423   21.3813 H   0  0  0  0  0
   22.9606   42.6895   21.1311 H   0  0  0  0  0
   32.8232   44.9533   28.4365 H   0  0  0  0  0
   31.9818   43.5790   27.6785 H   0  0  0  0  0
   32.4893   44.9687   26.6874 H   0  0  0  0  0
   26.1535   46.4098   28.6353 H   0  0  0  0  0
   25.4566   45.0590   29.5632 H   0  0  0  0  0
   27.0678   45.6903   29.9833 H   0  0  0  0  0
   24.3774   46.6705   25.7565 H   0  0  0  0  0
   23.0559   45.4929   25.5617 H   0  0  0  0  0
   23.0114   46.6680   26.8989 H   0  0  0  0  0
   30.0747   45.0405   27.1493 H   0  0  0  0  0
   30.9147   46.4124   27.9059 H   0  0  0  0  0
   23.6342   41.3910   19.1692 H   0  0  0  0  0
   23.0637   42.8764   18.6744 H   0  0  0  0  0
   24.7036   42.5827   18.7077 H   0  0  0  0  0
  2  1  4  0  0  0
  6  1  4  0  0  0
  7  2  4  0  0  0
  7  3  4  0  0  0
 12  3  4  0  0  0
  4  8  4  0  0  0
  9  4  4  0  0  0
  5  8  4  0  0  0
 11  5  4  0  0  0
 25  6  4  0  0  0
 13  7  4  0  0  0
  8 15  1  0  0  0
 10  9  4  0  0  0
 26  9  4  0  0  0
 10 11  4  0  0  0
 27 10  4  0  0  0
 11 32  1  0  0  0
 12 14  1  0  0  0
 28 12  4  0  0  0
 13 25  4  0  0  0
 28 13  4  0  0  0
 14 26  4  0  0  0
 14 27  4  0  0  0
 15 29  1  0  0  0
 15 31  2  0  0  0
 16 17  1  0  0  0
 18 16  1  0  0  0
 20 17  1  0  0  0
 29 18  1  0  0  0
 19 20  1  0  0  0
 29 19  1  0  0  0
 20 30  1  0  0  0
 24 21  1  0  0  0
 27 22  1  0  0  0
 32 23  1  0  0  0
 24 28  1  0  0  0
  1 33  1  0  0  0
  2 34  1  0  0  0
  3 35  1  0  0  0
  4 36  1  0  0  0
  5 37  1  0  0  0
  6 38  1  0  0  0
 16 39  1  0  0  0
 16 40  1  0  0  0
 17 41  1  0  0  0
 17 42  1  0  0  0
 18 43  1  0  0  0
 18 44  1  0  0  0
 19 45  1  0  0  0
 19 46  1  0  0  0
 20 47  1  0  0  0
 21 48  1  0  0  0
 21 49  1  0  0  0
 21 50  1  0  0  0
 22 51  1  0  0  0
 22 52  1  0  0  0
 22 53  1  0  0  0
 23 54  1  0  0  0
 23 55  1  0  0  0
 23 56  1  0  0  0
 24 57  1  0  0  0
 24 58  1  0  0  0
 30 59  1  0  0  0
 30 60  1  0  0  0
 30 61  1  0  0  0
M  END
$$$$
