4uit_ligand
  -I-interpret- 

 60 63  0  0  0  0  0  0  0  0999 V2000
    6.9140   15.3900    8.3910 C   0  0  0  0  0
    5.7220   16.0050    7.9000 O   0  0  0  0  0
    4.5370   15.5810    8.4310 C   0  0  0  0  0
    4.1510   14.2540    8.4670 C   0  0  0  0  0
    3.1110   13.8640    9.2790 C   0  0  0  0  0
    2.3940   14.7920   10.0250 C   0  0  0  0  0
    2.7760   16.1300    9.9870 C   0  0  0  0  0
    3.8630   16.5220    9.2310 C   0  0  0  0  0
    4.3850   17.7870    9.2240 O   0  0  0  0  0
    3.5600   18.8390    8.7330 C   0  0  0  0  0
    1.0810   14.4100   10.5880 C   0  0  0  0  0
    0.2130   13.6600    9.8820 C   0  0  0  0  0
   -1.0290   13.3570   10.3110 N   0  0  0  0  0
   -1.9040   12.5610    9.4500 C   0  0  0  0  0
   -1.4980   13.6810   11.5920 C   0  0  0  0  0
   -2.6010   13.2620   11.9110 O   0  0  0  0  0
   -0.6370   14.5540   12.4150 C   0  0  0  0  0
   -0.8450   15.1410   13.7010 C   0  0  0  0  0
    0.1560   15.9930   14.0880 C   0  0  0  0  0
    1.5350   15.8130   13.0520 S   0  0  0  0  0
    0.6220   14.8790   11.9140 C   0  0  0  0  0
    0.3080   16.6080   15.4470 C   0  0  0  0  0
    1.3710   16.4630   16.0370 O   0  0  0  0  0
   -0.7370   17.2890   15.9940 N   0  0  0  0  0
   -0.5810   17.9250   17.3140 C   0  0  0  0  0
   -1.7390   17.5710   18.2260 C   0  0  0  0  0
   -2.9930   17.9650   17.5740 N   0  0  0  0  0
   -3.1860   17.2570   16.2980 C   0  0  0  0  0
   -2.0390   17.5920   15.3670 C   0  0  0  0  0
   -4.3130   18.1250   18.5320 S   0  0  0  0  0
   -4.6130   16.5690   19.2750 C   0  0  0  0  0
   -3.9730   19.0580   19.5590 O   0  0  0  0  0
   -5.4150   18.4370   17.6740 O   0  0  0  0  0
    6.9958   15.5643    9.4639 H   0  0  0  0  0
    6.8744   14.3180    8.1977 H   0  0  0  0  0
    7.7782   15.8201    7.8848 H   0  0  0  0  0
    4.6698   13.5178    7.8530 H   0  0  0  0  0
    2.8447   12.8087    9.3383 H   0  0  0  0  0
    2.2149   16.8712   10.5562 H   0  0  0  0  0
    3.2896   18.6337    7.6972 H   0  0  0  0  0
    2.6567   18.9039    9.3396 H   0  0  0  0  0
    4.1045   19.7817    8.7877 H   0  0  0  0  0
    0.5315   13.2776    8.9122 H   0  0  0  0  0
   -2.0608   13.0867    8.5081 H   0  0  0  0  0
   -1.4387   11.5947    9.2552 H   0  0  0  0  0
   -2.8621   12.4107    9.9475 H   0  0  0  0  0
   -1.7191   14.9305   14.3172 H   0  0  0  0  0
   -0.3504   16.9548   14.0071 H   0  0  0  0  0
    1.1463   14.9667   10.9624 H   0  0  0  0  0
   -0.5577   19.0066   17.1811 H   0  0  0  0  0
    0.3438   17.5684   17.7676 H   0  0  0  0  0
   -1.6354   18.0969   19.1751 H   0  0  0  0  0
   -1.7437   16.4979   18.4170 H   0  0  0  0  0
   -4.1280   17.5668   15.8456 H   0  0  0  0  0
   -3.2122   16.1819   16.4755 H   0  0  0  0  0
   -2.1380   16.9916   14.4627 H   0  0  0  0  0
   -2.0758   18.6572   15.1385 H   0  0  0  0  0
   -3.7154   16.2382   19.7975 H   0  0  0  0  0
   -5.4355   16.6591   19.9845 H   0  0  0  0  0
   -4.8742   15.8440   18.5041 H   0  0  0  0  0
  1  2  1  0  0  0
  2  3  1  0  0  0
  3  4  4  0  0  0
  3  8  4  0  0  0
  4  5  4  0  0  0
  5  6  4  0  0  0
  6  7  4  0  0  0
  6 11  1  0  0  0
  7  8  4  0  0  0
  8  9  1  0  0  0
  9 10  1  0  0  0
 11 12  2  0  0  0
 11 21  1  0  0  0
 12 13  1  0  0  0
 13 14  1  0  0  0
 13 15  1  0  0  0
 15 16  2  0  0  0
 15 17  1  0  0  0
 17 18  2  0  0  0
 17 21  1  0  0  0
 18 19  1  0  0  0
 19 20  1  0  0  0
 19 22  1  0  0  0
 20 21  1  0  0  0
 22 23  2  0  0  0
 22 24  1  0  0  0
 24 25  1  0  0  0
 24 29  1  0  0  0
 25 26  1  0  0  0
 26 27  1  0  0  0
 27 28  1  0  0  0
 27 30  1  0  0  0
 28 29  1  0  0  0
 30 31  1  0  0  0
 30 32  2  0  0  0
 30 33  2  0  0  0
  1 34  1  0  0  0
  1 35  1  0  0  0
  1 36  1  0  0  0
  4 37  1  0  0  0
  5 38  1  0  0  0
  7 39  1  0  0  0
 10 40  1  0  0  0
 10 41  1  0  0  0
 10 42  1  0  0  0
 12 43  1  0  0  0
 14 44  1  0  0  0
 14 45  1  0  0  0
 14 46  1  0  0  0
 18 47  1  0  0  0
 19 48  1  0  0  0
 21 49  1  0  0  0
 25 50  1  0  0  0
 25 51  1  0  0  0
 26 52  1  0  0  0
 26 53  1  0  0  0
 28 54  1  0  0  0
 28 55  1  0  0  0
 29 56  1  0  0  0
 29 57  1  0  0  0
 31 58  1  0  0  0
 31 59  1  0  0  0
 31 60  1  0  0  0
M  END
$$$$
