4xhl_ligand
  -I-interpret- 

 31 32  0  0  0  0  0  0  0  0999 V2000
   27.6600   37.2820    3.9890 C   0  0  0  0  0
   27.6930   37.0160    5.3320 N   0  0  0  0  0
   27.4270   35.7390    5.7730 C   0  0  0  0  0
   27.1300   34.7240    4.8650 C   0  0  0  0  0
   26.8000   33.9890    2.5770 C   0  0  0  0  0
   26.4470   32.3330    2.9930 Cl  0  0  0  0  0
   26.7690   34.2660    1.2160 C   0  0  0  0  0
   27.0360   35.5580    0.7770 C   0  0  0  0  0
   27.3310   36.5560    1.6920 C   0  0  0  0  0
   27.3610   36.2680    3.0670 C   0  0  0  0  0
   27.1010   35.0110    3.5070 C   0  0  0  0  0
   27.6220   38.0470    0.7820 S   0  0  0  0  0
   26.8080   38.1070   -0.4060 O   0  0  0  0  0
   27.1730   39.2070    1.5070 O   0  0  0  0  0
   29.2230   38.1430    0.4020 N   0  0  0  0  0
   29.8830   39.3930    0.5270 C   0  0  0  0  0
   31.0240   39.4430   -0.4580 C   0  0  0  0  0
   32.1920   39.9510    0.1880 N   0  3  0  0  0
   27.8680   38.2911    3.6332 H   0  0  0  0  0
   27.4489   35.5201    6.8406 H   0  0  0  0  0
   26.9224   33.7139    5.2180 H   0  0  0  0  0
   26.5376   33.4781    0.4992 H   0  0  0  0  0
   27.0132   35.7862   -0.2886 H   0  0  0  0  0
   29.7307   37.3180    0.0825 H   0  0  0  0  0
   30.2660   39.5079    1.5410 H   0  0  0  0  0
   29.1823   40.2021    0.3209 H   0  0  0  0  0
   30.7568   40.0956   -1.2892 H   0  0  0  0  0
   31.2244   38.4389   -0.8317 H   0  0  0  0  0
   32.9618   39.9837   -0.4804 H   0  0  0  0  0
   32.0041   40.8904    0.5381 H   0  0  0  0  0
   32.4415   39.3405    0.9661 H   0  0  0  0  0
  2  1  4  0  0  0
  1 10  4  0  0  0
  3  2  4  0  0  0
  4  3  4  0  0  0
 11  4  4  0  0  0
  5  6  1  0  0  0
  5  7  4  0  0  0
  5 11  4  0  0  0
  7  8  4  0  0  0
  8  9  4  0  0  0
  9 10  4  0  0  0
  9 12  1  0  0  0
 10 11  4  0  0  0
 12 13  2  0  0  0
 12 14  2  0  0  0
 12 15  1  0  0  0
 15 16  1  0  0  0
 16 17  1  0  0  0
 17 18  1  0  0  0
  1 19  1  0  0  0
  3 20  1  0  0  0
  4 21  1  0  0  0
  7 22  1  0  0  0
  8 23  1  0  0  0
 15 24  1  0  0  0
 16 25  1  0  0  0
 16 26  1  0  0  0
 17 27  1  0  0  0
 17 28  1  0  0  0
 18 29  1  0  0  0
 18 30  1  0  0  0
 18 31  1  0  0  0
M  END
$$$$
