5urj_ligand
  -I-interpret- 

 62 67  0  0  0  0  0  0  0  0999 V2000
  -88.7800  -15.3510  162.1700 C   0  0  0  0  0
  -87.6330  -15.9600  162.9300 C   0  0  0  0  0
  -87.3970  -17.3780  162.3720 C   0  0  0  0  0
  -88.7190  -18.1170  162.5900 C   0  0  0  0  0
  -90.7510  -15.6650  160.8810 C   0  0  0  0  0
  -92.0130  -13.9960  159.9630 N   0  0  0  0  0
  -93.3710  -14.2710  160.4610 C   0  0  0  0  0
  -95.7500  -14.4450  159.7610 C   0  0  0  0  0
  -98.1050  -14.7410  159.1610 C   0  0  0  0  0
  -99.6750  -17.9830  157.9830 C   0  0  0  0  0
  -98.6420  -18.8820  158.1550 C   0  0  0  0  0
  -97.4300  -18.4480  158.6430 C   0  0  0  0  0
  -96.4840  -13.8410  157.5940 C   0  0  0  0  0
  -95.1790  -13.4670  157.2390 C   0  0  0  0  0
  -90.1160  -11.9370  161.1640 C   0  0  0  0  0
  -89.9730  -13.4320  161.3130 C   0  0  0  0  0
  -88.9140  -13.9720  162.0350 C   0  0  0  0  0
  -89.6460  -17.5460  161.6750 O   0  0  0  0  0
  -89.7040  -16.1940  161.5920 C   0  0  0  0  0
  -90.9040  -14.3050  160.7460 C   0  0  0  0  0
  -94.4860  -14.1120  159.4540 C   0  0  0  0  0
  -96.7410  -14.3220  158.8300 N   0  0  0  0  0
  -98.2920  -16.2050  158.8020 C   0  0  0  0  0
  -99.5020  -16.6520  158.3060 C   0  0  0  0  0
  -97.2650  -17.1150  158.9620 C   0  0  0  0  0
  -97.3940  -13.7440  156.7790 O   0  0  0  0  0
  -94.1630  -13.5990  158.1710 C   0  0  0  0  0
  -92.8490  -13.2880  157.8610 N   0  0  0  0  0
  -91.8360  -13.5390  158.7030 C   0  0  0  0  0
  -90.7040  -13.3140  158.3200 O   0  0  0  0  0
  -88.6750  -19.6080  162.3680 C   0  0  0  0  0
  -88.0770  -20.1320  161.3190 N   0  0  0  0  0
  -88.0560  -21.4390  161.1110 C   0  0  0  0  0
  -88.6650  -22.3160  161.9850 C   0  0  0  0  0
  -89.3110  -21.8020  163.0960 C   0  0  0  0  0
  -89.3170  -20.4250  163.2790 C   0  0  0  0  0
  -89.9400  -19.8830  164.3490 F   0  0  0  0  0
  -87.8662  -16.0062  163.9938 H   0  0  0  0  0
  -86.7357  -15.3527  162.8112 H   0  0  0  0  0
  -86.5687  -17.8766  162.8754 H   0  0  0  0  0
  -87.1168  -17.3553  161.3189 H   0  0  0  0  0
  -88.9904  -17.9998  163.6392 H   0  0  0  0  0
  -91.4743  -16.3342  160.4149 H   0  0  0  0  0
  -93.5627  -13.5433  161.2496 H   0  0  0  0  0
  -93.3803  -15.3170  160.7676 H   0  0  0  0  0
  -95.9861  -14.8154  160.7586 H   0  0  0  0  0
  -98.8155  -14.1370  158.5968 H   0  0  0  0  0
  -98.2753  -14.6063  160.2292 H   0  0  0  0  0
 -100.6323  -18.3257  157.5901 H   0  0  0  0  0
  -98.7854  -19.9332  157.9050 H   0  0  0  0  0
  -96.6077  -19.1509  158.7764 H   0  0  0  0  0
  -94.9677  -13.0778  156.2430 H   0  0  0  0  0
  -90.2166  -11.4829  162.1498 H   0  0  0  0  0
  -89.2327  -11.5366  160.6665 H   0  0  0  0  0
  -91.0017  -11.7156  160.5685 H   0  0  0  0  0
  -88.1829  -13.3099  162.4990 H   0  0  0  0  0
 -100.3243  -15.9498  158.1691 H   0  0  0  0  0
  -96.3046  -16.7735  159.3481 H   0  0  0  0  0
  -92.6451  -12.8531  156.9612 H   0  0  0  0  0
  -87.5468  -21.8309  160.2305 H   0  0  0  0  0
  -88.6379  -23.3906  161.8044 H   0  0  0  0  0
  -89.8033  -22.4620  163.8103 H   0  0  0  0  0
  1  2  1  0  0  0
 17  1  4  0  0  0
 19  1  4  0  0  0
  2  3  1  0  0  0
  4  3  1  0  0  0
 18  4  1  0  0  0
  4 31  1  0  0  0
  5 19  4  0  0  0
 20  5  4  0  0  0
  7  6  1  0  0  0
  6 20  1  0  0  0
  6 29  1  0  0  0
 21  7  1  0  0  0
  8 21  2  0  0  0
 22  8  1  0  0  0
  9 22  1  0  0  0
 23  9  1  0  0  0
 10 11  4  0  0  0
 24 10  4  0  0  0
 11 12  4  0  0  0
 12 25  4  0  0  0
 13 14  1  0  0  0
 22 13  1  0  0  0
 13 26  2  0  0  0
 14 27  2  0  0  0
 16 15  1  0  0  0
 16 17  4  0  0  0
 20 16  4  0  0  0
 19 18  1  0  0  0
 21 27  1  0  0  0
 23 24  4  0  0  0
 23 25  4  0  0  0
 27 28  1  0  0  0
 28 29  1  0  0  0
 29 30  2  0  0  0
 31 32  4  0  0  0
 31 36  4  0  0  0
 32 33  4  0  0  0
 33 34  4  0  0  0
 34 35  4  0  0  0
 35 36  4  0  0  0
 36 37  1  0  0  0
  2 38  1  0  0  0
  2 39  1  0  0  0
  3 40  1  0  0  0
  3 41  1  0  0  0
  4 42  1  0  0  0
  5 43  1  0  0  0
  7 44  1  0  0  0
  7 45  1  0  0  0
  8 46  1  0  0  0
  9 47  1  0  0  0
  9 48  1  0  0  0
 10 49  1  0  0  0
 11 50  1  0  0  0
 12 51  1  0  0  0
 14 52  1  0  0  0
 15 53  1  0  0  0
 15 54  1  0  0  0
 15 55  1  0  0  0
 17 56  1  0  0  0
 24 57  1  0  0  0
 25 58  1  0  0  0
 28 59  1  0  0  0
 33 60  1  0  0  0
 34 61  1  0  0  0
 35 62  1  0  0  0
M  END
$$$$
