### 
### Created by X-TOOL on Mon Sep 10 21:12:59 2018
### 

@<TRIPOS>MOLECULE
3ex6_ligand
   32    33     1     0     0
SMALL
GAST_HUCK


@<TRIPOS>ATOM
      1 N1         21.0760   -5.1290   14.1590 N.am      1 U5P        -0.1592
      2 C2         20.7830   -6.0370   13.1200 C.2       1 U5P         0.3328
      3 N3         19.9380   -5.6700   12.1480 N.am      1 U5P        -0.1865
      4 C4         19.3870   -4.4560   12.1750 C.2       1 U5P         0.1822
      5 C5         19.6790   -3.5440   13.1610 C.2       1 U5P         0.0062
      6 C6         20.5820   -3.9290   14.1170 C.2       1 U5P         0.0591
      7 O2         21.2770   -7.1720   13.1030 O.2       1 U5P        -0.3815
      8 O4         18.6730   -4.1650   11.2710 O.2       1 U5P        -0.4124
      9 C1'        22.0880   -5.4670   15.1940 C.3       1 U5P         0.2059
     10 C2'        21.8750   -6.7070   16.0510 C.3       1 U5P         0.1387
     11 O2'        21.2760   -6.2440   17.2780 O.3       1 U5P        -0.3836
     12 C3'        23.3270   -7.1630   16.2670 C.3       1 U5P         0.1149
     13 C4'        24.0110   -6.8730   14.9220 C.3       1 U5P         0.1182
     14 O3'        23.9490   -6.4020   17.3370 O.3       1 U5P        -0.3864
     15 O4'        23.3020   -5.7120   14.4440 O.3       1 U5P        -0.3363
     16 C5'        23.9060   -8.0760   13.9580 C.3       1 U5P         0.1072
     17 O5'        24.8500   -8.9780   14.5500 O.3       1 U5P        -0.2734
     18 P          25.1720  -10.3880   13.7920 P.3       1 U5P         0.2008
     19 O1P        26.2050   -9.9850   12.7500 O.co2     1 U5P        -0.5537
     20 O2P        23.9040  -10.9100   13.2230 O.co2     1 U5P        -0.5537
     21 O3P        25.7490  -11.2280   14.8980 O.co2     1 U5P        -0.5537
     22 H1         19.7212   -6.3035   11.4053 H         1 U5P         0.2259
     23 H2         19.2136   -2.5597   13.1815 H         1 U5P         0.0258
     24 H3         20.8959   -3.2042   14.8667 H         1 U5P         0.1178
     25 H4         22.2029   -4.6021   15.8639 H         1 U5P         0.0997
     26 H5         21.2585   -7.4789   15.5672 H         1 U5P         0.0676
     27 H6         20.4512   -5.8144   17.0840 H         1 U5P         0.2101
     28 H7         23.3701   -8.2360   16.5053 H         1 U5P         0.0648
     29 H8         25.0745   -6.6358   15.0728 H         1 U5P         0.0650
     30 H9         24.8664   -6.6403   17.4017 H         1 U5P         0.2100
     31 H10        24.1970   -7.8005   12.9336 H         1 U5P         0.0639
     32 H11        22.8912   -8.5004   13.9493 H         1 U5P         0.0639
@<TRIPOS>BOND
     1    1    2 am 
     2    1    6 1  
     3    1    9 1  
     4    2    3 am 
     5    2    7 2  
     6    3    4 am 
     7    4    5 1  
     8    4    8 2  
     9    5    6 2  
    10    9   10 1  
    11    9   15 1  
    12   10   11 1  
    13   10   12 1  
    14   12   13 1  
    15   12   14 1  
    16   13   15 1  
    17   13   16 1  
    18   16   17 1  
    19   17   18 1  
    20   18   19 ar 
    21   18   20 ar 
    22   18   21 ar 
    23    3   22 1  
    24    5   23 1  
    25    6   24 1  
    26    9   25 1  
    27   10   26 1  
    28   11   27 1  
    29   12   28 1  
    30   13   29 1  
    31   14   30 1  
    32   16   31 1  
    33   16   32 1  
@<TRIPOS>SUBSTRUCTURE
     1 U5P         1

