5nhy_ligand
  -I-interpret- 

 40 42  0  0  0  0  0  0  0  0999 V2000
    4.5520   14.1160   11.4040 C   0  0  0  0  0
    3.2880   14.0590   12.2680 C   0  0  0  0  0
    2.2670   12.5800   14.0060 C   0  0  0  0  0
    1.8290    9.0350   17.6590 C   0  0  0  0  0
   -0.5860    9.1650   17.1860 C   0  0  0  0  0
   -0.8870    7.9760   16.2530 C   0  0  0  0  0
   -1.8720    9.5470   17.9400 C   0  0  0  0  0
   -1.1710    8.3170   19.8460 C   0  0  0  0  0
    0.1640    7.9750   19.1540 C   0  0  0  0  0
    2.8450    8.2160   18.1860 C   0  0  0  0  0
    4.1330    8.3160   17.6790 C   0  0  0  0  0
    3.5200    9.9210   16.2130 C   0  0  0  0  0
    3.3230   12.9980   13.2780 N   0  0  0  0  0
    1.1430   13.0700   13.8440 O   0  0  0  0  0
    2.4610   11.4930   14.9520 C   0  0  0  0  0
    1.5240   10.9280   15.8080 C   0  0  0  0  0
    3.6490   10.8310   15.2180 N   0  0  0  0  0
    2.1680    9.9340   16.6290 C   0  0  0  0  0
    0.5250    8.9850   18.1440 N   0  0  0  0  0
    4.4950    9.1390   16.6720 N   0  0  0  0  0
   -2.1980    8.5220   18.8850 O   0  0  0  0  0
    5.4180   14.2968   12.0408 H   0  0  0  0  0
    4.6759   13.1679   10.8806 H   0  0  0  0  0
    4.4582   14.9237   10.6781 H   0  0  0  0  0
    2.4459   13.8561   11.6064 H   0  0  0  0  0
    3.2049   15.0106   12.7930 H   0  0  0  0  0
   -0.2409    9.9622   16.5277 H   0  0  0  0  0
   -0.0055    7.7561   15.6508 H   0  0  0  0  0
   -1.1467    7.1028   16.8515 H   0  0  0  0  0
   -1.7210    8.2310   15.5991 H   0  0  0  0  0
   -2.6901    9.6563   17.2280 H   0  0  0  0  0
   -1.7166   10.4886   18.4666 H   0  0  0  0  0
   -1.0432    9.2315   20.4251 H   0  0  0  0  0
   -1.4549    7.4870   20.4930 H   0  0  0  0  0
    0.0567    7.0118   18.6551 H   0  0  0  0  0
    0.9478    7.9492   19.9110 H   0  0  0  0  0
    2.6222    7.5093   18.9854 H   0  0  0  0  0
    4.9045    7.6876   18.1239 H   0  0  0  0  0
    4.2183   12.5383   13.4441 H   0  0  0  0  0
    0.4680   11.1945   15.8518 H   0  0  0  0  0
  2  1  1  0  0  0
 13  2  1  0  0  0
  3 13  1  0  0  0
  3 14  2  0  0  0
 15  3  1  0  0  0
  4 10  4  0  0  0
 18  4  4  0  0  0
  4 19  1  0  0  0
  5  6  1  0  0  0
  5  7  1  0  0  0
 19  5  1  0  0  0
  7 21  1  0  0  0
  9  8  1  0  0  0
  8 21  1  0  0  0
 19  9  1  0  0  0
 11 10  4  0  0  0
 20 11  4  0  0  0
 17 12  4  0  0  0
 12 18  4  0  0  0
 12 20  4  0  0  0
 15 16  4  0  0  0
 15 17  4  0  0  0
 16 18  4  0  0  0
  1 22  1  0  0  0
  1 23  1  0  0  0
  1 24  1  0  0  0
  2 25  1  0  0  0
  2 26  1  0  0  0
  5 27  1  0  0  0
  6 28  1  0  0  0
  6 29  1  0  0  0
  6 30  1  0  0  0
  7 31  1  0  0  0
  7 32  1  0  0  0
  8 33  1  0  0  0
  8 34  1  0  0  0
  9 35  1  0  0  0
  9 36  1  0  0  0
 10 37  1  0  0  0
 11 38  1  0  0  0
 13 39  1  0  0  0
 16 40  1  0  0  0
M  END
$$$$
