4j5e_ligand
  -I-interpret- 

 54 56  0  0  0  0  0  0  0  0999 V2000
    6.7160   22.3060   13.1620 C   0  0  0  0  0
    6.8480   22.0140   14.5970 O   0  0  0  0  0
    6.5810   23.0120   15.5140 C   0  0  0  0  0
    6.3240   24.3190   15.1080 C   0  0  0  0  0
    6.0370   25.2680   16.0890 C   0  0  0  0  0
    6.0080   24.9430   17.4400 C   0  0  0  0  0
    6.2680   23.6160   17.8060 C   0  0  0  0  0
    6.5770   22.6350   16.8340 C   0  0  0  0  0
    6.9010   21.2450   17.1330 C   0  0  0  0  0
    8.4510   20.9570   17.2640 C   0  0  0  0  0
    8.7130   21.3680   18.6830 C   0  0  0  0  0
    7.5830   20.7080   19.4630 C   0  0  0  0  0
    6.4450   20.8650   18.5440 N   0  0  0  0  0
    5.1860   20.5270   18.8910 C   0  0  0  0  0
    4.9460   20.0900   20.0420 O   0  0  0  0  0
    4.1260   20.6440   17.8010 C   0  0  0  0  0
    2.8860   20.0170   18.2140 N   0  0  0  0  0
    2.7300   18.7050   18.0010 C   0  0  0  0  0
    3.5180   18.0210   17.3580 O   0  0  0  0  0
    1.5800   18.1870   18.4900 N   0  0  0  0  0
    1.1930   16.8100   18.4930 C   0  0  0  0  0
    0.9760   16.3540   19.8680 C   0  0  0  0  0
   -0.0790   15.5430   20.1920 C   0  0  0  0  0
   -0.2840   15.1080   21.5000 C   0  0  0  0  0
    0.6420   15.4040   22.5370 C   0  0  0  0  0
    0.4840   14.8990   23.7970 N   0  0  0  0  0
    1.7820   16.1480   22.2130 C   0  0  0  0  0
    1.9190   16.6130   20.8990 C   0  0  0  0  0
    5.6908   22.6070   12.9466 H   0  0  0  0  0
    7.3972   23.1131   12.8926 H   0  0  0  0  0
    6.9625   21.4136   12.5868 H   0  0  0  0  0
    6.3465   24.5927   14.0532 H   0  0  0  0  0
    5.8294   26.2946   15.7873 H   0  0  0  0  0
    5.7891   25.6994   18.1936 H   0  0  0  0  0
    6.2316   23.3341   18.8583 H   0  0  0  0  0
    6.4284   20.7074   16.3110 H   0  0  0  0  0
    9.0577   21.4943   16.5351 H   0  0  0  0  0
    8.7220   19.9227   17.0523 H   0  0  0  0  0
    8.7274   22.4508   18.8069 H   0  0  0  0  0
    9.6974   21.0560   19.0319 H   0  0  0  0  0
    7.4133   21.1579   20.4412 H   0  0  0  0  0
    7.7874   19.6696   19.7238 H   0  0  0  0  0
    4.4897   20.1430   16.9039 H   0  0  0  0  0
    3.9370   21.7001   17.6085 H   0  0  0  0  0
    2.1481   20.5641   18.6575 H   0  0  0  0  0
    0.9196   18.8477   18.8995 H   0  0  0  0  0
    1.9841   16.2140   18.0380 H   0  0  0  0  0
    0.2684   16.6960   17.9271 H   0  0  0  0  0
   -0.7724   15.2314   19.4109 H   0  0  0  0  0
   -1.1760   14.5267   21.7335 H   0  0  0  0  0
   -0.3111   14.2962   24.0089 H   0  0  0  0  0
    1.1612   15.1249   24.5256 H   0  0  0  0  0
    2.5434   16.3601   22.9636 H   0  0  0  0  0
    2.7990   17.2074   20.6532 H   0  0  0  0  0
  1  2  1  0  0  0
  2  3  1  0  0  0
  3  4  4  0  0  0
  3  8  4  0  0  0
  4  5  4  0  0  0
  5  6  4  0  0  0
  6  7  4  0  0  0
  7  8  4  0  0  0
  8  9  1  0  0  0
  9 10  1  0  0  0
  9 13  1  0  0  0
 10 11  1  0  0  0
 11 12  1  0  0  0
 12 13  1  0  0  0
 13 14  1  0  0  0
 14 15  2  0  0  0
 14 16  1  0  0  0
 16 17  1  0  0  0
 17 18  1  0  0  0
 18 19  2  0  0  0
 18 20  1  0  0  0
 20 21  1  0  0  0
 21 22  1  0  0  0
 22 23  4  0  0  0
 22 28  4  0  0  0
 23 24  4  0  0  0
 24 25  4  0  0  0
 25 26  1  0  0  0
 25 27  4  0  0  0
 27 28  4  0  0  0
  1 29  1  0  0  0
  1 30  1  0  0  0
  1 31  1  0  0  0
  4 32  1  0  0  0
  5 33  1  0  0  0
  6 34  1  0  0  0
  7 35  1  0  0  0
  9 36  1  0  0  0
 10 37  1  0  0  0
 10 38  1  0  0  0
 11 39  1  0  0  0
 11 40  1  0  0  0
 12 41  1  0  0  0
 12 42  1  0  0  0
 16 43  1  0  0  0
 16 44  1  0  0  0
 17 45  1  0  0  0
 20 46  1  0  0  0
 21 47  1  0  0  0
 21 48  1  0  0  0
 23 49  1  0  0  0
 24 50  1  0  0  0
 26 51  1  0  0  0
 26 52  1  0  0  0
 27 53  1  0  0  0
 28 54  1  0  0  0
M  END
$$$$
