3veu_ligand
  -I-interpret- 

 90 93  0  0  0  0  0  0  0  0999 V2000
   30.1300   78.7340   15.8710 N   0  3  0  0  0
   31.1620   77.6620   15.6870 C   0  0  0  0  0
   32.1880   78.3420   14.7440 C   0  0  0  0  0
   32.2210   79.7750   15.3040 C   0  0  0  0  0
   30.7020   80.0210   15.3990 C   0  0  0  0  0
   31.8200   77.1910   17.0200 C   0  0  0  0  0
   32.1030   75.6830   16.8590 C   0  0  0  0  0
   31.2120   75.3110   15.7650 N   0  0  0  0  0
   30.6500   76.3590   15.1230 C   0  0  0  0  0
   29.8430   76.3140   14.2030 O   0  0  0  0  0
   30.9320   73.9250   15.3620 C   0  0  0  0  0
   30.7840   73.0020   16.5540 C   0  0  0  0  0
   29.6150   73.0780   17.2590 N   0  0  0  0  0
   31.6990   72.2320   16.8410 O   0  0  0  0  0
   29.2280   78.8160   17.0510 C   0  0  0  0  0
   27.8750   78.1100   16.7750 C   0  0  0  0  0
   26.9240   78.2220   17.9920 C   0  0  0  0  0
   31.9530   73.4350   14.2950 C   0  0  0  0  0
   29.3280   72.2530   18.4470 C   0  0  0  0  0
   28.3840   71.0680   18.0730 C   0  0  0  0  0
   28.9700   70.1470   16.9750 C   0  0  0  0  0
   28.1370   68.9400   16.7910 N   0  3  0  0  0
   28.8240   67.7810   16.1650 C   0  0  0  0  0
   28.7310   73.1270   19.5920 C   0  0  0  0  0
   29.5700   74.3480   20.0040 C   0  0  0  0  0
   28.9050   75.5810   20.2180 C   0  0  0  0  0
   29.6320   76.7340   20.6030 C   0  0  0  0  0
   31.0350   76.6590   20.7760 C   0  0  0  0  0
   31.7070   75.4310   20.5630 C   0  0  0  0  0
   30.9800   74.2780   20.1780 C   0  0  0  0  0
   28.0190   70.2770   19.2180 O   0  0  0  0  0
   29.9550   67.2260   17.0540 C   0  0  0  0  0
   31.2870   67.2340   16.5700 C   0  0  0  0  0
   32.3330   66.7300   17.3790 C   0  0  0  0  0
   32.0590   66.2150   18.6670 C   0  0  0  0  0
   30.7320   66.1940   19.1700 C   0  0  0  0  0
   29.6880   66.7070   18.3490 C   0  0  0  0  0
   30.4660   65.6170   20.5820 C   0  0  0  0  0
   30.3680   66.7230   21.6600 C   0  0  0  0  0
   29.2500   64.6500   20.6440 C   0  0  0  0  0
   29.3625   78.3945   15.2912 H   0  0  0  0  0
   31.9109   78.2924   13.6910 H   0  0  0  0  0
   33.1629   77.8546   14.7375 H   0  0  0  0  0
   32.7702   80.4964   14.6989 H   0  0  0  0  0
   32.7691   79.8947   16.2385 H   0  0  0  0  0
   30.4682   80.8396   16.0797 H   0  0  0  0  0
   30.2816   80.3208   14.4391 H   0  0  0  0  0
   31.1605   77.3762   17.8679 H   0  0  0  0  0
   32.7395   77.7420   17.2177 H   0  0  0  0  0
   31.9212   75.1141   17.7708 H   0  0  0  0  0
   33.1503   75.4643   16.6507 H   0  0  0  0  0
   29.9577   73.9010   14.8738 H   0  0  0  0  0
   28.9044   73.7399   16.9469 H   0  0  0  0  0
   29.0338   79.8665   17.2674 H   0  0  0  0  0
   29.7122   78.3218   17.8933 H   0  0  0  0  0
   28.0673   77.0549   16.5806 H   0  0  0  0  0
   27.4012   78.5901   15.9188 H   0  0  0  0  0
   27.3895   77.7542   18.8595 H   0  0  0  0  0
   26.7304   79.2734   18.2047 H   0  0  0  0  0
   25.9850   77.7169   17.7654 H   0  0  0  0  0
   31.8911   74.0742   13.4143 H   0  0  0  0  0
   32.9601   73.4817   14.7093 H   0  0  0  0  0
   31.7205   72.4071   14.0166 H   0  0  0  0  0
   30.2625   71.8281   18.8134 H   0  0  0  0  0
   27.4877   71.5413   17.6721 H   0  0  0  0  0
   29.9703   69.8372   17.2775 H   0  0  0  0  0
   28.9965   70.6986   16.0352 H   0  0  0  0  0
   27.3780   69.2030   16.1624 H   0  0  0  0  0
   27.8495   68.6398   17.7224 H   0  0  0  0  0
   29.2636   68.1142   15.2249 H   0  0  0  0  0
   28.0889   66.9898   16.0174 H   0  0  0  0  0
   28.6680   72.4847   20.4704 H   0  0  0  0  0
   27.7819   73.5148   19.2220 H   0  0  0  0  0
   27.8249   75.6426   20.0852 H   0  0  0  0  0
   29.1118   77.6779   20.7659 H   0  0  0  0  0
   31.5968   77.5447   21.0726 H   0  0  0  0  0
   32.7873   75.3728   20.6958 H   0  0  0  0  0
   31.5020   73.3352   20.0147 H   0  0  0  0  0
   27.4403   69.5629   18.9409 H   0  0  0  0  0
   31.5052   67.6274   15.5771 H   0  0  0  0  0
   33.3573   66.7389   17.0065 H   0  0  0  0  0
   32.8746   65.8305   19.2794 H   0  0  0  0  0
   28.6637   66.7014   18.7216 H   0  0  0  0  0
   31.3429   65.0112   20.8104 H   0  0  0  0  0
   31.3043   67.2801   21.6933 H   0  0  0  0  0
   29.5500   67.3993   21.4116 H   0  0  0  0  0
   30.1809   66.2659   22.6317 H   0  0  0  0  0
   28.3494   65.1805   20.3349 H   0  0  0  0  0
   29.4237   63.8065   19.9758 H   0  0  0  0  0
   29.1274   64.2874   21.6646 H   0  0  0  0  0
  1  2  1  0  0  0
  1  5  1  0  0  0
  1 15  1  0  0  0
  2  3  1  0  0  0
  2  6  1  0  0  0
  2  9  1  0  0  0
  3  4  1  0  0  0
  4  5  1  0  0  0
  6  7  1  0  0  0
  7  8  1  0  0  0
  8  9  1  0  0  0
  8 11  1  0  0  0
  9 10  2  0  0  0
 11 12  1  0  0  0
 11 18  1  0  0  0
 12 13  1  0  0  0
 12 14  2  0  0  0
 13 19  1  0  0  0
 15 16  1  0  0  0
 16 17  1  0  0  0
 19 20  1  0  0  0
 19 24  1  0  0  0
 20 21  1  0  0  0
 20 31  1  0  0  0
 21 22  1  0  0  0
 22 23  1  0  0  0
 23 32  1  0  0  0
 24 25  1  0  0  0
 25 26  4  0  0  0
 25 30  4  0  0  0
 26 27  4  0  0  0
 27 28  4  0  0  0
 28 29  4  0  0  0
 29 30  4  0  0  0
 32 33  4  0  0  0
 32 37  4  0  0  0
 33 34  4  0  0  0
 34 35  4  0  0  0
 35 36  4  0  0  0
 36 37  4  0  0  0
 36 38  1  0  0  0
 38 39  1  0  0  0
 38 40  1  0  0  0
  1 41  1  0  0  0
  3 42  1  0  0  0
  3 43  1  0  0  0
  4 44  1  0  0  0
  4 45  1  0  0  0
  5 46  1  0  0  0
  5 47  1  0  0  0
  6 48  1  0  0  0
  6 49  1  0  0  0
  7 50  1  0  0  0
  7 51  1  0  0  0
 11 52  1  0  0  0
 13 53  1  0  0  0
 15 54  1  0  0  0
 15 55  1  0  0  0
 16 56  1  0  0  0
 16 57  1  0  0  0
 17 58  1  0  0  0
 17 59  1  0  0  0
 17 60  1  0  0  0
 18 61  1  0  0  0
 18 62  1  0  0  0
 18 63  1  0  0  0
 19 64  1  0  0  0
 20 65  1  0  0  0
 21 66  1  0  0  0
 21 67  1  0  0  0
 22 68  1  0  0  0
 22 69  1  0  0  0
 23 70  1  0  0  0
 23 71  1  0  0  0
 24 72  1  0  0  0
 24 73  1  0  0  0
 26 74  1  0  0  0
 27 75  1  0  0  0
 28 76  1  0  0  0
 29 77  1  0  0  0
 30 78  1  0  0  0
 31 79  1  0  0  0
 33 80  1  0  0  0
 34 81  1  0  0  0
 35 82  1  0  0  0
 37 83  1  0  0  0
 38 84  1  0  0  0
 39 85  1  0  0  0
 39 86  1  0  0  0
 39 87  1  0  0  0
 40 88  1  0  0  0
 40 89  1  0  0  0
 40 90  1  0  0  0
M  END
$$$$
