1x8b_ligand
  -I-interpret- 

 36 40  0  0  0  0  0  0  0  0999 V2000
    8.1890   55.6520   21.9340 O   0  0  0  0  0
    7.0210   55.2620   22.4050 C   0  0  0  0  0
    6.0450   54.8660   21.4330 C   0  0  0  0  0
    4.7660   54.3890   21.7500 C   0  0  0  0  0
    4.4030   54.3550   23.1030 C   0  0  0  0  0
    5.3970   54.7470   24.0960 C   0  0  0  0  0
    6.7120   55.1830   23.7850 C   0  0  0  0  0
    4.6770   54.5540   25.3490 C   0  0  0  0  0
    3.3430   54.0300   25.0930 C   0  0  0  0  0
    3.2710   53.9340   23.7350 N   0  0  0  0  0
    5.0330   54.7570   26.7210 C   0  0  0  0  0
    6.2490   55.1870   27.3920 C   0  0  0  0  0
    7.2990   55.6250   26.8410 O   0  0  0  0  0
    4.0930   54.4410   27.7600 C   0  0  0  0  0
    4.8590   54.7810   28.9710 C   0  0  0  0  0
    4.3970   54.6230   30.1430 O   0  0  0  0  0
    6.1320   55.1840   28.7310 N   0  0  0  0  0
    2.7320   53.9900   27.4820 C   0  0  0  0  0
    2.3990   53.7790   26.1090 C   0  0  0  0  0
    1.7480   53.6900   28.5320 C   0  0  0  0  0
    1.4460   54.6840   29.4920 C   0  0  0  0  0
    0.4900   54.4330   30.5090 C   0  0  0  0  0
   -0.2190   53.2380   30.4250 C   0  0  0  0  0
    0.0330   52.3000   29.4530 C   0  0  0  0  0
    1.0200   52.5030   28.4650 C   0  0  0  0  0
    6.3149   54.9406   20.3796 H   0  0  0  0  0
    4.0785   54.0565   20.9723 H   0  0  0  0  0
    6.8042   56.1943   24.1809 H   0  0  0  0  0
    7.3915   54.4456   24.2123 H   0  0  0  0  0
    6.8451   55.4309   29.4173 H   0  0  0  0  0
    1.4044   53.4201   25.8443 H   0  0  0  0  0
    1.9512   55.6489   29.4498 H   0  0  0  0  0
    0.3184   55.1425   31.3185 H   0  0  0  0  0
   -1.0022   53.0392   31.1566 H   0  0  0  0  0
   -0.5442   51.3754   29.4449 H   0  0  0  0  0
    1.2048   51.7649   27.6846 H   0  0  0  0  0
  1  2  2  0  0  0
  2  3  1  0  0  0
  2  7  1  0  0  0
  3  4  2  0  0  0
  4  5  1  0  0  0
  5  6  4  0  0  0
  5 10  4  0  0  0
  6  7  1  0  0  0
  6  8  4  0  0  0
  8  9  4  0  0  0
  8 11  4  0  0  0
  9 10  4  0  0  0
  9 19  4  0  0  0
 11 12  1  0  0  0
 11 14  4  0  0  0
 12 13  2  0  0  0
 12 17  1  0  0  0
 14 15  1  0  0  0
 14 18  4  0  0  0
 15 16  2  0  0  0
 15 17  1  0  0  0
 18 19  4  0  0  0
 18 20  1  0  0  0
 20 21  4  0  0  0
 20 25  4  0  0  0
 21 22  4  0  0  0
 22 23  4  0  0  0
 23 24  4  0  0  0
 24 25  4  0  0  0
  3 26  1  0  0  0
  4 27  1  0  0  0
  7 28  1  0  0  0
  7 29  1  0  0  0
 17 30  1  0  0  0
 19 31  1  0  0  0
 21 32  1  0  0  0
 22 33  1  0  0  0
 23 34  1  0  0  0
 24 35  1  0  0  0
 25 36  1  0  0  0
M  END
$$$$
