4ceb_ligand
  -I-interpret- 

 77 80  0  0  0  0  0  0  0  0999 V2000
   11.6370   35.1200   -5.3420 C   0  0  0  0  0
   12.7370   34.6770   -4.6440 C   0  0  0  0  0
   10.5880   35.7510   -4.6910 C   0  0  0  0  0
   12.8000   34.8700   -3.2780 C   0  0  0  0  0
    9.4990   33.0320    1.8830 C   0  0  0  0  0
    6.9170   36.3130    0.1180 C   0  0  0  0  0
    6.4260   34.4130   -1.2340 C   0  0  0  0  0
    9.4640   32.0560    2.8660 C   0  0  0  0  0
    6.6630   35.5620    1.2420 C   0  0  0  0  0
    6.1740   33.6440   -0.1080 C   0  0  0  0  0
   10.6580   35.9400   -3.3230 C   0  0  0  0  0
   10.7910   31.5820    0.4780 C   0  0  0  0  0
    6.8020   35.7410   -1.1270 C   0  0  0  0  0
   11.7640   35.4990   -2.6210 C   0  0  0  0  0
   10.1600   32.7990    0.6870 C   0  0  0  0  0
   10.1090   30.8600    2.6750 C   0  0  0  0  0
   10.7550   30.6110    1.4750 C   0  0  0  0  0
    6.2920   34.2380    1.1320 C   0  0  0  0  0
   12.3900   36.8150    2.1320 C   0  0  0  0  0
   11.7750   35.6630    1.8410 C   0  0  0  0  0
    9.5300   36.6200   -2.6540 C   0  0  0  0  0
   11.4810   31.2840   -0.8200 C   0  0  0  0  0
   12.2680   28.7290    6.4040 C   0  0  0  0  0
   11.2010   28.4200    2.2240 C   0  0  0  0  0
   11.1370   29.0170    3.6090 C   0  0  0  0  0
    5.6500   32.2160    2.1510 C   0  0  0  0  0
    7.0760   36.5700   -2.3490 C   0  0  0  0  0
   11.8870   35.6830   -1.1480 C   0  0  0  0  0
   10.1880   33.8990   -0.3290 C   0  0  0  0  0
   12.3490   34.5950    0.9630 C   0  0  0  0  0
   10.8560   28.3320    6.0070 C   0  0  0  0  0
   10.9340   27.8620    4.5730 C   0  0  0  0  0
    8.2930   36.1490   -3.0020 N   0  0  0  0  0
   11.6250   34.4420   -0.3490 N   0  3  0  0  0
   11.2640   30.1250   -1.2930 O   0  0  0  0  0
   12.3200   29.7960    7.0750 O   0  0  0  0  0
    9.7210   37.5290   -1.8590 O   0  0  0  0  0
   12.1170   32.1790   -1.4250 O   0  0  0  0  0
   13.2150   27.9690    6.0590 O   0  0  0  0  0
   11.4330   29.4200    1.2350 O   0  0  0  0  0
   10.0480   29.9320    3.7080 O   0  0  0  0  0
    6.0630   33.5730    2.3280 O   0  0  0  0  0
   11.5897   34.9729   -6.4210 H   0  0  0  0  0
   13.5531   34.1771   -5.1657 H   0  0  0  0  0
    9.7182   36.0941   -5.2511 H   0  0  0  0  0
   13.6696   34.5247   -2.7188 H   0  0  0  0  0
    9.0039   33.9884    2.0511 H   0  0  0  0  0
    7.2087   37.3588    0.2140 H   0  0  0  0  0
    6.3262   33.9634   -2.2219 H   0  0  0  0  0
    8.9223   32.2389    3.7940 H   0  0  0  0  0
    6.7557   36.0170    2.2281 H   0  0  0  0  0
    5.8896   32.5958   -0.2001 H   0  0  0  0  0
   13.3770   37.0251    1.7200 H   0  0  0  0  0
   11.9040   37.5434    2.7811 H   0  0  0  0  0
   10.7891   35.4904    2.2725 H   0  0  0  0  0
   10.2467   27.9382    2.0110 H   0  0  0  0  0
   12.0241   27.7061    2.1932 H   0  0  0  0  0
   12.0504   29.5666    3.8366 H   0  0  0  0  0
    4.7228   32.1915    1.5785 H   0  0  0  0  0
    6.4247   31.6689    1.6138 H   0  0  0  0  0
    5.4887   31.7565    3.1262 H   0  0  0  0  0
    7.1854   37.6113   -2.0462 H   0  0  0  0  0
    6.2467   36.4481   -3.0458 H   0  0  0  0  0
   11.1394   36.4192   -0.8526 H   0  0  0  0  0
   12.9151   35.9838   -0.9465 H   0  0  0  0  0
    9.4784   34.6852   -0.0710 H   0  0  0  0  0
    9.8984   33.5281   -1.3122 H   0  0  0  0  0
   12.2613   33.6492    1.4977 H   0  0  0  0  0
   13.3785   34.8739    0.7384 H   0  0  0  0  0
   10.1699   29.1731    6.1068 H   0  0  0  0  0
   10.4730   27.5452    6.6568 H   0  0  0  0  0
   11.7842   27.1862    4.4806 H   0  0  0  0  0
    9.9943   27.3694    4.3232 H   0  0  0  0  0
    8.2277   35.4681   -3.7587 H   0  0  0  0  0
   12.0160   33.6375   -0.8393 H   0  0  0  0  0
   10.7599   29.6108   -0.6582 H   0  0  0  0  0
   12.8645   27.2322    5.5532 H   0  0  0  0  0
  2  1  4  0  0  0
  3  1  4  0  0  0
  4  2  4  0  0  0
 11  3  4  0  0  0
 14  4  4  0  0  0
  8  5  4  0  0  0
  5 15  4  0  0  0
  6  9  4  0  0  0
 13  6  4  0  0  0
  7 10  4  0  0  0
 13  7  4  0  0  0
 16  8  4  0  0  0
  9 18  4  0  0  0
 10 18  4  0  0  0
 14 11  4  0  0  0
 11 21  1  0  0  0
 12 15  4  0  0  0
 17 12  4  0  0  0
 12 22  1  0  0  0
 27 13  1  0  0  0
 28 14  1  0  0  0
 15 29  1  0  0  0
 16 17  4  0  0  0
 41 16  1  0  0  0
 40 17  1  0  0  0
 18 42  1  0  0  0
 20 19  2  0  0  0
 30 20  1  0  0  0
 21 33  1  0  0  0
 21 37  2  0  0  0
 22 35  1  0  0  0
 22 38  2  0  0  0
 31 23  1  0  0  0
 23 36  2  0  0  0
 23 39  1  0  0  0
 25 24  1  0  0  0
 24 40  1  0  0  0
 32 25  1  0  0  0
 25 41  1  0  0  0
 42 26  1  0  0  0
 33 27  1  0  0  0
 34 28  1  0  0  0
 29 34  1  0  0  0
 34 30  1  0  0  0
 31 32  1  0  0  0
  1 43  1  0  0  0
  2 44  1  0  0  0
  3 45  1  0  0  0
  4 46  1  0  0  0
  5 47  1  0  0  0
  6 48  1  0  0  0
  7 49  1  0  0  0
  8 50  1  0  0  0
  9 51  1  0  0  0
 10 52  1  0  0  0
 19 53  1  0  0  0
 19 54  1  0  0  0
 20 55  1  0  0  0
 24 56  1  0  0  0
 24 57  1  0  0  0
 25 58  1  0  0  0
 26 59  1  0  0  0
 26 60  1  0  0  0
 26 61  1  0  0  0
 27 62  1  0  0  0
 27 63  1  0  0  0
 28 64  1  0  0  0
 28 65  1  0  0  0
 29 66  1  0  0  0
 29 67  1  0  0  0
 30 68  1  0  0  0
 30 69  1  0  0  0
 31 70  1  0  0  0
 31 71  1  0  0  0
 32 72  1  0  0  0
 32 73  1  0  0  0
 33 74  1  0  0  0
 34 75  1  0  0  0
 35 76  1  0  0  0
 39 77  1  0  0  0
M  END
$$$$
