1u2r_ligand
  -I-interpret- 

 43 45  0  0  0  0  0  0  0  0999 V2000
   82.8180   37.0140  -20.2950 P   0  0  0  0  0
   83.0530   36.1750  -19.0930 O   0  0  0  0  0
   82.8860   38.5080  -20.0250 O   0  0  0  0  0
   81.5170   36.6460  -21.0310 O   0  0  0  0  0
   84.0510   36.6720  -21.3610 O   0  0  0  0  0
   84.3080   37.1770  -22.8260 P   0  0  0  0  0
   83.8740   38.5780  -23.0160 O   0  0  0  0  0
   83.7340   36.2030  -23.8330 O   0  0  0  0  0
   85.8930   37.0670  -22.9320 O   0  0  0  0  0
   86.7410   37.8680  -22.0990 C   0  0  0  0  0
   88.1100   37.9150  -22.7270 C   0  0  0  0  0
   88.6200   36.5410  -22.7760 O   0  0  0  0  0
   88.1260   38.4760  -24.1690 C   0  0  0  0  0
   89.3740   39.2590  -24.2500 O   0  0  0  0  0
   88.1850   37.2270  -25.0300 C   0  0  0  0  0
   88.7240   37.4710  -26.3000 O   0  0  0  0  0
   88.9370   36.2330  -24.1140 C   0  0  0  0  0
   88.5240   34.7340  -24.4210 N   0  0  0  0  0
   87.2490   34.2290  -24.5210 C   0  0  0  0  0
   87.2870   32.9140  -24.7970 N   0  0  0  0  0
   88.6440   32.5900  -24.8690 C   0  0  0  0  0
   89.3000   31.3480  -25.1430 C   0  0  0  0  0
   88.7510   30.2590  -25.3690 O   0  0  0  0  0
   90.7130   31.4420  -25.1310 N   0  0  0  0  0
   91.3960   32.6290  -24.8850 C   0  0  0  0  0
   92.7410   32.6010  -24.9010 N   0  0  0  0  0
   90.7750   33.7960  -24.6290 N   0  0  0  0  0
   89.4130   33.7040  -24.6460 C   0  0  0  0  0
   82.7256   38.9872  -20.8412 H   0  0  0  0  0
   81.4121   37.2150  -21.7971 H   0  0  0  0  0
   84.0604   35.3201  -23.6445 H   0  0  0  0  0
   86.8017   37.4355  -21.1003 H   0  0  0  0  0
   86.3349   38.8756  -22.0100 H   0  0  0  0  0
   88.7189   38.5850  -22.1201 H   0  0  0  0  0
   87.2866   39.1045  -24.4665 H   0  0  0  0  0
   89.4537   39.6422  -25.1266 H   0  0  0  0  0
   87.2192   36.8158  -25.3235 H   0  0  0  0  0
   88.7392   36.6531  -26.8025 H   0  0  0  0  0
   90.0079   36.3263  -24.2943 H   0  0  0  0  0
   86.3369   34.8122  -24.3944 H   0  0  0  0  0
   91.2567   30.5981  -25.3116 H   0  0  0  0  0
   93.2710   33.4537  -24.7212 H   0  0  0  0  0
   93.2307   31.7270  -25.0929 H   0  0  0  0  0
  1  2  2  0  0  0
  1  3  1  0  0  0
  1  4  1  0  0  0
  1  5  1  0  0  0
  5  6  1  0  0  0
  6  7  2  0  0  0
  6  8  1  0  0  0
  6  9  1  0  0  0
  9 10  1  0  0  0
 10 11  1  0  0  0
 11 12  1  0  0  0
 11 13  1  0  0  0
 12 17  1  0  0  0
 13 14  1  0  0  0
 13 15  1  0  0  0
 15 16  1  0  0  0
 15 17  1  0  0  0
 17 18  1  0  0  0
 18 19  4  0  0  0
 18 28  4  0  0  0
 19 20  4  0  0  0
 20 21  4  0  0  0
 21 22  1  0  0  0
 21 28  4  0  0  0
 22 23  2  0  0  0
 22 24  1  0  0  0
 24 25  1  0  0  0
 25 26  1  0  0  0
 25 27  2  0  0  0
 27 28  1  0  0  0
  3 29  1  0  0  0
  4 30  1  0  0  0
  8 31  1  0  0  0
 10 32  1  0  0  0
 10 33  1  0  0  0
 11 34  1  0  0  0
 13 35  1  0  0  0
 14 36  1  0  0  0
 15 37  1  0  0  0
 16 38  1  0  0  0
 17 39  1  0  0  0
 19 40  1  0  0  0
 24 41  1  0  0  0
 26 42  1  0  0  0
 26 43  1  0  0  0
M  END
$$$$
