### 
### Created by X-TOOL on Mon Sep 10 21:12:52 2018
### 

@<TRIPOS>MOLECULE
1u2r_ligand
   40    42     1     0     0
SMALL
GAST_HUCK


@<TRIPOS>ATOM
      1 PB         82.8180   37.0140  -20.2950 P.3       1 GDP         0.2069
      2 O1B        83.0530   36.1750  -19.0930 O.co2     1 GDP        -0.5891
      3 O2B        82.8860   38.5080  -20.0250 O.co2     1 GDP        -0.5891
      4 O3B        81.5170   36.6460  -21.0310 O.co2     1 GDP        -0.5891
      5 O3A        84.0510   36.6720  -21.3610 O.3       1 GDP        -0.1548
      6 PA         84.3080   37.1770  -22.8260 P.3       1 GDP         0.3276
      7 O1A        83.8740   38.5780  -23.0160 O.co2     1 GDP        -0.5556
      8 O2A        83.7340   36.2030  -23.8330 O.co2     1 GDP        -0.5556
      9 O5         85.8930   37.0670  -22.9320 O.3       1 GDP        -0.2436
     10 C5         86.7410   37.8680  -22.0990 C.3       1 GDP         0.1132
     11 C4         88.1100   37.9150  -22.7270 C.3       1 GDP         0.1189
     12 O4         88.6200   36.5410  -22.7760 O.3       1 GDP        -0.3363
     13 C3         88.1260   38.4760  -24.1690 C.3       1 GDP         0.1150
     14 O3         89.3740   39.2590  -24.2500 O.3       1 GDP        -0.3864
     15 C2         88.1850   37.2270  -25.0300 C.3       1 GDP         0.1387
     16 O2         88.7240   37.4710  -26.3000 O.3       1 GDP        -0.3836
     17 C1         88.9370   36.2330  -24.1140 C.3       1 GDP         0.1992
     18 N9         88.5240   34.7340  -24.4210 N.pl3     1 GDP        -0.2101
     19 C8         87.2490   34.2290  -24.5210 C.2       1 GDP         0.0957
     20 N7         87.2870   32.9140  -24.7970 N.2       1 GDP        -0.3235
     21 C5         88.6440   32.5900  -24.8690 C.2       1 GDP         0.0926
     22 C6         89.3000   31.3480  -25.1430 C.2       1 GDP         0.2135
     23 O6         88.7510   30.2590  -25.3690 O.2       1 GDP        -0.4091
     24 N1         90.7130   31.4420  -25.1310 N.am      1 GDP        -0.1839
     25 C2         91.3960   32.6290  -24.8850 C.2       1 GDP         0.2340
     26 N2         92.7410   32.6010  -24.9010 N.pl3     1 GDP        -0.2807
     27 N3         90.7750   33.7960  -24.6290 N.2       1 GDP        -0.2765
     28 C4         89.4130   33.7040  -24.6460 C.2       1 GDP         0.1159
     29 H1         86.8067   37.4215  -21.0959 H         1 GDP         0.0648
     30 H2         86.3320   38.8862  -22.0211 H         1 GDP         0.0648
     31 H3         88.7650   38.5376  -22.0998 H         1 GDP         0.0651
     32 H4         87.2466   39.0931  -24.4054 H         1 GDP         0.0648
     33 H5         89.4529   39.6382  -25.1175 H         1 GDP         0.2100
     34 H6         87.1658   36.8465  -25.1925 H         1 GDP         0.0676
     35 H7         89.6089   37.8042  -26.2085 H         1 GDP         0.2101
     36 H8         90.0199   36.3445  -24.2718 H         1 GDP         0.0998
     37 H9         86.3377   34.8117  -24.3945 H         1 GDP         0.1179
     38 H10        91.2461   30.6146  -25.3080 H         1 GDP         0.2515
     39 H11        93.2762   33.4628  -24.7227 H         1 GDP         0.1897
     40 H12        93.2355   31.7178  -25.0916 H         1 GDP         0.1897
@<TRIPOS>BOND
     1    1    2 ar 
     2    1    3 ar 
     3    1    4 ar 
     4    1    5 1  
     5    5    6 1  
     6    6    7 ar 
     7    6    8 ar 
     8    6    9 1  
     9    9   10 1  
    10   10   11 1  
    11   11   12 1  
    12   11   13 1  
    13   12   17 1  
    14   13   14 1  
    15   13   15 1  
    16   15   16 1  
    17   15   17 1  
    18   17   18 1  
    19   18   19 1  
    20   18   28 1  
    21   19   20 2  
    22   20   21 1  
    23   21   22 1  
    24   21   28 2  
    25   22   23 2  
    26   22   24 am 
    27   24   25 am 
    28   25   26 1  
    29   25   27 2  
    30   27   28 1  
    31   10   29 1  
    32   10   30 1  
    33   11   31 1  
    34   13   32 1  
    35   14   33 1  
    36   15   34 1  
    37   16   35 1  
    38   17   36 1  
    39   19   37 1  
    40   24   38 1  
    41   26   39 1  
    42   26   40 1  
@<TRIPOS>SUBSTRUCTURE
     1 GDP         1

