2fb8_ligand
  -I-interpret- 

 61 65  0  0  0  0  0  0  0  0999 V2000
  -40.2150   28.1860   -1.2220 C   0  0  0  0  0
  -40.0400   30.3740   -1.0660 C   0  0  0  0  0
  -40.3950   31.8590   -1.0180 C   0  0  0  0  0
  -41.7370   32.3100   -0.9810 C   0  0  0  0  0
  -41.1560   37.0120    0.2430 C   0  0  0  0  0
  -41.9050   22.3800   -0.0430 C   0  0  0  0  0
  -42.5880   22.9610   -1.2680 C   0  0  0  0  0
  -44.0520   22.6690   -3.0790 O   0  0  0  0  0
  -43.4000   22.2460   -1.9310 N   0  0  0  0  0
  -40.9450   23.4730    0.4440 C   0  0  0  0  0
  -41.1920   24.6410   -0.5050 C   0  0  0  0  0
  -40.5810   25.8900   -0.4460 C   0  0  0  0  0
  -42.1260   24.3710   -1.4790 C   0  0  0  0  0
  -42.4830   25.3530   -2.4220 C   0  0  0  0  0
  -41.8510   26.6170   -2.3630 C   0  0  0  0  0
  -40.8810   26.8680   -1.3890 C   0  0  0  0  0
  -38.8780   28.4470   -0.9090 C   0  0  0  0  0
  -37.7210   27.4730   -0.6630 C   0  0  0  0  0
  -37.7670   26.1150   -1.0170 C   0  0  0  0  0
  -36.7040   25.2790   -0.7270 C   0  0  0  0  0
  -35.6290   25.7380   -0.0900 N   0  0  0  0  0
  -35.5430   27.0090    0.2830 C   0  0  0  0  0
  -36.5820   27.8980    0.0210 C   0  0  0  0  0
  -40.8830   29.3550   -1.3000 N   0  0  0  0  0
  -38.8260   29.7950   -0.8210 N   0  0  0  0  0
  -42.0980   33.6850   -0.9090 C   0  0  0  0  0
  -41.0950   34.6630   -0.8070 C   0  0  0  0  0
  -39.7560   34.1980   -0.8300 C   0  0  0  0  0
  -39.4040   32.8330   -0.9160 C   0  0  0  0  0
  -41.3980   36.0270   -0.7640 O   0  0  0  0  0
  -42.3800   37.9000    0.0650 C   0  0  0  0  0
  -43.6490   37.3560    0.6590 N   0  3  0  0  0
  -44.5760   36.5610   -0.2100 C   0  0  0  0  0
  -43.3550   36.6260    1.9160 C   0  0  0  0  0
  -42.5337   31.5666   -1.0091 H   0  0  0  0  0
  -40.2064   37.5359    0.1339 H   0  0  0  0  0
  -41.0448   36.6036    1.2474 H   0  0  0  0  0
  -41.3748   21.4576   -0.2797 H   0  0  0  0  0
  -42.6269   22.1087    0.7273 H   0  0  0  0  0
  -44.6132   21.9620   -3.4058 H   0  0  0  0  0
  -39.9060   23.1437    0.4280 H   0  0  0  0  0
  -41.1253   23.7441    1.4842 H   0  0  0  0  0
  -39.8620   26.1036    0.3449 H   0  0  0  0  0
  -43.2333   25.1431   -3.1843 H   0  0  0  0  0
  -42.1205   27.3951   -3.0771 H   0  0  0  0  0
  -38.6462   25.7170   -1.5237 H   0  0  0  0  0
  -36.7470   24.2311   -1.0238 H   0  0  0  0  0
  -34.6498   27.3603    0.7997 H   0  0  0  0  0
  -36.5048   28.9334    0.3527 H   0  0  0  0  0
  -43.1477   33.9776   -0.9329 H   0  0  0  0  0
  -38.9541   34.9344   -0.7785 H   0  0  0  0  0
  -38.3540   32.5407   -0.9025 H   0  0  0  0  0
  -42.5486   37.9932   -1.0078 H   0  0  0  0  0
  -42.1673   38.8370    0.5796 H   0  0  0  0  0
  -44.1928   38.2033    0.8224 H   0  0  0  0  0
  -44.9070   37.1777   -1.0456 H   0  0  0  0  0
  -44.0529   35.6832   -0.5895 H   0  0  0  0  0
  -45.4398   36.2459    0.3753 H   0  0  0  0  0
  -42.6766   35.7995    1.7045 H   0  0  0  0  0
  -42.8896   37.3062    2.6293 H   0  0  0  0  0
  -44.2834   36.2377    2.3348 H   0  0  0  0  0
  1 16  1  0  0  0
 17  1  4  0  0  0
 24  1  4  0  0  0
  3  2  1  0  0  0
  2 24  4  0  0  0
  2 25  4  0  0  0
  4  3  4  0  0  0
  3 29  4  0  0  0
 26  4  4  0  0  0
 30  5  1  0  0  0
  5 31  1  0  0  0
  7  6  1  0  0  0
 10  6  1  0  0  0
  7  9  2  0  0  0
 13  7  1  0  0  0
  9  8  1  0  0  0
 11 10  1  0  0  0
 12 11  4  0  0  0
 11 13  4  0  0  0
 16 12  4  0  0  0
 14 13  4  0  0  0
 15 14  4  0  0  0
 16 15  4  0  0  0
 17 18  1  0  0  0
 25 17  4  0  0  0
 18 19  4  0  0  0
 18 23  4  0  0  0
 19 20  4  0  0  0
 20 21  4  0  0  0
 22 21  4  0  0  0
 23 22  4  0  0  0
 27 26  4  0  0  0
 27 28  4  0  0  0
 27 30  1  0  0  0
 28 29  4  0  0  0
 31 32  1  0  0  0
 32 33  1  0  0  0
 32 34  1  0  0  0
  4 35  1  0  0  0
  5 36  1  0  0  0
  5 37  1  0  0  0
  6 38  1  0  0  0
  6 39  1  0  0  0
  8 40  1  0  0  0
 10 41  1  0  0  0
 10 42  1  0  0  0
 12 43  1  0  0  0
 14 44  1  0  0  0
 15 45  1  0  0  0
 19 46  1  0  0  0
 20 47  1  0  0  0
 22 48  1  0  0  0
 23 49  1  0  0  0
 26 50  1  0  0  0
 28 51  1  0  0  0
 29 52  1  0  0  0
 31 53  1  0  0  0
 31 54  1  0  0  0
 32 55  1  0  0  0
 33 56  1  0  0  0
 33 57  1  0  0  0
 33 58  1  0  0  0
 34 59  1  0  0  0
 34 60  1  0  0  0
 34 61  1  0  0  0
M  END
$$$$
