5qa9_ligand
  -I-interpret- 

 29 30  0  0  0  0  0  0  0  0999 V2000
   96.4050  253.2150    5.9170 C   0  0  0  0  0
   95.7220  253.6700    4.9690 O   0  0  0  0  0
   95.9540  251.9240    6.5530 C   0  0  0  0  0
   94.7280  246.1980    4.8300 C   0  0  0  0  0
   93.5190  245.3120    4.6860 C   0  0  0  0  0
   94.6220  247.4400    5.4450 C   0  0  0  0  0
   96.0090  250.7340    5.8330 C   0  0  0  0  0
   95.4910  251.9080    7.8630 C   0  0  0  0  0
   95.0890  250.7210    8.4430 C   0  0  0  0  0
   95.1490  249.5410    7.7240 C   0  0  0  0  0
   95.6160  249.5260    6.4100 C   0  0  0  0  0
   95.7370  248.2510    5.6580 C   0  0  0  0  0
   96.9740  247.8010    5.2050 C   0  0  0  0  0
   97.0890  246.5740    4.5770 C   0  0  0  0  0
   95.9730  245.7780    4.3950 C   0  0  0  0  0
   93.2890  244.5200    5.8420 O   0  0  0  0  0
   97.4400  253.7570    6.3740 O   0  0  0  0  0
   93.6909  244.6402    3.8451 H   0  0  0  0  0
   92.6485  245.9504    4.5354 H   0  0  0  0  0
   93.6419  247.7895    5.7694 H   0  0  0  0  0
   96.3645  250.7461    4.8027 H   0  0  0  0  0
   95.4450  252.8350    8.4345 H   0  0  0  0  0
   94.7235  250.7140    9.4699 H   0  0  0  0  0
   94.8269  248.6101    8.1907 H   0  0  0  0  0
   97.8594  248.4208    5.3464 H   0  0  0  0  0
   98.0625  246.2334    4.2244 H   0  0  0  0  0
   96.0748  244.8102    3.9041 H   0  0  0  0  0
   92.5116  243.9738    5.7048 H   0  0  0  0  0
   97.7868  253.2255    7.0943 H   0  0  0  0  0
  1  2  2  0  0  0
  3  1  1  0  0  0
  1 17  1  0  0  0
  7  3  4  0  0  0
  3  8  4  0  0  0
  4  5  1  0  0  0
  6  4  4  0  0  0
  4 15  4  0  0  0
  5 16  1  0  0  0
 12  6  4  0  0  0
 11  7  4  0  0  0
  9  8  4  0  0  0
 10  9  4  0  0  0
 11 10  4  0  0  0
 11 12  1  0  0  0
 12 13  4  0  0  0
 13 14  4  0  0  0
 14 15  4  0  0  0
  5 18  1  0  0  0
  5 19  1  0  0  0
  6 20  1  0  0  0
  7 21  1  0  0  0
  8 22  1  0  0  0
  9 23  1  0  0  0
 10 24  1  0  0  0
 13 25  1  0  0  0
 14 26  1  0  0  0
 15 27  1  0  0  0
 16 28  1  0  0  0
 17 29  1  0  0  0
M  END
$$$$
