6hni_ligand
  -I-interpret- 

 25 25  0  0  0  0  0  0  0  0999 V2000
   13.4250   -6.5310   59.8300 N   0  3  0  0  0
   14.6260   -6.7160   58.9960 C   0  0  0  0  0
   14.8860   -5.4520   58.1920 C   0  0  0  0  0
   15.7530   -5.4830   57.3270 O   0  0  0  0  0
   14.5940   -8.0260   58.1830 C   0  0  0  0  0
   14.6260   -9.2430   59.0470 C   0  0  0  0  0
   15.7990   -9.5390   59.8020 C   0  0  0  0  0
   13.5630  -10.0770   59.2230 C   0  0  0  0  0
   15.8140  -10.6060   60.6620 C   0  0  0  0  0
   13.5640  -11.1550   60.0810 C   0  0  0  0  0
   14.7310  -11.4250   60.8340 C   0  0  0  0  0
   14.7500  -12.4950   61.7070 O   0  0  0  0  0
   14.3140   -4.4200   58.4760 O   0  0  0  0  0
   13.5007   -5.6526   60.3428 H   0  0  0  0  0
   12.5983   -6.5074   59.2330 H   0  0  0  0  0
   13.3478   -7.3054   60.4893 H   0  0  0  0  0
   15.4959   -6.8565   59.6375 H   0  0  0  0  0
   16.0880   -6.3787   57.2432 H   0  0  0  0  0
   15.4780   -8.0454   57.5457 H   0  0  0  0  0
   13.6640   -8.0440   57.6148 H   0  0  0  0  0
   16.6862   -8.9149   59.6948 H   0  0  0  0  0
   12.6569   -9.8794   58.6503 H   0  0  0  0  0
   16.7218  -10.8098   61.2299 H   0  0  0  0  0
   12.6820  -11.7881   60.1779 H   0  0  0  0  0
   13.9003  -12.9411   61.6832 H   0  0  0  0  0
  1  2  1  0  0  0
  2  3  1  0  0  0
  2  5  1  0  0  0
  3  4  1  0  0  0
  3 13  2  0  0  0
  5  6  1  0  0  0
  6  7  4  0  0  0
  6  8  4  0  0  0
  7  9  4  0  0  0
  8 10  4  0  0  0
  9 11  4  0  0  0
 10 11  4  0  0  0
 11 12  1  0  0  0
  1 14  1  0  0  0
  1 15  1  0  0  0
  1 16  1  0  0  0
  2 17  1  0  0  0
  4 18  1  0  0  0
  5 19  1  0  0  0
  5 20  1  0  0  0
  7 21  1  0  0  0
  8 22  1  0  0  0
  9 23  1  0  0  0
 10 24  1  0  0  0
 12 25  1  0  0  0
M  END
$$$$
