6aud_ligand
  -I-interpret- 

 69 73  0  0  0  0  0  0  0  0999 V2000
   23.1310   -7.3370   19.1260 C   0  0  0  0  0
   22.8020   -6.3310   18.3630 N   0  0  0  0  0
   19.6810   -7.2000   20.0760 C   0  0  0  0  0
   20.6750   -5.0190   17.8920 C   0  0  0  0  0
   19.4140   -8.2110   20.9380 C   0  0  0  0  0
   21.5860   -4.3760   16.8450 C   0  0  0  0  0
   17.5710   -7.0350   20.6210 C   0  0  0  0  0
   16.1710   -6.5100   20.6760 C   0  0  0  0  0
   15.9160   -5.2250   20.2060 C   0  0  0  0  0
   14.6370   -4.6960   20.2300 C   0  0  0  0  0
   13.5900   -5.4480   20.7270 C   0  0  0  0  0
   13.8110   -6.7250   21.1950 C   0  0  0  0  0
   15.0810   -7.2660   21.1670 C   0  0  0  0  0
   16.1480   -8.6220   22.7510 C   0  0  0  0  0
   17.4920   -9.0820   22.2210 C   0  0  0  0  0
   13.0700   -3.2580   18.3510 C   0  0  0  0  0
   11.6690   -3.2600   18.9640 C   0  0  0  0  0
   10.6600   -3.5450   17.8500 C   0  0  0  0  0
   12.0740   -2.3390   16.2590 C   0  0  0  0  0
   20.2640   -3.9390   18.8930 C   0  0  0  0  0
   13.1100   -2.0910   17.3610 C   0  0  0  0  0
    9.6970   -2.6930   15.7550 C   0  0  0  0  0
   10.2860   -3.4190   14.5400 C   0  0  0  0  0
    8.5090   -3.5150   16.2680 C   0  0  0  0  0
    9.1780   -1.3220   15.3160 C   0  0  0  0  0
   21.0190   -6.9880   19.4820 C   0  0  0  0  0
   18.1140   -8.1340   21.2960 N   0  0  0  0  0
   18.5350   -6.5070   19.9100 N   0  0  0  0  0
   10.7170   -2.5030   16.8120 N   0  3  0  0  0
   21.4370   -6.0730   18.5680 N   0  0  0  0  0
   22.0600   -7.7320   19.8000 N   0  0  0  0  0
   15.2880   -8.5050   21.6340 O   0  0  0  0  0
   15.5810   -2.7150   19.0380 O   0  0  0  0  0
   14.3400   -3.0580   19.6380 S   0  0  0  0  0
   24.1242   -7.7802   19.1975 H   0  0  0  0  0
   19.7825   -5.4488   17.4372 H   0  0  0  0  0
   20.1273   -8.9592   21.2837 H   0  0  0  0  0
   21.0456   -3.5779   16.3360 H   0  0  0  0  0
   22.4675   -3.9638   17.3362 H   0  0  0  0  0
   21.8919   -5.1297   16.1194 H   0  0  0  0  0
   16.7368   -4.6254   19.8126 H   0  0  0  0  0
   12.5840   -5.0290   20.7490 H   0  0  0  0  0
   12.9801   -7.3103   21.5888 H   0  0  0  0  0
   16.2415   -7.6683   23.2704 H   0  0  0  0  0
   15.7510   -9.3352   23.4734 H   0  0  0  0  0
   17.3269  -10.0106   21.6746 H   0  0  0  0  0
   18.1600   -9.1903   23.0755 H   0  0  0  0  0
   13.2783   -4.2033   17.8499 H   0  0  0  0  0
   11.4589   -2.2932   19.4215 H   0  0  0  0  0
   11.5995   -4.0251   19.7372 H   0  0  0  0  0
    9.6581   -3.5585   18.2790 H   0  0  0  0  0
   10.9008   -4.5062   17.3959 H   0  0  0  0  0
   12.3438   -3.2556   15.7344 H   0  0  0  0  0
   12.0706   -1.4776   15.5911 H   0  0  0  0  0
   19.6447   -4.3840   19.6718 H   0  0  0  0  0
   21.1564   -3.5027   19.3417 H   0  0  0  0  0
   19.6989   -3.1630   18.3767 H   0  0  0  0  0
   14.1045   -2.0147   16.9214 H   0  0  0  0  0
   12.8808   -1.1600   17.8794 H   0  0  0  0  0
   10.6166   -4.4140   14.8380 H   0  0  0  0  0
    9.5242   -3.5048   13.7651 H   0  0  0  0  0
   11.1345   -2.8526   14.1561 H   0  0  0  0  0
    7.7605   -3.6000   15.4802 H   0  0  0  0  0
    8.8529   -4.5093   16.5531 H   0  0  0  0  0
    8.0720   -3.0181   17.1341 H   0  0  0  0  0
   10.0009   -0.7386   14.9029 H   0  0  0  0  0
    8.4068   -1.4529   14.5569 H   0  0  0  0  0
    8.7579   -0.8013   16.1766 H   0  0  0  0  0
   10.4834   -1.6253   17.2762 H   0  0  0  0  0
  2  1  4  0  0  0
  1 31  4  0  0  0
 30  2  4  0  0  0
  3  5  4  0  0  0
 26  3  1  0  0  0
  3 28  4  0  0  0
  4  6  1  0  0  0
  4 20  1  0  0  0
 30  4  1  0  0  0
  5 27  4  0  0  0
  7  8  1  0  0  0
  7 27  4  0  0  0
 28  7  4  0  0  0
  8  9  4  0  0  0
  8 13  4  0  0  0
  9 10  4  0  0  0
 10 11  4  0  0  0
 10 34  1  0  0  0
 12 11  4  0  0  0
 13 12  4  0  0  0
 13 32  1  0  0  0
 15 14  1  0  0  0
 14 32  1  0  0  0
 27 15  1  0  0  0
 16 17  1  0  0  0
 16 21  1  0  0  0
 34 16  1  0  0  0
 17 18  1  0  0  0
 18 29  1  0  0  0
 21 19  1  0  0  0
 19 29  1  0  0  0
 22 23  1  0  0  0
 22 24  1  0  0  0
 22 25  1  0  0  0
 29 22  1  0  0  0
 26 30  4  0  0  0
 26 31  4  0  0  0
 34 33  2  0  0  0
  1 35  1  0  0  0
  4 36  1  0  0  0
  5 37  1  0  0  0
  6 38  1  0  0  0
  6 39  1  0  0  0
  6 40  1  0  0  0
  9 41  1  0  0  0
 11 42  1  0  0  0
 12 43  1  0  0  0
 14 44  1  0  0  0
 14 45  1  0  0  0
 15 46  1  0  0  0
 15 47  1  0  0  0
 16 48  1  0  0  0
 17 49  1  0  0  0
 17 50  1  0  0  0
 18 51  1  0  0  0
 18 52  1  0  0  0
 19 53  1  0  0  0
 19 54  1  0  0  0
 20 55  1  0  0  0
 20 56  1  0  0  0
 20 57  1  0  0  0
 21 58  1  0  0  0
 21 59  1  0  0  0
 23 60  1  0  0  0
 23 61  1  0  0  0
 23 62  1  0  0  0
 24 63  1  0  0  0
 24 64  1  0  0  0
 24 65  1  0  0  0
 25 66  1  0  0  0
 25 67  1  0  0  0
 25 68  1  0  0  0
 29 69  1  0  0  0
M  END
$$$$
