3upz_ligand
  -I-interpret- 

 34 36  0  0  0  0  0  0  0  0999 V2000
   19.4200   18.1250   61.6180 C   0  0  0  0  0
   19.9060   18.5010   60.2190 C   0  0  0  0  0
   18.7500   18.8960   59.4000 N   0  3  0  0  0
   17.8540   17.7400   59.2140 C   0  0  0  0  0
   17.2790   17.3160   60.5660 C   0  0  0  0  0
   18.3940   16.9820   61.5700 C   0  0  0  0  0
   17.8050   16.7850   62.9750 C   0  0  0  0  0
   16.8090   15.7000   63.0420 N   0  0  0  0  0
   15.5820   15.8690   63.0580 N   0  0  0  0  0
   14.9610   14.6840   63.1280 C   0  0  0  0  0
   15.9030   13.7450   63.1640 C   0  0  0  0  0
   17.1160   14.4110   63.1100 C   0  0  0  0  0
   18.2660   13.7200   63.1260 N   0  0  0  0  0
   18.2380   12.3950   63.1950 C   0  0  0  0  0
   17.0930   11.7190   63.2480 N   0  0  0  0  0
   15.9070   12.3580   63.2330 C   0  0  0  0  0
   14.7660   11.6730   63.2870 N   0  0  0  0  0
   18.9435   18.9980   62.0640 H   0  0  0  0  0
   20.2776   17.7945   62.2040 H   0  0  0  0  0
   20.4055   17.6469   59.7617 H   0  0  0  0  0
   20.6099   19.3306   60.2853 H   0  0  0  0  0
   19.0759   19.2209   58.4897 H   0  0  0  0  0
   18.2422   19.6448   59.8710 H   0  0  0  0  0
   18.4157   16.9114   58.7827 H   0  0  0  0  0
   17.0398   18.0162   58.5440 H   0  0  0  0  0
   16.6681   16.4254   60.4183 H   0  0  0  0  0
   16.6894   18.1412   60.9654 H   0  0  0  0  0
   18.8812   16.0621   61.2467 H   0  0  0  0  0
   17.3030   17.7112   63.2550 H   0  0  0  0  0
   18.6254   16.5212   63.6425 H   0  0  0  0  0
   13.8837   14.5196   63.1512 H   0  0  0  0  0
   19.1790   11.8451   63.2086 H   0  0  0  0  0
   13.8737   12.1670   63.2780 H   0  0  0  0  0
   14.7846   10.6544   63.3374 H   0  0  0  0  0
  1  2  1  0  0  0
  1  6  1  0  0  0
  2  3  1  0  0  0
  3  4  1  0  0  0
  4  5  1  0  0  0
  5  6  1  0  0  0
  6  7  1  0  0  0
  7  8  1  0  0  0
  8  9  4  0  0  0
  8 12  4  0  0  0
  9 10  4  0  0  0
 10 11  4  0  0  0
 11 12  4  0  0  0
 11 16  4  0  0  0
 12 13  4  0  0  0
 13 14  4  0  0  0
 14 15  4  0  0  0
 15 16  4  0  0  0
 16 17  1  0  0  0
  1 18  1  0  0  0
  1 19  1  0  0  0
  2 20  1  0  0  0
  2 21  1  0  0  0
  3 22  1  0  0  0
  3 23  1  0  0  0
  4 24  1  0  0  0
  4 25  1  0  0  0
  5 26  1  0  0  0
  5 27  1  0  0  0
  6 28  1  0  0  0
  7 29  1  0  0  0
  7 30  1  0  0  0
 10 31  1  0  0  0
 14 32  1  0  0  0
 17 33  1  0  0  0
 17 34  1  0  0  0
M  END
$$$$
