3cvk_ligand
  -I-interpret- 

 64 67  0  0  0  0  0  0  0  0999 V2000
   96.4350    9.1590   57.8710 C   0  0  0  0  0
   96.8680    9.5010   60.6470 C   0  0  0  0  0
   97.2100    8.2390   58.6060 C   0  0  0  0  0
   96.7980    8.4370   54.2290 C   0  0  0  0  0
   97.2340    7.5140   53.3350 C   0  0  0  0  0
   96.0490    9.6280   53.7070 C   0  0  0  0  0
   98.2050    9.6700   51.1150 C   0  0  0  0  0
   92.3240   12.0960   51.5320 C   0  0  0  0  0
   93.1420   11.1620   49.3430 C   0  0  0  0  0
   95.2380   10.8640   51.7300 C   0  0  0  0  0
   92.7430   10.8110   50.7930 C   0  0  0  0  0
   96.7660    7.1690   62.5740 O   0  0  0  0  0
   97.2610    8.4130   63.1350 S   0  0  0  0  0
   96.8520    8.8330   64.4600 O   0  0  0  0  0
   99.0300    8.2970   63.2280 C   0  0  0  0  0
   97.0660    9.7200   62.0470 N   0  0  0  0  0
   96.1100   10.4380   59.9290 C   0  0  0  0  0
   97.4330    8.3980   59.9870 C   0  0  0  0  0
   97.8950    6.8440   57.7830 S   0  0  0  0  0
   99.2780    6.7230   58.1690 O   0  0  0  0  0
   96.9620    5.7710   58.0140 O   0  0  0  0  0
   97.8400    7.3260   56.1530 N   0  0  0  0  0
   96.9140    8.3150   55.7020 C   0  0  0  0  0
   96.1800    9.0630   56.4880 N   0  0  0  0  0
   95.9000   10.2730   58.5560 C   0  0  0  0  0
   95.3520   10.2740   54.5030 O   0  0  0  0  0
   96.1000    9.8770   52.3410 N   0  0  0  0  0
   96.8780    9.1220   51.4500 N   0  3  0  0  0
   98.7620    8.5280   50.2840 C   0  0  0  0  0
   97.0310    7.7030   51.8340 C   0  0  0  0  0
   98.2010    7.2700   50.9360 C   0  0  0  0  0
   97.8450    6.3250   53.6670 O   0  0  0  0  0
   93.9260   10.1200   51.5080 C   0  0  0  0  0
   91.5510    9.8380   50.7420 C   0  0  0  0  0
   98.8133    9.9352   51.9797 H   0  0  0  0  0
   98.1779   10.6299   50.5992 H   0  0  0  0  0
   93.1592   12.7964   51.5424 H   0  0  0  0  0
   91.4753   12.5483   51.0190 H   0  0  0  0  0
   92.0421   11.8494   52.5556 H   0  0  0  0  0
   92.2920   11.6157   48.8333 H   0  0  0  0  0
   93.9759   11.8638   49.3567 H   0  0  0  0  0
   93.4387   10.2534   48.8191 H   0  0  0  0  0
   95.6526   11.2570   50.8017 H   0  0  0  0  0
   95.1116   11.7470   52.3564 H   0  0  0  0  0
   99.3047    7.4570   63.8660 H   0  0  0  0  0
   99.4358    8.1434   62.2281 H   0  0  0  0  0
   99.4318    9.2196   63.6468 H   0  0  0  0  0
   97.0915   10.6751   62.4042 H   0  0  0  0  0
   95.6827   11.2987   60.4435 H   0  0  0  0  0
   98.0359    7.6748   60.5362 H   0  0  0  0  0
   98.4814    6.9000   55.4840 H   0  0  0  0  0
   95.3166   11.0128   58.0078 H   0  0  0  0  0
   96.3096    9.1857   50.6054 H   0  0  0  0  0
   99.8519    8.5283   50.2691 H   0  0  0  0  0
   98.4733    8.6076   49.2360 H   0  0  0  0  0
   96.1478    7.0835   51.6783 H   0  0  0  0  0
   98.9695    6.7683   51.5240 H   0  0  0  0  0
   97.8609    6.5649   50.1776 H   0  0  0  0  0
   98.0615    5.8431   52.8655 H   0  0  0  0  0
   93.5545    9.9254   52.5141 H   0  0  0  0  0
   94.1938    9.2953   50.8475 H   0  0  0  0  0
   91.2422    9.5901   51.7575 H   0  0  0  0  0
   90.7219   10.3085   50.2134 H   0  0  0  0  0
   91.8478    8.9289   50.2190 H   0  0  0  0  0
  1  3  4  0  0  0
 24  1  1  0  0  0
  1 25  4  0  0  0
  2 16  1  0  0  0
 17  2  4  0  0  0
 18  2  4  0  0  0
  3 18  4  0  0  0
 19  3  1  0  0  0
  4  5  2  0  0  0
  6  4  1  0  0  0
  4 23  1  0  0  0
  5 30  1  0  0  0
  5 32  1  0  0  0
  6 26  2  0  0  0
 27  6  1  0  0  0
 28  7  1  0  0  0
  7 29  1  0  0  0
 11  8  1  0  0  0
 11  9  1  0  0  0
 27 10  1  0  0  0
 10 33  1  0  0  0
 33 11  1  0  0  0
 11 34  1  0  0  0
 13 12  2  0  0  0
 13 14  2  0  0  0
 13 15  1  0  0  0
 16 13  1  0  0  0
 25 17  4  0  0  0
 19 20  2  0  0  0
 19 21  2  0  0  0
 22 19  1  0  0  0
 23 22  1  0  0  0
 23 24  2  0  0  0
 27 28  1  0  0  0
 28 30  1  0  0  0
 29 31  1  0  0  0
 30 31  1  0  0  0
  7 35  1  0  0  0
  7 36  1  0  0  0
  8 37  1  0  0  0
  8 38  1  0  0  0
  8 39  1  0  0  0
  9 40  1  0  0  0
  9 41  1  0  0  0
  9 42  1  0  0  0
 10 43  1  0  0  0
 10 44  1  0  0  0
 15 45  1  0  0  0
 15 46  1  0  0  0
 15 47  1  0  0  0
 16 48  1  0  0  0
 17 49  1  0  0  0
 18 50  1  0  0  0
 22 51  1  0  0  0
 25 52  1  0  0  0
 28 53  1  0  0  0
 29 54  1  0  0  0
 29 55  1  0  0  0
 30 56  1  0  0  0
 31 57  1  0  0  0
 31 58  1  0  0  0
 32 59  1  0  0  0
 33 60  1  0  0  0
 33 61  1  0  0  0
 34 62  1  0  0  0
 34 63  1  0  0  0
 34 64  1  0  0  0
M  END
$$$$
