1s89_ligand
  -I-interpret- 

 14 13  0  0  0  0  0  0  0  0999 V2000
   84.6780  -12.3560   66.4370 P   0  0  0  0  0
   85.8790  -13.2020   65.7860 O   0  0  0  0  0
   85.0950  -12.2700   67.8480 O   0  0  0  0  0
   84.7120  -11.0820   65.6450 O   0  0  0  0  0
   83.4510  -13.1570   66.2180 O   0  0  0  0  0
   86.1720  -14.4750   66.3080 C   0  0  0  0  0
   86.6910  -15.4050   65.2390 C   0  0  0  0  0
   85.9970  -15.5590   64.2090 O   0  0  0  0  0
   87.7920  -15.9850   65.4240 O   0  0  0  0  0
   84.4221  -11.2571   64.7467 H   0  0  0  0  0
   83.2409  -13.1689   65.2813 H   0  0  0  0  0
   85.2558  -14.8988   66.7192 H   0  0  0  0  0
   86.9403  -14.3658   67.0734 H   0  0  0  0  0
   88.1508  -15.7240   66.2753 H   0  0  0  0  0
  1  2  1  0  0  0
  1  3  2  0  0  0
  1  4  1  0  0  0
  1  5  1  0  0  0
  2  6  1  0  0  0
  6  7  1  0  0  0
  7  8  2  0  0  0
  7  9  1  0  0  0
  4 10  1  0  0  0
  5 11  1  0  0  0
  6 12  1  0  0  0
  6 13  1  0  0  0
  9 14  1  0  0  0
M  END
$$$$
