2qn2_ligand
  -I-interpret- 

 82 86  0  0  0  0  0  0  0  0999 V2000
   24.2160   -3.8110   54.4740 O   0  0  0  0  0
   25.3170   -2.8950   54.5200 C   0  0  0  0  0
   24.9610   -1.5680   53.8050 C   0  0  0  0  0
   23.9000   -0.8540   54.6470 C   0  0  0  0  0
   24.3780   -1.8350   52.4060 C   0  0  0  0  0
   26.2450   -0.6570   53.7420 C   0  0  0  0  0
   26.0210    0.7560   53.1370 C   0  0  0  0  0
   27.1840    1.6800   53.5460 C   0  0  0  0  0
   28.6020    1.1560   53.1670 C   0  0  0  0  0
   28.8110    1.4150   51.6600 C   0  0  0  0  0
   29.6970    1.8990   53.9970 C   0  0  0  0  0
   29.4670    1.7310   55.5170 C   0  0  0  0  0
   29.7220    3.4170   53.6760 C   0  0  0  0  0
   31.0640    4.1130   53.9970 C   0  0  0  0  0
   32.2340    3.4640   53.2370 C   0  0  0  0  0
   31.8920    3.5130   51.7230 C   0  0  0  0  0
   32.1520    2.5120   51.0140 O   0  0  0  0  0
   31.3710    4.5680   51.2990 O   0  0  0  0  0
   33.5450    4.2610   53.4570 C   0  0  0  0  0
   34.3210    3.9610   54.7730 C   0  0  0  0  0
   34.4210    2.4770   55.2100 C   0  0  0  0  0
   35.4130    1.6780   54.3510 C   0  0  0  0  0
   34.8850    2.4060   56.6650 C   0  0  0  0  0
   33.0210    1.8440   55.1270 C   0  0  0  0  0
   32.4110    1.9910   53.7120 C   0  0  0  0  0
   31.0790    1.2320   53.6480 C   0  0  0  0  0
   31.1720   -0.1020   53.2490 C   0  0  0  0  0
   30.1250   -1.0030   53.0930 C   0  0  0  0  0
   28.7570   -0.3920   53.5200 C   0  0  0  0  0
   27.5520   -1.3300   53.1860 C   0  0  0  0  0
   27.5140   -1.6560   51.6720 C   0  0  0  0  0
   27.7950   -2.6600   53.9470 C   0  0  0  0  0
   26.5700   -3.5910   53.9510 C   0  0  0  0  0
   26.8700   -4.7420   54.7400 O   0  0  0  0  0
   23.4316   -3.3847   54.8269 H   0  0  0  0  0
   25.5387   -2.6159   55.5501 H   0  0  0  0  0
   24.2877   -0.6863   55.6518 H   0  0  0  0  0
   23.6557    0.1031   54.1860 H   0  0  0  0  0
   23.0039   -1.4722   54.7004 H   0  0  0  0  0
   24.1031   -0.8880   51.9415 H   0  0  0  0  0
   25.1250   -2.3387   51.7925 H   0  0  0  0  0
   23.4944   -2.4668   52.4965 H   0  0  0  0  0
   26.4378   -0.5108   54.8048 H   0  0  0  0  0
   25.0825    1.1663   53.5099 H   0  0  0  0  0
   25.9795    0.6835   52.0502 H   0  0  0  0  0
   27.1568    1.7596   54.6327 H   0  0  0  0  0
   27.0422    2.6206   53.0137 H   0  0  0  0  0
   28.0463    0.8851   51.0921 H   0  0  0  0  0
   28.7363    2.4844   51.4626 H   0  0  0  0  0
   29.7975    1.0578   51.3646 H   0  0  0  0  0
   28.4932    2.1418   55.7834 H   0  0  0  0  0
   29.4984    0.6720   55.7731 H   0  0  0  0  0
   30.2479    2.2612   56.0621 H   0  0  0  0  0
   28.9598    3.8885   54.2963 H   0  0  0  0  0
   29.5553    3.5208   52.6038 H   0  0  0  0  0
   31.2535    4.0195   55.0663 H   0  0  0  0  0
   30.9922    5.1571   53.6925 H   0  0  0  0  0
   32.5469    1.8283   51.5601 H   0  0  0  0  0
   33.2575    5.3112   53.5065 H   0  0  0  0  0
   34.2112    3.9813   52.6409 H   0  0  0  0  0
   33.7695    4.4675   55.5651 H   0  0  0  0  0
   35.3454    4.2879   54.5949 H   0  0  0  0  0
   35.0912    1.7016   53.3099 H   0  0  0  0  0
   36.4049    2.1218   54.4362 H   0  0  0  0  0
   35.4442    0.6457   54.6997 H   0  0  0  0  0
   35.8624    2.8797   56.7569 H   0  0  0  0  0
   34.1670    2.9253   57.2997 H   0  0  0  0  0
   34.9553    1.3625   56.9721 H   0  0  0  0  0
   32.3701    2.3543   55.8369 H   0  0  0  0  0
   33.1097    0.7817   55.3547 H   0  0  0  0  0
   33.1298    1.5556   53.0178 H   0  0  0  0  0
   32.1730   -0.4778   53.0369 H   0  0  0  0  0
   30.3235   -1.8677   53.7263 H   0  0  0  0  0
   30.0626   -1.2723   52.0386 H   0  0  0  0  0
   28.7415   -0.3583   54.6094 H   0  0  0  0  0
   27.4086   -0.7311   51.1050 H   0  0  0  0  0
   28.4396   -2.1556   51.3859 H   0  0  0  0  0
   26.6672   -2.3100   51.4636 H   0  0  0  0  0
   28.0223   -2.4100   54.9833 H   0  0  0  0  0
   28.6062   -3.1849   53.4425 H   0  0  0  0  0
   26.3527   -3.8713   52.9203 H   0  0  0  0  0
   26.1108   -5.3295   54.7485 H   0  0  0  0  0
  1  2  1  0  0  0
  2  3  1  0  0  0
  2 33  1  0  0  0
  3  4  1  0  0  0
  3  5  1  0  0  0
  3  6  1  0  0  0
  6  7  1  0  0  0
  6 30  1  0  0  0
  7  8  1  0  0  0
  8  9  1  0  0  0
  9 10  1  0  0  0
  9 11  1  0  0  0
  9 29  1  0  0  0
 11 12  1  0  0  0
 11 13  1  0  0  0
 11 26  1  0  0  0
 13 14  1  0  0  0
 14 15  1  0  0  0
 15 16  1  0  0  0
 15 19  1  0  0  0
 15 25  1  0  0  0
 16 17  1  0  0  0
 16 18  2  0  0  0
 19 20  1  0  0  0
 20 21  1  0  0  0
 21 22  1  0  0  0
 21 23  1  0  0  0
 21 24  1  0  0  0
 24 25  1  0  0  0
 25 26  1  0  0  0
 26 27  2  0  0  0
 27 28  1  0  0  0
 28 29  1  0  0  0
 29 30  1  0  0  0
 30 31  1  0  0  0
 30 32  1  0  0  0
 32 33  1  0  0  0
 33 34  1  0  0  0
  1 35  1  0  0  0
  2 36  1  0  0  0
  4 37  1  0  0  0
  4 38  1  0  0  0
  4 39  1  0  0  0
  5 40  1  0  0  0
  5 41  1  0  0  0
  5 42  1  0  0  0
  6 43  1  0  0  0
  7 44  1  0  0  0
  7 45  1  0  0  0
  8 46  1  0  0  0
  8 47  1  0  0  0
 10 48  1  0  0  0
 10 49  1  0  0  0
 10 50  1  0  0  0
 12 51  1  0  0  0
 12 52  1  0  0  0
 12 53  1  0  0  0
 13 54  1  0  0  0
 13 55  1  0  0  0
 14 56  1  0  0  0
 14 57  1  0  0  0
 17 58  1  0  0  0
 19 59  1  0  0  0
 19 60  1  0  0  0
 20 61  1  0  0  0
 20 62  1  0  0  0
 22 63  1  0  0  0
 22 64  1  0  0  0
 22 65  1  0  0  0
 23 66  1  0  0  0
 23 67  1  0  0  0
 23 68  1  0  0  0
 24 69  1  0  0  0
 24 70  1  0  0  0
 25 71  1  0  0  0
 27 72  1  0  0  0
 28 73  1  0  0  0
 28 74  1  0  0  0
 29 75  1  0  0  0
 31 76  1  0  0  0
 31 77  1  0  0  0
 31 78  1  0  0  0
 32 79  1  0  0  0
 32 80  1  0  0  0
 33 81  1  0  0  0
 34 82  1  0  0  0
M  END
$$$$
