4x60_ligand
  -I-interpret- 

 54 57  0  0  0  0  0  0  0  0999 V2000
   22.6980  -51.8800   -9.5380 C   0  0  0  0  0
   21.9690  -50.2190  -11.0960 C   0  0  0  0  0
   23.2550  -50.1780  -11.6640 C   0  0  0  0  0
   24.2580  -51.0130  -11.1410 C   0  0  0  0  0
   22.6940  -44.5410  -10.6490 C   0  0  0  0  0
   23.1820  -43.2140  -10.1550 C   0  0  0  0  0
   23.0950  -43.1370   -8.7550 C   0  0  0  0  0
   23.8720  -42.1720   -8.0960 C   0  0  0  0  0
   23.8280  -42.0550   -6.7060 C   0  0  0  0  0
   23.0060  -42.8920   -5.9570 C   0  0  0  0  0
   22.2240  -43.8490   -6.5960 C   0  0  0  0  0
   22.2590  -43.9850   -7.9940 C   0  0  0  0  0
   21.4540  -44.9730   -8.5730 C   0  0  0  0  0
   21.3950  -44.8900  -10.0420 N   0  3  0  0  0
   21.0110  -46.2030  -10.5670 C   0  0  0  0  0
   19.5250  -46.4890  -10.3170 C   0  0  0  0  0
   18.7520  -45.4130  -10.8630 O   0  0  0  0  0
   19.1220  -47.8450  -10.9480 C   0  0  0  0  0
   20.1710  -48.8260  -10.6350 N   0  0  0  0  0
   20.9510  -49.3820  -11.5840 C   0  0  0  0  0
   20.8130  -49.1640  -12.7950 O   0  0  0  0  0
   21.7090  -51.0450  -10.0550 N   0  0  0  0  0
   23.9760  -51.8390  -10.1050 N   0  0  0  0  0
   25.5030  -51.0060  -11.6550 N   0  0  0  0  0
   26.6070  -51.7870  -11.0510 C   0  0  0  0  0
   27.2710  -51.0390   -9.9030 C   0  0  0  0  0
   28.5570  -51.3460  -10.5250 O   0  0  0  0  0
   27.9090  -51.5750  -11.8110 C   0  0  0  0  0
   22.4798  -52.5519   -8.7079 H   0  0  0  0  0
   23.4708  -49.5090  -12.4971 H   0  0  0  0  0
   23.4227  -45.3041  -10.3754 H   0  0  0  0  0
   22.5697  -44.4859  -11.7305 H   0  0  0  0  0
   22.5619  -42.4292  -10.5883 H   0  0  0  0  0
   24.2247  -43.0928  -10.4485 H   0  0  0  0  0
   24.5150  -41.5085   -8.6743 H   0  0  0  0  0
   24.4399  -41.3050   -6.2048 H   0  0  0  0  0
   22.9750  -42.7979   -4.8715 H   0  0  0  0  0
   21.5780  -44.4995   -6.0064 H   0  0  0  0  0
   20.4410  -44.8359   -8.1945 H   0  0  0  0  0
   21.8838  -45.9409   -8.3149 H   0  0  0  0  0
   20.7228  -44.1590  -10.2748 H   0  0  0  0  0
   21.6017  -46.9661  -10.0602 H   0  0  0  0  0
   21.1907  -46.2134  -11.6420 H   0  0  0  0  0
   19.3345  -46.5587   -9.2460 H   0  0  0  0  0
   17.8191  -45.5819  -10.7119 H   0  0  0  0  0
   19.0171  -47.7398  -12.0278 H   0  0  0  0  0
   18.1655  -48.1770  -10.5443 H   0  0  0  0  0
   20.3144  -49.0967   -9.6621 H   0  0  0  0  0
   25.6913  -50.4454  -12.4861 H   0  0  0  0  0
   26.1454  -52.7659  -10.9216 H   0  0  0  0  0
   27.0673  -51.2985   -8.8641 H   0  0  0  0  0
   26.9907  -50.0150   -9.6560 H   0  0  0  0  0
   27.9807  -50.8464  -12.6185 H   0  0  0  0  0
   28.2851  -52.3230  -12.5089 H   0  0  0  0  0
 22  1  4  0  0  0
  1 23  4  0  0  0
  2  3  4  0  0  0
 20  2  1  0  0  0
  2 22  4  0  0  0
  3  4  4  0  0  0
  4 23  4  0  0  0
  4 24  1  0  0  0
  5  6  1  0  0  0
 14  5  1  0  0  0
  6  7  1  0  0  0
  7  8  4  0  0  0
 12  7  4  0  0  0
  8  9  4  0  0  0
 10  9  4  0  0  0
 11 10  4  0  0  0
 12 11  4  0  0  0
 13 12  1  0  0  0
 14 13  1  0  0  0
 15 14  1  0  0  0
 16 15  1  0  0  0
 16 17  1  0  0  0
 18 16  1  0  0  0
 19 18  1  0  0  0
 19 20  1  0  0  0
 20 21  2  0  0  0
 24 25  1  0  0  0
 25 26  1  0  0  0
 25 28  1  0  0  0
 26 27  1  0  0  0
 27 28  1  0  0  0
  1 29  1  0  0  0
  3 30  1  0  0  0
  5 31  1  0  0  0
  5 32  1  0  0  0
  6 33  1  0  0  0
  6 34  1  0  0  0
  8 35  1  0  0  0
  9 36  1  0  0  0
 10 37  1  0  0  0
 11 38  1  0  0  0
 13 39  1  0  0  0
 13 40  1  0  0  0
 14 41  1  0  0  0
 15 42  1  0  0  0
 15 43  1  0  0  0
 16 44  1  0  0  0
 17 45  1  0  0  0
 18 46  1  0  0  0
 18 47  1  0  0  0
 19 48  1  0  0  0
 24 49  1  0  0  0
 25 50  1  0  0  0
 26 51  1  0  0  0
 26 52  1  0  0  0
 28 53  1  0  0  0
 28 54  1  0  0  0
M  END
$$$$
