6q9s_ligand
  -I-interpret- 

 92 99  0  0  0  0  0  0  0  0999 V2000
   51.0620  -18.8250  -75.3860 C   0  0  0  0  0
   50.6050  -19.8110  -74.5000 C   0  0  0  0  0
   53.4910  -25.4360  -78.0960 C   0  0  0  0  0
   53.4100  -24.0870  -78.4710 C   0  0  0  0  0
   53.5460  -23.0900  -77.4950 C   0  0  0  0  0
   53.1500  -23.6990  -79.9110 C   0  0  0  0  0
   55.4720  -25.4170  -74.0910 C   0  0  0  0  0
   55.6860  -25.6080  -72.5730 C   0  0  0  0  0
   54.5880  -26.5430  -72.0160 C   0  0  0  0  0
   53.1970  -25.8930  -72.2550 C   0  0  0  0  0
   50.9810  -21.2800  -74.7460 C   0  0  0  0  0
   50.7560  -22.8500  -72.8660 C   0  0  0  0  0
   52.4440  -22.2230  -71.6040 C   0  0  0  0  0
   52.4130  -21.4760  -72.7210 C   0  0  0  0  0
   53.3260  -20.3800  -73.1010 C   0  0  0  0  0
   54.2140  -20.2410  -74.1190 C   0  0  0  0  0
   54.3010  -18.3540  -73.0010 C   0  0  0  0  0
   53.3670  -19.1030  -72.3120 C   0  0  0  0  0
   52.7270  -18.6380  -71.1580 C   0  0  0  0  0
   53.0730  -17.3540  -70.7240 C   0  0  0  0  0
   54.0130  -16.5760  -71.4270 C   0  0  0  0  0
   52.0060  -19.2300  -76.8060 Cl  0  0  0  0  0
   49.8530  -19.4410  -73.3730 C   0  0  0  0  0
   49.5340  -18.1010  -73.1550 C   0  0  0  0  0
   49.9790  -17.1360  -74.0620 C   0  0  0  0  0
   50.7450  -17.4890  -75.1740 C   0  0  0  0  0
   49.5890  -15.4550  -73.8110 Cl  0  0  0  0  0
   51.3820  -21.8720  -73.4580 N   0  0  0  0  0
   51.3290  -23.1060  -71.7960 N   0  0  0  0  0
   54.7400  -19.0490  -74.0630 N   0  0  0  0  0
   54.6520  -17.0670  -72.5840 C   0  0  0  0  0
   54.4100  -14.9620  -70.8610 Cl  0  0  0  0  0
   54.4610  -21.1940  -75.2270 C   0  0  0  0  0
   55.1180  -20.8050  -76.1820 O   0  0  0  0  0
   53.8580  -22.3980  -75.1910 N   0  0  0  0  0
   53.8010  -23.4180  -76.1550 C   0  0  0  0  0
   53.8440  -24.7510  -75.7820 C   0  0  0  0  0
   53.7160  -25.7690  -76.7490 C   0  0  0  0  0
   53.2230  -22.5290  -80.2400 O   0  0  0  0  0
   52.7930  -24.6410  -80.7910 O   0  0  0  0  0
   54.0670  -25.0560  -74.4330 N   0  0  0  0  0
   52.9510  -25.7850  -73.7740 C   0  0  0  0  0
   54.8710  -26.8370  -70.6060 N   0  0  0  0  0
   54.5850  -25.8710  -69.5290 C   0  0  0  0  0
   55.1840  -26.2450  -68.1580 C   0  0  0  0  0
   55.0020  -27.7620  -67.9990 C   0  0  0  0  0
   55.6930  -28.4640  -69.0550 O   0  0  0  0  0
   55.3980  -28.0680  -70.3140 C   0  0  0  0  0
   55.6260  -28.8950  -71.1920 O   0  0  0  0  0
   53.3660  -22.3240  -70.4080 C   0  0  0  0  0
   52.8210  -22.7620  -69.1940 C   0  0  0  0  0
   53.6300  -22.9030  -68.0540 C   0  0  0  0  0
   55.0030  -22.6240  -68.1280 C   0  0  0  0  0
   55.5590  -22.2040  -69.3460 C   0  0  0  0  0
   54.7490  -22.0590  -70.4850 C   0  0  0  0  0
   49.8900  -22.0530  -75.5140 C   0  0  0  0  0
   53.3802  -26.2210  -78.8441 H   0  0  0  0  0
   53.4521  -22.0426  -77.7819 H   0  0  0  0  0
   55.7041  -26.3615  -74.5831 H   0  0  0  0  0
   56.1165  -24.6018  -74.4198 H   0  0  0  0  0
   55.6308  -24.6414  -72.0722 H   0  0  0  0  0
   56.6664  -26.0501  -72.3955 H   0  0  0  0  0
   54.5789  -27.5010  -72.5358 H   0  0  0  0  0
   53.1719  -24.9001  -71.8059 H   0  0  0  0  0
   52.4201  -26.5062  -71.7984 H   0  0  0  0  0
   51.8353  -21.3467  -75.4197 H   0  0  0  0  0
   49.8722  -23.3602  -73.2490 H   0  0  0  0  0
   51.9960  -19.2454  -70.6243 H   0  0  0  0  0
   52.6069  -16.9486  -69.8260 H   0  0  0  0  0
   49.5184  -20.2020  -72.6680 H   0  0  0  0  0
   48.9438  -17.8096  -72.2862 H   0  0  0  0  0
   51.0911  -16.7242  -75.8692 H   0  0  0  0  0
   55.3851  -16.4710  -73.1276 H   0  0  0  0  0
   53.3625  -22.6020  -74.3231 H   0  0  0  0  0
   53.7916  -26.8150  -76.4519 H   0  0  0  0  0
   52.7897  -25.4975  -80.3575 H   0  0  0  0  0
   52.0229  -25.2393  -73.9441 H   0  0  0  0  0
   52.8873  -26.7887  -74.1942 H   0  0  0  0  0
   53.5023  -25.8414  -69.4065 H   0  0  0  0  0
   55.0329  -24.9222  -69.8245 H   0  0  0  0  0
   54.6826  -25.7063  -67.3540 H   0  0  0  0  0
   56.2379  -25.9717  -68.1059 H   0  0  0  0  0
   53.9395  -27.9999  -68.0500 H   0  0  0  0  0
   55.4138  -28.0707  -67.0382 H   0  0  0  0  0
   51.7581  -22.9959  -69.1332 H   0  0  0  0  0
   53.1906  -23.2294  -67.1114 H   0  0  0  0  0
   55.6334  -22.7327  -67.2455 H   0  0  0  0  0
   56.6257  -21.9889  -69.4090 H   0  0  0  0  0
   55.1903  -21.7412  -71.4296 H   0  0  0  0  0
   50.2455  -23.0600  -75.7324 H   0  0  0  0  0
   48.9885  -22.1089  -74.9039 H   0  0  0  0  0
   49.6675  -21.5346  -76.4467 H   0  0  0  0  0
  2  1  4  0  0  0
  1 22  1  0  0  0
  1 26  4  0  0  0
 11  2  1  0  0  0
  2 23  4  0  0  0
  3  4  4  0  0  0
 38  3  4  0  0  0
  5  4  4  0  0  0
  4  6  1  0  0  0
 36  5  4  0  0  0
  6 39  2  0  0  0
  6 40  1  0  0  0
  7  8  1  0  0  0
 41  7  1  0  0  0
  8  9  1  0  0  0
  9 10  1  0  0  0
  9 43  1  0  0  0
 10 42  1  0  0  0
 28 11  1  0  0  0
 11 56  1  0  0  0
 28 12  4  0  0  0
 12 29  4  0  0  0
 14 13  4  0  0  0
 13 29  4  0  0  0
 13 50  1  0  0  0
 15 14  1  0  0  0
 14 28  4  0  0  0
 16 15  4  0  0  0
 15 18  4  0  0  0
 16 30  4  0  0  0
 33 16  1  0  0  0
 17 18  4  0  0  0
 30 17  4  0  0  0
 17 31  4  0  0  0
 18 19  4  0  0  0
 19 20  4  0  0  0
 21 20  4  0  0  0
 31 21  4  0  0  0
 21 32  1  0  0  0
 23 24  4  0  0  0
 24 25  4  0  0  0
 26 25  4  0  0  0
 25 27  1  0  0  0
 33 34  2  0  0  0
 35 33  1  0  0  0
 36 35  1  0  0  0
 37 36  4  0  0  0
 37 38  4  0  0  0
 37 41  1  0  0  0
 41 42  1  0  0  0
 43 44  1  0  0  0
 43 48  1  0  0  0
 44 45  1  0  0  0
 45 46  1  0  0  0
 46 47  1  0  0  0
 47 48  1  0  0  0
 48 49  2  0  0  0
 50 51  4  0  0  0
 50 55  4  0  0  0
 51 52  4  0  0  0
 52 53  4  0  0  0
 53 54  4  0  0  0
 54 55  4  0  0  0
  3 57  1  0  0  0
  5 58  1  0  0  0
  7 59  1  0  0  0
  7 60  1  0  0  0
  8 61  1  0  0  0
  8 62  1  0  0  0
  9 63  1  0  0  0
 10 64  1  0  0  0
 10 65  1  0  0  0
 11 66  1  0  0  0
 12 67  1  0  0  0
 19 68  1  0  0  0
 20 69  1  0  0  0
 23 70  1  0  0  0
 24 71  1  0  0  0
 26 72  1  0  0  0
 31 73  1  0  0  0
 35 74  1  0  0  0
 38 75  1  0  0  0
 40 76  1  0  0  0
 42 77  1  0  0  0
 42 78  1  0  0  0
 44 79  1  0  0  0
 44 80  1  0  0  0
 45 81  1  0  0  0
 45 82  1  0  0  0
 46 83  1  0  0  0
 46 84  1  0  0  0
 51 85  1  0  0  0
 52 86  1  0  0  0
 53 87  1  0  0  0
 54 88  1  0  0  0
 55 89  1  0  0  0
 56 90  1  0  0  0
 56 91  1  0  0  0
 56 92  1  0  0  0
M  END
$$$$
