1ckb_ligand
  -I-interpret- 

123127  0  0  0  0  0  0  0  0999 V2000
  122.0740  139.0660   17.8570 N   0  3  0  0  0
  121.0060  138.0680   17.8280 C   0  0  0  0  0
  121.6070  136.7390   17.4500 C   0  0  0  0  0
  122.7370  136.6690   16.9810 O   0  0  0  0  0
  120.0900  138.5730   16.7030 C   0  0  0  0  0
  120.3690  139.9990   16.6300 C   0  0  0  0  0
  121.8590  140.0630   16.8000 C   0  0  0  0  0
  120.8470  135.6590   17.6310 N   0  0  0  0  0
  121.3860  134.3500   17.2820 C   0  0  0  0  0
  121.5310  134.1080   15.7710 C   0  0  0  0  0
  121.0600  134.9020   14.9430 O   0  0  0  0  0
  120.3980  133.3910   17.9560 C   0  0  0  0  0
  119.1260  134.1790   18.0700 C   0  0  0  0  0
  119.5840  135.5510   18.3790 C   0  0  0  0  0
  122.3080  133.0780   15.3940 N   0  0  0  0  0
  122.4580  132.8060   13.9640 C   0  0  0  0  0
  121.0980  132.4070   13.3900 C   0  0  0  0  0
  120.2980  131.7460   14.0600 O   0  0  0  0  0
  123.4680  131.6450   13.9260 C   0  0  0  0  0
  123.4260  131.0570   15.2720 C   0  0  0  0  0
  123.1980  132.2200   16.1960 C   0  0  0  0  0
  120.7860  132.9240   12.2130 N   0  0  0  0  0
  119.5260  132.5870   11.5830 C   0  0  0  0  0
  119.8340  131.2480   10.9460 C   0  0  0  0  0
  120.7450  131.1410   10.1140 O   0  0  0  0  0
  119.0830  133.6180   10.5140 C   0  0  0  0  0
  117.7510  133.2110    9.9380 C   0  0  0  0  0
  118.9250  134.9820   11.1210 C   0  0  0  0  0
  119.0800  130.2030   11.3320 N   0  0  0  0  0
  119.2720  128.8400   10.8110 C   0  0  0  0  0
  119.0650  128.6750    9.3100 C   0  0  0  0  0
  118.2800  129.3890    8.6970 O   0  0  0  0  0
  118.2430  128.0270   11.5940 C   0  0  0  0  0
  117.1190  129.0210   11.7950 C   0  0  0  0  0
  117.8760  130.2830   12.1860 C   0  0  0  0  0
  119.7760  127.7190    8.6970 N   0  0  0  0  0
  119.5840  127.5290    7.2610 C   0  0  0  0  0
  118.1760  126.9500    7.0210 C   0  0  0  0  0
  117.5480  126.4020    7.9470 O   0  0  0  0  0
  120.6840  126.4920    6.9080 C   0  0  0  0  0
  120.8030  125.6780    8.1800 C   0  0  0  0  0
  120.7770  126.7680    9.2370 C   0  0  0  0  0
  117.6910  127.0900    5.7920 N   0  0  0  0  0
  116.3960  126.5580    5.3880 C   0  0  0  0  0
  116.6790  125.2200    4.7020 C   0  0  0  0  0
  117.8020  124.9620    4.2650 O   0  0  0  0  0
  115.7310  127.5070    4.3950 C   0  0  0  0  0
  116.1130  128.9720    4.6080 C   0  0  0  0  0
  115.3270  129.9170    3.7120 C   0  0  0  0  0
  114.1500  130.4320    4.4000 N   0  0  0  0  0
  113.9710  131.7080    4.7340 C   0  0  0  0  0
  114.8680  132.6460    4.4460 N   0  0  0  0  0
  112.9320  132.0330    5.4600 N   0  0  0  0  0
  115.6730  124.3600    4.5990 N   0  0  0  0  0
  115.8620  123.0660    3.9460 C   0  0  0  0  0
  114.7420  122.7470    2.9590 C   0  0  0  0  0
  115.9940  121.9650    4.9850 C   0  0  0  0  0
  122.9700  138.6031   17.7043 H   0  0  0  0  0
  122.0724  139.5328   18.7639 H   0  0  0  0  0
  120.4819  137.9408   18.7752 H   0  0  0  0  0
  119.0386  138.3691   16.9054 H   0  0  0  0  0
  120.2824  138.0669   15.7570 H   0  0  0  0  0
  119.8334  140.5726   17.3864 H   0  0  0  0  0
  120.0317  140.4473   15.6955 H   0  0  0  0  0
  122.4128  139.8557   15.8843 H   0  0  0  0  0
  122.2277  141.0566   17.0547 H   0  0  0  0  0
  122.4138  134.2217   17.6217 H   0  0  0  0  0
  120.7567  133.0522   18.9279 H   0  0  0  0  0
  120.2608  132.4756   17.3805 H   0  0  0  0  0
  118.4606  133.7822   18.8367 H   0  0  0  0  0
  118.5300  134.1371   17.1584 H   0  0  0  0  0
  118.8582  136.3118   18.0917 H   0  0  0  0  0
  119.7120  135.7213   19.4480 H   0  0  0  0  0
  122.8017  133.6550   13.3731 H   0  0  0  0  0
  124.4692  131.9901   13.6680 H   0  0  0  0  0
  123.2131  130.9140   13.1587 H   0  0  0  0  0
  124.3475  130.5258   15.5102 H   0  0  0  0  0
  122.6387  130.3085   15.3620 H   0  0  0  0  0
  122.7698  131.9314   17.1559 H   0  0  0  0  0
  124.1191  132.7175   16.4995 H   0  0  0  0  0
  121.4335  133.5607   11.7485 H   0  0  0  0  0
  118.6987  132.5726   12.2926 H   0  0  0  0  0
  119.8487  133.6471    9.7388 H   0  0  0  0  0
  117.8412  132.2274    9.4771 H   0  0  0  0  0
  117.0082  133.1735   10.7348 H   0  0  0  0  0
  117.4437  133.9388    9.1870 H   0  0  0  0  0
  118.1703  134.9435   11.9065 H   0  0  0  0  0
  119.8767  135.3020   11.5451 H   0  0  0  0  0
  118.6136  135.6873   10.3505 H   0  0  0  0  0
  120.3075  128.5254   10.9412 H   0  0  0  0  0
  118.6356  127.6330   12.5314 H   0  0  0  0  0
  117.9253  127.1252   11.0707 H   0  0  0  0  0
  116.3927  128.7047   12.5437 H   0  0  0  0  0
  116.4942  129.1496   10.9112 H   0  0  0  0  0
  117.2995  131.1951   12.0315 H   0  0  0  0  0
  118.1066  130.3333   13.2501 H   0  0  0  0  0
  119.6572  128.4382    6.6643 H   0  0  0  0  0
  121.6249  126.9569    6.6136 H   0  0  0  0  0
  120.4298  125.8847    6.0393 H   0  0  0  0  0
  121.6955  125.0534    8.2177 H   0  0  0  0  0
  120.0148  124.9345    8.2989 H   0  0  0  0  0
  120.5184  126.3944   10.2278 H   0  0  0  0  0
  121.7528  127.2248    9.4019 H   0  0  0  0  0
  118.2494  127.5916    5.1013 H   0  0  0  0  0
  115.7315  126.4409    6.2440 H   0  0  0  0  0
  114.6529  127.4247    4.5328 H   0  0  0  0  0
  116.0618  127.2226    3.3961 H   0  0  0  0  0
  117.1702  129.0818    4.3662 H   0  0  0  0  0
  115.8914  129.2295    5.6437 H   0  0  0  0  0
  115.0029  129.3703    2.8265 H   0  0  0  0  0
  115.9682  130.7557    3.4409 H   0  0  0  0  0
  113.4132  129.7695    4.6421 H   0  0  0  0  0
  114.7390  133.5977    4.7895 H   0  0  0  0  0
  115.6853  132.4140    3.8815 H   0  0  0  0  0
  112.2748  131.3133    5.7608 H   0  0  0  0  0
  114.7588  124.6047    4.9794 H   0  0  0  0  0
  116.7857  123.1234    3.3701 H   0  0  0  0  0
  113.7892  122.7233    3.4879 H   0  0  0  0  0
  114.7110  123.5149    2.1860 H   0  0  0  0  0
  114.9289  121.7758    2.5008 H   0  0  0  0  0
  116.8531  122.1708    5.6235 H   0  0  0  0  0
  115.0891  121.9293    5.5916 H   0  0  0  0  0
  116.1341  121.0079    4.4825 H   0  0  0  0  0
  1  2  1  0  0  0
  1  7  1  0  0  0
  2  3  1  0  0  0
  2  5  1  0  0  0
  3  4  2  0  0  0
  3  8  1  0  0  0
  5  6  1  0  0  0
  6  7  1  0  0  0
  8  9  1  0  0  0
  8 14  1  0  0  0
  9 10  1  0  0  0
  9 12  1  0  0  0
 10 11  2  0  0  0
 10 15  1  0  0  0
 12 13  1  0  0  0
 13 14  1  0  0  0
 15 16  1  0  0  0
 15 21  1  0  0  0
 16 17  1  0  0  0
 16 19  1  0  0  0
 17 18  2  0  0  0
 17 22  1  0  0  0
 19 20  1  0  0  0
 20 21  1  0  0  0
 22 23  1  0  0  0
 23 24  1  0  0  0
 23 26  1  0  0  0
 24 25  2  0  0  0
 24 29  1  0  0  0
 26 27  1  0  0  0
 26 28  1  0  0  0
 29 30  1  0  0  0
 29 35  1  0  0  0
 30 31  1  0  0  0
 30 33  1  0  0  0
 31 32  2  0  0  0
 31 36  1  0  0  0
 33 34  1  0  0  0
 34 35  1  0  0  0
 36 37  1  0  0  0
 36 42  1  0  0  0
 37 38  1  0  0  0
 37 40  1  0  0  0
 38 39  2  0  0  0
 38 43  1  0  0  0
 40 41  1  0  0  0
 41 42  1  0  0  0
 43 44  1  0  0  0
 44 45  1  0  0  0
 44 47  1  0  0  0
 45 46  2  0  0  0
 45 54  1  0  0  0
 47 48  1  0  0  0
 48 49  1  0  0  0
 49 50  1  0  0  0
 50 51  1  0  0  0
 51 52  1  0  0  0
 51 53  2  0  0  0
 54 55  1  0  0  0
 55 56  1  0  0  0
 55 57  1  0  0  0
  1 58  1  0  0  0
  1 59  1  0  0  0
  2 60  1  0  0  0
  5 61  1  0  0  0
  5 62  1  0  0  0
  6 63  1  0  0  0
  6 64  1  0  0  0
  7 65  1  0  0  0
  7 66  1  0  0  0
  9 67  1  0  0  0
 12 68  1  0  0  0
 12 69  1  0  0  0
 13 70  1  0  0  0
 13 71  1  0  0  0
 14 72  1  0  0  0
 14 73  1  0  0  0
 16 74  1  0  0  0
 19 75  1  0  0  0
 19 76  1  0  0  0
 20 77  1  0  0  0
 20 78  1  0  0  0
 21 79  1  0  0  0
 21 80  1  0  0  0
 22 81  1  0  0  0
 23 82  1  0  0  0
 26 83  1  0  0  0
 27 84  1  0  0  0
 27 85  1  0  0  0
 27 86  1  0  0  0
 28 87  1  0  0  0
 28 88  1  0  0  0
 28 89  1  0  0  0
 30 90  1  0  0  0
 33 91  1  0  0  0
 33 92  1  0  0  0
 34 93  1  0  0  0
 34 94  1  0  0  0
 35 95  1  0  0  0
 35 96  1  0  0  0
 37 97  1  0  0  0
 40 98  1  0  0  0
 40 99  1  0  0  0
 41100  1  0  0  0
 41101  1  0  0  0
 42102  1  0  0  0
 42103  1  0  0  0
 43104  1  0  0  0
 44105  1  0  0  0
 47106  1  0  0  0
 47107  1  0  0  0
 48108  1  0  0  0
 48109  1  0  0  0
 49110  1  0  0  0
 49111  1  0  0  0
 50112  1  0  0  0
 52113  1  0  0  0
 52114  1  0  0  0
 53115  1  0  0  0
 54116  1  0  0  0
 55117  1  0  0  0
 56118  1  0  0  0
 56119  1  0  0  0
 56120  1  0  0  0
 57121  1  0  0  0
 57122  1  0  0  0
 57123  1  0  0  0
M  END
$$$$
