1rdl_ligand
  -I-interpret- 

 24 24  0  0  0  0  0  0  0  0999 V2000
    2.0340   46.4730    0.1180 C   0  0  0  0  0
    2.3850   45.3740    1.1240 C   0  0  0  0  0
    3.0440   45.9990    2.3600 C   0  0  0  0  0
    4.2460   46.8250    1.9420 C   0  0  0  0  0
    3.8550   47.8640    0.8910 C   0  0  0  0  0
    5.0800   48.5910    0.3550 C   0  0  0  0  0
    1.0350   47.2970    0.6560 O   0  0  0  0  0
    3.2810   44.4590    0.5230 O   0  0  0  0  0
    3.4850   44.9810    3.2460 O   0  0  0  0  0
    4.7920   47.4640    3.0810 O   0  0  0  0  0
    3.2090   47.2120   -0.2310 O   0  0  0  0  0
    4.7640   49.3670   -0.7930 O   0  0  0  0  0
    1.6455   46.0291   -0.7986 H   0  0  0  0  0
    1.4765   44.8524    1.4250 H   0  0  0  0  0
    2.3098   46.6316    2.8588 H   0  0  0  0  0
    4.9918   46.1644    1.4999 H   0  0  0  0  0
    3.1831   48.5760    1.3703 H   0  0  0  0  0
    5.8272   47.8485    0.0750 H   0  0  0  0  0
    5.4524   49.2590    1.1316 H   0  0  0  0  0
    0.2669   46.7648    0.8760 H   0  0  0  0  0
    2.8672   44.0687   -0.2503 H   0  0  0  0  0
    2.7341   44.4491    3.5196 H   0  0  0  0  0
    5.0334   46.8020    3.7330 H   0  0  0  0  0
    5.5556   49.8113   -1.1053 H   0  0  0  0  0
  1  2  1  0  0  0
  1  7  1  0  0  0
  1 11  1  0  0  0
  2  3  1  0  0  0
  2  8  1  0  0  0
  3  4  1  0  0  0
  3  9  1  0  0  0
  4  5  1  0  0  0
  4 10  1  0  0  0
  5  6  1  0  0  0
  5 11  1  0  0  0
  6 12  1  0  0  0
  1 13  1  0  0  0
  2 14  1  0  0  0
  3 15  1  0  0  0
  4 16  1  0  0  0
  5 17  1  0  0  0
  6 18  1  0  0  0
  6 19  1  0  0  0
  7 20  1  0  0  0
  8 21  1  0  0  0
  9 22  1  0  0  0
 10 23  1  0  0  0
 12 24  1  0  0  0
M  END
$$$$
