1xnz_ligand
  -I-interpret- 

 22 23  0  0  0  0  0  0  0  0999 V2000
   -1.7430   -0.9210    8.2900 O   0  0  0  0  0
   -0.6720   -0.6120    9.0320 C   0  0  0  0  0
    0.6840   -0.4120    8.4630 C   0  0  0  0  0
    0.7990   -0.5480    7.2320 O   0  0  0  0  0
   -1.0830   -0.5240   10.3760 C   0  0  0  0  0
   -2.4570   -0.7990   10.4000 C   0  0  0  0  0
   -2.8360   -1.0440    9.0650 C   0  0  0  0  0
    1.6290   -0.1280    9.2070 O   0  0  0  0  0
   -4.1460   -1.3850    8.5250 C   0  0  0  0  0
   -4.1870   -2.3800    7.5030 C   0  0  0  0  0
   -5.4150   -2.7640    6.9190 C   0  0  0  0  0
   -6.6050   -2.1520    7.3560 C   0  0  0  0  0
   -6.5910   -1.1630    8.3680 C   0  0  0  0  0
   -5.3700   -0.7670    8.9640 C   0  0  0  0  0
   -5.4030    0.4160   10.1620 Cl  0  0  0  0  0
   -0.0559   -0.7668    6.8541 H   0  0  0  0  0
   -0.4531   -0.2873   11.2335 H   0  0  0  0  0
   -3.1040   -0.8193   11.2770 H   0  0  0  0  0
   -3.2612   -2.8488    7.1693 H   0  0  0  0  0
   -5.4406   -3.5252    6.1392 H   0  0  0  0  0
   -7.5540   -2.4451    6.9069 H   0  0  0  0  0
   -7.5256   -0.7038    8.6902 H   0  0  0  0  0
  1  2  4  0  0  0
  1  7  4  0  0  0
  2  3  1  0  0  0
  2  5  4  0  0  0
  3  4  1  0  0  0
  3  8  2  0  0  0
  5  6  4  0  0  0
  6  7  4  0  0  0
  7  9  1  0  0  0
  9 10  4  0  0  0
  9 14  4  0  0  0
 10 11  4  0  0  0
 11 12  4  0  0  0
 12 13  4  0  0  0
 13 14  4  0  0  0
 14 15  1  0  0  0
  4 16  1  0  0  0
  5 17  1  0  0  0
  6 18  1  0  0  0
 10 19  1  0  0  0
 11 20  1  0  0  0
 12 21  1  0  0  0
 13 22  1  0  0  0
M  END
$$$$
