1ugy_ligand
  -I-interpret- 

 45 46  0  0  0  0  0  0  0  0999 V2000
   51.6000   54.6100   66.4430 C   0  0  0  0  0
   52.3750   55.8880   66.1460 C   0  0  0  0  0
   52.3560   56.8120   67.3510 C   0  0  0  0  0
   50.9200   57.0360   67.8360 C   0  0  0  0  0
   50.2380   55.6870   68.1010 C   0  0  0  0  0
   48.8000   55.7580   68.6030 C   0  0  0  0  0
   53.7220   55.5480   65.8430 O   0  0  0  0  0
   52.9760   58.0550   67.0190 O   0  0  0  0  0
   50.2100   57.7790   66.8600 O   0  0  0  0  0
   50.2780   54.8910   66.9000 O   0  0  0  0  0
   47.8940   55.9580   67.5360 O   0  0  0  0  0
   53.2960   49.8590   69.4860 C   0  0  0  0  0
   53.8220   48.9900   68.3470 C   0  0  0  0  0
   54.4840   49.8880   67.2910 C   0  0  0  0  0
   53.5510   51.0100   66.8570 C   0  0  0  0  0
   52.8610   51.6870   68.0470 C   0  0  0  0  0
   51.7600   52.5500   67.5540 C   0  0  0  0  0
   52.7380   49.0840   70.4910 O   0  0  0  0  0
   54.7540   48.0400   68.8400 O   0  0  0  0  0
   54.8280   49.1180   66.1500 O   0  0  0  0  0
   54.3060   51.9910   66.1570 O   0  0  0  0  0
   52.2940   50.7350   68.9620 O   0  0  0  0  0
   52.3130   53.8560   67.3580 O   0  0  0  0  0
   51.4862   54.0364   65.5232 H   0  0  0  0  0
   51.9111   56.3988   65.3022 H   0  0  0  0  0
   52.9164   56.3458   68.1614 H   0  0  0  0  0
   50.9291   57.5980   68.7699 H   0  0  0  0  0
   50.8052   55.2373   68.9160 H   0  0  0  0  0
   48.7141   56.5969   69.2937 H   0  0  0  0  0
   48.5563   54.8157   69.0937 H   0  0  0  0  0
   53.7398   54.9636   65.0815 H   0  0  0  0  0
   53.8732   57.8935   66.7180 H   0  0  0  0  0
   50.6545   58.6168   66.7114 H   0  0  0  0  0
   46.9990   55.9985   67.8810 H   0  0  0  0  0
   54.1261   50.4238   69.9104 H   0  0  0  0  0
   52.9919   48.4486   67.8931 H   0  0  0  0  0
   55.3774   50.3231   67.7390 H   0  0  0  0  0
   52.7795   50.5714   66.2242 H   0  0  0  0  0
   53.6223   52.2658   68.5700 H   0  0  0  0  0
   50.9405   52.5803   68.2721 H   0  0  0  0  0
   51.3494   52.1596   66.6228 H   0  0  0  0  0
   52.4162   49.6549   71.1925 H   0  0  0  0  0
   55.0754   47.5017   68.1130 H   0  0  0  0  0
   55.2409   49.6855   65.4950 H   0  0  0  0  0
   53.7246   52.7028   65.8796 H   0  0  0  0  0
  1  2  1  0  0  0
  1 10  1  0  0  0
 23  1  1  0  0  0
  2  3  1  0  0  0
  2  7  1  0  0  0
  3  4  1  0  0  0
  3  8  1  0  0  0
  5  4  1  0  0  0
  4  9  1  0  0  0
  5  6  1  0  0  0
 10  5  1  0  0  0
  6 11  1  0  0  0
 12 13  1  0  0  0
 12 18  1  0  0  0
 22 12  1  0  0  0
 14 13  1  0  0  0
 13 19  1  0  0  0
 15 14  1  0  0  0
 14 20  1  0  0  0
 16 15  1  0  0  0
 15 21  1  0  0  0
 17 16  1  0  0  0
 16 22  1  0  0  0
 17 23  1  0  0  0
  1 24  1  0  0  0
  2 25  1  0  0  0
  3 26  1  0  0  0
  4 27  1  0  0  0
  5 28  1  0  0  0
  6 29  1  0  0  0
  6 30  1  0  0  0
  7 31  1  0  0  0
  8 32  1  0  0  0
  9 33  1  0  0  0
 11 34  1  0  0  0
 12 35  1  0  0  0
 13 36  1  0  0  0
 14 37  1  0  0  0
 15 38  1  0  0  0
 16 39  1  0  0  0
 17 40  1  0  0  0
 17 41  1  0  0  0
 18 42  1  0  0  0
 19 43  1  0  0  0
 20 44  1  0  0  0
 21 45  1  0  0  0
M  END
$$$$
