4c4j_ligand
  -I-interpret- 

 62 66  0  0  0  0  0  0  0  0999 V2000
    4.6010   21.4280   38.3640 C   0  0  0  0  0
    4.4090   20.7820   39.6790 N   0  0  0  0  0
    1.6930   17.0480   44.1580 O   0  0  0  0  0
   -0.3600   19.0560   50.7650 Cl  0  0  0  0  0
    4.7690   19.5260   41.4310 C   0  0  0  0  0
    5.2480   19.8070   40.1820 N   0  0  0  0  0
    3.0960   17.5520   42.4610 O   0  0  0  0  0
    3.4030   21.1080   40.5660 C   0  0  0  0  0
    0.1130   21.5330   46.5000 N   0  0  0  0  0
    3.6030   20.3300   41.7110 C   0  0  0  0  0
   -0.6820   19.6460   47.7980 N   0  0  0  0  0
    2.7800   20.4160   42.9020 C   0  0  0  0  0
   -2.0050   11.9930   48.9600 N   0  0  0  0  0
    2.3630   21.5850   43.4720 C   0  0  0  0  0
   -2.8260   13.7340   50.1380 N   0  0  0  0  0
    1.5870   21.2770   44.6290 C   0  0  0  0  0
    2.2790   19.2980   43.6690 N   0  0  0  0  0
    0.8540   22.0540   45.5230 C   0  0  0  0  0
    0.0880   20.1390   46.6860 C   0  0  0  0  0
   -0.9680   18.3000   48.1740 C   0  0  0  0  0
   -0.9110   17.9090   49.5780 C   0  0  0  0  0
   -1.2050   16.5960   50.0150 C   0  0  0  0  0
   -1.5510   15.6540   48.9960 C   0  0  0  0  0
   -1.8370   14.2610   49.2300 C   0  0  0  0  0
   -1.3440   13.1480   48.5300 C   0  0  0  0  0
   -2.8960   12.4210   49.9400 C   0  0  0  0  0
   -3.6040   14.5140   51.1020 C   0  0  0  0  0
   -1.5910   16.0370   47.6440 C   0  0  0  0  0
   -1.3080   17.3060   47.2310 C   0  0  0  0  0
    0.8040   19.2350   45.8410 C   0  0  0  0  0
    1.5430   19.8320   44.7790 C   0  0  0  0  0
    2.4020   17.9220   43.3700 C   0  0  0  0  0
    1.7820   15.5740   44.0050 C   0  0  0  0  0
    1.3760   15.1130   42.6200 C   0  0  0  0  0
    0.7950   15.0870   45.0420 C   0  0  0  0  0
    3.1890   15.1270   44.3380 C   0  0  0  0  0
    5.5690   21.9286   38.3444 H   0  0  0  0  0
    4.5660   20.6712   37.5803 H   0  0  0  0  0
    3.8091   22.1590   38.2006 H   0  0  0  0  0
    5.2047   18.7995   42.1169 H   0  0  0  0  0
    2.6052   21.8331   40.4050 H   0  0  0  0  0
   -1.0806   20.3626   48.4046 H   0  0  0  0  0
    2.5859   22.5866   43.1042 H   0  0  0  0  0
    0.8882   23.1384   45.4184 H   0  0  0  0  0
   -1.1698   16.3181   51.0684 H   0  0  0  0  0
   -0.5652   13.1794   47.7680 H   0  0  0  0  0
   -3.5713   11.7582   50.4811 H   0  0  0  0  0
   -2.9268   15.0072   51.7993 H   0  0  0  0  0
   -4.1908   15.2639   50.5715 H   0  0  0  0  0
   -4.2717   13.8496   51.6505 H   0  0  0  0  0
   -1.8587   15.2906   46.8962 H   0  0  0  0  0
   -1.3445   17.5531   46.1700 H   0  0  0  0  0
    0.7857   18.1567   45.9992 H   0  0  0  0  0
    1.3470   14.0237   42.5950 H   0  0  0  0  0
    0.3892   15.5096   42.3812 H   0  0  0  0  0
    2.1008   15.4753   41.8909 H   0  0  0  0  0
   -0.1945   15.4835   44.8144 H   0  0  0  0  0
    0.7633   13.9975   45.0282 H   0  0  0  0  0
    1.1072   15.4302   46.0283 H   0  0  0  0  0
    3.2410   14.0388   44.3032 H   0  0  0  0  0
    3.8842   15.5486   43.6120 H   0  0  0  0  0
    3.4517   15.4727   45.3378 H   0  0  0  0  0
  2  1  1  0  0  0
  2  6  4  0  0  0
  8  2  4  0  0  0
 32  3  1  0  0  0
  3 33  1  0  0  0
 21  4  1  0  0  0
  5  6  4  0  0  0
 10  5  4  0  0  0
 32  7  2  0  0  0
 10  8  4  0  0  0
  9 18  4  0  0  0
 19  9  4  0  0  0
 12 10  1  0  0  0
 11 19  1  0  0  0
 20 11  1  0  0  0
 14 12  4  0  0  0
 17 12  4  0  0  0
 13 25  4  0  0  0
 26 13  4  0  0  0
 16 14  4  0  0  0
 24 15  4  0  0  0
 15 26  4  0  0  0
 15 27  1  0  0  0
 18 16  4  0  0  0
 16 31  4  0  0  0
 31 17  4  0  0  0
 17 32  1  0  0  0
 19 30  4  0  0  0
 21 20  4  0  0  0
 20 29  4  0  0  0
 22 21  4  0  0  0
 23 22  4  0  0  0
 23 24  1  0  0  0
 23 28  4  0  0  0
 24 25  4  0  0  0
 28 29  4  0  0  0
 30 31  4  0  0  0
 33 34  1  0  0  0
 33 35  1  0  0  0
 33 36  1  0  0  0
  1 37  1  0  0  0
  1 38  1  0  0  0
  1 39  1  0  0  0
  5 40  1  0  0  0
  8 41  1  0  0  0
 11 42  1  0  0  0
 14 43  1  0  0  0
 18 44  1  0  0  0
 22 45  1  0  0  0
 25 46  1  0  0  0
 26 47  1  0  0  0
 27 48  1  0  0  0
 27 49  1  0  0  0
 27 50  1  0  0  0
 28 51  1  0  0  0
 29 52  1  0  0  0
 30 53  1  0  0  0
 34 54  1  0  0  0
 34 55  1  0  0  0
 34 56  1  0  0  0
 35 57  1  0  0  0
 35 58  1  0  0  0
 35 59  1  0  0  0
 36 60  1  0  0  0
 36 61  1  0  0  0
 36 62  1  0  0  0
M  END
$$$$
