2ria_ligand
  -I-interpret- 

 28 28  0  0  0  0  0  0  0  0999 V2000
   32.9210  -12.6820   11.3820 O   0  0  0  0  0
   31.7340  -13.0710   10.6660 C   0  0  0  0  0
   30.9270  -11.8220   10.2750 C   0  0  0  0  0
   31.5040  -11.2820    9.0890 O   0  0  0  0  0
   29.4090  -12.1520   10.0290 C   0  0  0  0  0
   29.2840  -12.9210    8.7490 O   0  0  0  0  0
   27.8620  -13.2600    8.4010 C   0  0  0  0  0
   27.1280  -12.0150    8.2470 O   0  0  0  0  0
   27.2230  -14.1380    9.5420 C   0  0  0  0  0
   27.9540  -15.3810    9.6630 O   0  0  0  0  0
   27.3050  -13.3510   10.8870 C   0  0  0  0  0
   26.7290  -14.1400   11.9200 O   0  0  0  0  0
   28.7980  -13.0180   11.2060 C   0  0  0  0  0
   28.8790  -12.2830   12.4490 O   0  0  0  0  0
   33.4196  -13.4663   11.6228 H   0  0  0  0  0
   31.1224  -13.7097   11.3033 H   0  0  0  0  0
   32.0191  -13.6122    9.7638 H   0  0  0  0  0
   30.9665  -11.1042   11.0944 H   0  0  0  0  0
   32.4299  -11.0832    9.2468 H   0  0  0  0  0
   28.8603  -11.2115    9.9789 H   0  0  0  0  0
   27.8232  -13.8322    7.4741 H   0  0  0  0  0
   27.5295  -11.4924    7.5490 H   0  0  0  0  0
   26.1823  -14.3570    9.3031 H   0  0  0  0  0
   27.5630  -15.9145   10.3588 H   0  0  0  0  0
   26.7537  -12.4138   10.8108 H   0  0  0  0  0
   26.7762  -13.6613   12.7508 H   0  0  0  0  0
   29.3635  -13.9448   11.3027 H   0  0  0  0  0
   29.7977  -12.0808   12.6406 H   0  0  0  0  0
  1  2  1  0  0  0
  2  3  1  0  0  0
  3  4  1  0  0  0
  3  5  1  0  0  0
  5  6  1  0  0  0
  5 13  1  0  0  0
  6  7  1  0  0  0
  7  8  1  0  0  0
  7  9  1  0  0  0
  9 10  1  0  0  0
  9 11  1  0  0  0
 11 12  1  0  0  0
 11 13  1  0  0  0
 13 14  1  0  0  0
  1 15  1  0  0  0
  2 16  1  0  0  0
  2 17  1  0  0  0
  3 18  1  0  0  0
  4 19  1  0  0  0
  5 20  1  0  0  0
  7 21  1  0  0  0
  8 22  1  0  0  0
  9 23  1  0  0  0
 10 24  1  0  0  0
 11 25  1  0  0  0
 12 26  1  0  0  0
 13 27  1  0  0  0
 14 28  1  0  0  0
M  END
$$$$
