4fpf_ligand
  -I-interpret- 

 28 28  0  0  0  0  0  0  0  0999 V2000
   -7.2120   -8.0560  -39.9300 C   0  0  0  0  0
   -6.4430   -7.3280  -40.8120 C   0  0  0  0  0
   -7.1700   -7.7390  -38.5440 C   0  0  0  0  0
   -5.6290   -6.0220  -39.0290 C   0  0  0  0  0
   -4.7930   -6.0900  -34.8030 C   0  0  0  0  0
   -3.4860   -6.5060  -34.1100 C   0  0  0  0  0
   -6.3190   -6.3720  -36.6020 C   0  0  0  0  0
   -5.6630   -6.3310  -40.3900 C   0  0  0  0  0
   -6.4070   -6.7490  -38.1360 C   0  0  0  0  0
   -5.0980   -6.8220  -35.9800 N   0  3  0  0  0
   -2.5600   -4.1200  -33.5440 O   0  0  0  0  0
   -3.8380   -5.1750  -31.8130 O   0  0  0  0  0
   -1.6220   -5.9640  -32.3010 O   0  0  0  0  0
   -2.8460   -5.3870  -32.8840 S   0  0  0  0  0
   -4.6950   -5.4100  -41.4650 Cl  0  0  0  0  0
   -7.8457   -8.8662  -40.2907 H   0  0  0  0  0
   -6.4725   -7.5712  -41.8741 H   0  0  0  0  0
   -7.7629   -8.3096  -37.8292 H   0  0  0  0  0
   -4.9941   -5.2129  -38.6679 H   0  0  0  0  0
   -4.6779   -5.0471  -35.0984 H   0  0  0  0  0
   -5.6009   -6.2756  -34.0952 H   0  0  0  0  0
   -2.7314   -6.5572  -34.8949 H   0  0  0  0  0
   -3.7057   -7.4355  -33.5847 H   0  0  0  0  0
   -7.1503   -6.8590  -36.0922 H   0  0  0  0  0
   -6.3498   -5.2852  -36.5250 H   0  0  0  0  0
   -5.2161   -7.8018  -35.7221 H   0  0  0  0  0
   -4.3356   -6.6866  -36.6439 H   0  0  0  0  0
   -4.0240   -6.0116  -31.3805 H   0  0  0  0  0
  1  2  4  0  0  0
  3  1  4  0  0  0
  8  2  4  0  0  0
  9  3  4  0  0  0
  4  8  4  0  0  0
  9  4  4  0  0  0
  5  6  1  0  0  0
 10  5  1  0  0  0
  6 14  1  0  0  0
  7  9  1  0  0  0
  7 10  1  0  0  0
  8 15  1  0  0  0
 14 11  2  0  0  0
 14 12  1  0  0  0
 14 13  2  0  0  0
  1 16  1  0  0  0
  2 17  1  0  0  0
  3 18  1  0  0  0
  4 19  1  0  0  0
  5 20  1  0  0  0
  5 21  1  0  0  0
  6 22  1  0  0  0
  6 23  1  0  0  0
  7 24  1  0  0  0
  7 25  1  0  0  0
 10 26  1  0  0  0
 10 27  1  0  0  0
 12 28  1  0  0  0
M  END
$$$$
