5u0z_ligand
  -I-interpret- 

 31 33  0  0  0  0  0  0  0  0999 V2000
    1.3610   -2.7680   23.9850 C   0  0  0  0  0
    1.8400   -1.5420   23.5530 C   0  0  0  0  0
    2.2430   -3.7630   24.3550 C   0  0  0  0  0
    3.1990   -1.3040   23.4890 C   0  0  0  0  0
    3.6030   -3.5190   24.2890 C   0  0  0  0  0
    4.0930   -2.2910   23.8600 C   0  0  0  0  0
    9.2900    0.1710   24.5570 C   0  0  0  0  0
    9.6120   -0.1770   25.8350 C   0  0  0  0  0
    7.7970   -1.1900   25.1790 C   0  0  0  0  0
   10.1270    1.1040   23.8480 C   0  0  0  0  0
   11.4050    1.0710   25.9540 C   0  0  0  0  0
    6.1480   -2.9980   22.7510 C   0  0  0  0  0
    5.5680   -2.0110   23.7800 C   0  0  0  0  0
    8.1580   -0.4620   24.1310 N   0  0  0  0  0
   10.6340    0.2270   26.5830 N   0  0  0  0  0
    8.6570   -1.0540   26.2280 N   0  0  0  0  0
   11.1890    1.5050   24.6420 N   0  0  0  0  0
   12.5080    1.6230   26.5380 N   0  0  0  0  0
    5.7600   -2.7610   21.5800 O   0  0  0  0  0
    9.9360    1.4960   22.7080 O   0  0  0  0  0
    6.9050   -3.9390   23.1290 O   0  0  0  0  0
    6.4170   -2.2630   25.3670 S   0  0  0  0  0
    0.2868   -2.9469   24.0327 H   0  0  0  0  0
    1.1393   -0.7596   23.2615 H   0  0  0  0  0
    1.8722   -4.7299   24.6953 H   0  0  0  0  0
    3.5669   -0.3371   23.1457 H   0  0  0  0  0
    4.3025   -4.3032   24.5784 H   0  0  0  0  0
    5.7161   -0.9677   23.5014 H   0  0  0  0  0
   10.7969   -0.0870   27.5397 H   0  0  0  0  0
   13.0836    2.2847   26.0172 H   0  0  0  0  0
    7.0365   -3.8807   24.0782 H   0  0  0  0  0
  2  1  4  0  0  0
  3  1  4  0  0  0
  4  2  4  0  0  0
  5  3  4  0  0  0
  6  4  4  0  0  0
  6  5  4  0  0  0
 13  6  1  0  0  0
  8  7  4  0  0  0
  7 10  1  0  0  0
 14  7  4  0  0  0
  8 15  1  0  0  0
 16  8  4  0  0  0
  9 14  4  0  0  0
  9 16  4  0  0  0
 22  9  1  0  0  0
 10 17  1  0  0  0
 10 20  2  0  0  0
 15 11  1  0  0  0
 11 17  4  0  0  0
 11 18  2  0  0  0
 13 12  1  0  0  0
 12 19  2  0  0  0
 12 21  1  0  0  0
 13 22  1  0  0  0
  1 23  1  0  0  0
  2 24  1  0  0  0
  3 25  1  0  0  0
  4 26  1  0  0  0
  5 27  1  0  0  0
 13 28  1  0  0  0
 15 29  1  0  0  0
 18 30  1  0  0  0
 21 31  1  0  0  0
M  END
$$$$
