4bhf_ligand
  -I-interpret- 

 29 28  0  0  0  0  0  0  0  0999 V2000
   22.5500   31.9450   87.7140 N   0  3  0  0  0
   22.5610   32.8600   88.8680 C   0  0  0  0  0
   22.7790   27.1630   87.8820 O   0  0  0  0  0
   21.5490   27.3470   87.9330 C   0  0  0  0  0
   20.8480   26.5400   88.5310 O   0  0  0  0  0
   20.8100   28.5060   87.2660 C   0  0  0  0  0
   21.7520   30.7110   88.0550 C   0  0  0  0  0
   21.9110   32.6670   86.6090 C   0  0  0  0  0
   23.9400   31.6640   87.3010 C   0  0  0  0  0
   21.6870   29.7040   86.9090 C   0  0  0  0  0
   22.2220   29.9820   89.3010 C   0  0  0  0  0
   21.5381   33.1455   89.1135 H   0  0  0  0  0
   23.0149   32.3589   89.7230 H   0  0  0  0  0
   23.1382   33.7504   88.6186 H   0  0  0  0  0
   23.1874   27.8743   87.3832 H   0  0  0  0  0
   20.0663   28.8599   87.9800 H   0  0  0  0  0
   20.4004   28.1239   86.3309 H   0  0  0  0  0
   20.7577   31.1128   88.2497 H   0  0  0  0  0
   21.8608   32.0189   85.7341 H   0  0  0  0  0
   20.9035   32.9610   86.9032 H   0  0  0  0  0
   22.4954   33.5558   86.3713 H   0  0  0  0  0
   24.4624   31.1549   88.1109 H   0  0  0  0  0
   23.9331   31.0286   86.4154 H   0  0  0  0  0
   24.4466   32.6018   87.0730 H   0  0  0  0  0
   21.2574   30.1991   86.0382 H   0  0  0  0  0
   22.6962   29.3452   86.7070 H   0  0  0  0  0
   21.5183   29.1850   89.5413 H   0  0  0  0  0
   23.2085   29.5551   89.1203 H   0  0  0  0  0
   22.2755   30.6843   90.1329 H   0  0  0  0  0
  1  2  1  0  0  0
  7  1  1  0  0  0
  1  8  1  0  0  0
  1  9  1  0  0  0
  4  3  1  0  0  0
  4  5  2  0  0  0
  6  4  1  0  0  0
 10  6  1  0  0  0
  7 10  1  0  0  0
  7 11  1  0  0  0
  2 12  1  0  0  0
  2 13  1  0  0  0
  2 14  1  0  0  0
  3 15  1  0  0  0
  6 16  1  0  0  0
  6 17  1  0  0  0
  7 18  1  0  0  0
  8 19  1  0  0  0
  8 20  1  0  0  0
  8 21  1  0  0  0
  9 22  1  0  0  0
  9 23  1  0  0  0
  9 24  1  0  0  0
 10 25  1  0  0  0
 10 26  1  0  0  0
 11 27  1  0  0  0
 11 28  1  0  0  0
 11 29  1  0  0  0
M  END
$$$$
