4yrr_ligand
  -I-interpret- 

 24 25  0  0  0  0  0  0  0  0999 V2000
    8.3960   -5.8270   31.4690 O   0  0  0  0  0
    8.1190   -5.2470   32.5140 C   0  0  0  0  0
    6.8220   -4.5150   32.6980 C   0  0  0  0  0
    8.9510   -5.2200   33.5850 N   0  0  0  0  0
   10.1360   -5.9670   33.7910 C   0  0  0  0  0
   10.7510   -6.6590   32.7730 C   0  0  0  0  0
   11.9560   -7.3520   33.0110 C   0  0  0  0  0
   12.4920   -7.3250   34.3180 C   0  0  0  0  0
   11.8700   -6.6540   35.3380 N   0  0  0  0  0
   10.7580   -6.0210   35.0360 C   0  0  0  0  0
   12.6840   -8.0080   31.9930 C   0  0  0  0  0
   13.8870   -8.5860   32.2630 C   0  0  0  0  0
   14.4120   -8.5590   33.5460 C   0  0  0  0  0
   13.7350   -7.9500   34.5630 C   0  0  0  0  0
    6.7436   -3.7242   31.9520 H   0  0  0  0  0
    5.9927   -5.2122   32.5788 H   0  0  0  0  0
    6.7910   -4.0787   33.6964 H   0  0  0  0  0
    8.6902   -4.5813   34.3363 H   0  0  0  0  0
   10.3050   -6.6716   31.7785 H   0  0  0  0  0
   10.2704   -5.4803   35.8472 H   0  0  0  0  0
   12.2788   -8.0518   30.9821 H   0  0  0  0  0
   14.4427   -9.0747   31.4627 H   0  0  0  0  0
   15.3752   -9.0289   33.7446 H   0  0  0  0  0
   14.1554   -7.9459   35.5687 H   0  0  0  0  0
  1  2  2  0  0  0
  2  3  1  0  0  0
  2  4  1  0  0  0
  4  5  1  0  0  0
  5  6  4  0  0  0
  5 10  4  0  0  0
  6  7  4  0  0  0
  7  8  4  0  0  0
  7 11  4  0  0  0
  8  9  4  0  0  0
  8 14  4  0  0  0
  9 10  4  0  0  0
 11 12  4  0  0  0
 12 13  4  0  0  0
 13 14  4  0  0  0
  3 15  1  0  0  0
  3 16  1  0  0  0
  3 17  1  0  0  0
  4 18  1  0  0  0
  6 19  1  0  0  0
 10 20  1  0  0  0
 11 21  1  0  0  0
 12 22  1  0  0  0
 13 23  1  0  0  0
 14 24  1  0  0  0
M  END
$$$$
