6p8y_ligand
  -I-interpret- 

 65 69  0  0  0  0  0  0  0  0999 V2000
   -3.1410  -10.1930  -10.7290 C   0  0  0  0  0
   -3.9660  -10.7170   -9.5550 C   0  0  0  0  0
   -3.9930   -9.7550   -8.3520 C   0  0  0  0  0
   -3.0270   -9.5630   -7.6890 O   0  0  0  0  0
   -5.2240   -9.0670   -8.0070 N   0  0  0  0  0
   -5.6190   -8.0950   -6.9480 C   0  0  0  0  0
   -6.9440   -7.9340   -7.5980 C   0  0  0  0  0
   -6.6120   -9.0230   -8.5540 C   0  0  0  0  0
   -8.0510   -8.3320   -6.7280 N   0  0  0  0  0
   -8.2390   -7.7740   -5.3830 C   0  0  0  0  0
   -7.4950   -6.9660   -4.9350 O   0  0  0  0  0
   -9.4390   -8.2720   -4.5670 C   0  0  0  0  0
   -9.6120   -7.4840   -3.3500 N   0  0  0  0  0
  -10.4120   -6.4340   -3.2550 C   0  0  0  0  0
  -10.3300   -5.9220   -1.9580 C   0  0  0  0  0
  -11.1170   -4.6980   -1.4140 C   0  0  0  0  0
  -11.3230   -4.6180   -0.2470 O   0  0  0  0  0
  -11.6300   -3.6590   -2.3090 N   0  0  0  0  0
  -11.4020   -3.7230   -3.7730 C   0  0  0  0  0
  -11.6370   -2.4550   -4.5700 C   0  0  0  0  0
  -12.9120   -1.7480   -4.1410 C   0  0  0  0  0
  -13.7050   -1.0640   -5.1140 C   0  0  0  0  0
  -13.2880   -1.0750   -6.4610 O   0  0  0  0  0
  -13.8190   -0.0980   -7.3170 C   0  0  0  0  0
  -14.8710   -0.4180   -4.6970 C   0  0  0  0  0
  -15.2530   -0.4320   -3.3520 C   0  0  0  0  0
  -14.4730   -1.1010   -2.4060 C   0  0  0  0  0
  -13.2800   -1.7660   -2.8330 C   0  0  0  0  0
  -12.4020   -2.5040   -1.7750 C   0  0  0  0  0
   -9.4160   -6.7650   -1.2550 C   0  0  0  0  0
   -8.9090   -6.7900    0.0670 C   0  0  0  0  0
   -7.9890   -7.7770    0.4500 C   0  0  0  0  0
   -7.3040   -7.8070    2.2650 Br  0  0  0  0  0
   -7.5590   -8.7450   -0.4700 C   0  0  0  0  0
   -8.0530   -8.7230   -1.7720 C   0  0  0  0  0
   -8.9900   -7.7200   -2.1620 C   0  0  0  0  0
   -3.5606   -9.2477  -11.0730 H   0  0  0  0  0
   -2.1109  -10.0392  -10.4076 H   0  0  0  0  0
   -3.1649  -10.9196  -11.5412 H   0  0  0  0  0
   -3.5096  -11.6490   -9.2215 H   0  0  0  0  0
   -4.9920  -10.8396   -9.9020 H   0  0  0  0  0
   -4.9981   -7.2218   -6.7478 H   0  0  0  0  0
   -5.5559   -8.3757   -5.8967 H   0  0  0  0  0
   -7.2617   -6.9498   -7.9423 H   0  0  0  0  0
   -7.2179   -9.9285   -8.5859 H   0  0  0  0  0
   -6.7763   -8.8838   -9.6225 H   0  0  0  0  0
   -8.7181   -9.0241   -7.0692 H   0  0  0  0  0
   -9.2632   -9.3107   -4.2874 H   0  0  0  0  0
  -10.3382   -8.1753   -5.1754 H   0  0  0  0  0
  -11.0328   -6.0345   -4.0570 H   0  0  0  0  0
  -12.1228   -4.4474   -4.1522 H   0  0  0  0  0
  -10.3447   -3.9573   -3.8967 H   0  0  0  0  0
  -11.7313   -2.7238   -5.6221 H   0  0  0  0  0
  -10.7972   -1.7816   -4.3986 H   0  0  0  0  0
  -14.9038   -0.1983   -7.3521 H   0  0  0  0  0
  -13.5562    0.8918   -6.9438 H   0  0  0  0  0
  -13.4080   -0.2313   -8.3177 H   0  0  0  0  0
  -15.4898    0.1026   -5.4279 H   0  0  0  0  0
  -16.1629    0.0811   -3.0406 H   0  0  0  0  0
  -14.7689   -1.1163   -1.3570 H   0  0  0  0  0
  -11.6764   -1.7807   -1.4028 H   0  0  0  0  0
  -13.0796   -2.8969   -1.0170 H   0  0  0  0  0
   -9.2344   -6.0406    0.7885 H   0  0  0  0  0
   -6.8430   -9.5093   -0.1678 H   0  0  0  0  0
   -7.7240   -9.4716   -2.4927 H   0  0  0  0  0
  1  2  1  0  0  0
  2  3  1  0  0  0
  3  4  2  0  0  0
  3  5  1  0  0  0
  5  6  1  0  0  0
  5  8  1  0  0  0
  6  7  1  0  0  0
  7  8  1  0  0  0
  7  9  1  0  0  0
  9 10  1  0  0  0
 10 11  2  0  0  0
 10 12  1  0  0  0
 12 13  1  0  0  0
 13 14  4  0  0  0
 13 36  4  0  0  0
 14 15  4  0  0  0
 15 16  1  0  0  0
 15 30  4  0  0  0
 16 17  2  0  0  0
 16 18  1  0  0  0
 18 19  1  0  0  0
 18 29  1  0  0  0
 19 20  1  0  0  0
 20 21  1  0  0  0
 21 22  4  0  0  0
 21 28  4  0  0  0
 22 23  1  0  0  0
 22 25  4  0  0  0
 23 24  1  0  0  0
 25 26  4  0  0  0
 26 27  4  0  0  0
 27 28  4  0  0  0
 28 29  1  0  0  0
 30 31  4  0  0  0
 30 36  4  0  0  0
 31 32  4  0  0  0
 32 33  1  0  0  0
 32 34  4  0  0  0
 34 35  4  0  0  0
 35 36  4  0  0  0
  1 37  1  0  0  0
  1 38  1  0  0  0
  1 39  1  0  0  0
  2 40  1  0  0  0
  2 41  1  0  0  0
  6 42  1  0  0  0
  6 43  1  0  0  0
  7 44  1  0  0  0
  8 45  1  0  0  0
  8 46  1  0  0  0
  9 47  1  0  0  0
 12 48  1  0  0  0
 12 49  1  0  0  0
 14 50  1  0  0  0
 19 51  1  0  0  0
 19 52  1  0  0  0
 20 53  1  0  0  0
 20 54  1  0  0  0
 24 55  1  0  0  0
 24 56  1  0  0  0
 24 57  1  0  0  0
 25 58  1  0  0  0
 26 59  1  0  0  0
 27 60  1  0  0  0
 29 61  1  0  0  0
 29 62  1  0  0  0
 31 63  1  0  0  0
 34 64  1  0  0  0
 35 65  1  0  0  0
M  END
$$$$
