1upk_ligand
  -I-interpret- 

 76 78  0  0  0  0  0  0  0  0999 V2000
   59.0090  -46.3590    8.2930 N   0  3  0  0  0
   59.0280  -44.8780    8.0680 C   0  0  0  0  0
   59.6170  -44.5730    6.6950 C   0  0  0  0  0
   60.4230  -45.3490    6.1510 O   0  0  0  0  0
   59.8730  -44.1940    9.1430 C   0  0  0  0  0
   59.7180  -42.6870    9.1450 C   0  0  0  0  0
   60.0290  -42.0500    8.1180 O   0  0  0  0  0
   59.2830  -42.1380   10.1780 O   0  0  0  0  0
   59.2210  -43.4420    6.1250 N   0  0  0  0  0
   59.7440  -43.0620    4.8210 C   0  0  0  0  0
   61.1570  -42.5390    5.0310 C   0  0  0  0  0
   61.5210  -42.1460    6.1360 O   0  0  0  0  0
   58.9000  -41.9460    4.1810 C   0  0  0  0  0
   57.4370  -42.2320    4.0810 C   0  0  0  0  0
   56.4150  -41.5340    4.6870 C   0  0  0  0  0
   56.8110  -43.2880    3.3370 C   0  0  0  0  0
   55.2060  -42.0950    4.3640 N   0  0  0  0  0
   55.4150  -43.1720    3.5430 C   0  0  0  0  0
   57.2910  -44.3210    2.5210 C   0  0  0  0  0
   54.4950  -44.0560    2.9640 C   0  0  0  0  0
   56.3720  -45.2020    1.9440 C   0  0  0  0  0
   54.9920  -45.0600    2.1710 C   0  0  0  0  0
   61.9520  -42.5380    3.9700 N   0  0  0  0  0
   63.3080  -42.0120    4.0280 C   0  0  0  0  0
   63.4140  -40.9520    2.9380 C   0  0  0  0  0
   63.1610  -41.2320    1.7670 O   0  0  0  0  0
   64.3130  -43.1520    3.8290 C   0  0  0  0  0
   64.2390  -44.1360    4.9910 C   0  0  0  0  0
   65.3450  -45.1770    4.9940 C   0  0  0  0  0
   66.3150  -45.0380    4.2010 O   0  0  0  0  0
   65.2300  -46.1260    5.8030 O   0  0  0  0  0
   63.7730  -39.7280    3.3210 N   0  0  0  0  0
   63.8560  -38.6190    2.3570 C   0  0  0  0  0
   65.2690  -38.1230    2.0670 C   0  0  0  0  0
   65.5180  -37.5980    0.9450 O   0  0  0  0  0
   62.9880  -37.4370    2.8390 C   0  0  0  0  0
   61.5580  -37.8150    3.1440 C   0  0  0  0  0
   61.1110  -37.8830    4.4510 C   0  0  0  0  0
   60.6650  -38.1250    2.1160 C   0  0  0  0  0
   59.7900  -38.2590    4.7380 C   0  0  0  0  0
   59.3350  -38.5030    2.3940 C   0  0  0  0  0
   58.9040  -38.5690    3.7080 C   0  0  0  0  0
   66.1110  -38.2440    2.9790 O   0  0  0  0  0
   58.4429  -46.8042    7.5707 H   0  0  0  0  0
   59.9619  -46.7204    8.2508 H   0  0  0  0  0
   58.6093  -46.5572    9.2102 H   0  0  0  0  0
   58.0063  -44.5017    8.1200 H   0  0  0  0  0
   60.9193  -44.4206    8.9380 H   0  0  0  0  0
   59.5407  -44.5640   10.1129 H   0  0  0  0  0
   59.1074  -42.8063   10.8445 H   0  0  0  0  0
   58.5500  -42.8389    6.6008 H   0  0  0  0  0
   59.7215  -43.9276    4.1589 H   0  0  0  0  0
   59.2651  -41.8234    3.1613 H   0  0  0  0  0
   59.0043  -41.0693    4.8203 H   0  0  0  0  0
   56.5481  -40.6633    5.3291 H   0  0  0  0  0
   58.3597  -44.4353    2.3398 H   0  0  0  0  0
   53.4240  -43.9503    3.1370 H   0  0  0  0  0
   56.7308  -46.0115    1.3083 H   0  0  0  0  0
   54.3008  -45.7633    1.7066 H   0  0  0  0  0
   61.6039  -42.9162    3.0890 H   0  0  0  0  0
   63.5336  -41.5640    4.9957 H   0  0  0  0  0
   65.3186  -42.7341    3.7817 H   0  0  0  0  0
   64.0750  -43.6771    2.9039 H   0  0  0  0  0
   63.2934  -44.6706    4.9009 H   0  0  0  0  0
   64.3380  -43.5579    5.9097 H   0  0  0  0  0
   66.1891  -44.2418    3.6796 H   0  0  0  0  0
   63.9948  -39.5558    4.3016 H   0  0  0  0  0
   63.4840  -39.0270    1.4172 H   0  0  0  0  0
   64.7254  -37.6118    0.4035 H   0  0  0  0  0
   62.9652  -36.7015    2.0349 H   0  0  0  0  0
   63.4300  -37.0651    3.7633 H   0  0  0  0  0
   61.7923  -37.6419    5.2670 H   0  0  0  0  0
   61.0018  -38.0739    1.0806 H   0  0  0  0  0
   59.4545  -38.3090    5.7739 H   0  0  0  0  0
   58.6509  -38.7416    1.5796 H   0  0  0  0  0
   57.8788  -38.8614    3.9353 H   0  0  0  0  0
  1  2  1  0  0  0
  2  3  1  0  0  0
  2  5  1  0  0  0
  3  4  2  0  0  0
  3  9  1  0  0  0
  5  6  1  0  0  0
  6  7  2  0  0  0
  6  8  1  0  0  0
  9 10  1  0  0  0
 10 11  1  0  0  0
 10 13  1  0  0  0
 11 12  2  0  0  0
 11 23  1  0  0  0
 13 14  1  0  0  0
 14 15  4  0  0  0
 14 16  4  0  0  0
 15 17  4  0  0  0
 16 18  4  0  0  0
 16 19  4  0  0  0
 17 18  4  0  0  0
 18 20  4  0  0  0
 19 21  4  0  0  0
 20 22  4  0  0  0
 21 22  4  0  0  0
 23 24  1  0  0  0
 24 25  1  0  0  0
 24 27  1  0  0  0
 25 26  2  0  0  0
 25 32  1  0  0  0
 27 28  1  0  0  0
 28 29  1  0  0  0
 29 30  1  0  0  0
 29 31  2  0  0  0
 32 33  1  0  0  0
 33 34  1  0  0  0
 33 36  1  0  0  0
 34 35  1  0  0  0
 34 43  2  0  0  0
 36 37  1  0  0  0
 37 38  4  0  0  0
 37 39  4  0  0  0
 38 40  4  0  0  0
 39 41  4  0  0  0
 40 42  4  0  0  0
 41 42  4  0  0  0
  1 44  1  0  0  0
  1 45  1  0  0  0
  1 46  1  0  0  0
  2 47  1  0  0  0
  5 48  1  0  0  0
  5 49  1  0  0  0
  8 50  1  0  0  0
  9 51  1  0  0  0
 10 52  1  0  0  0
 13 53  1  0  0  0
 13 54  1  0  0  0
 15 55  1  0  0  0
 19 56  1  0  0  0
 20 57  1  0  0  0
 21 58  1  0  0  0
 22 59  1  0  0  0
 23 60  1  0  0  0
 24 61  1  0  0  0
 27 62  1  0  0  0
 27 63  1  0  0  0
 28 64  1  0  0  0
 28 65  1  0  0  0
 30 66  1  0  0  0
 32 67  1  0  0  0
 33 68  1  0  0  0
 35 69  1  0  0  0
 36 70  1  0  0  0
 36 71  1  0  0  0
 38 72  1  0  0  0
 39 73  1  0  0  0
 40 74  1  0  0  0
 41 75  1  0  0  0
 42 76  1  0  0  0
M  END
$$$$
