2x9f_ligand
  -I-interpret- 

 42 45  0  0  0  0  0  0  0  0999 V2000
   13.6070    6.2540   11.8440 C   0  0  0  0  0
   14.4260    5.2380   12.1810 N   0  0  0  0  0
   13.8820    4.0720   12.5410 C   0  0  0  0  0
   12.5350    3.8660   12.5780 C   0  0  0  0  0
   11.7450    4.9470   12.2220 C   0  0  0  0  0
   10.3380    4.8170   12.2310 N   0  0  0  0  0
    9.7150    3.6510   12.7000 C   0  0  0  0  0
    9.6110    3.3760   14.0520 C   0  0  0  0  0
    9.0180    2.2290   14.5480 C   0  0  0  0  0
    8.4630    1.2770   13.7220 C   0  0  0  0  0
    8.5610    1.5560   12.3730 C   0  0  0  0  0
    8.1210    0.8430   11.2910 N   0  0  0  0  0
    8.4250    1.4300   10.1160 N   0  0  0  0  0
    9.0580    2.5710   10.4350 C   0  0  0  0  0
    9.1690    2.6950   11.8470 C   0  0  0  0  0
   12.2710    6.1220   11.8590 N   0  0  0  0  0
   15.9810   12.2770   12.4030 C   0  0  0  0  0
   14.9290   12.5190   11.0440 S   0  0  0  0  0
   15.7150   12.5050    9.8180 O   0  0  0  0  0
   14.0600   13.6550   11.3180 O   0  0  0  0  0
   13.8890   11.0660   10.9830 C   0  0  0  0  0
   12.5510   11.2060   10.6850 C   0  0  0  0  0
   11.7480   10.0850   10.6420 C   0  0  0  0  0
   12.2880    8.8370   10.8940 C   0  0  0  0  0
   13.6260    8.7000   11.2010 C   0  0  0  0  0
   14.2270    7.4510   11.4600 N   0  0  0  0  0
   14.4340    9.8230   11.2370 C   0  0  0  0  0
   14.5433    3.2506   12.8168 H   0  0  0  0  0
   12.1051    2.9079   12.8702 H   0  0  0  0  0
    9.7633    5.5872   11.8893 H   0  0  0  0  0
   10.0161    4.0983   14.7607 H   0  0  0  0  0
    8.9891    2.0737   15.6265 H   0  0  0  0  0
    7.9843    0.3748   14.1028 H   0  0  0  0  0
    9.4329    3.2978    9.7144 H   0  0  0  0  0
   16.4858   11.3161   12.3035 H   0  0  0  0  0
   16.7215   13.0763   12.4345 H   0  0  0  0  0
   15.3941   12.2872   13.3215 H   0  0  0  0  0
   12.1314   12.1920   10.4854 H   0  0  0  0  0
   10.6876   10.1830   10.4093 H   0  0  0  0  0
   11.6508    7.9538   10.8497 H   0  0  0  0  0
   15.2409    7.4139   11.3546 H   0  0  0  0  0
   15.4956    9.7267   11.4648 H   0  0  0  0  0
  1  2  4  0  0  0
  1 16  4  0  0  0
 26  1  1  0  0  0
  2  3  4  0  0  0
  3  4  4  0  0  0
  5  4  4  0  0  0
  5  6  1  0  0  0
 16  5  4  0  0  0
  6  7  1  0  0  0
  7  8  4  0  0  0
  7 15  4  0  0  0
  8  9  4  0  0  0
  9 10  4  0  0  0
 11 10  4  0  0  0
 11 12  4  0  0  0
 15 11  4  0  0  0
 13 12  4  0  0  0
 14 13  4  0  0  0
 15 14  4  0  0  0
 18 17  1  0  0  0
 18 19  2  0  0  0
 18 20  2  0  0  0
 21 18  1  0  0  0
 22 21  4  0  0  0
 21 27  4  0  0  0
 23 22  4  0  0  0
 24 23  4  0  0  0
 25 24  4  0  0  0
 25 26  1  0  0  0
 25 27  4  0  0  0
  3 28  1  0  0  0
  4 29  1  0  0  0
  6 30  1  0  0  0
  8 31  1  0  0  0
  9 32  1  0  0  0
 10 33  1  0  0  0
 14 34  1  0  0  0
 17 35  1  0  0  0
 17 36  1  0  0  0
 17 37  1  0  0  0
 22 38  1  0  0  0
 23 39  1  0  0  0
 24 40  1  0  0  0
 26 41  1  0  0  0
 27 42  1  0  0  0
M  END
$$$$
