5yqo_ligand
  -I-interpret- 

 62 65  0  0  0  0  0  0  0  0999 V2000
  -14.1330  -13.1250  -19.8960 C   0  0  0  0  0
  -12.2160  -14.4080  -19.2360 C   0  0  0  0  0
  -11.7520  -13.3550  -18.4700 C   0  0  0  0  0
  -12.4880  -12.1850  -18.4090 C   0  0  0  0  0
  -11.6910  -16.7520  -18.4460 C   0  0  0  0  0
  -10.8510  -17.9890  -18.7320 C   0  0  0  0  0
  -10.1970  -18.2250  -19.9300 C   0  0  0  0  0
  -16.3380   -6.2960  -17.6130 N   0  0  0  0  0
  -16.2740   -7.1780  -18.7670 C   0  0  0  0  0
  -15.9910   -8.5290  -18.6650 C   0  0  0  0  0
  -15.9230   -9.2900  -19.8220 C   0  0  0  0  0
  -16.1200   -8.7160  -21.0600 C   0  0  0  0  0
  -16.3910   -7.3620  -21.1590 C   0  0  0  0  0
  -16.4600   -6.5970  -20.0080 C   0  0  0  0  0
  -15.6250  -10.7800  -19.7300 C   0  0  0  0  0
  -14.3940  -10.8600  -19.0340 O   0  0  0  0  0
  -13.6820  -12.0690  -19.1230 C   0  0  0  0  0
  -13.3930  -14.2970  -19.9580 C   0  0  0  0  0
  -11.4750  -15.6470  -19.3480 N   0  0  0  0  0
  -12.4730  -16.7080  -17.5550 O   0  0  0  0  0
   -9.5810  -19.3850  -19.8270 N   0  0  0  0  0
   -9.8250  -19.9050  -18.5930 N   0  0  0  0  0
  -10.6000  -19.0710  -17.9150 C   0  0  0  0  0
   -9.3080  -21.1760  -18.1120 C   0  0  0  0  0
  -16.6620   -6.7090  -16.2620 C   0  0  0  0  0
  -16.9250   -7.8270  -15.9860 O   0  0  0  0  0
  -16.6590   -5.6090  -15.1980 C   0  0  0  0  0
  -14.9440   -5.2220  -14.6820 S   0  0  0  0  0
  -14.0890   -4.1720  -15.9050 C   0  0  0  0  0
  -12.9410   -3.6010  -15.5840 N   0  0  0  0  0
  -12.3020   -2.8290  -16.4490 C   0  0  0  0  0
  -12.8620   -2.6340  -17.7100 C   0  0  0  0  0
  -14.0650   -3.2390  -18.0090 C   0  0  0  0  0
  -14.6400   -3.9960  -17.0890 N   0  0  0  0  0
  -14.7040   -3.0490  -19.3850 C   0  0  0  0  0
  -10.9780   -2.1730  -16.0900 C   0  0  0  0  0
  -15.0654  -13.0362  -20.4535 H   0  0  0  0  0
  -10.8156  -13.4455  -17.9195 H   0  0  0  0  0
  -12.1346  -11.3516  -17.8018 H   0  0  0  0  0
  -10.1928  -17.5693  -20.8007 H   0  0  0  0  0
  -16.1390   -5.3074  -17.7664 H   0  0  0  0  0
  -15.8242   -8.9875  -17.6903 H   0  0  0  0  0
  -16.0624   -9.3279  -21.9602 H   0  0  0  0  0
  -16.5486   -6.9027  -22.1348 H   0  0  0  0  0
  -16.6625   -5.5284  -20.0801 H   0  0  0  0  0
  -15.5655  -11.2437  -20.7147 H   0  0  0  0  0
  -16.4184  -11.3217  -19.2151 H   0  0  0  0  0
  -13.7369  -15.1284  -20.5733 H   0  0  0  0  0
  -10.7788  -15.7414  -20.0875 H   0  0  0  0  0
  -10.9703  -19.2138  -16.8998 H   0  0  0  0  0
   -9.6622  -21.9789  -18.7585 H   0  0  0  0  0
   -8.2183  -21.1517  -18.1244 H   0  0  0  0  0
   -9.6573  -21.3469  -17.0937 H   0  0  0  0  0
  -17.2212   -5.9537  -14.3301 H   0  0  0  0  0
  -17.1149   -4.7111  -15.6151 H   0  0  0  0  0
  -12.3568   -2.0125  -18.4493 H   0  0  0  0  0
  -14.8966   -1.9891  -19.5515 H   0  0  0  0  0
  -14.0266   -3.4216  -20.1533 H   0  0  0  0  0
  -15.6428   -3.6012  -19.4276 H   0  0  0  0  0
  -11.1186   -1.5224  -15.2268 H   0  0  0  0  0
  -10.2454   -2.9436  -15.8502 H   0  0  0  0  0
  -10.6243   -1.5844  -16.9365 H   0  0  0  0  0
 17  1  4  0  0  0
  1 18  4  0  0  0
  3  2  4  0  0  0
 18  2  4  0  0  0
  2 19  1  0  0  0
  4  3  4  0  0  0
 17  4  4  0  0  0
  5  6  1  0  0  0
 19  5  1  0  0  0
  5 20  2  0  0  0
  6  7  4  0  0  0
  6 23  4  0  0  0
  7 21  4  0  0  0
  9  8  1  0  0  0
  8 25  1  0  0  0
 10  9  4  0  0  0
  9 14  4  0  0  0
 11 10  4  0  0  0
 11 12  4  0  0  0
 15 11  1  0  0  0
 12 13  4  0  0  0
 13 14  4  0  0  0
 16 15  1  0  0  0
 16 17  1  0  0  0
 21 22  4  0  0  0
 22 23  4  0  0  0
 22 24  1  0  0  0
 25 26  2  0  0  0
 25 27  1  0  0  0
 27 28  1  0  0  0
 28 29  1  0  0  0
 29 30  4  0  0  0
 29 34  4  0  0  0
 30 31  4  0  0  0
 31 32  4  0  0  0
 31 36  1  0  0  0
 32 33  4  0  0  0
 33 34  4  0  0  0
 33 35  1  0  0  0
  1 37  1  0  0  0
  3 38  1  0  0  0
  4 39  1  0  0  0
  7 40  1  0  0  0
  8 41  1  0  0  0
 10 42  1  0  0  0
 12 43  1  0  0  0
 13 44  1  0  0  0
 14 45  1  0  0  0
 15 46  1  0  0  0
 15 47  1  0  0  0
 18 48  1  0  0  0
 19 49  1  0  0  0
 23 50  1  0  0  0
 24 51  1  0  0  0
 24 52  1  0  0  0
 24 53  1  0  0  0
 27 54  1  0  0  0
 27 55  1  0  0  0
 32 56  1  0  0  0
 35 57  1  0  0  0
 35 58  1  0  0  0
 35 59  1  0  0  0
 36 60  1  0  0  0
 36 61  1  0  0  0
 36 62  1  0  0  0
M  END
$$$$
