5k4l_ligand
  -I-interpret- 

 28 29  0  0  0  0  0  0  0  0999 V2000
  190.0840    2.5010  -19.0180 C   0  0  0  0  0
  189.3920    1.7400  -17.9490 C   0  0  0  0  0
  189.0280    2.4170  -16.7870 C   0  0  0  0  0
  188.3590    1.7290  -15.7010 C   0  0  0  0  0
  187.9550    2.3620  -14.5280 C   0  0  0  0  0
  187.3050    1.6140  -13.5610 C   0  0  0  0  0
  187.4530   -0.2820  -14.8100 C   0  0  0  0  0
  188.1010    0.3550  -15.8610 C   0  0  0  0  0
  190.4170    1.8080  -20.1100 N   0  0  0  0  0
  190.3360    2.7260  -22.3780 C   0  0  0  0  0
  191.1940    2.3840  -21.2050 C   0  0  0  0  0
  190.3330    3.6990  -18.8860 O   0  0  0  0  0
  187.0460    0.3110  -13.6820 N   0  0  0  0  0
  188.4850   -0.2720  -17.0430 N   0  0  0  0  0
  189.1050    0.3310  -18.0840 C   0  0  0  0  0
  189.3880   -0.3290  -19.0820 O   0  0  0  0  0
  189.2700    3.7130  -16.5830 O   0  0  0  0  0
  188.1465    3.4240  -14.3745 H   0  0  0  0  0
  186.9867    2.1186  -12.6488 H   0  0  0  0  0
  187.2609   -1.3500  -14.9127 H   0  0  0  0  0
  190.1163    0.8360  -20.1826 H   0  0  0  0  0
  189.8468    1.8234  -22.7441 H   0  0  0  0  0
  189.5817    3.4523  -22.0753 H   0  0  0  0  0
  190.9553    3.1511  -23.1679 H   0  0  0  0  0
  191.9315    1.6477  -21.5245 H   0  0  0  0  0
  191.6626    3.3003  -20.8460 H   0  0  0  0  0
  188.2825   -1.2677  -17.1319 H   0  0  0  0  0
  188.9353    3.9679  -15.7201 H   0  0  0  0  0
  1  2  1  0  0  0
  1  9  1  0  0  0
  1 12  2  0  0  0
  2  3  2  0  0  0
  2 15  1  0  0  0
  3  4  1  0  0  0
  3 17  1  0  0  0
  4  5  4  0  0  0
  4  8  4  0  0  0
  5  6  4  0  0  0
  6 13  4  0  0  0
  8  7  4  0  0  0
  7 13  4  0  0  0
  8 14  1  0  0  0
  9 11  1  0  0  0
 11 10  1  0  0  0
 14 15  1  0  0  0
 15 16  2  0  0  0
  5 18  1  0  0  0
  6 19  1  0  0  0
  7 20  1  0  0  0
  9 21  1  0  0  0
 10 22  1  0  0  0
 10 23  1  0  0  0
 10 24  1  0  0  0
 11 25  1  0  0  0
 11 26  1  0  0  0
 14 27  1  0  0  0
 17 28  1  0  0  0
M  END
$$$$
