### 
### Created by X-TOOL on Mon Sep 10 21:13:15 2018
### 

@<TRIPOS>MOLECULE
4mq1_ligand
   60    63     1     0     0
SMALL
GAST_HUCK


@<TRIPOS>ATOM
      1 N3         45.1380   16.3730  -39.7970 N.ar      1 2C3        -0.2505
      2 C4         45.3290   15.4270  -38.8620 C.ar      1 2C3         0.2362
      3 C6         45.9790   13.1490  -38.7200 C.3       1 2C3         0.0694
      4 C8         43.8760   16.5370  -37.3760 C.ar      1 2C3         0.1693
      5 C10        42.3820   17.8040  -35.9210 C.2       1 2C3         0.2311
      6 C13        42.8320   18.6340  -38.0760 C.2       1 2C3        -0.0147
      7 C17        39.5990   20.9910  -35.5040 C.ar      1 2C3         0.0849
      8 C20        37.4000   22.6080  -34.9620 C.ar      1 2C3        -0.0569
      9 C21        37.7960   21.6740  -34.0420 C.ar      1 2C3        -0.0560
     10 C22        38.8730   20.8730  -34.3240 C.ar      1 2C3         0.0640
     11 C24        37.5810   23.6750  -37.0810 C.2       1 2C3         0.2035
     12 C28        37.2480   23.8670  -40.7620 C.3       1 2C3         0.0202
     13 O11        41.8110   17.8780  -34.8300 O.2       1 2C3        -0.3967
     14 N9         43.2300   16.6730  -36.1850 N.am      1 2C3        -0.2072
     15 N7         44.7080   15.4950  -37.6420 N.ar      1 2C3        -0.2193
     16 O5         46.1890   14.4420  -39.2740 O.3       1 2C3        -0.2798
     17 C2         44.3150   17.4760  -39.5420 C.ar      1 2C3         0.0231
     18 C1         43.6710   17.5500  -38.3080 C.ar      1 2C3         0.0611
     19 C12        42.1750   18.7980  -36.8800 C.2       1 2C3         0.1242
     20 C14        41.3240   19.9250  -36.7390 C.2       1 2C3         0.2284
     21 O15        41.2440   20.7330  -37.6520 O.2       1 2C3        -0.3833
     22 N16        40.5650   20.0380  -35.6240 N.am      1 2C3        -0.2343
     23 C18        39.1740   21.9140  -36.4510 C.ar      1 2C3        -0.0210
     24 CL2        39.3670   19.6800  -33.1760 Cl        1 2C3        -0.0789
     25 C19        38.0570   22.7150  -36.2030 C.ar      1 2C3         0.0366
     26 O25        36.6990   24.4590  -36.6950 O.2       1 2C3        -0.3846
     27 N26        37.9580   23.5790  -38.3680 N.am      1 2C3        -0.2719
     28 C27        37.5130   24.5490  -39.4120 C.3       1 2C3         0.0799
     29 C29        36.1480   24.7710  -41.3170 C.3       1 2C3        -0.0314
     30 N30        36.1370   24.5000  -42.7200 N.4       1 2C3         0.2187
     31 C31        38.5330   25.5050  -39.5960 C.ar      1 2C3        -0.0174
     32 C32        38.3290   26.8030  -39.2170 C.ar      1 2C3        -0.0443
     33 C33        39.3670   27.7330  -39.3620 C.ar      1 2C3         0.0338
     34 CL3        39.0900   29.3230  -38.8740 Cl        1 2C3        -0.0725
     35 C35        40.5890   27.3900  -39.9180 C.ar      1 2C3        -0.0548
     36 C36        40.7980   26.0810  -40.3180 C.ar      1 2C3        -0.0680
     37 C37        39.7700   25.1510  -40.1360 C.ar      1 2C3        -0.0580
     38 H1         46.7265   12.4509  -39.1248 H         1 2C3         0.0594
     39 H2         44.9699   12.7976  -38.9812 H         1 2C3         0.0594
     40 H3         46.0783   13.1984  -37.6256 H         1 2C3         0.0594
     41 H4         42.6916   19.3732  -38.8633 H         1 2C3         0.0835
     42 H5         36.5734   23.2708  -34.7329 H         1 2C3         0.0539
     43 H6         37.2649   21.5691  -33.1028 H         1 2C3         0.0594
     44 H7         36.8972   22.8325  -40.6329 H         1 2C3         0.0362
     45 H8         38.1417   23.8738  -41.4032 H         1 2C3         0.0362
     46 H9         43.3475   15.9731  -35.4805 H         1 2C3         0.2469
     47 H10        44.1817   18.2534  -40.2856 H         1 2C3         0.0929
     48 H11        40.7178   19.4035  -34.8663 H         1 2C3         0.2249
     49 H12        39.7118   22.0131  -37.3870 H         1 2C3         0.0553
     50 H13        38.5607   22.8277  -38.6367 H         1 2C3         0.1875
     51 H14        36.5921   25.0453  -39.0721 H         1 2C3         0.0721
     52 H15        36.3814   25.8290  -41.1271 H         1 2C3         0.0815
     53 H16        35.1761   24.5231  -40.8654 H         1 2C3         0.0815
     54 H17        35.4298   25.0634  -43.1655 H         1 2C3         0.1994
     55 H18        35.9344   23.5244  -42.8722 H         1 2C3         0.1994
     56 H19        37.0389   24.7211  -43.1120 H         1 2C3         0.1994
     57 H20        37.3730   27.1096  -38.8081 H         1 2C3         0.0562
     58 H21        41.3682   28.1340  -40.0378 H         1 2C3         0.0565
     59 H22        41.7402   25.7831  -40.7636 H         1 2C3         0.0599
     60 H23        39.9397   24.1199  -40.4242 H         1 2C3         0.0559
@<TRIPOS>BOND
     1    1    2 ar 
     2   17    1 ar 
     3   15    2 ar 
     4    2   16 1  
     5   16    3 1  
     6   14    4 1  
     7    4   15 ar 
     8   18    4 ar 
     9    5   13 2  
    10    5   14 am 
    11   19    5 1  
    12    6   18 1  
    13   19    6 2  
    14    7   10 ar 
    15    7   22 1  
    16   23    7 ar 
    17    8    9 ar 
    18   25    8 ar 
    19    9   10 ar 
    20   10   24 1  
    21   11   25 1  
    22   11   26 2  
    23   27   11 am 
    24   28   12 1  
    25   12   29 1  
    26   18   17 ar 
    27   20   19 1  
    28   20   21 2  
    29   22   20 am 
    30   25   23 ar 
    31   27   28 1  
    32   28   31 1  
    33   29   30 1  
    34   31   32 ar 
    35   31   37 ar 
    36   32   33 ar 
    37   33   34 1  
    38   33   35 ar 
    39   35   36 ar 
    40   36   37 ar 
    41    3   38 1  
    42    3   39 1  
    43    3   40 1  
    44    6   41 1  
    45    8   42 1  
    46    9   43 1  
    47   12   44 1  
    48   12   45 1  
    49   14   46 1  
    50   17   47 1  
    51   22   48 1  
    52   23   49 1  
    53   27   50 1  
    54   28   51 1  
    55   29   52 1  
    56   29   53 1  
    57   30   54 1  
    58   30   55 1  
    59   30   56 1  
    60   32   57 1  
    61   35   58 1  
    62   36   59 1  
    63   37   60 1  
@<TRIPOS>SUBSTRUCTURE
     1 2C3         1

