5zh4_ligand
  -I-interpret- 

 41 43  0  0  0  0  0  0  0  0999 V2000
   14.2910  -14.9380  -24.1640 C   0  0  0  0  0
   16.6950  -14.7660  -24.6360 C   0  0  0  0  0
   14.0370  -16.8760  -26.1440 C   0  0  0  0  0
   12.9140  -16.4780  -25.4200 C   0  0  0  0  0
   17.4170  -15.5950  -26.7750 C   0  0  0  0  0
   16.4010  -16.7350  -26.6430 C   0  0  0  0  0
   13.0610  -15.5090  -24.4440 C   0  0  0  0  0
   15.2910  -16.3100  -25.8850 C   0  0  0  0  0
   15.4340  -15.3180  -24.8930 C   0  0  0  0  0
   18.7640  -16.0990  -27.3490 C   0  0  0  0  0
   18.6230  -16.4470  -28.8400 C   0  0  0  0  0
   18.5940  -14.1610  -29.8200 C   0  0  0  0  0
   19.8990  -14.4770  -30.4990 C   0  0  0  0  0
   20.7480  -15.4720  -29.6780 C   0  0  0  0  0
   17.7110  -15.0930  -25.4760 O   0  0  0  0  0
   19.9900  -16.7660  -29.5790 C   0  0  0  0  0
   17.7270  -13.3070  -30.7670 C   0  0  0  0  0
   17.8570  -15.3870  -29.5090 O   0  0  0  0  0
   16.8890  -14.0260  -23.6770 O   0  0  0  0  0
   11.6660  -17.0130  -25.6400 O   0  0  0  0  0
   14.3820  -13.9790  -23.1610 O   0  0  0  0  0
   13.9377  -17.6355  -26.9195 H   0  0  0  0  0
   16.9830  -14.8431  -27.4341 H   0  0  0  0  0
   16.8742  -17.5793  -26.1416 H   0  0  0  0  0
   16.0636  -17.0300  -27.6366 H   0  0  0  0  0
   12.1856  -15.1864  -23.8804 H   0  0  0  0  0
   19.0660  -16.9941  -26.8052 H   0  0  0  0  0
   19.5102  -15.3120  -27.2398 H   0  0  0  0  0
   18.0781  -17.3891  -28.9011 H   0  0  0  0  0
   18.8091  -13.6257  -28.8952 H   0  0  0  0  0
   20.4635  -13.5504  -30.6034 H   0  0  0  0  0
   19.6806  -14.9302  -31.4660 H   0  0  0  0  0
   20.9365  -15.0710  -28.6821 H   0  0  0  0  0
   21.7085  -15.6368  -30.1662 H   0  0  0  0  0
   19.8052  -17.1816  -30.5696 H   0  0  0  0  0
   20.5643  -17.5081  -29.0244 H   0  0  0  0  0
   18.2522  -12.3814  -31.0027 H   0  0  0  0  0
   17.5383  -13.8631  -31.6853 H   0  0  0  0  0
   16.7798  -13.0749  -30.2801 H   0  0  0  0  0
   11.0348  -16.6066  -25.0416 H   0  0  0  0  0
   15.2914  -13.6806  -23.0867 H   0  0  0  0  0
  1  7  4  0  0  0
  9  1  4  0  0  0
  1 21  1  0  0  0
  2  9  1  0  0  0
 15  2  1  0  0  0
  2 19  2  0  0  0
  3  4  4  0  0  0
  8  3  4  0  0  0
  4  7  4  0  0  0
  4 20  1  0  0  0
  5  6  1  0  0  0
 10  5  1  0  0  0
  5 15  1  0  0  0
  6  8  1  0  0  0
  8  9  4  0  0  0
 11 10  1  0  0  0
 11 16  1  0  0  0
 18 11  1  0  0  0
 12 13  1  0  0  0
 12 17  1  0  0  0
 12 18  1  0  0  0
 13 14  1  0  0  0
 14 16  1  0  0  0
  3 22  1  0  0  0
  5 23  1  0  0  0
  6 24  1  0  0  0
  6 25  1  0  0  0
  7 26  1  0  0  0
 10 27  1  0  0  0
 10 28  1  0  0  0
 11 29  1  0  0  0
 12 30  1  0  0  0
 13 31  1  0  0  0
 13 32  1  0  0  0
 14 33  1  0  0  0
 14 34  1  0  0  0
 16 35  1  0  0  0
 16 36  1  0  0  0
 17 37  1  0  0  0
 17 38  1  0  0  0
 17 39  1  0  0  0
 20 40  1  0  0  0
 21 41  1  0  0  0
M  END
$$$$
