3nal_ligand
  -I-interpret- 

 96 98  0  0  0  0  0  0  0  0999 V2000
   -4.2690    9.1920   84.8900 C   0  0  0  0  0
   -4.0240    8.9180   83.4040 C   0  0  0  0  0
   -2.5670    9.2780   83.0960 C   0  0  0  0  0
   -2.4670   10.4410   82.2580 O   0  0  0  0  0
   -1.9510    9.6050   84.4540 C   0  0  0  0  0
   -2.0830    8.8640   80.7240 O   0  0  0  0  0
   -2.9180    9.6230   85.4480 C   0  0  0  0  0
   -1.5650    9.1120   87.4160 O   0  0  0  0  0
   -2.5700    9.9890   86.8870 C   0  0  0  0  0
   -4.1640    8.3670   87.7400 O   0  0  0  0  0
   -3.7420    9.7290   87.8250 C   0  0  0  0  0
   -4.5210   12.0540   87.5350 O   0  0  0  0  0
   -4.9230   10.6800   87.6300 C   0  0  0  0  0
   -5.4160   11.9770   89.5700 O   0  0  0  0  0
   -5.8950   10.2770   86.5170 C   0  0  0  0  0
   -6.3700    9.8700   84.2030 O   0  0  0  0  0
   -5.3310   10.2750   85.0930 C   0  0  0  0  0
   -7.4070   11.7730   84.7990 O   0  0  0  0  0
   -2.9910    9.9320   89.1370 C   0  0  0  0  0
   -2.8010   11.3300   89.3670 O   0  0  0  0  0
   -1.6580    9.2850   88.7630 C   0  0  0  0  0
   -0.8010    8.9140   89.5650 O   0  0  0  0  0
   -2.2410   10.0580   80.9720 C   0  0  0  0  0
   -2.1060   11.0880   79.8460 C   0  0  0  0  0
   -2.1730   10.6140   78.3930 C   0  0  0  0  0
   -1.8560   12.4270   80.1110 C   0  0  0  0  0
   -1.6940   12.9230   81.5500 C   0  0  0  0  0
   -0.4680    9.8930   84.6990 C   0  0  0  0  0
   -4.8570   12.6570   88.7030 C   0  0  0  0  0
   -4.5560   14.1360   88.9510 C   0  0  0  0  0
   -4.8080   11.6580   84.7020 C   0  0  0  0  0
   -7.4270   10.7330   84.1550 C   0  0  0  0  0
   -8.6490   10.3320   83.3330 C   0  0  0  0  0
   -3.6600    9.2270   90.3190 C   0  0  0  0  0
   -3.0490   14.3980   88.9970 C   0  0  0  0  0
   -2.7090   15.8610   89.2960 C   0  0  0  0  0
   -1.1910   16.0530   89.2330 C   0  0  0  0  0
   -0.7750   17.5010   89.4970 C   0  0  0  0  0
   -1.2270   17.9350   90.8930 C   0  0  0  0  0
   -0.8880   19.3960   91.1970 C   0  0  0  0  0
    0.6170   19.6750   91.2450 C   0  0  0  0  0
    0.8710   21.0370   91.8970 C   0  0  0  0  0
    2.3600   21.3120   92.1150 C   0  0  0  0  0
    2.5710   22.6210   92.8810 C   0  0  0  0  0
   -4.6523    8.3099   85.4030 H   0  0  0  0  0
   -4.6993    9.5163   82.7923 H   0  0  0  0  0
   -4.2109    7.8685   83.1767 H   0  0  0  0  0
   -2.0721    8.4613   82.5705 H   0  0  0  0  0
   -2.2659   11.0349   86.8453 H   0  0  0  0  0
   -4.9018    8.2239   88.3373 H   0  0  0  0  0
   -5.5005   10.5799   88.5490 H   0  0  0  0  0
   -6.6930   11.0194   86.5268 H   0  0  0  0  0
   -6.1901    9.2492   86.7285 H   0  0  0  0  0
   -2.3283   11.4559   90.1930 H   0  0  0  0  0
   -2.9700   11.1471   77.8746 H   0  0  0  0  0
   -1.2207   10.8150   77.9023 H   0  0  0  0  0
   -2.3759    9.5433   78.3704 H   0  0  0  0  0
   -1.7741   13.1336   79.2851 H   0  0  0  0  0
   -2.6068   12.7168   82.1090 H   0  0  0  0  0
   -0.8554   12.4077   82.0183 H   0  0  0  0  0
   -1.5049   13.9965   81.5438 H   0  0  0  0  0
   -0.3564   10.8995   85.1022 H   0  0  0  0  0
   -0.0714    9.1691   85.4108 H   0  0  0  0  0
    0.0763    9.8148   83.7579 H   0  0  0  0  0
   -4.9867   14.4211   89.9109 H   0  0  0  0  0
   -4.9842   14.7183   88.1351 H   0  0  0  0  0
   -5.6224   12.3807   84.7526 H   0  0  0  0  0
   -4.0154   11.9531   85.3897 H   0  0  0  0  0
   -4.4147   11.6224   83.6861 H   0  0  0  0  0
   -9.5125   10.2362   83.9912 H   0  0  0  0  0
   -8.8465   11.0963   82.5814 H   0  0  0  0  0
   -8.4576    9.3781   82.8415 H   0  0  0  0  0
   -4.6695    9.6169   90.4489 H   0  0  0  0  0
   -3.7053    8.1557   90.1231 H   0  0  0  0  0
   -3.0800    9.4079   91.2239 H   0  0  0  0  0
   -2.6379   14.1535   88.0175 H   0  0  0  0  0
   -2.6287   13.7878   89.7964 H   0  0  0  0  0
   -3.0681   16.1222   90.2914 H   0  0  0  0  0
   -3.1884   16.5044   88.5582 H   0  0  0  0  0
   -0.8584   15.7840   88.2305 H   0  0  0  0  0
   -0.7396   15.4268   90.0026 H   0  0  0  0  0
   -1.2421   18.1474   88.7539 H   0  0  0  0  0
    0.3105   17.5774   89.4338 H   0  0  0  0  0
   -0.7070   17.3126   91.6213 H   0  0  0  0  0
   -2.3104   17.8259   90.9426 H   0  0  0  0  0
   -1.2967   19.6300   92.1800 H   0  0  0  0  0
   -1.3091   20.0040   90.3963 H   0  0  0  0  0
    1.0151   19.6811   90.2303 H   0  0  0  0  0
    1.1093   18.8979   91.8297 H   0  0  0  0  0
    0.3817   21.0406   92.8710 H   0  0  0  0  0
    0.4802   21.8070   91.2318 H   0  0  0  0  0
    2.8461   21.3939   91.1428 H   0  0  0  0  0
    2.7847   20.4942   92.6972 H   0  0  0  0  0
    2.1425   23.4463   92.3124 H   0  0  0  0  0
    2.0816   22.5548   93.8527 H   0  0  0  0  0
    3.6386   22.7904   93.0212 H   0  0  0  0  0
  1  2  1  0  0  0
  1  7  1  0  0  0
  1 17  1  0  0  0
  2  3  1  0  0  0
  3  4  1  0  0  0
  3  5  1  0  0  0
  4 23  1  0  0  0
  5  7  2  0  0  0
  5 28  1  0  0  0
 23  6  2  0  0  0
  7  9  1  0  0  0
  9  8  1  0  0  0
  8 21  1  0  0  0
  9 11  1  0  0  0
 11 10  1  0  0  0
 11 13  1  0  0  0
 11 19  1  0  0  0
 13 12  1  0  0  0
 12 29  1  0  0  0
 13 15  1  0  0  0
 29 14  2  0  0  0
 15 17  1  0  0  0
 17 16  1  0  0  0
 16 32  1  0  0  0
 17 31  1  0  0  0
 32 18  2  0  0  0
 19 20  1  0  0  0
 19 21  1  0  0  0
 19 34  1  0  0  0
 21 22  2  0  0  0
 23 24  1  0  0  0
 24 25  1  0  0  0
 24 26  2  0  0  0
 26 27  1  0  0  0
 29 30  1  0  0  0
 30 35  1  0  0  0
 32 33  1  0  0  0
 35 36  1  0  0  0
 36 37  1  0  0  0
 37 38  1  0  0  0
 38 39  1  0  0  0
 39 40  1  0  0  0
 40 41  1  0  0  0
 41 42  1  0  0  0
 42 43  1  0  0  0
 43 44  1  0  0  0
  1 45  1  0  0  0
  2 46  1  0  0  0
  2 47  1  0  0  0
  3 48  1  0  0  0
  9 49  1  0  0  0
 10 50  1  0  0  0
 13 51  1  0  0  0
 15 52  1  0  0  0
 15 53  1  0  0  0
 20 54  1  0  0  0
 25 55  1  0  0  0
 25 56  1  0  0  0
 25 57  1  0  0  0
 26 58  1  0  0  0
 27 59  1  0  0  0
 27 60  1  0  0  0
 27 61  1  0  0  0
 28 62  1  0  0  0
 28 63  1  0  0  0
 28 64  1  0  0  0
 30 65  1  0  0  0
 30 66  1  0  0  0
 31 67  1  0  0  0
 31 68  1  0  0  0
 31 69  1  0  0  0
 33 70  1  0  0  0
 33 71  1  0  0  0
 33 72  1  0  0  0
 34 73  1  0  0  0
 34 74  1  0  0  0
 34 75  1  0  0  0
 35 76  1  0  0  0
 35 77  1  0  0  0
 36 78  1  0  0  0
 36 79  1  0  0  0
 37 80  1  0  0  0
 37 81  1  0  0  0
 38 82  1  0  0  0
 38 83  1  0  0  0
 39 84  1  0  0  0
 39 85  1  0  0  0
 40 86  1  0  0  0
 40 87  1  0  0  0
 41 88  1  0  0  0
 41 89  1  0  0  0
 42 90  1  0  0  0
 42 91  1  0  0  0
 43 92  1  0  0  0
 43 93  1  0  0  0
 44 94  1  0  0  0
 44 95  1  0  0  0
 44 96  1  0  0  0
M  END
$$$$
