2y4s_ligand
  -I-interpret- 

147154  0  0  0  0  0  0  0  0999 V2000
   48.9330   31.4980   34.9780 C   0  0  0  0  0
   50.2660   30.9770   34.4760 C   0  0  0  0  0
   51.3430   31.3450   35.3220 O   0  0  0  0  0
   50.5800   31.5310   33.1150 C   0  0  0  0  0
   51.6820   30.7870   32.7220 O   0  0  0  0  0
   49.4470   31.4130   32.1160 C   0  0  0  0  0
   49.8910   32.1870   31.0140 O   0  0  0  0  0
   48.2370   32.0470   32.7590 C   0  0  0  0  0
   47.9440   31.3600   33.9560 O   0  0  0  0  0
   47.0190   31.9230   31.8890 C   0  0  0  0  0
   47.0080   32.9670   30.9210 O   0  0  0  0  0
   49.4640   31.8580   29.7190 C   0  0  0  0  0
   50.6910   31.7870   28.8630 C   0  0  0  0  0
   51.6690   31.0790   29.6060 O   0  0  0  0  0
   51.2450   33.1640   28.5660 C   0  0  0  0  0
   52.3170   33.0670   27.6450 O   0  0  0  0  0
   50.1660   34.0980   28.0720 C   0  0  0  0  0
   50.6600   35.4070   28.1070 O   0  0  0  0  0
   49.0440   34.1070   29.0740 C   0  0  0  0  0
   48.5640   32.8150   29.2380 O   0  0  0  0  0
   47.9950   35.0320   28.5240 C   0  0  0  0  0
   46.6700   34.6990   28.9140 O   0  0  0  0  0
   50.2390   36.2490   27.0830 C   0  0  0  0  0
   51.5330   36.9320   26.7650 C   0  0  0  0  0
   52.4780   35.8660   26.7770 O   0  0  0  0  0
   51.8840   37.9690   27.8030 C   0  0  0  0  0
   53.0920   38.5930   27.4600 O   0  0  0  0  0
   50.7640   38.9830   27.9380 C   0  0  0  0  0
   51.0570   39.8700   29.0060 O   0  0  0  0  0
   49.4760   38.2060   28.2660 C   0  0  0  0  0
   49.1790   37.1160   27.4040 O   0  0  0  0  0
   48.2650   39.1000   28.2940 C   0  0  0  0  0
   48.2720   39.8900   27.1250 O   0  0  0  0  0
   51.0950   41.2950   28.8190 C   0  0  0  0  0
   52.2370   41.9690   29.5570 C   0  0  0  0  0
   53.4880   41.4910   29.0940 O   0  0  0  0  0
   52.1060   41.7410   31.0570 C   0  0  0  0  0
   53.2570   42.1970   31.7390 O   0  0  0  0  0
   50.7980   42.3190   31.5660 C   0  0  0  0  0
   50.6220   41.8510   32.8860 O   0  0  0  0  0
   49.6430   41.8290   30.6660 C   0  0  0  0  0
   49.9340   41.9330   29.3130 O   0  0  0  0  0
   48.3890   42.6270   30.8590 C   0  0  0  0  0
   47.4510   41.8090   31.5500 O   0  0  0  0  0
   50.2340   42.8370   33.8500 C   0  0  0  0  0
   51.1390   42.9190   35.0560 C   0  0  0  0  0
   52.4430   43.2350   34.6960 O   0  0  0  0  0
   51.0910   41.6640   35.8740 C   0  0  0  0  0
   51.9510   41.8010   36.9820 O   0  0  0  0  0
   49.6330   41.4310   36.2550 C   0  0  0  0  0
   49.5650   40.1740   36.8390 O   0  0  0  0  0
   48.7750   41.4330   35.0110 C   0  0  0  0  0
   48.9290   42.6390   34.3090 O   0  0  0  0  0
   47.2790   41.1970   35.2440 C   0  0  0  0  0
   46.6480   41.6970   34.0920 O   0  0  0  0  0
   49.5760   40.1740   38.2580 C   0  0  0  0  0
   50.6050   39.2330   38.8410 C   0  0  0  0  0
   51.8370   39.7520   38.4660 O   0  0  0  0  0
   50.4350   37.8380   38.3010 C   0  0  0  0  0
   51.3880   36.9420   38.8060 O   0  0  0  0  0
   49.0560   37.3430   38.6940 C   0  0  0  0  0
   48.7220   36.2070   37.9530 O   0  0  0  0  0
   47.9720   38.3860   38.3960 C   0  0  0  0  0
   48.3350   39.7110   38.7360 O   0  0  0  0  0
   46.7540   38.0570   39.2570 C   0  0  0  0  0
   45.6930   38.6920   38.6160 O   0  0  0  0  0
   48.2590   35.1110   38.7140 C   0  0  0  0  0
   49.2780   34.0010   38.9240 C   0  0  0  0  0
   50.4640   34.4310   39.6010 O   0  0  0  0  0
   49.7170   33.3490   37.6420 C   0  0  0  0  0
   50.4890   32.2080   37.9770 O   0  0  0  0  0
   48.5400   33.0000   36.7380 C   0  0  0  0  0
   49.0610   32.8520   35.4280 O   0  0  0  0  0
   47.4620   34.0860   36.7160 C   0  0  0  0  0
   47.1600   34.5560   38.0110 O   0  0  0  0  0
   46.1520   33.6250   36.0870 C   0  0  0  0  0
   46.2940   33.0510   34.7910 O   0  0  0  0  0
   48.6099   30.9069   35.8349 H   0  0  0  0  0
   50.1660   29.8919   34.4517 H   0  0  0  0  0
   51.1825   31.0092   36.2069 H   0  0  0  0  0
   50.7570   32.6058   33.1555 H   0  0  0  0  0
   52.3802   30.8826   33.3739 H   0  0  0  0  0
   49.1942   30.3961   31.8158 H   0  0  0  0  0
   48.4680   33.0991   32.9257 H   0  0  0  0  0
   46.1252   31.9970   32.5084 H   0  0  0  0  0
   47.0373   30.9597   31.3793 H   0  0  0  0  0
   46.2274   32.8816   30.3688 H   0  0  0  0  0
   48.9378   30.9035   29.7104 H   0  0  0  0  0
   50.4422   31.3057   27.9172 H   0  0  0  0  0
   52.4751   31.0116   29.0891 H   0  0  0  0  0
   51.6291   33.5907   29.4926 H   0  0  0  0  0
   52.6614   33.9444   27.4630 H   0  0  0  0  0
   49.8518   33.7826   27.0771 H   0  0  0  0  0
   49.3645   34.4526   30.0569 H   0  0  0  0  0
   48.0396   34.9622   27.4372 H   0  0  0  0  0
   48.2060   36.0282   28.9127 H   0  0  0  0  0
   46.0564   35.3285   28.5284 H   0  0  0  0  0
   49.7780   35.7278   26.2440 H   0  0  0  0  0
   51.4999   37.4707   25.8180 H   0  0  0  0  0
   53.3516   36.2121   26.5803 H   0  0  0  0  0
   52.0095   37.4808   28.7695 H   0  0  0  0  0
   53.3104   39.2515   28.1235 H   0  0  0  0  0
   50.6505   39.5576   27.0187 H   0  0  0  0  0
   49.6938   37.7976   29.2529 H   0  0  0  0  0
   48.2911   39.7382   29.1773 H   0  0  0  0  0
   47.3567   38.4988   28.3341 H   0  0  0  0  0
   47.5052   40.4676   27.1259 H   0  0  0  0  0
   51.2013   41.4021   27.7395 H   0  0  0  0  0
   52.1860   43.0397   29.3593 H   0  0  0  0  0
   54.1944   41.9299   29.5735 H   0  0  0  0  0
   52.0576   40.6724   31.2664 H   0  0  0  0  0
   53.1516   42.0431   32.6807 H   0  0  0  0  0
   50.8096   43.4088   31.5481 H   0  0  0  0  0
   49.5068   40.7889   30.9621 H   0  0  0  0  0
   47.9842   42.9327   29.8942 H   0  0  0  0  0
   48.6001   43.5280   31.4350 H   0  0  0  0  0
   46.6377   42.3008   31.6851 H   0  0  0  0  0
   50.3110   43.7753   33.3006 H   0  0  0  0  0
   50.7640   43.7295   35.6809 H   0  0  0  0  0
   52.9896   43.2789   35.4840 H   0  0  0  0  0
   51.4420   40.7898   35.3257 H   0  0  0  0  0
   51.9229   40.9988   37.5086 H   0  0  0  0  0
   49.2812   42.2102   36.9311 H   0  0  0  0  0
   49.1369   40.5809   34.4356 H   0  0  0  0  0
   46.9270   41.6968   36.1465 H   0  0  0  0  0
   47.0562   40.1416   35.4007 H   0  0  0  0  0
   45.6986   41.5797   34.1721 H   0  0  0  0  0
   49.8003   41.1988   38.5540 H   0  0  0  0  0
   50.5051   39.1585   39.9239 H   0  0  0  0  0
   52.5369   39.1923   38.8102 H   0  0  0  0  0
   50.5638   37.8808   37.2195 H   0  0  0  0  0
   51.2362   36.0709   38.4322 H   0  0  0  0  0
   49.0961   37.1331   39.7629 H   0  0  0  0  0
   47.7934   38.3422   37.3216 H   0  0  0  0  0
   46.8751   38.3998   40.2846 H   0  0  0  0  0
   46.5941   36.9824   39.3455 H   0  0  0  0  0
   44.8824   38.5294   39.1039 H   0  0  0  0  0
   48.0131   35.4924   39.7051 H   0  0  0  0  0
   48.7379   33.2860   39.5446 H   0  0  0  0  0
   51.0619   33.6866   39.7008 H   0  0  0  0  0
   50.3220   34.0480   37.0645 H   0  0  0  0  0
   50.7816   31.7735   37.1725 H   0  0  0  0  0
   48.0668   32.0928   37.1138 H   0  0  0  0  0
   47.8939   34.8805   36.1074 H   0  0  0  0  0
   45.5200   34.5066   35.9798 H   0  0  0  0  0
   45.7387   32.8530   36.7361 H   0  0  0  0  0
   45.4313   32.7868   34.4630 H   0  0  0  0  0
  1  2  1  0  0  0
  1  9  1  0  0  0
  1 73  1  0  0  0
  2  3  1  0  0  0
  2  4  1  0  0  0
  4  5  1  0  0  0
  4  6  1  0  0  0
  6  7  1  0  0  0
  6  8  1  0  0  0
  7 12  1  0  0  0
  8  9  1  0  0  0
  8 10  1  0  0  0
 10 11  1  0  0  0
 12 13  1  0  0  0
 12 20  1  0  0  0
 13 14  1  0  0  0
 13 15  1  0  0  0
 15 16  1  0  0  0
 15 17  1  0  0  0
 17 18  1  0  0  0
 17 19  1  0  0  0
 18 23  1  0  0  0
 19 20  1  0  0  0
 19 21  1  0  0  0
 21 22  1  0  0  0
 23 24  1  0  0  0
 23 31  1  0  0  0
 24 25  1  0  0  0
 24 26  1  0  0  0
 26 27  1  0  0  0
 26 28  1  0  0  0
 28 29  1  0  0  0
 28 30  1  0  0  0
 29 34  1  0  0  0
 30 31  1  0  0  0
 30 32  1  0  0  0
 32 33  1  0  0  0
 34 35  1  0  0  0
 34 42  1  0  0  0
 35 36  1  0  0  0
 35 37  1  0  0  0
 37 38  1  0  0  0
 37 39  1  0  0  0
 39 40  1  0  0  0
 39 41  1  0  0  0
 40 45  1  0  0  0
 41 42  1  0  0  0
 41 43  1  0  0  0
 43 44  1  0  0  0
 45 46  1  0  0  0
 45 53  1  0  0  0
 46 47  1  0  0  0
 46 48  1  0  0  0
 48 49  1  0  0  0
 48 50  1  0  0  0
 50 51  1  0  0  0
 50 52  1  0  0  0
 51 56  1  0  0  0
 52 53  1  0  0  0
 52 54  1  0  0  0
 54 55  1  0  0  0
 56 57  1  0  0  0
 56 64  1  0  0  0
 57 58  1  0  0  0
 57 59  1  0  0  0
 59 60  1  0  0  0
 59 61  1  0  0  0
 61 62  1  0  0  0
 61 63  1  0  0  0
 62 67  1  0  0  0
 63 64  1  0  0  0
 63 65  1  0  0  0
 65 66  1  0  0  0
 67 68  1  0  0  0
 67 75  1  0  0  0
 68 69  1  0  0  0
 68 70  1  0  0  0
 70 71  1  0  0  0
 70 72  1  0  0  0
 72 73  1  0  0  0
 72 74  1  0  0  0
 74 75  1  0  0  0
 74 76  1  0  0  0
 76 77  1  0  0  0
  1 78  1  0  0  0
  2 79  1  0  0  0
  3 80  1  0  0  0
  4 81  1  0  0  0
  5 82  1  0  0  0
  6 83  1  0  0  0
  8 84  1  0  0  0
 10 85  1  0  0  0
 10 86  1  0  0  0
 11 87  1  0  0  0
 12 88  1  0  0  0
 13 89  1  0  0  0
 14 90  1  0  0  0
 15 91  1  0  0  0
 16 92  1  0  0  0
 17 93  1  0  0  0
 19 94  1  0  0  0
 21 95  1  0  0  0
 21 96  1  0  0  0
 22 97  1  0  0  0
 23 98  1  0  0  0
 24 99  1  0  0  0
 25100  1  0  0  0
 26101  1  0  0  0
 27102  1  0  0  0
 28103  1  0  0  0
 30104  1  0  0  0
 32105  1  0  0  0
 32106  1  0  0  0
 33107  1  0  0  0
 34108  1  0  0  0
 35109  1  0  0  0
 36110  1  0  0  0
 37111  1  0  0  0
 38112  1  0  0  0
 39113  1  0  0  0
 41114  1  0  0  0
 43115  1  0  0  0
 43116  1  0  0  0
 44117  1  0  0  0
 45118  1  0  0  0
 46119  1  0  0  0
 47120  1  0  0  0
 48121  1  0  0  0
 49122  1  0  0  0
 50123  1  0  0  0
 52124  1  0  0  0
 54125  1  0  0  0
 54126  1  0  0  0
 55127  1  0  0  0
 56128  1  0  0  0
 57129  1  0  0  0
 58130  1  0  0  0
 59131  1  0  0  0
 60132  1  0  0  0
 61133  1  0  0  0
 63134  1  0  0  0
 65135  1  0  0  0
 65136  1  0  0  0
 66137  1  0  0  0
 67138  1  0  0  0
 68139  1  0  0  0
 69140  1  0  0  0
 70141  1  0  0  0
 71142  1  0  0  0
 72143  1  0  0  0
 74144  1  0  0  0
 76145  1  0  0  0
 76146  1  0  0  0
 77147  1  0  0  0
M  END
$$$$
