### 
### Created by X-TOOL on Mon Sep 10 21:13:05 2018
### 

@<TRIPOS>MOLECULE
2y4s_ligand
  147   154     1     0     0
SMALL
GAST_HUCK


@<TRIPOS>ATOM
      1 C11        48.9330   31.4980   34.9780 C.3       1 BCD         0.1884
      2 C21        50.2660   30.9770   34.4760 C.3       1 BCD         0.1341
      3 O21        51.3430   31.3450   35.3220 O.3       1 BCD        -0.3841
      4 C31        50.5800   31.5310   33.1150 C.3       1 BCD         0.1144
      5 O31        51.6820   30.7870   32.7220 O.3       1 BCD        -0.3864
      6 C41        49.4470   31.4130   32.1160 C.3       1 BCD         0.1184
      7 O41        49.8910   32.1870   31.0140 O.3       1 BCD        -0.3401
      8 C51        48.2370   32.0470   32.7590 C.3       1 BCD         0.1134
      9 O51        47.9440   31.3600   33.9560 O.3       1 BCD        -0.3405
     10 C61        47.0190   31.9230   31.8890 C.3       1 BCD         0.0730
     11 O61        47.0080   32.9670   30.9210 O.3       1 BCD        -0.3924
     12 C12        49.4640   31.8580   29.7190 C.3       1 BCD         0.1884
     13 C22        50.6910   31.7870   28.8630 C.3       1 BCD         0.1341
     14 O22        51.6690   31.0790   29.6060 O.3       1 BCD        -0.3841
     15 C32        51.2450   33.1640   28.5660 C.3       1 BCD         0.1144
     16 O32        52.3170   33.0670   27.6450 O.3       1 BCD        -0.3864
     17 C42        50.1660   34.0980   28.0720 C.3       1 BCD         0.1184
     18 O42        50.6600   35.4070   28.1070 O.3       1 BCD        -0.3401
     19 C52        49.0440   34.1070   29.0740 C.3       1 BCD         0.1134
     20 O52        48.5640   32.8150   29.2380 O.3       1 BCD        -0.3405
     21 C62        47.9950   35.0320   28.5240 C.3       1 BCD         0.0730
     22 O62        46.6700   34.6990   28.9140 O.3       1 BCD        -0.3924
     23 C13        50.2390   36.2490   27.0830 C.3       1 BCD         0.1884
     24 C23        51.5330   36.9320   26.7650 C.3       1 BCD         0.1341
     25 O23        52.4780   35.8660   26.7770 O.3       1 BCD        -0.3841
     26 C33        51.8840   37.9690   27.8030 C.3       1 BCD         0.1144
     27 O33        53.0920   38.5930   27.4600 O.3       1 BCD        -0.3864
     28 C43        50.7640   38.9830   27.9380 C.3       1 BCD         0.1184
     29 O43        51.0570   39.8700   29.0060 O.3       1 BCD        -0.3401
     30 C53        49.4760   38.2060   28.2660 C.3       1 BCD         0.1134
     31 O53        49.1790   37.1160   27.4040 O.3       1 BCD        -0.3405
     32 C63        48.2650   39.1000   28.2940 C.3       1 BCD         0.0730
     33 O63        48.2720   39.8900   27.1250 O.3       1 BCD        -0.3924
     34 C14        51.0950   41.2950   28.8190 C.3       1 BCD         0.1884
     35 C24        52.2370   41.9690   29.5570 C.3       1 BCD         0.1341
     36 O24        53.4880   41.4910   29.0940 O.3       1 BCD        -0.3841
     37 C34        52.1060   41.7410   31.0570 C.3       1 BCD         0.1144
     38 O34        53.2570   42.1970   31.7390 O.3       1 BCD        -0.3864
     39 C44        50.7980   42.3190   31.5660 C.3       1 BCD         0.1184
     40 O44        50.6220   41.8510   32.8860 O.3       1 BCD        -0.3401
     41 C54        49.6430   41.8290   30.6660 C.3       1 BCD         0.1134
     42 O54        49.9340   41.9330   29.3130 O.3       1 BCD        -0.3405
     43 C64        48.3890   42.6270   30.8590 C.3       1 BCD         0.0730
     44 O64        47.4510   41.8090   31.5500 O.3       1 BCD        -0.3924
     45 C15        50.2340   42.8370   33.8500 C.3       1 BCD         0.1884
     46 C25        51.1390   42.9190   35.0560 C.3       1 BCD         0.1341
     47 O25        52.4430   43.2350   34.6960 O.3       1 BCD        -0.3841
     48 C35        51.0910   41.6640   35.8740 C.3       1 BCD         0.1144
     49 O35        51.9510   41.8010   36.9820 O.3       1 BCD        -0.3864
     50 C45        49.6330   41.4310   36.2550 C.3       1 BCD         0.1184
     51 O45        49.5650   40.1740   36.8390 O.3       1 BCD        -0.3401
     52 C55        48.7750   41.4330   35.0110 C.3       1 BCD         0.1134
     53 O55        48.9290   42.6390   34.3090 O.3       1 BCD        -0.3405
     54 C65        47.2790   41.1970   35.2440 C.3       1 BCD         0.0730
     55 O65        46.6480   41.6970   34.0920 O.3       1 BCD        -0.3924
     56 C16        49.5760   40.1740   38.2580 C.3       1 BCD         0.1884
     57 C26        50.6050   39.2330   38.8410 C.3       1 BCD         0.1341
     58 O26        51.8370   39.7520   38.4660 O.3       1 BCD        -0.3841
     59 C36        50.4350   37.8380   38.3010 C.3       1 BCD         0.1144
     60 O36        51.3880   36.9420   38.8060 O.3       1 BCD        -0.3864
     61 C46        49.0560   37.3430   38.6940 C.3       1 BCD         0.1184
     62 O46        48.7220   36.2070   37.9530 O.3       1 BCD        -0.3401
     63 C56        47.9720   38.3860   38.3960 C.3       1 BCD         0.1134
     64 O56        48.3350   39.7110   38.7360 O.3       1 BCD        -0.3405
     65 C66        46.7540   38.0570   39.2570 C.3       1 BCD         0.0730
     66 O66        45.6930   38.6920   38.6160 O.3       1 BCD        -0.3924
     67 C17        48.2590   35.1110   38.7140 C.3       1 BCD         0.1884
     68 C27        49.2780   34.0010   38.9240 C.3       1 BCD         0.1341
     69 O27        50.4640   34.4310   39.6010 O.3       1 BCD        -0.3841
     70 C37        49.7170   33.3490   37.6420 C.3       1 BCD         0.1144
     71 O37        50.4890   32.2080   37.9770 O.3       1 BCD        -0.3864
     72 C47        48.5400   33.0000   36.7380 C.3       1 BCD         0.1184
     73 O47        49.0610   32.8520   35.4280 O.3       1 BCD        -0.3401
     74 C57        47.4620   34.0860   36.7160 C.3       1 BCD         0.1134
     75 O57        47.1600   34.5560   38.0110 O.3       1 BCD        -0.3405
     76 C67        46.1520   33.6250   36.0870 C.3       1 BCD         0.0730
     77 O67        46.2940   33.0510   34.7910 O.3       1 BCD        -0.3924
     78 H          48.6099   30.9069   35.8349 H         1 BCD         0.0938
     79 H          50.1660   29.8919   34.4517 H         1 BCD         0.0671
     80 H          51.1955   30.9865   36.2002 H         1 BCD         0.2101
     81 H          50.7570   32.6058   33.1555 H         1 BCD         0.0648
     82 H          51.9635   31.0707   31.8491 H         1 BCD         0.2100
     83 H          49.1942   30.3961   31.8158 H         1 BCD         0.0651
     84 H          48.4680   33.0991   32.9257 H         1 BCD         0.0647
     85 H          46.1252   31.9970   32.5084 H         1 BCD         0.0584
     86 H          47.0373   30.9597   31.3793 H         1 BCD         0.0584
     87 H          47.7955   32.9045   30.3756 H         1 BCD         0.2095
     88 H          48.9378   30.9035   29.7104 H         1 BCD         0.0938
     89 H          50.4422   31.3057   27.9172 H         1 BCD         0.0671
     90 H          51.8501   31.5485   30.4235 H         1 BCD         0.2101
     91 H          51.6291   33.5907   29.4926 H         1 BCD         0.0648
     92 H          52.6614   33.9444   27.4630 H         1 BCD         0.2100
     93 H          49.8518   33.7826   27.0771 H         1 BCD         0.0651
     94 H          49.3645   34.4526   30.0569 H         1 BCD         0.0647
     95 H          48.0396   34.9622   27.4372 H         1 BCD         0.0584
     96 H          48.2060   36.0282   28.9127 H         1 BCD         0.0584
     97 H          46.6021   34.7294   29.8710 H         1 BCD         0.2095
     98 H          49.7780   35.7278   26.2440 H         1 BCD         0.0938
     99 H          51.4999   37.4707   25.8180 H         1 BCD         0.0671
    100 H          52.4835   35.4544   27.6443 H         1 BCD         0.2101
    101 H          52.0095   37.4808   28.7695 H         1 BCD         0.0648
    102 H          53.3104   39.2515   28.1235 H         1 BCD         0.2100
    103 H          50.6505   39.5576   27.0187 H         1 BCD         0.0651
    104 H          49.6938   37.7976   29.2529 H         1 BCD         0.0647
    105 H          48.2911   39.7382   29.1773 H         1 BCD         0.0584
    106 H          47.3567   38.4988   28.3341 H         1 BCD         0.0584
    107 H          47.5052   40.4676   27.1259 H         1 BCD         0.2095
    108 H          51.2013   41.4021   27.7395 H         1 BCD         0.0938
    109 H          52.1860   43.0397   29.3593 H         1 BCD         0.0671
    110 H          54.1944   41.9299   29.5735 H         1 BCD         0.2101
    111 H          52.0576   40.6724   31.2664 H         1 BCD         0.0648
    112 H          53.1516   42.0431   32.6807 H         1 BCD         0.2100
    113 H          50.8096   43.4088   31.5481 H         1 BCD         0.0651
    114 H          49.5068   40.7889   30.9621 H         1 BCD         0.0647
    115 H          47.9842   42.9327   29.8942 H         1 BCD         0.0584
    116 H          48.6001   43.5280   31.4350 H         1 BCD         0.0584
    117 H          47.8165   41.5530   32.4000 H         1 BCD         0.2095
    118 H          50.3110   43.7753   33.3006 H         1 BCD         0.0938
    119 H          50.7640   43.7295   35.6809 H         1 BCD         0.0671
    120 H          52.4536   44.0851   34.2500 H         1 BCD         0.2101
    121 H          51.4420   40.7898   35.3257 H         1 BCD         0.0648
    122 H          51.9229   40.9988   37.5086 H         1 BCD         0.2100
    123 H          49.2812   42.2102   36.9311 H         1 BCD         0.0651
    124 H          49.1369   40.5809   34.4356 H         1 BCD         0.0647
    125 H          46.9270   41.6968   36.1465 H         1 BCD         0.0584
    126 H          47.0562   40.1416   35.4007 H         1 BCD         0.0584
    127 H          46.9665   41.2207   33.3218 H         1 BCD         0.2095
    128 H          49.8003   41.1988   38.5540 H         1 BCD         0.0938
    129 H          50.5051   39.1585   39.9239 H         1 BCD         0.0671
    130 H          51.8920   39.7825   37.5081 H         1 BCD         0.2101
    131 H          50.5638   37.8808   37.2195 H         1 BCD         0.0648
    132 H          51.2362   36.0709   38.4322 H         1 BCD         0.2100
    133 H          49.0961   37.1331   39.7629 H         1 BCD         0.0651
    134 H          47.7934   38.3422   37.3216 H         1 BCD         0.0647
    135 H          46.8751   38.3998   40.2846 H         1 BCD         0.0584
    136 H          46.5941   36.9824   39.3455 H         1 BCD         0.0584
    137 H          45.8618   39.6363   38.5792 H         1 BCD         0.2095
    138 H          48.0131   35.4924   39.7051 H         1 BCD         0.0938
    139 H          48.7379   33.2860   39.5446 H         1 BCD         0.0671
    140 H          51.0619   33.6866   39.7008 H         1 BCD         0.2101
    141 H          50.3220   34.0480   37.0645 H         1 BCD         0.0648
    142 H          51.2528   32.4795   38.4913 H         1 BCD         0.2100
    143 H          48.0668   32.0928   37.1138 H         1 BCD         0.0651
    144 H          47.8939   34.8805   36.1074 H         1 BCD         0.0647
    145 H          45.5200   34.5066   35.9798 H         1 BCD         0.0584
    146 H          45.7387   32.8530   36.7361 H         1 BCD         0.0584
    147 H          46.8667   32.2823   34.8437 H         1 BCD         0.2095
@<TRIPOS>BOND
     1    1    2 1  
     2    1    9 1  
     3    1   73 1  
     4    2    3 1  
     5    2    4 1  
     6    4    5 1  
     7    4    6 1  
     8    6    7 1  
     9    6    8 1  
    10    7   12 1  
    11    8    9 1  
    12    8   10 1  
    13   10   11 1  
    14   12   13 1  
    15   12   20 1  
    16   13   14 1  
    17   13   15 1  
    18   15   16 1  
    19   15   17 1  
    20   17   18 1  
    21   17   19 1  
    22   18   23 1  
    23   19   20 1  
    24   19   21 1  
    25   21   22 1  
    26   23   24 1  
    27   23   31 1  
    28   24   25 1  
    29   24   26 1  
    30   26   27 1  
    31   26   28 1  
    32   28   29 1  
    33   28   30 1  
    34   29   34 1  
    35   30   31 1  
    36   30   32 1  
    37   32   33 1  
    38   34   35 1  
    39   34   42 1  
    40   35   36 1  
    41   35   37 1  
    42   37   38 1  
    43   37   39 1  
    44   39   40 1  
    45   39   41 1  
    46   40   45 1  
    47   41   42 1  
    48   41   43 1  
    49   43   44 1  
    50   45   46 1  
    51   45   53 1  
    52   46   47 1  
    53   46   48 1  
    54   48   49 1  
    55   48   50 1  
    56   50   51 1  
    57   50   52 1  
    58   51   56 1  
    59   52   53 1  
    60   52   54 1  
    61   54   55 1  
    62   56   57 1  
    63   56   64 1  
    64   57   58 1  
    65   57   59 1  
    66   59   60 1  
    67   59   61 1  
    68   61   62 1  
    69   61   63 1  
    70   62   67 1  
    71   63   64 1  
    72   63   65 1  
    73   65   66 1  
    74   67   68 1  
    75   67   75 1  
    76   68   69 1  
    77   68   70 1  
    78   70   71 1  
    79   70   72 1  
    80   72   73 1  
    81   72   74 1  
    82   74   75 1  
    83   74   76 1  
    84   76   77 1  
    85    1   78 1  
    86    2   79 1  
    87    3   80 1  
    88    4   81 1  
    89    5   82 1  
    90    6   83 1  
    91    8   84 1  
    92   10   85 1  
    93   10   86 1  
    94   11   87 1  
    95   12   88 1  
    96   13   89 1  
    97   14   90 1  
    98   15   91 1  
    99   16   92 1  
   100   17   93 1  
   101   19   94 1  
   102   21   95 1  
   103   21   96 1  
   104   22   97 1  
   105   23   98 1  
   106   24   99 1  
   107   25  100 1  
   108   26  101 1  
   109   27  102 1  
   110   28  103 1  
   111   30  104 1  
   112   32  105 1  
   113   32  106 1  
   114   33  107 1  
   115   34  108 1  
   116   35  109 1  
   117   36  110 1  
   118   37  111 1  
   119   38  112 1  
   120   39  113 1  
   121   41  114 1  
   122   43  115 1  
   123   43  116 1  
   124   44  117 1  
   125   45  118 1  
   126   46  119 1  
   127   47  120 1  
   128   48  121 1  
   129   49  122 1  
   130   50  123 1  
   131   52  124 1  
   132   54  125 1  
   133   54  126 1  
   134   55  127 1  
   135   56  128 1  
   136   57  129 1  
   137   58  130 1  
   138   59  131 1  
   139   60  132 1  
   140   61  133 1  
   141   63  134 1  
   142   65  135 1  
   143   65  136 1  
   144   66  137 1  
   145   67  138 1  
   146   68  139 1  
   147   69  140 1  
   148   70  141 1  
   149   71  142 1  
   150   72  143 1  
   151   74  144 1  
   152   76  145 1  
   153   76  146 1  
   154   77  147 1  
@<TRIPOS>SUBSTRUCTURE
     1 BCD         1

