1o2r_ligand
  -I-interpret- 

 50 53  0  0  0  0  0  0  0  0999 V2000
   43.9030   -3.1690   25.8140 C   0  0  0  0  0
   43.8390   -1.7620   25.6620 C   0  0  0  0  0
   43.9350   -1.1800   24.4200 F   0  0  0  0  0
   43.6490   -0.9390   26.7680 C   0  0  0  0  0
   43.5140   -1.5320   28.0060 C   0  0  0  0  0
   43.5690   -2.8630   28.1860 C   0  0  0  0  0
   43.7670   -3.7180   27.0950 C   0  0  0  0  0
   44.1070   -4.0070   24.7080 C   0  0  0  0  0
   43.6870   -5.2550   24.7110 N   0  0  0  0  0
   44.7420   -3.5080   23.6680 N   0  0  0  0  0
   43.3370   -1.0430   29.1810 N   0  0  0  0  0
   43.4280   -3.2250   29.4500 N   0  0  0  0  0
   43.2890   -2.0360   30.0170 C   0  0  0  0  0
   43.0420   -1.8400   31.3980 C   0  0  0  0  0
   42.8880   -2.9470   32.2420 C   0  0  0  0  0
   42.6410   -2.7790   33.6070 C   0  0  0  0  0
   42.5490   -1.5140   34.1420 C   0  0  0  0  0
   42.6950   -0.3750   33.3480 C   0  0  0  0  0
   42.9470   -0.5400   31.9590 C   0  0  0  0  0
   43.0960    0.5590   31.1230 O   0  0  0  0  0
   42.5770    0.8770   33.9600 O   0  0  0  0  0
   42.4880    2.5050   35.8220 C   0  0  0  0  0
   43.1530    2.9440   37.1920 C   0  0  0  0  0
   44.6580    3.1240   37.0360 C   0  0  0  0  0
   45.2580    1.8440   36.3800 C   0  0  0  0  0
   44.6320    1.5950   34.9730 C   0  0  0  0  0
   43.1610    1.2360   35.2300 C   0  0  0  0  0
   41.0500    2.1800   36.1360 C   0  0  0  0  0
   43.6080    0.1448   26.6589 H   0  0  0  0  0
   43.8147   -4.7971   27.2410 H   0  0  0  0  0
   43.8520   -5.8506   23.8996 H   0  0  0  0  0
   43.1966   -5.6261   25.5248 H   0  0  0  0  0
   44.9151   -4.0903   22.8486 H   0  0  0  0  0
   42.9618   -3.9529   31.8286 H   0  0  0  0  0
   42.5209   -3.6513   34.2494 H   0  0  0  0  0
   42.3580   -1.3991   35.2090 H   0  0  0  0  0
   43.0080    1.3650   31.6371 H   0  0  0  0  0
   42.5952    3.3050   35.0895 H   0  0  0  0  0
   42.9689    2.1675   37.9345 H   0  0  0  0  0
   42.7178    3.8936   37.5033 H   0  0  0  0  0
   45.1121    3.2826   38.0141 H   0  0  0  0  0
   44.8608    3.9894   36.4051 H   0  0  0  0  0
   45.0394    0.9875   37.0178 H   0  0  0  0  0
   46.3336    1.9792   36.2665 H   0  0  0  0  0
   45.1497    0.7951   34.4436 H   0  0  0  0  0
   44.7209    2.4757   34.3369 H   0  0  0  0  0
   43.0364    0.4032   35.9221 H   0  0  0  0  0
   41.0126    1.3720   36.8667 H   0  0  0  0  0
   40.5599    3.0638   36.5443 H   0  0  0  0  0
   40.5413    1.8699   35.2232 H   0  0  0  0  0
  1  2  4  0  0  0
  7  1  4  0  0  0
  1  8  1  0  0  0
  2  3  1  0  0  0
  4  2  4  0  0  0
  5  4  4  0  0  0
  6  5  4  0  0  0
 11  5  4  0  0  0
  6  7  4  0  0  0
 12  6  4  0  0  0
  8  9  1  0  0  0
  8 10  2  0  0  0
 13 11  4  0  0  0
 13 12  4  0  0  0
 14 13  1  0  0  0
 14 15  4  0  0  0
 19 14  4  0  0  0
 16 15  4  0  0  0
 17 16  4  0  0  0
 18 17  4  0  0  0
 18 19  4  0  0  0
 21 18  1  0  0  0
 19 20  1  0  0  0
 27 21  1  0  0  0
 22 23  1  0  0  0
 27 22  1  0  0  0
 22 28  1  0  0  0
 23 24  1  0  0  0
 24 25  1  0  0  0
 25 26  1  0  0  0
 26 27  1  0  0  0
  4 29  1  0  0  0
  7 30  1  0  0  0
  9 31  1  0  0  0
  9 32  1  0  0  0
 10 33  1  0  0  0
 15 34  1  0  0  0
 16 35  1  0  0  0
 17 36  1  0  0  0
 20 37  1  0  0  0
 22 38  1  0  0  0
 23 39  1  0  0  0
 23 40  1  0  0  0
 24 41  1  0  0  0
 24 42  1  0  0  0
 25 43  1  0  0  0
 25 44  1  0  0  0
 26 45  1  0  0  0
 26 46  1  0  0  0
 27 47  1  0  0  0
 28 48  1  0  0  0
 28 49  1  0  0  0
 28 50  1  0  0  0
M  END
$$$$
