5fl1_ligand
  -I-interpret- 

 33 34  0  0  0  0  0  0  0  0999 V2000
   30.6250   49.7660  247.8880 O   0  0  0  0  0
   29.4100   50.5020  247.7240 C   0  0  0  0  0
   28.4440   50.1680  248.8540 C   0  0  0  0  0
   28.1700   48.7660  248.8350 O   0  0  0  0  0
   29.7030   51.9940  247.6920 C   0  0  0  0  0
   28.4190   52.8240  247.7450 C   0  0  0  0  0
   27.4420   52.3370  248.6820 O   0  0  0  0  0
   27.1670   50.9370  248.6310 C   0  0  0  0  0
   26.1370   50.5650  249.7060 C   0  0  0  0  0
   26.6500   50.9110  250.9970 O   0  0  0  0  0
   30.2710   52.2990  246.3640 N   0  0  0  0  0
   29.4340   52.6160  245.4600 C   0  0  0  0  0
   27.8840   52.8520  246.0480 S   0  0  0  0  0
   29.7530   52.7630  244.1800 N   0  0  0  0  0
   28.7910   53.1950  243.1930 C   0  0  0  0  0
   29.5200   53.6740  241.9540 C   0  0  0  0  0
   28.9080   53.7450  240.7870 C   0  0  0  0  0
   30.4286   48.8265  247.9069 H   0  0  0  0  0
   28.9473   50.2220  246.7776 H   0  0  0  0  0
   28.8764   50.4369  249.8178 H   0  0  0  0  0
   28.9854   48.2798  248.9773 H   0  0  0  0  0
   30.3511   52.2262  248.5371 H   0  0  0  0  0
   28.5820   53.8283  248.1361 H   0  0  0  0  0
   26.7589   50.6846  247.6523 H   0  0  0  0  0
   25.9419   49.4933  249.6674 H   0  0  0  0  0
   25.2099   51.1090  249.5252 H   0  0  0  0  0
   26.0054   50.6781  251.6692 H   0  0  0  0  0
   30.7086   52.5644  243.8837 H   0  0  0  0  0
   28.1927   54.0099  243.6007 H   0  0  0  0  0
   28.1389   52.3616  242.9318 H   0  0  0  0  0
   30.5679   53.9649  242.0279 H   0  0  0  0  0
   27.8603   53.4564  240.7026 H   0  0  0  0  0
   29.4502   54.0923  239.9075 H   0  0  0  0  0
  1  2  1  0  0  0
  2  3  1  0  0  0
  2  5  1  0  0  0
  3  4  1  0  0  0
  3  8  1  0  0  0
  5  6  1  0  0  0
  5 11  1  0  0  0
  6  7  1  0  0  0
  6 13  1  0  0  0
  7  8  1  0  0  0
  8  9  1  0  0  0
  9 10  1  0  0  0
 11 12  2  0  0  0
 12 13  1  0  0  0
 12 14  1  0  0  0
 14 15  1  0  0  0
 15 16  1  0  0  0
 16 17  2  0  0  0
  1 18  1  0  0  0
  2 19  1  0  0  0
  3 20  1  0  0  0
  4 21  1  0  0  0
  5 22  1  0  0  0
  6 23  1  0  0  0
  8 24  1  0  0  0
  9 25  1  0  0  0
  9 26  1  0  0  0
 10 27  1  0  0  0
 14 28  1  0  0  0
 15 29  1  0  0  0
 15 30  1  0  0  0
 16 31  1  0  0  0
 17 32  1  0  0  0
 17 33  1  0  0  0
M  END
$$$$
