2qx0_ligand
  -I-interpret- 

 23 24  0  0  0  0  0  0  0  0999 V2000
    3.4680    5.5500    6.9560 N   0  0  0  0  0
    3.2800    5.6130    8.2450 C   0  0  0  0  0
    3.2070    6.9820    9.0010 C   0  0  0  0  0
    3.3630    7.9900    8.1500 N   0  0  0  0  0
    3.6980    9.1120    6.0760 N   0  0  0  0  0
    3.8840    9.1520    4.8110 C   0  0  0  0  0
    4.0240   10.1260    4.0380 N   0  0  0  0  0
    3.9420    7.8170    4.1670 N   0  0  0  0  0
    3.8110    6.6480    4.8390 C   0  0  0  0  0
    3.8840    5.5800    4.1380 O   0  0  0  0  0
    3.6130    6.6720    6.1860 C   0  0  0  0  0
    3.5570    8.0440    6.8380 C   0  0  0  0  0
    3.1340    4.3740    9.0710 C   0  0  0  0  0
    3.2230    3.1870    8.4070 O   0  0  0  0  0
    4.0025    7.0194    9.7452 H   0  0  0  0  0
    2.2326    7.0706    9.4815 H   0  0  0  0  0
    3.3263    8.9074    8.5943 H   0  0  0  0  0
    3.9966   11.0770    4.4058 H   0  0  0  0  0
    4.1655    9.9689    3.0401 H   0  0  0  0  0
    4.0892    7.7768    3.1585 H   0  0  0  0  0
    2.1298    4.4092    9.4934 H   0  0  0  0  0
    3.9607    4.3854    9.7813 H   0  0  0  0  0
    3.1157    2.4644    9.0298 H   0  0  0  0  0
  2  1  2  0  0  0
  1 11  1  0  0  0
  3  2  1  0  0  0
  2 13  1  0  0  0
  4  3  1  0  0  0
 12  4  1  0  0  0
  5  6  2  0  0  0
  5 12  1  0  0  0
  6  7  1  0  0  0
  6  8  1  0  0  0
  8  9  1  0  0  0
  9 10  2  0  0  0
  9 11  1  0  0  0
 11 12  2  0  0  0
 13 14  1  0  0  0
  3 15  1  0  0  0
  3 16  1  0  0  0
  4 17  1  0  0  0
  7 18  1  0  0  0
  7 19  1  0  0  0
  8 20  1  0  0  0
 13 21  1  0  0  0
 13 22  1  0  0  0
 14 23  1  0  0  0
M  END
$$$$
