5odu_ligand
  -I-interpret- 

 27 27  0  0  0  0  0  0  0  0999 V2000
    3.2840  -27.5580  -58.2620 C   0  0  0  0  0
    4.1740  -28.5700  -59.0360 C   0  0  0  0  0
    5.4170  -27.8930  -59.6290 C   0  0  0  0  0
    5.0230  -26.6170  -60.4100 C   0  0  0  0  0
    4.1000  -25.6880  -59.5720 C   0  0  0  0  0
    3.6920  -24.4230  -60.4340 C   0  0  0  0  0
    3.0510  -26.5510  -56.0840 C   0  0  0  0  0
    3.9050  -27.1190  -57.0710 O   0  0  0  0  0
    4.5240  -29.5870  -58.1570 O   0  0  0  0  0
    6.0710  -28.7850  -60.4740 O   0  0  0  0  0
    4.3540  -26.9890  -61.5760 O   0  0  0  0  0
    2.9990  -26.4030  -59.0470 O   0  0  0  0  0
    3.1770  -23.4010  -59.6370 O   0  0  0  0  0
    2.3624  -28.0911  -58.0283 H   0  0  0  0  0
    3.6190  -28.9786  -59.8805 H   0  0  0  0  0
    6.0835  -27.6048  -58.8161 H   0  0  0  0  0
    5.9350  -26.0667  -60.6416 H   0  0  0  0  0
    4.6409  -25.3156  -58.7021 H   0  0  0  0  0
    2.9230  -24.7251  -61.1450 H   0  0  0  0  0
    4.5828  -24.0494  -60.9390 H   0  0  0  0  0
    2.5486  -25.6774  -56.4993 H   0  0  0  0  0
    2.3082  -27.2886  -55.7801 H   0  0  0  0  0
    3.6445  -26.2536  -55.2195 H   0  0  0  0  0
    3.7281  -29.9906  -57.8032 H   0  0  0  0  0
    6.3115  -29.5730  -59.9813 H   0  0  0  0  0
    4.9189  -27.5632  -62.0984 H   0  0  0  0  0
    2.9412  -22.6530  -60.1906 H   0  0  0  0  0
  1  2  1  0  0  0
  1  8  1  0  0  0
  1 12  1  0  0  0
  2  3  1  0  0  0
  2  9  1  0  0  0
  3  4  1  0  0  0
  3 10  1  0  0  0
  4  5  1  0  0  0
  4 11  1  0  0  0
  5  6  1  0  0  0
  5 12  1  0  0  0
  6 13  1  0  0  0
  8  7  1  0  0  0
  1 14  1  0  0  0
  2 15  1  0  0  0
  3 16  1  0  0  0
  4 17  1  0  0  0
  5 18  1  0  0  0
  6 19  1  0  0  0
  6 20  1  0  0  0
  7 21  1  0  0  0
  7 22  1  0  0  0
  7 23  1  0  0  0
  9 24  1  0  0  0
 10 25  1  0  0  0
 11 26  1  0  0  0
 13 27  1  0  0  0
M  END
$$$$
