### 
### Created by X-TOOL on Mon Sep 10 21:13:33 2018
### 

@<TRIPOS>MOLECULE
5wbl_ligand
  116   116     1     0     0
SMALL
GAST_HUCK


@<TRIPOS>ATOM
      1 N         -22.8800  -42.4260   34.6820 N.4       1 GLY         0.2357
      2 CA        -22.4210  -42.7370   33.2930 C.3       1 GLY         0.0545
      3 C         -22.0110  -44.1840   33.0630 C.2       1 GLY         0.2234
      4 O         -20.8420  -44.5390   33.2430 O.2       1 GLY        -0.3911
      5 N         -22.9730  -45.0150   32.6580 N.am      1 GLY        -0.2639
      6 CA        -22.7270  -46.4400   32.4210 C.3       1 GLY         0.1202
      7 C         -23.8370  -47.1610   31.6680 C.2       1 GLY         0.2007
      8 O         -24.3350  -46.6540   30.6600 O.2       1 GLY        -0.3947
      9 N         -24.1990  -48.3480   32.1710 N.am      1 LEU        -0.2640
     10 CA        -25.1700  -49.2960   31.5640 C.3       1 LEU         0.1312
     11 C         -24.5720  -50.2530   30.5060 C.2       1 LEU         0.2040
     12 O         -24.6890  -51.4740   30.6570 O.2       1 LEU        -0.3944
     13 CB        -26.4200  -48.6090   31.0000 C.3       1 LEU        -0.0101
     14 CG        -27.6350  -49.5490   30.9480 C.3       1 LEU        -0.0425
     15 CD1       -28.3760  -49.5470   32.2790 C.3       1 LEU        -0.0625
     16 CD2       -28.5710  -49.1810   29.8060 C.3       1 LEU        -0.0625
     17 N         -23.9900  -49.7020   29.4330 N.am      1 PHE        -0.2619
     18 CA        -23.2280  -50.4930   28.4350 C.3       1 PHE         0.1404
     19 C         -21.7200  -50.2940   28.6430 C.2       1 PHE         0.2060
     20 O         -21.2530  -49.1620   28.8010 O.2       1 PHE        -0.3942
     21 CB        -23.6020  -50.1280   26.9850 C.3       1 PHE         0.0214
     22 CG        -25.0790  -50.1730   26.7000 C.ar      1 PHE        -0.0386
     23 CD1       -25.7560  -49.0400   26.2640 C.ar      1 PHE        -0.0601
     24 CD2       -25.7990  -51.3530   26.8720 C.ar      1 PHE        -0.0601
     25 CE1       -27.1190  -49.0850   26.0060 C.ar      1 PHE        -0.0686
     26 CE2       -27.1660  -51.4010   26.6170 C.ar      1 PHE        -0.0686
     27 CZ        -27.8260  -50.2650   26.1840 C.ar      1 PHE        -0.0687
     28 N         -20.9710  -51.3990   28.6260 N.am      1 VAL        -0.2633
     29 CA        -19.5220  -51.3860   28.8830 C.3       1 VAL         0.1333
     30 C         -18.7870  -50.8550   27.6400 C.2       1 VAL         0.2041
     31 O         -19.2740  -50.9860   26.5130 O.2       1 VAL        -0.3944
     32 CB        -18.9960  -52.8000   29.2910 C.3       1 VAL        -0.0063
     33 CG1       -17.4950  -52.7930   29.5790 C.3       1 VAL        -0.0584
     34 CG2       -19.7360  -53.3240   30.5180 C.3       1 VAL        -0.0584
     35 N         -17.6330  -50.2310   27.8660 N.am      1 MET        -0.2637
     36 CA        -16.7340  -49.7970   26.7990 C.3       1 MET         0.1317
     37 C         -15.3660  -50.4270   27.0540 C.2       1 MET         0.2040
     38 O         -14.9430  -50.5520   28.2070 O.2       1 MET        -0.3944
     39 CB        -16.6490  -48.2700   26.7800 C.3       1 MET        -0.0034
     40 CG        -15.8480  -47.6830   25.6260 C.3       1 MET        -0.0024
     41 SD        -16.4310  -46.0490   25.1170 S.3       1 MET        -0.1639
     42 CE        -16.3090  -45.1640   26.6650 C.3       1 MET        -0.0181
     43 N         -14.6880  -50.8340   25.9830 N.am      1 ASP        -0.2622
     44 CA        -13.4280  -51.5770   26.0990 C.3       1 ASP         0.1423
     45 C         -12.2490  -50.6610   26.4330 C.2       1 ASP         0.2051
     46 O         -11.8710  -49.8010   25.6300 O.2       1 ASP        -0.3943
     47 CB        -13.1360  -52.3510   24.8140 C.3       1 ASP         0.0406
     48 CG        -14.2100  -53.3680   24.4950 C.2       1 ASP         0.0393
     49 OD1       -15.3450  -52.9440   24.1950 O.co2     1 ASP        -0.5688
     50 OD2       -13.9210  -54.5840   24.5440 O.co2     1 ASP        -0.5688
     51 N         -11.6970  -50.8390   27.6350 N.am      1 GLU        -0.2693
     52 CA        -10.4680  -50.1550   28.0610 C.3       1 GLU         0.0959
     53 C          -9.7280  -50.9610   29.1350 C.2       1 GLU         0.0602
     54 O          -9.1180  -51.9930   28.8450 O.co2     1 GLU        -0.5666
     55 CB        -10.7290  -48.6980   28.5310 C.3       1 GLU        -0.0064
     56 CG        -12.1670  -48.3000   28.8880 C.3       1 GLU         0.0038
     57 CD        -12.7240  -48.9720   30.1360 C.2       1 GLU         0.0350
     58 OE1       -11.9890  -49.7030   30.8330 O.co2     1 GLU        -0.5690
     59 OE2       -13.9180  -48.7550   30.4300 O.co2     1 GLU        -0.5690
     60 OXT        -9.7260  -50.5950   30.3130 O.co2     1 GLU        -0.5666
     61 H1        -23.1301  -41.4514   34.7429 H         1 GLY         0.2012
     62 H2        -22.1367  -42.6234   35.3336 H         1 GLY         0.2012
     63 H3        -23.6825  -42.9934   34.9057 H         1 GLY         0.2012
     64 H4        -21.5555  -42.0967   33.0677 H         1 GLY         0.1061
     65 H5        -23.2423  -42.5004   32.6006 H         1 GLY         0.1061
     66 H6        -23.8935  -44.6530   32.5111 H         1 GLY         0.1882
     67 H7        -22.5988  -46.9324   33.3962 H         1 GLY         0.0763
     68 H8        -21.7994  -46.5351   31.8375 H         1 GLY         0.0763
     69 H9        -23.7770  -48.6222   33.0351 H         1 LEU         0.1883
     70 H10       -25.5132  -49.9334   32.3922 H         1 LEU         0.0800
     71 H11       -26.2007  -48.2592   29.9804 H         1 LEU         0.0315
     72 H12       -26.6674  -47.7477   31.6379 H         1 LEU         0.0315
     73 H13       -27.2657  -50.5691   30.7663 H         1 LEU         0.0298
     74 H14       -29.2399  -50.2252   32.2187 H         1 LEU         0.0232
     75 H15       -28.7247  -48.5281   32.5030 H         1 LEU         0.0232
     76 H16       -27.6985  -49.8863   33.0764 H         1 LEU         0.0232
     77 H17       -28.0135  -49.1894   28.8578 H         1 LEU         0.0232
     78 H18       -28.9840  -48.1764   29.9796 H         1 LEU         0.0232
     79 H19       -29.3921  -49.9112   29.7550 H         1 LEU         0.0232
     80 H20       -24.0725  -48.7145   29.2985 H         1 PHE         0.1885
     81 H21       -23.4654  -51.5556   28.5914 H         1 PHE         0.0823
     82 H22       -23.0986  -50.8358   26.3101 H         1 PHE         0.0474
     83 H23       -23.2422  -49.1085   26.7819 H         1 PHE         0.0474
     84 H24       -25.2139  -48.1118   26.1241 H         1 PHE         0.0557
     85 H25       -25.2869  -52.2468   27.2094 H         1 PHE         0.0557
     86 H26       -27.6332  -48.1941   25.6639 H         1 PHE         0.0599
     87 H27       -27.7126  -52.3265   26.7573 H         1 PHE         0.0599
     88 H28       -28.8910  -50.2968   25.9847 H         1 PHE         0.0559
     89 H29       -21.4140  -52.2739   28.4300 H         1 VAL         0.1883
     90 H30       -19.3270  -50.6990   29.7197 H         1 VAL         0.0802
     91 H31       -19.1830  -53.4857   28.4514 H         1 VAL         0.0343
     92 H32       -17.1711  -53.8057   29.8610 H         1 VAL         0.0234
     93 H33       -17.2832  -52.0972   30.4042 H         1 VAL         0.0234
     94 H34       -16.9504  -52.4712   28.6791 H         1 VAL         0.0234
     95 H35       -20.8177  -53.3320   30.3181 H         1 VAL         0.0234
     96 H36       -19.5270  -52.6716   31.3786 H         1 VAL         0.0234
     97 H37       -19.3970  -54.3462   30.7419 H         1 VAL         0.0234
     98 H38       -17.3682  -50.0503   28.8132 H         1 MET         0.1883
     99 H39       -17.1187  -50.1442   25.8287 H         1 MET         0.0800
    100 H40       -16.1817  -47.9428   27.7205 H         1 MET         0.0320
    101 H41       -17.6729  -47.8722   26.7214 H         1 MET         0.0320
    102 H42       -15.9221  -48.3647   24.7659 H         1 MET         0.0378
    103 H43       -14.7964  -47.5982   25.9372 H         1 MET         0.0378
    104 H44       -16.6371  -44.1242   26.5197 H         1 MET         0.0340
    105 H45       -15.2652  -45.1740   27.0118 H         1 MET         0.0340
    106 H46       -16.9497  -45.6490   27.4162 H         1 MET         0.0340
    107 H47       -15.0478  -50.6274   25.0731 H         1 ASP         0.1884
    108 H48       -13.5387  -52.3011   26.9196 H         1 ASP         0.0819
    109 H49       -12.1759  -52.8756   24.9283 H         1 ASP         0.0478
    110 H50       -13.0669  -51.6372   23.9799 H         1 ASP         0.0478
    111 H51       -12.1400  -51.4666   28.2752 H         1 GLU         0.1875
    112 H52        -9.8091  -50.0976   27.1821 H         1 GLU         0.0727
    113 H53       -10.3963  -48.0297   27.7231 H         1 GLU         0.0323
    114 H54       -10.1116  -48.5278   29.4253 H         1 GLU         0.0323
    115 H55       -12.8156  -48.5628   28.0394 H         1 GLU         0.0432
    116 H56       -12.1919  -47.2116   29.0453 H         1 GLU         0.0432
@<TRIPOS>BOND
     1    1    2 1  
     2    2    3 1  
     3    3    4 2  
     4    3    5 am 
     5    5    6 1  
     6    6    7 1  
     7    7    8 2  
     8    7    9 am 
     9    9   10 1  
    10   10   11 1  
    11   10   13 1  
    12   11   12 2  
    13   11   17 am 
    14   13   14 1  
    15   14   15 1  
    16   14   16 1  
    17   17   18 1  
    18   18   19 1  
    19   18   21 1  
    20   19   20 2  
    21   19   28 am 
    22   21   22 1  
    23   22   23 ar 
    24   22   24 ar 
    25   23   25 ar 
    26   24   26 ar 
    27   25   27 ar 
    28   26   27 ar 
    29   28   29 1  
    30   29   30 1  
    31   29   32 1  
    32   30   31 2  
    33   30   35 am 
    34   32   33 1  
    35   32   34 1  
    36   35   36 1  
    37   36   37 1  
    38   36   39 1  
    39   37   38 2  
    40   37   43 am 
    41   39   40 1  
    42   40   41 1  
    43   41   42 1  
    44   43   44 1  
    45   44   45 1  
    46   44   47 1  
    47   45   46 2  
    48   45   51 am 
    49   47   48 1  
    50   48   49 ar 
    51   48   50 ar 
    52   51   52 1  
    53   52   53 1  
    54   52   55 1  
    55   53   54 ar 
    56   53   60 ar 
    57   55   56 1  
    58   56   57 1  
    59   57   58 ar 
    60   57   59 ar 
    61    1   61 1  
    62    1   62 1  
    63    1   63 1  
    64    2   64 1  
    65    2   65 1  
    66    5   66 1  
    67    6   67 1  
    68    6   68 1  
    69    9   69 1  
    70   10   70 1  
    71   13   71 1  
    72   13   72 1  
    73   14   73 1  
    74   15   74 1  
    75   15   75 1  
    76   15   76 1  
    77   16   77 1  
    78   16   78 1  
    79   16   79 1  
    80   17   80 1  
    81   18   81 1  
    82   21   82 1  
    83   21   83 1  
    84   23   84 1  
    85   24   85 1  
    86   25   86 1  
    87   26   87 1  
    88   27   88 1  
    89   28   89 1  
    90   29   90 1  
    91   32   91 1  
    92   33   92 1  
    93   33   93 1  
    94   33   94 1  
    95   34   95 1  
    96   34   96 1  
    97   34   97 1  
    98   35   98 1  
    99   36   99 1  
   100   39  100 1  
   101   39  101 1  
   102   40  102 1  
   103   40  103 1  
   104   42  104 1  
   105   42  105 1  
   106   42  106 1  
   107   43  107 1  
   108   44  108 1  
   109   47  109 1  
   110   47  110 1  
   111   51  111 1  
   112   52  112 1  
   113   55  113 1  
   114   55  114 1  
   115   56  115 1  
   116   56  116 1  
@<TRIPOS>SUBSTRUCTURE
     1 GLY         1

