5wbl_ligand
  -I-interpret- 

119119  0  0  0  0  0  0  0  0999 V2000
  -22.8800  -42.4260   34.6820 N   0  3  0  0  0
  -22.4210  -42.7370   33.2930 C   0  0  0  0  0
  -22.0110  -44.1840   33.0630 C   0  0  0  0  0
  -20.8420  -44.5390   33.2430 O   0  0  0  0  0
  -22.9730  -45.0150   32.6580 N   0  0  0  0  0
  -22.7270  -46.4400   32.4210 C   0  0  0  0  0
  -23.8370  -47.1610   31.6680 C   0  0  0  0  0
  -24.3350  -46.6540   30.6600 O   0  0  0  0  0
  -24.1990  -48.3480   32.1710 N   0  0  0  0  0
  -25.1700  -49.2960   31.5640 C   0  0  0  0  0
  -24.5720  -50.2530   30.5060 C   0  0  0  0  0
  -24.6890  -51.4740   30.6570 O   0  0  0  0  0
  -26.4200  -48.6090   31.0000 C   0  0  0  0  0
  -27.6350  -49.5490   30.9480 C   0  0  0  0  0
  -28.3760  -49.5470   32.2790 C   0  0  0  0  0
  -28.5710  -49.1810   29.8060 C   0  0  0  0  0
  -23.9900  -49.7020   29.4330 N   0  0  0  0  0
  -23.2280  -50.4930   28.4350 C   0  0  0  0  0
  -21.7200  -50.2940   28.6430 C   0  0  0  0  0
  -21.2530  -49.1620   28.8010 O   0  0  0  0  0
  -23.6020  -50.1280   26.9850 C   0  0  0  0  0
  -25.0790  -50.1730   26.7000 C   0  0  0  0  0
  -25.7560  -49.0400   26.2640 C   0  0  0  0  0
  -25.7990  -51.3530   26.8720 C   0  0  0  0  0
  -27.1190  -49.0850   26.0060 C   0  0  0  0  0
  -27.1660  -51.4010   26.6170 C   0  0  0  0  0
  -27.8260  -50.2650   26.1840 C   0  0  0  0  0
  -20.9710  -51.3990   28.6260 N   0  0  0  0  0
  -19.5220  -51.3860   28.8830 C   0  0  0  0  0
  -18.7870  -50.8550   27.6400 C   0  0  0  0  0
  -19.2740  -50.9860   26.5130 O   0  0  0  0  0
  -18.9960  -52.8000   29.2910 C   0  0  0  0  0
  -17.4950  -52.7930   29.5790 C   0  0  0  0  0
  -19.7360  -53.3240   30.5180 C   0  0  0  0  0
  -17.6330  -50.2310   27.8660 N   0  0  0  0  0
  -16.7340  -49.7970   26.7990 C   0  0  0  0  0
  -15.3660  -50.4270   27.0540 C   0  0  0  0  0
  -14.9430  -50.5520   28.2070 O   0  0  0  0  0
  -16.6490  -48.2700   26.7800 C   0  0  0  0  0
  -15.8480  -47.6830   25.6260 C   0  0  0  0  0
  -16.4310  -46.0490   25.1170 S   0  0  0  0  0
  -16.3090  -45.1640   26.6650 C   0  0  0  0  0
  -14.6880  -50.8340   25.9830 N   0  0  0  0  0
  -13.4280  -51.5770   26.0990 C   0  0  0  0  0
  -12.2490  -50.6610   26.4330 C   0  0  0  0  0
  -11.8710  -49.8010   25.6300 O   0  0  0  0  0
  -13.1360  -52.3510   24.8140 C   0  0  0  0  0
  -14.2100  -53.3680   24.4950 C   0  0  0  0  0
  -15.3450  -52.9440   24.1950 O   0  0  0  0  0
  -13.9210  -54.5840   24.5440 O   0  0  0  0  0
  -11.6970  -50.8390   27.6350 N   0  0  0  0  0
  -10.4680  -50.1550   28.0610 C   0  0  0  0  0
   -9.7280  -50.9610   29.1350 C   0  0  0  0  0
   -9.1180  -51.9930   28.8450 O   0  0  0  0  0
  -10.7290  -48.6980   28.5310 C   0  0  0  0  0
  -12.1670  -48.3000   28.8880 C   0  0  0  0  0
  -12.7240  -48.9720   30.1360 C   0  0  0  0  0
  -11.9890  -49.7030   30.8330 O   0  0  0  0  0
  -13.9180  -48.7550   30.4300 O   0  0  0  0  0
   -9.7260  -50.5950   30.3130 O   0  0  0  0  0
  -23.1328  -41.4397   34.7424 H   0  0  0  0  0
  -23.6920  -43.0008   34.9072 H   0  0  0  0  0
  -22.1271  -42.6262   35.3404 H   0  0  0  0  0
  -21.5378  -42.1255   33.1081 H   0  0  0  0  0
  -23.2634  -42.5385   32.6304 H   0  0  0  0  0
  -23.9119  -44.6457   32.5082 H   0  0  0  0  0
  -22.6467  -46.9149   33.3988 H   0  0  0  0  0
  -21.8298  -46.5090   31.8059 H   0  0  0  0  0
  -23.7686  -48.6277   33.0524 H   0  0  0  0  0
  -25.4666  -49.9121   32.4129 H   0  0  0  0  0
  -26.1979  -48.2897   29.9818 H   0  0  0  0  0
  -26.6688  -47.7735   31.6543 H   0  0  0  0  0
  -27.2677  -50.5583   30.7625 H   0  0  0  0  0
  -27.7036  -49.8833   33.0682 H   0  0  0  0  0
  -28.7210  -48.5369   32.4998 H   0  0  0  0  0
  -29.2317  -50.2194   32.2180 H   0  0  0  0  0
  -28.9274  -48.1603   29.9446 H   0  0  0  0  0
  -28.0344  -49.2545   28.8601 H   0  0  0  0  0
  -29.4192  -49.8655   29.7982 H   0  0  0  0  0
  -24.0742  -48.6948   29.2958 H   0  0  0  0  0
  -23.4911  -51.5394   28.5895 H   0  0  0  0  0
  -23.1262  -50.8624   26.3352 H   0  0  0  0  0
  -23.2725  -49.1028   26.8158 H   0  0  0  0  0
  -25.2109  -48.1066   26.1233 H   0  0  0  0  0
  -25.2840  -52.2518   27.2113 H   0  0  0  0  0
  -27.6361  -48.1892   25.6620 H   0  0  0  0  0
  -27.7156  -52.3317   26.7581 H   0  0  0  0  0
  -28.8969  -50.2970   25.9836 H   0  0  0  0  0
  -21.4228  -52.2914   28.4261 H   0  0  0  0  0
  -19.3233  -50.7227   29.7248 H   0  0  0  0  0
  -19.1823  -53.4571   28.4415 H   0  0  0  0  0
  -16.9566  -52.4739   28.6866 H   0  0  0  0  0
  -17.2865  -52.1032   30.3968 H   0  0  0  0  0
  -17.1752  -53.7969   29.8583 H   0  0  0  0  0
  -19.5841  -52.6392   31.3523 H   0  0  0  0  0
  -20.8005  -53.3967   30.2951 H   0  0  0  0  0
  -19.3502  -54.3092   30.7801 H   0  0  0  0  0
  -17.3629  -50.0467   28.8322 H   0  0  0  0  0
  -17.1040  -50.1153   25.8244 H   0  0  0  0  0
  -16.1421  -47.9721   27.6978 H   0  0  0  0  0
  -17.6688  -47.8999   26.6748 H   0  0  0  0  0
  -15.9555  -48.3535   24.7733 H   0  0  0  0  0
  -14.8156  -47.5774   25.9593 H   0  0  0  0  0
  -16.9442  -45.6456   27.4084 H   0  0  0  0  0
  -15.2743  -45.1747   27.0076 H   0  0  0  0  0
  -16.6344  -44.1339   26.5197 H   0  0  0  0  0
  -15.0550  -50.6232   25.0550 H   0  0  0  0  0
  -13.5490  -52.2801   26.9231 H   0  0  0  0  0
  -12.1956  -52.8854   24.9490 H   0  0  0  0  0
  -13.0944  -51.6361   23.9923 H   0  0  0  0  0
  -12.9993  -54.6829   24.7937 H   0  0  0  0  0
  -12.1489  -51.4792   28.2880 H   0  0  0  0  0
   -9.8257  -50.0898   27.1828 H   0  0  0  0  0
  -10.4580  -48.0688   27.6832 H   0  0  0  0  0
  -10.1616  -48.5873   29.4550 H   0  0  0  0  0
  -12.7973  -48.6088   28.0540 H   0  0  0  0  0
  -12.1597  -47.2275   29.0824 H   0  0  0  0  0
  -11.1137  -49.7418   30.4407 H   0  0  0  0  0
  -10.2342  -49.7848   30.3961 H   0  0  0  0  0
  1  2  1  0  0  0
  2  3  1  0  0  0
  3  4  2  0  0  0
  3  5  1  0  0  0
  5  6  1  0  0  0
  6  7  1  0  0  0
  7  8  2  0  0  0
  7  9  1  0  0  0
  9 10  1  0  0  0
 10 11  1  0  0  0
 10 13  1  0  0  0
 11 12  2  0  0  0
 11 17  1  0  0  0
 13 14  1  0  0  0
 14 15  1  0  0  0
 14 16  1  0  0  0
 17 18  1  0  0  0
 18 19  1  0  0  0
 18 21  1  0  0  0
 19 20  2  0  0  0
 19 28  1  0  0  0
 21 22  1  0  0  0
 22 23  4  0  0  0
 22 24  4  0  0  0
 23 25  4  0  0  0
 24 26  4  0  0  0
 25 27  4  0  0  0
 26 27  4  0  0  0
 28 29  1  0  0  0
 29 30  1  0  0  0
 29 32  1  0  0  0
 30 31  2  0  0  0
 30 35  1  0  0  0
 32 33  1  0  0  0
 32 34  1  0  0  0
 35 36  1  0  0  0
 36 37  1  0  0  0
 36 39  1  0  0  0
 37 38  2  0  0  0
 37 43  1  0  0  0
 39 40  1  0  0  0
 40 41  1  0  0  0
 41 42  1  0  0  0
 43 44  1  0  0  0
 44 45  1  0  0  0
 44 47  1  0  0  0
 45 46  2  0  0  0
 45 51  1  0  0  0
 47 48  1  0  0  0
 48 49  2  0  0  0
 48 50  1  0  0  0
 51 52  1  0  0  0
 52 53  1  0  0  0
 52 55  1  0  0  0
 53 54  2  0  0  0
 53 60  1  0  0  0
 55 56  1  0  0  0
 56 57  1  0  0  0
 57 58  1  0  0  0
 57 59  2  0  0  0
  1 61  1  0  0  0
  1 62  1  0  0  0
  1 63  1  0  0  0
  2 64  1  0  0  0
  2 65  1  0  0  0
  5 66  1  0  0  0
  6 67  1  0  0  0
  6 68  1  0  0  0
  9 69  1  0  0  0
 10 70  1  0  0  0
 13 71  1  0  0  0
 13 72  1  0  0  0
 14 73  1  0  0  0
 15 74  1  0  0  0
 15 75  1  0  0  0
 15 76  1  0  0  0
 16 77  1  0  0  0
 16 78  1  0  0  0
 16 79  1  0  0  0
 17 80  1  0  0  0
 18 81  1  0  0  0
 21 82  1  0  0  0
 21 83  1  0  0  0
 23 84  1  0  0  0
 24 85  1  0  0  0
 25 86  1  0  0  0
 26 87  1  0  0  0
 27 88  1  0  0  0
 28 89  1  0  0  0
 29 90  1  0  0  0
 32 91  1  0  0  0
 33 92  1  0  0  0
 33 93  1  0  0  0
 33 94  1  0  0  0
 34 95  1  0  0  0
 34 96  1  0  0  0
 34 97  1  0  0  0
 35 98  1  0  0  0
 36 99  1  0  0  0
 39100  1  0  0  0
 39101  1  0  0  0
 40102  1  0  0  0
 40103  1  0  0  0
 42104  1  0  0  0
 42105  1  0  0  0
 42106  1  0  0  0
 43107  1  0  0  0
 44108  1  0  0  0
 47109  1  0  0  0
 47110  1  0  0  0
 50111  1  0  0  0
 51112  1  0  0  0
 52113  1  0  0  0
 55114  1  0  0  0
 55115  1  0  0  0
 56116  1  0  0  0
 56117  1  0  0  0
 58118  1  0  0  0
 60119  1  0  0  0
M  END
$$$$
