6m7h_ligand
  -I-interpret- 

 66 68  0  0  0  0  0  0  0  0999 V2000
    4.9980    6.0520  155.9000 C   0  0  0  0  0
    5.2430   12.1820  159.5910 C   0  0  0  0  0
    6.3300    6.9100  157.7020 C   0  0  0  0  0
    7.5040    5.9390  157.5690 C   0  0  0  0  0
    7.3260    4.6090  157.9110 C   0  0  0  0  0
    8.3730    3.7120  157.7960 C   0  0  0  0  0
    9.6080    4.1290  157.3510 C   0  0  0  0  0
    9.7980    5.4570  157.0140 C   0  0  0  0  0
    8.7500    6.3620  157.1110 C   0  0  0  0  0
    8.9890    8.2400  155.4010 C   0  0  0  0  0
   11.1590    8.3280  158.5470 C   0  0  0  0  0
    4.7910    8.2980  156.5350 C   0  0  0  0  0
   11.3380    7.5550  159.6870 C   0  0  0  0  0
   12.6210    7.1880  160.0850 C   0  0  0  0  0
   13.7240    7.5810  159.3520 C   0  0  0  0  0
   13.5440    8.3530  158.2180 C   0  0  0  0  0
   12.2680    8.7130  157.8170 C   0  0  0  0  0
   16.0320    7.4040  158.8280 C   0  0  0  0  0
    8.1550    7.3380  154.4990 C   0  0  0  0  0
    5.5400    9.5920  156.8340 C   0  0  0  0  0
    4.8190   10.2830  157.9860 C   0  0  0  0  0
    5.6080   11.5100  158.4330 C   0  0  0  0  0
    6.6770   11.9590  157.6860 C   0  0  0  0  0
    7.3820   13.0770  158.1050 C   0  0  0  0  0
    7.0200   13.7480  159.2640 C   0  0  0  0  0
    5.9430   13.3000  160.0160 C   0  0  0  0  0
    5.7310    7.1990  156.4060 N   0  3  0  0  0
    9.0240    7.7400  156.7650 N   0  0  0  0  0
    7.0850    7.7160  154.1570 O   0  0  0  0  0
    9.3400   10.3380  157.5110 O   0  0  0  0  0
   15.0120    7.2130  159.7690 O   0  0  0  0  0
    8.4890    8.5310  159.3400 O   0  0  0  0  0
    9.4750    8.7800  158.0380 S   0  0  0  0  0
    7.9530   15.1870  159.7660 Cl  0  0  0  0  0
    4.2031    5.7930  156.5994 H   0  0  0  0  0
    4.5647    6.2982  154.9306 H   0  0  0  0  0
    5.6779    5.2070  155.7915 H   0  0  0  0  0
    4.3940   11.8256  160.1743 H   0  0  0  0  0
    6.6985    7.8427  158.1291 H   0  0  0  0  0
    5.5730    6.4531  158.3394 H   0  0  0  0  0
    6.3562    4.2671  158.2726 H   0  0  0  0  0
    8.2191    2.6657  158.0600 H   0  0  0  0  0
   10.4295    3.4178  157.2650 H   0  0  0  0  0
   10.7758    5.7946  156.6705 H   0  0  0  0  0
    8.5398    9.2331  155.4079 H   0  0  0  0  0
   10.0084    8.2670  155.0161 H   0  0  0  0  0
    4.2398    8.4101  155.6013 H   0  0  0  0  0
    4.1011    8.0859  157.3518 H   0  0  0  0  0
   10.4742    7.2356  160.2701 H   0  0  0  0  0
   12.7562    6.5852  160.9830 H   0  0  0  0  0
   14.4082    8.6786  157.6390 H   0  0  0  0  0
   12.1365    9.3081  156.9133 H   0  0  0  0  0
   15.8179    6.8137  157.9371 H   0  0  0  0  0
   16.0859    8.4596  158.5617 H   0  0  0  0  0
   16.9831    7.0868  159.2556 H   0  0  0  0  0
    7.9660    6.4408  155.0885 H   0  0  0  0  0
    8.7316    7.2424  153.5790 H   0  0  0  0  0
    5.5564   10.2350  155.9540 H   0  0  0  0  0
    6.5745    9.3800  157.1041 H   0  0  0  0  0
    4.7304    9.5891  158.8219 H   0  0  0  0  0
    3.8285   10.5944  157.6544 H   0  0  0  0  0
    6.9655   11.4386  156.7727 H   0  0  0  0  0
    8.2290   13.4322  157.5180 H   0  0  0  0  0
    5.6517   13.8204  160.9284 H   0  0  0  0  0
    6.4870    7.4350  155.7631 H   0  0  0  0  0
    6.6762    7.0520  153.5970 H   0  0  0  0  0
 27  1  1  0  0  0
 22  2  4  0  0  0
  2 26  4  0  0  0
  4  3  1  0  0  0
  3 27  1  0  0  0
  4  5  4  0  0  0
  9  4  4  0  0  0
  5  6  4  0  0  0
  7  6  4  0  0  0
  8  7  4  0  0  0
  9  8  4  0  0  0
 28  9  1  0  0  0
 10 19  1  0  0  0
 28 10  1  0  0  0
 11 13  4  0  0  0
 11 17  4  0  0  0
 33 11  1  0  0  0
 12 20  1  0  0  0
 27 12  1  0  0  0
 13 14  4  0  0  0
 14 15  4  0  0  0
 16 15  4  0  0  0
 15 31  1  0  0  0
 17 16  4  0  0  0
 31 18  1  0  0  0
 19 29  1  0  0  0
 20 21  1  0  0  0
 21 22  1  0  0  0
 22 23  4  0  0  0
 23 24  4  0  0  0
 24 25  4  0  0  0
 26 25  4  0  0  0
 25 34  1  0  0  0
 28 33  1  0  0  0
 33 30  2  0  0  0
 33 32  2  0  0  0
  1 35  1  0  0  0
  1 36  1  0  0  0
  1 37  1  0  0  0
  2 38  1  0  0  0
  3 39  1  0  0  0
  3 40  1  0  0  0
  5 41  1  0  0  0
  6 42  1  0  0  0
  7 43  1  0  0  0
  8 44  1  0  0  0
 10 45  1  0  0  0
 10 46  1  0  0  0
 12 47  1  0  0  0
 12 48  1  0  0  0
 13 49  1  0  0  0
 14 50  1  0  0  0
 16 51  1  0  0  0
 17 52  1  0  0  0
 18 53  1  0  0  0
 18 54  1  0  0  0
 18 55  1  0  0  0
 19 56  1  0  0  0
 19 57  1  0  0  0
 20 58  1  0  0  0
 20 59  1  0  0  0
 21 60  1  0  0  0
 21 61  1  0  0  0
 23 62  1  0  0  0
 24 63  1  0  0  0
 26 64  1  0  0  0
 27 65  1  0  0  0
 29 66  1  0  0  0
M  END
$$$$
