1h5u_ligand
  -I-interpret- 

 53 56  0  0  0  0  0  0  0  0999 V2000
   17.5410    7.8720   49.4580 Cl  0  0  0  0  0
   18.0060    9.2160   50.4330 C   0  0  0  0  0
   18.6310   10.3740   49.8430 C   0  0  0  0  0
   19.0250   11.4990   50.6600 C   0  0  0  0  0
   18.7560   11.3950   52.0860 C   0  0  0  0  0
   19.0160   12.2630   53.0610 N   0  0  0  0  0
   18.1400   10.2410   52.6500 C   0  0  0  0  0
   17.7450    9.1300   51.8400 C   0  0  0  0  0
   18.0740   10.5620   54.1090 C   0  0  0  0  0
   18.6250   11.8060   54.2490 C   0  0  0  0  0
   18.8500   12.6150   55.4540 C   0  0  0  0  0
   19.3770   13.7200   55.2970 O   0  0  0  0  0
   18.4790   12.1470   56.6810 N   0  0  0  0  0
   18.6990   12.9040   57.9270 C   0  0  0  0  0
   20.2490   13.1240   58.1110 C   0  0  0  0  0
   20.9490   12.1140   58.1910 O   0  0  0  0  0
   20.8430   14.4190   58.1880 N   0  0  0  0  0
   22.3060   14.5480   58.3810 C   0  0  0  0  0
   22.5500   15.2990   59.7170 C   0  0  0  0  0
   21.8190   16.6800   59.7320 C   0  0  0  0  0
   22.5130   17.5950   58.8430 O   0  0  0  0  0
   20.2990   16.5930   59.3290 C   0  0  0  0  0
   20.0300   15.6670   58.0940 C   0  0  0  0  0
   18.1920   12.1540   59.2350 C   0  0  0  0  0
   18.4890   13.0350   60.4520 C   0  0  0  0  0
   17.6570   14.1900   60.7060 C   0  0  0  0  0
   17.9430   15.0410   61.8310 C   0  0  0  0  0
   19.0670   14.7290   62.7010 C   0  0  0  0  0
   19.3410   15.5150   63.7350 F   0  0  0  0  0
   19.8810   13.5830   62.4440 C   0  0  0  0  0
   19.6040   12.7340   61.3340 C   0  0  0  0  0
   18.8084   10.4010   48.7679 H   0  0  0  0  0
   19.4997   12.3808   50.2297 H   0  0  0  0  0
   17.2649    8.2534   52.2751 H   0  0  0  0  0
   17.6687    9.9320   54.9008 H   0  0  0  0  0
   18.0296   11.2331   56.7387 H   0  0  0  0  0
   18.1341   13.8305   57.8241 H   0  0  0  0  0
   22.7475   15.1014   57.5522 H   0  0  0  0  0
   22.7696   13.5621   58.4135 H   0  0  0  0  0
   23.6205   15.4713   59.8283 H   0  0  0  0  0
   22.1608   14.6909   60.5336 H   0  0  0  0  0
   21.8418   17.0419   60.7599 H   0  0  0  0  0
   22.0672   18.4452   58.8491 H   0  0  0  0  0
   19.9737   17.5982   59.0610 H   0  0  0  0  0
   19.7594   16.1717   60.1772 H   0  0  0  0  0
   18.9733   15.4002   58.0755 H   0  0  0  0  0
   20.3058   16.2011   57.1847 H   0  0  0  0  0
   18.7051   11.1976   59.3360 H   0  0  0  0  0
   17.1201   11.9694   59.1641 H   0  0  0  0  0
   16.8172   14.4151   60.0486 H   0  0  0  0  0
   17.3214   15.9140   62.0301 H   0  0  0  0  0
   20.7200   13.3568   63.1020 H   0  0  0  0  0
   20.2276   11.8598   61.1466 H   0  0  0  0  0
  1  2  1  0  0  0
  2  3  4  0  0  0
  2  8  4  0  0  0
  3  4  4  0  0  0
  4  5  4  0  0  0
  5  6  4  0  0  0
  5  7  4  0  0  0
  6 10  4  0  0  0
  7  8  4  0  0  0
  7  9  4  0  0  0
  9 10  4  0  0  0
 10 11  1  0  0  0
 11 12  2  0  0  0
 11 13  1  0  0  0
 13 14  1  0  0  0
 14 15  1  0  0  0
 14 24  1  0  0  0
 15 16  2  0  0  0
 15 17  1  0  0  0
 17 18  1  0  0  0
 17 23  1  0  0  0
 18 19  1  0  0  0
 19 20  1  0  0  0
 20 21  1  0  0  0
 20 22  1  0  0  0
 22 23  1  0  0  0
 24 25  1  0  0  0
 25 26  4  0  0  0
 25 31  4  0  0  0
 26 27  4  0  0  0
 27 28  4  0  0  0
 28 29  1  0  0  0
 28 30  4  0  0  0
 30 31  4  0  0  0
  3 32  1  0  0  0
  4 33  1  0  0  0
  8 34  1  0  0  0
  9 35  1  0  0  0
 13 36  1  0  0  0
 14 37  1  0  0  0
 18 38  1  0  0  0
 18 39  1  0  0  0
 19 40  1  0  0  0
 19 41  1  0  0  0
 20 42  1  0  0  0
 21 43  1  0  0  0
 22 44  1  0  0  0
 22 45  1  0  0  0
 23 46  1  0  0  0
 23 47  1  0  0  0
 24 48  1  0  0  0
 24 49  1  0  0  0
 26 50  1  0  0  0
 27 51  1  0  0  0
 30 52  1  0  0  0
 31 53  1  0  0  0
M  END
$$$$
