4c7t_ligand
  -I-interpret- 

 52 54  0  0  0  0  0  0  0  0999 V2000
   -8.5800    5.3280   -5.8090 C   0  0  0  0  0
   -9.2990    4.6840   -4.7440 O   0  0  0  0  0
  -10.6130    5.0080   -4.5260 C   0  0  0  0  0
  -11.3300    5.9370   -5.3040 C   0  0  0  0  0
  -11.2310    4.3520   -3.4530 C   0  0  0  0  0
  -10.5450    3.4130   -2.7080 O   0  0  0  0  0
   -9.5980    3.9330   -1.7590 C   0  0  0  0  0
  -12.5580    4.6110   -3.1570 C   0  0  0  0  0
  -13.1360    3.9250   -2.1140 O   0  0  0  0  0
  -14.2330    4.5510   -1.4430 C   0  0  0  0  0
  -13.2700    5.5390   -3.9370 C   0  0  0  0  0
  -12.6750    6.2120   -4.9960 C   0  0  0  0  0
  -13.4730    7.0660   -5.6710 N   0  0  0  0  0
  -13.1610    8.1230   -6.4090 C   0  0  0  0  0
  -11.8990    8.5640   -6.5210 N   0  0  0  0  0
  -14.1580    8.7760   -7.0590 N   0  0  0  0  0
  -13.8880    9.8380   -7.8020 C   0  0  0  0  0
  -12.6470   10.2750   -7.9250 N   0  0  0  0  0
  -11.6420    9.6350   -7.2810 C   0  0  0  0  0
  -10.4090   10.0860   -7.4310 N   0  0  0  0  0
   -9.2890    9.5890   -6.8510 C   0  0  0  0  0
   -9.2100    9.4470   -5.4650 C   0  0  0  0  0
   -8.0510    8.9750   -4.8650 C   0  0  0  0  0
   -6.9420    8.6530   -5.6510 C   0  0  0  0  0
   -7.0000    8.7980   -7.0380 C   0  0  0  0  0
   -8.1770    9.2690   -7.6370 C   0  0  0  0  0
   -8.2180    9.4230   -9.1650 C   0  0  0  0  0
   -8.9650   10.2410   -9.7060 O   0  0  0  0  0
   -7.4050    8.6020   -9.8280 N   0  0  0  0  0
   -7.3560    8.7020  -11.2900 C   0  0  0  0  0
   -9.0715    5.1149   -6.7583 H   0  0  0  0  0
   -8.5677    6.4045   -5.6384 H   0  0  0  0  0
   -7.5575    4.9513   -5.8351 H   0  0  0  0  0
  -10.8456    6.4405   -6.1406 H   0  0  0  0  0
   -8.8415    4.5158   -2.2846 H   0  0  0  0  0
  -10.1162    4.5701   -1.0423 H   0  0  0  0  0
   -9.1209    3.1059   -1.2333 H   0  0  0  0  0
  -13.9043    5.5000   -1.0193 H   0  0  0  0  0
  -15.0389    4.7292   -2.1550 H   0  0  0  0  0
  -14.5889    3.8992   -0.6451 H   0  0  0  0  0
  -14.3166    5.7354   -3.7044 H   0  0  0  0  0
  -14.4712    6.8677   -5.6030 H   0  0  0  0  0
  -14.6967   10.3566   -8.3169 H   0  0  0  0  0
  -10.2875   10.8905   -8.0462 H   0  0  0  0  0
  -10.0683    9.7098   -4.8466 H   0  0  0  0  0
   -8.0061    8.8558   -3.7825 H   0  0  0  0  0
   -6.0294    8.2877   -5.1801 H   0  0  0  0  0
   -6.1352    8.5465   -7.6520 H   0  0  0  0  0
   -6.8310    7.9209   -9.3311 H   0  0  0  0  0
   -8.3470    8.5068  -11.6997 H   0  0  0  0  0
   -7.0351    9.7043  -11.5738 H   0  0  0  0  0
   -6.6496    7.9690  -11.6796 H   0  0  0  0  0
  1  2  1  0  0  0
  2  3  1  0  0  0
  3  4  4  0  0  0
  3  5  4  0  0  0
  4 12  4  0  0  0
  5  6  1  0  0  0
  5  8  4  0  0  0
  6  7  1  0  0  0
  8  9  1  0  0  0
  8 11  4  0  0  0
  9 10  1  0  0  0
 11 12  4  0  0  0
 12 13  1  0  0  0
 13 14  1  0  0  0
 14 15  4  0  0  0
 14 16  4  0  0  0
 15 19  4  0  0  0
 16 17  4  0  0  0
 17 18  4  0  0  0
 18 19  4  0  0  0
 19 20  1  0  0  0
 20 21  1  0  0  0
 21 22  4  0  0  0
 21 26  4  0  0  0
 22 23  4  0  0  0
 23 24  4  0  0  0
 24 25  4  0  0  0
 25 26  4  0  0  0
 26 27  1  0  0  0
 27 28  2  0  0  0
 27 29  1  0  0  0
 29 30  1  0  0  0
  1 31  1  0  0  0
  1 32  1  0  0  0
  1 33  1  0  0  0
  4 34  1  0  0  0
  7 35  1  0  0  0
  7 36  1  0  0  0
  7 37  1  0  0  0
 10 38  1  0  0  0
 10 39  1  0  0  0
 10 40  1  0  0  0
 11 41  1  0  0  0
 13 42  1  0  0  0
 17 43  1  0  0  0
 20 44  1  0  0  0
 22 45  1  0  0  0
 23 46  1  0  0  0
 24 47  1  0  0  0
 25 48  1  0  0  0
 29 49  1  0  0  0
 30 50  1  0  0  0
 30 51  1  0  0  0
 30 52  1  0  0  0
M  END
$$$$
