3hfv_ligand
  -I-interpret- 

 25 25  0  0  0  0  0  0  0  0999 V2000
    5.0510   18.9500   13.1590 N   0  3  0  0  0
    4.7980   19.2920   11.7310 C   0  0  0  0  0
    3.5820   18.5390   11.2100 C   0  0  0  0  0
    3.7320   17.0590   11.3980 C   0  0  0  0  0
    4.3090   16.3090   10.3800 C   0  0  0  0  0
    4.4680   14.9300   10.5050 C   0  0  0  0  0
    3.3220   16.4120   12.5560 C   0  0  0  0  0
    3.4770   15.0270   12.6740 C   0  0  0  0  0
    4.0500   14.2920   11.6540 C   0  0  0  0  0
    3.0790   14.3510   13.7870 O   0  0  0  0  0
    4.5290   20.7530   11.5860 C   0  0  0  0  0
    4.2520   21.4720   12.5250 O   0  0  0  0  0
    4.5710   21.2960   10.5190 O   0  0  0  0  0
    5.2328   17.9497   13.2407 H   0  0  0  0  0
    5.8604   19.4724   13.4942 H   0  0  0  0  0
    4.2324   19.1947   13.7161 H   0  0  0  0  0
    5.6850   19.0129   11.1622 H   0  0  0  0  0
    3.4790   18.7436   10.1443 H   0  0  0  0  0
    2.7052   18.8711   11.7659 H   0  0  0  0  0
    4.6424   16.8071    9.4696 H   0  0  0  0  0
    4.9217   14.3570    9.6964 H   0  0  0  0  0
    2.8797   16.9829   13.3724 H   0  0  0  0  0
    4.1710   13.2136   11.7569 H   0  0  0  0  0
    3.2686   13.4163   13.6772 H   0  0  0  0  0
    4.2420   20.9526   13.3323 H   0  0  0  0  0
  1  2  1  0  0  0
  2  3  1  0  0  0
  2 11  1  0  0  0
  3  4  1  0  0  0
  4  5  4  0  0  0
  4  7  4  0  0  0
  5  6  4  0  0  0
  6  9  4  0  0  0
  7  8  4  0  0  0
  8  9  4  0  0  0
  8 10  1  0  0  0
 11 12  1  0  0  0
 11 13  2  0  0  0
  1 14  1  0  0  0
  1 15  1  0  0  0
  1 16  1  0  0  0
  2 17  1  0  0  0
  3 18  1  0  0  0
  3 19  1  0  0  0
  5 20  1  0  0  0
  6 21  1  0  0  0
  7 22  1  0  0  0
  9 23  1  0  0  0
 10 24  1  0  0  0
 12 25  1  0  0  0
M  END
$$$$
