5lhg_ligand
  -I-interpret- 

 64 68  0  0  0  0  0  0  0  0999 V2000
    8.1730  -52.2180  -39.3670 C   0  0  0  0  0
    7.8770  -51.9220  -41.7320 C   0  0  0  0  0
    8.9780  -51.0810  -41.7560 C   0  0  0  0  0
    5.5030  -56.3250  -37.1880 C   0  0  0  0  0
    9.6710  -50.8000  -40.5900 C   0  0  0  0  0
    9.4290  -50.4460  -43.0750 C   0  0  0  0  0
    8.9670  -48.1160  -42.9970 C   0  0  0  0  0
    6.2250  -55.5490  -36.1980 N   0  0  0  0  0
    6.0360  -55.6510  -34.8670 C   0  0  0  0  0
    5.1990  -56.4280  -34.0360 C   0  0  0  0  0
    5.3400  -56.2060  -32.6850 C   0  0  0  0  0
    6.5600  -54.9820  -32.5460 S   0  0  0  0  0
    6.8850  -54.7700  -34.2380 C   0  0  0  0  0
    7.6040  -54.1220  -35.2490 C   0  0  0  0  0
    7.1550  -54.6520  -36.4590 C   0  0  0  0  0
    7.6600  -54.2260  -37.8420 C   0  0  0  0  0
    7.9730  -55.0210  -38.6640 O   0  0  0  0  0
    7.7330  -52.7990  -38.1070 N   0  0  0  0  0
    7.4710  -52.4860  -40.5310 C   0  0  0  0  0
    9.2690  -51.3710  -39.3940 C   0  0  0  0  0
    9.8930  -49.1560  -42.7740 O   0  0  0  0  0
    7.6000  -48.3470  -42.9120 C   0  0  0  0  0
    6.7000  -47.3100  -43.1310 C   0  0  0  0  0
    7.1670  -46.0380  -43.4300 C   0  0  0  0  0
    8.5350  -45.8090  -43.5100 C   0  0  0  0  0
    9.4340  -46.8440  -43.2930 C   0  0  0  0  0
    6.2530  -44.9900  -43.6500 O   0  0  0  0  0
    6.7810  -44.0860  -44.5900 C   0  0  0  0  0
    5.9580  -44.0710  -45.7700 C   0  0  0  0  0
    6.4980  -43.0780  -46.8000 C   0  0  0  0  0
    6.7160  -41.7670  -46.2490 N   0  3  0  0  0
    7.4510  -41.7770  -45.0130 C   0  0  0  0  0
    6.8800  -42.7740  -44.0050 C   0  0  0  0  0
    7.2940  -41.0780  -47.0590 C   0  0  0  0  0
    7.3330  -52.1392  -42.6512 H   0  0  0  0  0
    5.6859  -57.3863  -37.0199 H   0  0  0  0  0
    4.4359  -56.1206  -37.1004 H   0  0  0  0  0
    5.8464  -56.0492  -38.1850 H   0  0  0  0  0
   10.5310  -50.1308  -40.6137 H   0  0  0  0  0
    8.6020  -50.4020  -43.7837 H   0  0  0  0  0
   10.2166  -51.0399  -43.5387 H   0  0  0  0  0
    4.4906  -57.1531  -34.4367 H   0  0  0  0  0
    4.7996  -56.6956  -31.8748 H   0  0  0  0  0
    8.3657  -53.3536  -35.1169 H   0  0  0  0  0
    7.4574  -52.1617  -37.3598 H   0  0  0  0  0
    6.5995  -53.1401  -40.5033 H   0  0  0  0  0
    9.8141  -51.1543  -38.4753 H   0  0  0  0  0
    7.2315  -49.3446  -42.6728 H   0  0  0  0  0
    5.6279  -47.4962  -43.0678 H   0  0  0  0  0
    8.9044  -44.8107  -43.7445 H   0  0  0  0  0
   10.5061  -46.6573  -43.3552 H   0  0  0  0  0
    7.7825  -44.4041  -44.8798 H   0  0  0  0  0
    4.9486  -43.7704  -45.4893 H   0  0  0  0  0
    5.9590  -45.0680  -46.2105 H   0  0  0  0  0
    5.7587  -42.9871  -47.5958 H   0  0  0  0  0
    7.4571  -43.4544  -47.1559 H   0  0  0  0  0
    5.7951  -41.3831  -46.0370 H   0  0  0  0  0
    7.3887  -40.7808  -44.5750 H   0  0  0  0  0
    8.4776  -42.0698  -45.2330 H   0  0  0  0  0
    7.5430  -42.8217  -43.1412 H   0  0  0  0  0
    5.8847  -42.4442  -43.7072 H   0  0  0  0  0
    8.2537  -41.5337  -47.3028 H   0  0  0  0  0
    6.6892  -40.9964  -47.9621 H   0  0  0  0  0
    7.4578  -40.0856  -46.6390 H   0  0  0  0  0
 18  1  1  0  0  0
  1 19  4  0  0  0
  1 20  4  0  0  0
  2  3  4  0  0  0
 19  2  4  0  0  0
  5  3  4  0  0  0
  3  6  1  0  0  0
  8  4  1  0  0  0
 20  5  4  0  0  0
  6 21  1  0  0  0
 21  7  1  0  0  0
  7 22  4  0  0  0
  7 26  4  0  0  0
  8  9  4  0  0  0
 15  8  4  0  0  0
  9 10  4  0  0  0
 13  9  4  0  0  0
 10 11  4  0  0  0
 12 11  4  0  0  0
 13 12  4  0  0  0
 14 13  4  0  0  0
 15 14  4  0  0  0
 16 15  1  0  0  0
 16 17  2  0  0  0
 16 18  1  0  0  0
 22 23  4  0  0  0
 23 24  4  0  0  0
 24 25  4  0  0  0
 24 27  1  0  0  0
 25 26  4  0  0  0
 27 28  1  0  0  0
 28 29  1  0  0  0
 28 33  1  0  0  0
 29 30  1  0  0  0
 30 31  1  0  0  0
 31 32  1  0  0  0
 31 34  1  0  0  0
 32 33  1  0  0  0
  2 35  1  0  0  0
  4 36  1  0  0  0
  4 37  1  0  0  0
  4 38  1  0  0  0
  5 39  1  0  0  0
  6 40  1  0  0  0
  6 41  1  0  0  0
 10 42  1  0  0  0
 11 43  1  0  0  0
 14 44  1  0  0  0
 18 45  1  0  0  0
 19 46  1  0  0  0
 20 47  1  0  0  0
 22 48  1  0  0  0
 23 49  1  0  0  0
 25 50  1  0  0  0
 26 51  1  0  0  0
 28 52  1  0  0  0
 29 53  1  0  0  0
 29 54  1  0  0  0
 30 55  1  0  0  0
 30 56  1  0  0  0
 31 57  1  0  0  0
 32 58  1  0  0  0
 32 59  1  0  0  0
 33 60  1  0  0  0
 33 61  1  0  0  0
 34 62  1  0  0  0
 34 63  1  0  0  0
 34 64  1  0  0  0
M  END
$$$$
