3tti_ligand
  -I-interpret- 

 55 59  0  0  0  0  0  0  0  0999 V2000
  -21.7190    6.4800  -31.8720 C   0  0  0  0  0
  -18.8410   13.9840  -31.8750 F   0  0  0  0  0
  -20.5040    6.2270  -32.4040 N   0  0  0  0  0
  -27.5190    4.7390  -28.9410 O   0  0  0  0  0
  -21.4250    8.7760  -32.1970 C   0  0  0  0  0
  -16.2950   14.2720  -35.8540 F   0  0  0  0  0
  -22.1730    7.7440  -31.7710 N   0  0  0  0  0
  -23.4120   10.2370  -29.5240 O   0  0  0  0  0
  -20.1720    8.5360  -32.7450 C   0  0  0  0  0
  -19.8610   11.1560  -35.5580 F   0  0  0  0  0
  -21.6020   10.0950  -32.2340 N   0  0  0  0  0
  -19.7320    7.2140  -32.8350 C   0  0  0  0  0
  -19.6350    9.7170  -33.0850 N   0  0  0  0  0
  -20.5190   10.6700  -32.7620 C   0  0  0  0  0
  -20.3740   11.9940  -32.9520 N   0  0  0  0  0
  -19.3840   12.5400  -33.6810 C   0  0  0  0  0
  -22.4750    5.4630  -31.4470 N   0  0  0  0  0
  -23.8780    5.6490  -31.0260 C   0  0  0  0  0
  -23.9390    5.8040  -29.4930 C   0  0  0  0  0
  -25.3850    5.8730  -28.9800 C   0  0  0  0  0
  -26.1760    4.6320  -29.4100 C   0  0  0  0  0
  -26.1590    4.5260  -30.9430 C   0  0  0  0  0
  -24.7150    4.4360  -31.4650 C   0  0  0  0  0
  -22.7840   10.8200  -31.7430 C   0  0  0  0  0
  -22.5640   11.1410  -30.2570 C   0  0  0  0  0
  -24.5910   10.0880  -30.3360 C   0  0  0  0  0
  -24.0380    9.9480  -31.7590 C   0  0  0  0  0
  -19.1200   12.1240  -34.9860 C   0  0  0  0  0
  -18.0800   12.7050  -35.7120 C   0  0  0  0  0
  -17.3010   13.7130  -35.1520 C   0  0  0  0  0
  -17.5640   14.1380  -33.8540 C   0  0  0  0  0
  -18.5990   13.5540  -33.1270 C   0  0  0  0  0
  -28.0138    3.9617  -29.2105 H   0  0  0  0  0
  -18.7528    6.9937  -33.2601 H   0  0  0  0  0
  -21.0534   12.6194  -32.5186 H   0  0  0  0  0
  -22.0695    4.5277  -31.4124 H   0  0  0  0  0
  -24.2820    6.5471  -31.4932 H   0  0  0  0  0
  -23.4366    6.7331  -29.2237 H   0  0  0  0  0
  -23.4582    4.9355  -29.0428 H   0  0  0  0  0
  -25.8644    6.7576  -29.3991 H   0  0  0  0  0
  -25.3694    5.9196  -27.8911 H   0  0  0  0  0
  -25.7214    3.7376  -28.9841 H   0  0  0  0  0
  -26.6311    5.4141  -31.3631 H   0  0  0  0  0
  -26.6981    3.6265  -31.2403 H   0  0  0  0  0
  -24.2566    3.5353  -31.0567 H   0  0  0  0  0
  -24.7433    4.4131  -32.5544 H   0  0  0  0  0
  -22.9127   11.6946  -32.3806 H   0  0  0  0  0
  -21.5181   11.0146  -29.9772 H   0  0  0  0  0
  -22.8119   12.1794  -30.0372 H   0  0  0  0  0
  -25.2734   10.9322  -30.2366 H   0  0  0  0  0
  -25.1947    9.2305  -30.0386 H   0  0  0  0  0
  -23.8230    8.9126  -32.0232 H   0  0  0  0  0
  -24.7547   10.2616  -32.5180 H   0  0  0  0  0
  -17.8756   12.3661  -36.7276 H   0  0  0  0  0
  -16.9607   14.9275  -33.4059 H   0  0  0  0  0
  3  1  4  0  0  0
  7  1  4  0  0  0
  1 17  1  0  0  0
 32  2  1  0  0  0
 12  3  4  0  0  0
 21  4  1  0  0  0
  5  7  4  0  0  0
  9  5  4  0  0  0
 11  5  4  0  0  0
 30  6  1  0  0  0
 25  8  1  0  0  0
 26  8  1  0  0  0
  9 12  4  0  0  0
 13  9  4  0  0  0
 28 10  1  0  0  0
 14 11  4  0  0  0
 11 24  1  0  0  0
 14 13  4  0  0  0
 15 14  1  0  0  0
 16 15  1  0  0  0
 28 16  4  0  0  0
 16 32  4  0  0  0
 17 18  1  0  0  0
 18 19  1  0  0  0
 18 23  1  0  0  0
 19 20  1  0  0  0
 20 21  1  0  0  0
 22 21  1  0  0  0
 23 22  1  0  0  0
 24 25  1  0  0  0
 24 27  1  0  0  0
 27 26  1  0  0  0
 29 28  4  0  0  0
 29 30  4  0  0  0
 30 31  4  0  0  0
 31 32  4  0  0  0
  4 33  1  0  0  0
 12 34  1  0  0  0
 15 35  1  0  0  0
 17 36  1  0  0  0
 18 37  1  0  0  0
 19 38  1  0  0  0
 19 39  1  0  0  0
 20 40  1  0  0  0
 20 41  1  0  0  0
 21 42  1  0  0  0
 22 43  1  0  0  0
 22 44  1  0  0  0
 23 45  1  0  0  0
 23 46  1  0  0  0
 24 47  1  0  0  0
 25 48  1  0  0  0
 25 49  1  0  0  0
 26 50  1  0  0  0
 26 51  1  0  0  0
 27 52  1  0  0  0
 27 53  1  0  0  0
 29 54  1  0  0  0
 31 55  1  0  0  0
M  END
$$$$
