1fo2_ligand
  -I-interpret- 

 25 25  0  0  0  0  0  0  0  0999 V2000
   39.0090   40.2680   25.5130 C   0  0  0  0  0
   39.2170   40.5810   26.8980 O   0  0  0  0  0
   37.8240   39.1900   25.5270 C   0  0  0  0  0
   37.4510   38.7100   24.2400 O   0  0  0  0  0
   36.5330   39.8070   26.2310 C   0  0  0  0  0
   35.4780   38.8590   26.2210 O   0  0  0  0  0
   36.1110   41.1420   25.4880 C   0  0  0  0  0
   37.2720   42.0180   25.5830 N   0  3  0  0  0
   38.5930   41.6400   24.8470 C   0  0  0  0  0
   38.3690   41.5450   23.3070 C   0  0  0  0  0
   38.1770   42.3670   22.1460 O   0  0  0  0  0
   39.8584   39.8590   24.9659 H   0  0  0  0  0
   39.4750   39.7855   27.3694 H   0  0  0  0  0
   38.2154   38.3380   26.0829 H   0  0  0  0  0
   38.2200   38.3352   23.8043 H   0  0  0  0  0
   36.7600   40.0482   27.2695 H   0  0  0  0  0
   35.7606   38.0626   26.6765 H   0  0  0  0  0
   35.2294   41.5932   25.9433 H   0  0  0  0  0
   35.8341   40.9537   24.4507 H   0  0  0  0  0
   37.5190   42.0088   26.5726 H   0  0  0  0  0
   36.9731   42.8876   25.1415 H   0  0  0  0  0
   39.3826   42.3844   24.9492 H   0  0  0  0  0
   37.3456   41.1734   23.3592 H   0  0  0  0  0
   39.3815   41.2260   23.0598 H   0  0  0  0  0
   38.0777   41.8076   21.3721 H   0  0  0  0  0
  1  9  1  0  0  0
  1  3  1  0  0  0
  1  2  1  0  0  0
  3  5  1  0  0  0
  3  4  1  0  0  0
  5  7  1  0  0  0
  5  6  1  0  0  0
  7  8  1  0  0  0
  8  9  1  0  0  0
  9 10  1  0  0  0
 10 11  1  0  0  0
  1 12  1  0  0  0
  2 13  1  0  0  0
  3 14  1  0  0  0
  4 15  1  0  0  0
  5 16  1  0  0  0
  6 17  1  0  0  0
  7 18  1  0  0  0
  7 19  1  0  0  0
  8 20  1  0  0  0
  8 21  1  0  0  0
  9 22  1  0  0  0
 10 23  1  0  0  0
 10 24  1  0  0  0
 11 25  1  0  0  0
M  END
$$$$
