4dro_ligand
  -I-interpret- 

 84 87  0  0  0  0  0  0  0  0999 V2000
   26.3140   15.9000  -22.6000 C   0  0  0  0  0
   27.3960   15.1500  -21.8090 C   0  0  0  0  0
   27.1120   13.6370  -21.8030 C   0  0  0  0  0
   27.2430   13.0080  -23.2020 C   0  0  0  0  0
   26.8060   11.5470  -23.1380 C   0  0  0  0  0
   27.7130   10.7510  -22.1750 C   0  0  0  0  0
   27.7590   11.3930  -20.7800 C   0  0  0  0  0
   28.0580   12.9190  -20.8130 C   0  0  0  0  0
   29.4600   13.0420  -21.1970 O   0  0  0  0  0
   27.8790   13.5230  -19.3750 C   0  0  0  0  0
   26.8110   13.5340  -18.7790 O   0  0  0  0  0
   29.0860   14.0900  -18.6340 C   0  0  0  0  0
   29.3010   15.2920  -18.7890 O   0  0  0  0  0
   29.8190   13.2880  -17.8540 N   0  0  0  0  0
   29.4750   11.8370  -17.6730 C   0  0  0  0  0
   29.4830   11.4810  -16.1910 C   0  0  0  0  0
   30.7930   11.9140  -15.5360 C   0  0  0  0  0
   31.0140   13.4050  -15.6880 C   0  0  0  0  0
   31.0070   13.8190  -17.1570 C   0  0  0  0  0
   32.2910   13.3600  -17.7990 C   0  0  0  0  0
   33.3680   13.5940  -17.2980 O   0  0  0  0  0
   32.1590   12.6910  -18.9450 O   0  0  0  0  0
   33.3540   12.2380  -19.6040 C   0  0  0  0  0
   33.6660   13.1700  -20.7760 C   0  0  0  0  0
   35.0620   12.9040  -21.3490 C   0  0  0  0  0
   36.1960   13.5400  -20.5460 C   0  0  0  0  0
   36.3960   14.9240  -20.5470 C   0  0  0  0  0
   37.0330   12.7480  -19.7720 C   0  0  0  0  0
   38.0850   13.3090  -19.0310 C   0  0  0  0  0
   38.2940   14.6780  -19.0500 C   0  0  0  0  0
   39.2910   15.3170  -18.3720 O   0  0  0  0  0
   40.2610   14.4640  -17.7570 C   0  0  0  0  0
   37.4290   15.4940  -19.8080 C   0  0  0  0  0
   37.7170   16.8300  -19.7650 O   0  0  0  0  0
   36.9920   17.6960  -20.6870 C   0  0  0  0  0
   33.0640   10.7900  -19.9910 C   0  0  0  0  0
   31.9550   10.4950  -20.7810 C   0  0  0  0  0
   33.8890    9.7630  -19.5520 C   0  0  0  0  0
   33.5860    8.4660  -19.9190 C   0  0  0  0  0
   32.4980    8.1640  -20.7080 C   0  0  0  0  0
   31.6720    9.1860  -21.1480 C   0  0  0  0  0
   26.3011   15.5384  -23.6282 H   0  0  0  0  0
   25.3418   15.7244  -22.1396 H   0  0  0  0  0
   26.5339   16.9675  -22.5916 H   0  0  0  0  0
   27.3977   15.5131  -20.7813 H   0  0  0  0  0
   28.3633   15.3259  -22.2796 H   0  0  0  0  0
   26.0779   13.5081  -21.4835 H   0  0  0  0  0
   28.2798   13.0656  -23.5335 H   0  0  0  0  0
   26.6111   13.5484  -23.9068 H   0  0  0  0  0
   26.8805   11.1118  -24.1346 H   0  0  0  0  0
   25.7790   11.5008  -22.7756 H   0  0  0  0  0
   28.7237   10.7415  -22.5830 H   0  0  0  0  0
   27.3100    9.7430  -22.0768 H   0  0  0  0  0
   28.5632   10.9122  -20.2230 H   0  0  0  0  0
   26.7779   11.2598  -20.3241 H   0  0  0  0  0
   29.7004   13.9707  -21.2333 H   0  0  0  0  0
   30.2127   11.2258  -18.1929 H   0  0  0  0  0
   28.4820   11.6500  -18.0816 H   0  0  0  0  0
   29.3792   10.4008  -16.0885 H   0  0  0  0  0
   28.6576   11.9976  -15.7011 H   0  0  0  0  0
   31.6154   11.3888  -16.0217 H   0  0  0  0  0
   30.7465   11.6754  -14.4734 H   0  0  0  0  0
   31.9844   13.6575  -15.2607 H   0  0  0  0  0
   30.2076   13.9296  -15.1756 H   0  0  0  0  0
   30.9469   14.9048  -17.2317 H   0  0  0  0  0
   34.2521   12.2645  -18.9869 H   0  0  0  0  0
   33.6301   14.1989  -20.4179 H   0  0  0  0  0
   32.9312   12.9945  -21.5617 H   0  0  0  0  0
   35.0896   13.3397  -22.3478 H   0  0  0  0  0
   35.2186   11.8255  -21.3306 H   0  0  0  0  0
   35.7358   15.5636  -21.1328 H   0  0  0  0  0
   36.8704   11.6707  -19.7390 H   0  0  0  0  0
   38.7380   12.6666  -18.4401 H   0  0  0  0  0
   39.7658   13.8132  -17.0364 H   0  0  0  0  0
   40.7470   13.8581  -18.5217 H   0  0  0  0  0
   41.0066   15.0731  -17.2460 H   0  0  0  0  0
   37.1962   17.3855  -21.7117 H   0  0  0  0  0
   35.9227   17.6207  -20.4894 H   0  0  0  0  0
   37.3170   18.7269  -20.5468 H   0  0  0  0  0
   31.3018   11.3012  -21.1149 H   0  0  0  0  0
   34.7585    9.9759  -18.9301 H   0  0  0  0  0
   34.2282    7.6560  -19.5733 H   0  0  0  0  0
   32.2887    7.1304  -20.9838 H   0  0  0  0  0
   30.8089    8.9646  -21.7758 H   0  0  0  0  0
  1  2  1  0  0  0
  2  3  1  0  0  0
  3  4  1  0  0  0
  3  8  1  0  0  0
  4  5  1  0  0  0
  5  6  1  0  0  0
  6  7  1  0  0  0
  7  8  1  0  0  0
  8  9  1  0  0  0
  8 10  1  0  0  0
 10 11  2  0  0  0
 10 12  1  0  0  0
 12 13  2  0  0  0
 12 14  1  0  0  0
 14 15  1  0  0  0
 14 19  1  0  0  0
 15 16  1  0  0  0
 16 17  1  0  0  0
 17 18  1  0  0  0
 18 19  1  0  0  0
 19 20  1  0  0  0
 20 21  2  0  0  0
 20 22  1  0  0  0
 22 23  1  0  0  0
 23 24  1  0  0  0
 23 36  1  0  0  0
 24 25  1  0  0  0
 25 26  1  0  0  0
 26 27  4  0  0  0
 26 28  4  0  0  0
 27 33  4  0  0  0
 28 29  4  0  0  0
 29 30  4  0  0  0
 30 31  1  0  0  0
 30 33  4  0  0  0
 31 32  1  0  0  0
 33 34  1  0  0  0
 34 35  1  0  0  0
 36 37  4  0  0  0
 36 38  4  0  0  0
 37 41  4  0  0  0
 38 39  4  0  0  0
 39 40  4  0  0  0
 40 41  4  0  0  0
  1 42  1  0  0  0
  1 43  1  0  0  0
  1 44  1  0  0  0
  2 45  1  0  0  0
  2 46  1  0  0  0
  3 47  1  0  0  0
  4 48  1  0  0  0
  4 49  1  0  0  0
  5 50  1  0  0  0
  5 51  1  0  0  0
  6 52  1  0  0  0
  6 53  1  0  0  0
  7 54  1  0  0  0
  7 55  1  0  0  0
  9 56  1  0  0  0
 15 57  1  0  0  0
 15 58  1  0  0  0
 16 59  1  0  0  0
 16 60  1  0  0  0
 17 61  1  0  0  0
 17 62  1  0  0  0
 18 63  1  0  0  0
 18 64  1  0  0  0
 19 65  1  0  0  0
 23 66  1  0  0  0
 24 67  1  0  0  0
 24 68  1  0  0  0
 25 69  1  0  0  0
 25 70  1  0  0  0
 27 71  1  0  0  0
 28 72  1  0  0  0
 29 73  1  0  0  0
 32 74  1  0  0  0
 32 75  1  0  0  0
 32 76  1  0  0  0
 35 77  1  0  0  0
 35 78  1  0  0  0
 35 79  1  0  0  0
 37 80  1  0  0  0
 38 81  1  0  0  0
 39 82  1  0  0  0
 40 83  1  0  0  0
 41 84  1  0  0  0
M  END
$$$$
