5vgo_ligand
  -I-interpret- 

 69 74  0  0  0  0  0  0  0  0999 V2000
  -41.4900   26.5890   -2.4720 C   0  0  0  0  0
  -40.9160   25.6190   -4.8240 C   0  0  0  0  0
  -41.2650   26.7230   -3.8460 C   0  0  0  0  0
  -41.3970   28.0200   -4.2830 C   0  0  0  0  0
  -41.7590   27.7370   -1.8380 C   0  0  0  0  0
  -41.9990   27.5520   -0.3490 C   0  0  0  0  0
  -41.0950   28.4260   -5.6410 C   0  0  0  0  0
  -41.2040   26.0520   -6.2630 C   0  0  0  0  0
  -41.5090   25.4370   -1.4680 C   0  0  0  0  0
  -43.4110   25.5560    0.1610 C   0  0  0  0  0
  -41.9940   26.0310   -0.1290 C   0  0  0  0  0
  -41.7380   29.0490   -2.9360 S   0  0  0  0  0
  -40.8610   29.6200   -5.8500 O   0  0  0  0  0
  -40.9390   27.4640   -6.5620 N   0  0  0  0  0
  -40.5310   27.8260   -7.8550 C   0  0  0  0  0
  -41.4490   28.1540   -8.8390 C   0  0  0  0  0
  -41.0120   28.5090  -10.1030 C   0  0  0  0  0
  -39.6520   28.5410  -10.3850 C   0  0  0  0  0
  -38.7060   28.2030   -9.4120 C   0  0  0  0  0
  -39.1500   27.8610   -8.1210 C   0  0  0  0  0
  -38.1440   27.4550   -7.0500 C   0  0  0  0  0
  -37.8020   28.4460   -6.0870 O   0  0  0  0  0
  -37.2680   28.3040   -9.8130 C   0  0  0  0  0
  -36.8060   27.7880  -11.0430 C   0  0  0  0  0
  -35.4820   27.9450  -11.3910 C   0  0  0  0  0
  -34.5920   28.6050  -10.5280 C   0  0  0  0  0
  -33.4080   28.7210  -10.8650 O   0  0  0  0  0
  -35.0500   29.0780   -9.3580 N   0  0  0  0  0
  -36.3620   28.9470   -9.0050 C   0  0  0  0  0
  -34.0840   29.7590   -8.4780 C   0  0  0  0  0
  -34.8930   27.4810  -12.5730 N   0  0  0  0  0
  -35.5420   27.0260  -13.7020 C   0  0  0  0  0
  -34.7790   26.7940  -14.8550 C   0  0  0  0  0
  -35.4170   26.3180  -15.9830 C   0  0  0  0  0
  -36.7330   26.1080  -15.9340 N   0  0  0  0  0
  -37.4210   26.3350  -14.8330 C   0  0  0  0  0
  -36.8460   26.7780  -13.7310 N   0  0  0  0  0
  -41.0410   25.6490    1.0120 C   0  0  0  0  0
  -41.5222   24.7428   -4.5940 H   0  0  0  0  0
  -39.8537   25.3928   -4.7323 H   0  0  0  0  0
  -42.9403   28.0019   -0.0334 H   0  0  0  0  0
  -41.2334   28.0481    0.2475 H   0  0  0  0  0
  -42.2699   25.8943   -6.4275 H   0  0  0  0  0
  -40.5401   25.4693   -6.9016 H   0  0  0  0  0
  -40.5184   24.9946   -1.3627 H   0  0  0  0  0
  -42.1706   24.6381   -1.8030 H   0  0  0  0  0
  -44.0735   25.8827   -0.6405 H   0  0  0  0  0
  -43.4225   24.4678    0.2229 H   0  0  0  0  0
  -43.7479   25.9786    1.1076 H   0  0  0  0  0
  -42.5161   28.1325   -8.6176 H   0  0  0  0  0
  -41.7351   28.7637  -10.8778 H   0  0  0  0  0
  -39.3171   28.8341  -11.3800 H   0  0  0  0  0
  -37.2207   27.2186   -7.5790 H   0  0  0  0  0
  -38.6098   26.6423   -6.4926 H   0  0  0  0  0
  -37.1660   28.0819   -5.4669 H   0  0  0  0  0
  -37.4917   27.2690  -11.7128 H   0  0  0  0  0
  -36.5088   27.6762  -11.6388 H   0  0  0  0  0
  -36.3276   28.3253   -8.1104 H   0  0  0  0  0
  -36.7253   29.9743   -8.9766 H   0  0  0  0  0
  -33.2819   29.0683   -8.2177 H   0  0  0  0  0
  -33.6676   30.6224   -8.9970 H   0  0  0  0  0
  -34.5904   30.0883   -7.5707 H   0  0  0  0  0
  -33.8734   27.4791  -12.6027 H   0  0  0  0  0
  -33.7059   26.9852  -14.8607 H   0  0  0  0  0
  -34.8560   26.1177  -16.8958 H   0  0  0  0  0
  -38.4955   26.1516  -14.8327 H   0  0  0  0  0
  -41.0006   24.5635    1.1019 H   0  0  0  0  0
  -40.0445   26.0342    0.7958 H   0  0  0  0  0
  -41.4034   26.0790    1.9457 H   0  0  0  0  0
  1  3  4  0  0  0
  1  5  4  0  0  0
  1  9  1  0  0  0
  3  2  1  0  0  0
  2  8  1  0  0  0
  3  4  4  0  0  0
  4  7  1  0  0  0
  4 12  4  0  0  0
  5  6  1  0  0  0
  5 12  4  0  0  0
  6 11  1  0  0  0
  7 13  2  0  0  0
  7 14  1  0  0  0
  8 14  1  0  0  0
  9 11  1  0  0  0
 11 10  1  0  0  0
 11 38  1  0  0  0
 14 15  1  0  0  0
 15 16  4  0  0  0
 15 20  4  0  0  0
 16 17  4  0  0  0
 17 18  4  0  0  0
 18 19  4  0  0  0
 19 20  4  0  0  0
 19 23  1  0  0  0
 20 21  1  0  0  0
 21 22  1  0  0  0
 23 24  2  0  0  0
 23 29  1  0  0  0
 24 25  1  0  0  0
 25 26  1  0  0  0
 25 31  1  0  0  0
 26 27  2  0  0  0
 26 28  1  0  0  0
 28 29  1  0  0  0
 28 30  1  0  0  0
 31 32  1  0  0  0
 32 33  4  0  0  0
 32 37  4  0  0  0
 33 34  4  0  0  0
 34 35  4  0  0  0
 35 36  4  0  0  0
 36 37  4  0  0  0
  2 39  1  0  0  0
  2 40  1  0  0  0
  6 41  1  0  0  0
  6 42  1  0  0  0
  8 43  1  0  0  0
  8 44  1  0  0  0
  9 45  1  0  0  0
  9 46  1  0  0  0
 10 47  1  0  0  0
 10 48  1  0  0  0
 10 49  1  0  0  0
 16 50  1  0  0  0
 17 51  1  0  0  0
 18 52  1  0  0  0
 21 53  1  0  0  0
 21 54  1  0  0  0
 22 55  1  0  0  0
 24 56  1  0  0  0
 25 57  1  0  0  0
 29 58  1  0  0  0
 29 59  1  0  0  0
 30 60  1  0  0  0
 30 61  1  0  0  0
 30 62  1  0  0  0
 31 63  1  0  0  0
 33 64  1  0  0  0
 34 65  1  0  0  0
 36 66  1  0  0  0
 38 67  1  0  0  0
 38 68  1  0  0  0
 38 69  1  0  0  0
M  END
$$$$
