4kai_ligand

Created by X-TOOL on Fri Nov 18 17:33:55 2016
 65 69  0  0  0  0  0  0  0  0999 V2000
    2.7530   39.7960   45.8240  C 0  0  0  4  0  4
    3.2390   40.4150   48.1240  C 0  0  0  1  0  3
    3.8650   40.1840   49.4460  C 0  0  0  1  0  3
    3.7240   39.1500   50.3040  C 0  0  0  1  0  3
    5.1710   40.5600   51.2980  C 0  0  0  1  0  3
    6.0670   41.2010   52.1420  C 0  0  0  2  0  3
    9.7050   43.2500   51.5860  C 0  0  0  1  0  3
   10.7790   43.1540   49.4010  C 0  0  0  2  0  3
   11.1290   44.5090   49.5090  C 0  0  0  2  0  4
   11.9020   46.5970   48.3790  O 0  0  0  3  0  3
   10.7610   45.2270   50.6630  C 0  0  0  1  0  3
   10.0570   44.5910   51.6900  C 0  0  0  2  0  3
    7.5720   45.5030   54.2160  C 0  0  0  4  0  4
    6.2970   43.0210   50.5300  C 0  0  0  1  0  3
    5.3880   42.3470   49.6860  C 0  0  0  2  0  3
    4.8250   41.1230   50.0690  C 0  0  0  1  0  3
    6.9020   44.3510   50.1030  C 0  0  0  2  0  4
    6.1710   45.2260   49.1310  C 0  0  0  2  0  3
    7.4060   44.5100   48.7060  C 0  0  0  2  0  3
    2.8700   37.9500   50.2780  C 0  0  0  1  0  3
    3.2760   36.8390   51.0310  C 0  0  0  2  0  3
    2.4730   35.7010   51.0840  C 0  0  0  2  0  3
    1.2430   35.6800   50.4230  C 0  0  0  1  0  3
    0.4760   34.5750   50.4840  F 0  0  0  1  0  1
    0.8190   36.7970   49.6950  C 0  0  0  2  0  3
    1.6240   37.9440   49.6360  C 0  0  0  2  0  3
    4.4930   39.3720   51.4340  O 0  0  0  1  0  2
    2.5550   41.4310   47.9700  O 0  0  0  1  0  1
    3.4070   39.5560   47.1220  N 0  0  0  2  0  3
    6.6380   42.4200   51.7630  C 0  0  0  1  0  3
    7.5180   42.9640   52.7220  N 0  0  0  1  0  3
    6.7580   43.9230   53.9690  S 0  0  0  1  0  4
    5.3970   44.1640   53.5910  O 0  0  0  1  0  1
    6.7420   43.1680   55.1860  O 0  0  0  1  0  1
    8.9540   42.6240   52.7280  C 0  0  0  3  0  4
   11.0790   46.5310   50.8220  F 0  0  0  1  0  1
   11.9120   45.2310   48.3630  B 0  0  0  1  0  3
   12.0440   44.6310   47.1380  O 0  0  0  3  0  3
   10.0700   42.5250   50.4440  C 0  0  0  2  0  3
    3.0092   38.9832   45.1285  H 0  0  0  1  0  1
    3.0991   40.7548   45.4107  H 0  0  0  1  0  1
    1.6624   39.8291   45.9635  H 0  0  0  1  0  1
    6.3246   40.7561   53.0964  H 0  0  0  1  0  1
   11.0539   42.5917   48.5159  H 0  0  0  1  0  1
   11.6772   44.9979   48.7118  H 0  0  0  1  0  1
   11.1746   46.9134   47.8563  H 0  0  0  1  0  1
   11.1746   46.9134   47.8563  H 0  0  0  1  0  1
    9.7825   45.1498   52.5774  H 0  0  0  1  0  1
    7.0539   46.0624   55.0088  H 0  0  0  1  0  1
    7.5426   46.0808   53.2805  H 0  0  0  1  0  1
    8.6184   45.3344   54.5102  H 0  0  0  1  0  1
    5.1224   42.7822   48.7294  H 0  0  0  1  0  1
    7.4496   44.7979   50.9459  H 0  0  0  1  0  1
    5.3430   45.8954   48.9025  H 0  0  0  1  0  1
    8.1406   44.2743   47.9374  H 0  0  0  1  0  1
    4.2149   36.8652   51.5722  H 0  0  0  1  0  1
    2.8038   34.8307   51.6393  H 0  0  0  1  0  1
   -0.1325   36.7759   49.1761  H 0  0  0  1  0  1
    1.2845   38.8210   49.0969  H 0  0  0  1  0  1
    3.9786   38.7455   47.2503  H 0  0  0  1  0  1
    9.3944   42.9750   53.6729  H 0  0  0  1  0  1
    9.0567   41.5310   52.6593  H 0  0  0  1  0  1
   12.8641   44.9003   46.7415  H 0  0  0  1  0  1
   12.8641   44.9003   46.7415  H 0  0  0  1  0  1
    9.8062   41.4768   50.3624  H 0  0  0  1  0  1
 29  1  1  0  0  2
  3  2  1  0  0  2
  2 28  2  0  0  2
  2 29  1  0  0  2
  3  4  2  0  0  1
 16  3  1  0  0  1
  4 20  1  0  0  2
 27  4  1  0  0  1
  6  5  4  0  0  1
  5 16  4  0  0  1
  5 27  1  0  0  1
 30  6  4  0  0  1
  7 12  4  0  0  1
 35  7  1  0  0  2
  7 39  4  0  0  1
  8  9  4  0  0  1
 39  8  4  0  0  1
 11  9  4  0  0  1
  9 37  1  0  0  2
 37 10  1  0  0  2
 12 11  4  0  0  1
 11 36  1  0  0  2
 32 13  1  0  0  2
 14 15  4  0  0  1
 14 17  1  0  0  2
 30 14  4  0  0  1
 15 16  4  0  0  1
 17 18  1  0  0  1
 17 19  1  0  0  1
 19 18  2  0  0  1
 20 21  4  0  0  1
 20 26  4  0  0  1
 21 22  4  0  0  1
 22 23  4  0  0  1
 23 24  1  0  0  2
 25 23  4  0  0  1
 26 25  4  0  0  1
 31 30  1  0  0  2
 31 32  1  0  0  2
 31 35  1  0  0  2
 32 33  2  0  0  2
 32 34  2  0  0  2
 37 38  1  0  0  2
  1 40  1  0  0  2
  1 41  1  0  0  2
  1 42  1  0  0  2
  6 43  1  0  0  2
  8 44  1  0  0  2
  9 45  1  0  0  2
 10 46  1  0  0  2
 10 47  1  0  0  2
 12 48  1  0  0  2
 13 49  1  0  0  2
 13 50  1  0  0  2
 13 51  1  0  0  2
 15 52  1  0  0  2
 17 53  1  0  0  2
 18 54  1  0  0  2
 19 55  1  0  0  2
 21 56  1  0  0  2
 22 57  1  0  0  2
 25 58  1  0  0  2
 26 59  1  0  0  2
 29 60  1  0  0  2
 35 61  1  0  0  2
 35 62  1  0  0  2
 38 63  1  0  0  2
 38 64  1  0  0  2
 39 65  1  0  0  2
M  END
> <MOLECULAR_FORMULA>
C27H26N2O6SF2B

> <MOLECULAR_WEIGHT>
555.2

> <NUM_HB_ATOMS>
6  

> <NUM_ROTOR>
4  

> <XLOGP2>
4.21 

$$$$
