#	Name:			4kai_ligand
#	Creating user name:	wangrx
#	Creation time:		Wed Aug  4 17:47:35 2021

#	Modifying user name:	wangrx
#	Modification time:	Wed Aug  4 17:48:56 2021

@<TRIPOS>MOLECULE
4kai_ligand
   64    68     1     0     0
SMALL
GAST_HUCK


@<TRIPOS>ATOM
      1 C1          2.7530   39.7960   45.8240 C.3       1 1PV         0.0182 
      2 C3          3.2390   40.4150   48.1240 C.2       1 1PV         0.1815 
      3 C5          3.8650   40.1840   49.4460 C.2       1 1PV         0.0606 
      4 C6          3.7240   39.1500   50.3040 C.2       1 1PV         0.1378 
      5 C8          5.1710   40.5600   51.2980 C.ar      1 1PV         0.1058 
      6 C9          6.0670   41.2010   52.1420 C.ar      1 1PV        -0.0198 
      7 C13         9.7050   43.2500   51.5860 C.ar      1 1PV        -0.1177 
      8 C15        10.7790   43.1540   49.4010 C.ar      1 1PV        -0.1886 
      9 C16        11.1290   44.5090   49.5090 C.ar      1 1PV        -0.1211 
     10 O19        11.9020   46.5970   48.3790 O.3       1 1PV        -0.4105 
     11 C20        10.7610   45.2270   50.6630 C.ar      1 1PV         0.0207 
     12 C22        10.0570   44.5910   51.6900 C.ar      1 1PV        -0.1396 
     13 C24         7.5720   45.5030   54.2160 C.3       1 1PV         0.0790 
     14 C27         6.2970   43.0210   50.5300 C.ar      1 1PV        -0.0235 
     15 C28         5.3880   42.3470   49.6860 C.ar      1 1PV        -0.0791 
     16 C29         4.8250   41.1230   50.0690 C.ar      1 1PV        -0.0133 
     17 C30         6.9020   44.3510   50.1030 C.3       1 1PV         0.0243 
     18 C31         6.1710   45.2260   49.1310 C.2       1 1PV        -0.0663 
     19 C32         7.4060   44.5100   48.7060 C.2       1 1PV        -0.0663 
     20 C33         2.8700   37.9500   50.2780 C.ar      1 1PV         0.0153 
     21 C34         3.2760   36.8390   51.0310 C.ar      1 1PV        -0.0519 
     22 C35         2.4730   35.7010   51.0840 C.ar      1 1PV        -0.0268 
     23 C36         1.2430   35.6800   50.4230 C.ar      1 1PV         0.1335 
     24 F37         0.4760   34.5750   50.4840 F         1 1PV        -0.1824 
     25 C38         0.8190   36.7970   49.6950 C.ar      1 1PV        -0.0268 
     26 C39         1.6240   37.9440   49.6360 C.ar      1 1PV        -0.0519 
     27 O7          4.4930   39.3720   51.4340 O.3       1 1PV        -0.2569 
     28 O4          2.5550   41.4310   47.9700 O.2       1 1PV        -0.4007 
     29 N2          3.4070   39.5560   47.1220 N.am      1 1PV        -0.2944 
     30 C10         6.6380   42.4200   51.7630 C.ar      1 1PV         0.0632 
     31 N11         7.5180   42.9640   52.7220 N.am      1 1PV        -0.1752 
     32 S23         6.7580   43.9230   53.9690 S.o2      1 1PV         0.0598 
     33 O25         5.3970   44.1640   53.5910 O.2       1 1PV        -0.1500 
     34 O26         6.7420   43.1680   55.1860 O.2       1 1PV        -0.1500 
     35 C12         8.9540   42.6240   52.7280 C.3       1 1PV         0.0675 
     36 F21        11.0790   46.5310   50.8220 F         1 1PV        -0.2408 
     37 B17        11.9120   45.2310   48.3630 B         1 1PV         3.0000 
     38 O18        12.0440   44.6310   47.1380 O.3       1 1PV        -0.4105 
     39 C14        10.0700   42.5250   50.4440 C.ar      1 1PV        -0.1734 
     40 H1          3.0092   38.9832   45.1285 H         1 1PV         0.0482 
     41 H2          3.0991   40.7548   45.4107 H         1 1PV         0.0482 
     42 H3          1.6624   39.8291   45.9635 H         1 1PV         0.0482 
     43 H4          6.3246   40.7561   53.0964 H         1 1PV         0.0381 
     44 H5         11.0539   42.5917   48.5159 H         1 1PV        -0.0302 
     45 H7         11.1746   46.9134   47.8563 H         1 1PV         0.2052 
     46 H8         11.1746   46.9134   47.8563 H         1 1PV         0.2052 
     47 H9          9.7825   45.1498   52.5774 H         1 1PV        -0.0273 
     48 H10         7.0539   46.0624   55.0088 H         1 1PV         0.0487 
     49 H11         7.5426   46.0808   53.2805 H         1 1PV         0.0487 
     50 H12         8.6184   45.3344   54.5102 H         1 1PV         0.0487 
     51 H13         5.1224   42.7822   48.7294 H         1 1PV         0.0419 
     52 H14         7.4496   44.7979   50.9459 H         1 1PV         0.0537 
     53 H15         5.3430   45.8954   48.9025 H         1 1PV         0.0617 
     54 H16         8.1406   44.2743   47.9374 H         1 1PV         0.0617 
     55 H17         4.2149   36.8652   51.5722 H         1 1PV         0.0619 
     56 H18         2.8038   34.8307   51.6393 H         1 1PV         0.0607 
     57 H19        -0.1325   36.7759   49.1761 H         1 1PV         0.0607 
     58 H20         1.2845   38.8210   49.0969 H         1 1PV         0.0619 
     59 H21         3.9786   38.7455   47.2503 H         1 1PV         0.1829 
     60 H22         9.3944   42.9750   53.6729 H         1 1PV         0.0689 
     61 H23         9.0567   41.5310   52.6593 H         1 1PV         0.0689 
     62 H24        12.8641   44.9003   46.7415 H         1 1PV         0.2052 
     63 H25        12.8641   44.9003   46.7415 H         1 1PV         0.2052 
     64 H26         9.8062   41.4768   50.3624 H         1 1PV        -0.0070 
@<TRIPOS>BOND
     1   29    1 1    
     2    3    2 1    
     3    2   28 2    
     4    2   29 am   
     5    3    4 2    
     6   16    3 1    
     7    4   20 1    
     8   27    4 1    
     9    6    5 ar   
    10    5   16 ar   
    11    5   27 1    
    12   30    6 ar   
    13    7   12 ar   
    14   35    7 1    
    15    7   39 ar   
    16    8    9 ar   
    17   39    8 ar   
    18   11    9 ar   
    19    9   37 1    
    20   37   10 1    
    21   12   11 ar   
    22   11   36 1    
    23   32   13 1    
    24   14   15 ar   
    25   14   17 1    
    26   30   14 ar   
    27   15   16 ar   
    28   17   18 1    
    29   17   19 1    
    30   19   18 2    
    31   20   21 ar   
    32   20   26 ar   
    33   21   22 ar   
    34   22   23 ar   
    35   23   24 1    
    36   25   23 ar   
    37   26   25 ar   
    38   31   30 1    
    39   31   32 am   
    40   31   35 1    
    41   32   33 2    
    42   32   34 2    
    43   37   38 1    
    44    1   40 1    
    45    1   41 1    
    46    1   42 1    
    47    6   43 1    
    48    8   44 1    
    49   10   45 1    
    50   10   46 1    
    51   12   47 1    
    52   13   48 1    
    53   13   49 1    
    54   13   50 1    
    55   15   51 1    
    56   17   52 1    
    57   18   53 1    
    58   19   54 1    
    59   21   55 1    
    60   22   56 1    
    61   25   57 1    
    62   26   58 1    
    63   29   59 1    
    64   35   60 1    
    65   35   61 1    
    66   38   62 1    
    67   38   63 1    
    68   39   64 1    
@<TRIPOS>SUBSTRUCTURE
     1 1PV         1 PERM              0 ****  ****    0 ROOT 
