### 
### Created by X-TOOL on Mon Sep 10 21:12:47 2018
### 

@<TRIPOS>MOLECULE
1bo5_ligand
   30    30     1     0     0
SMALL
GAST_HUCK


@<TRIPOS>ATOM
      1 P1          7.8280   71.7600   73.8110 P.3       1 FBP         0.2009
      2 O1P         9.0160   71.3110   74.5710 O.co2     1 FBP        -0.5537
      3 O2P         6.7770   71.9780   74.8430 O.co2     1 FBP        -0.5537
      4 O3P         7.7190   70.8740   72.6140 O.co2     1 FBP        -0.5537
      5 O1          8.1310   73.2240   73.2520 O.3       1 FBP        -0.2706
      6 C1          7.9910   74.3280   74.1540 C.3       1 FBP         0.1347
      7 C2          8.4180   75.6110   73.4320 C.3       1 FBP         0.2253
      8 O2          7.6740   76.7710   73.8030 O.3       1 FBP        -0.3606
      9 C3          7.9370   75.7350   72.0140 C.3       1 FBP         0.1396
     10 O3          6.7780   76.5410   71.9580 O.3       1 FBP        -0.3837
     11 C4          9.0980   76.4240   71.3060 C.3       1 FBP         0.1148
     12 O4          9.2950   75.8900   70.0120 O.3       1 FBP        -0.3864
     13 C5         10.2590   75.9920   72.1240 C.3       1 FBP         0.1181
     14 O5          9.8270   75.9590   73.4780 O.3       1 FBP        -0.3358
     15 C6         11.4600   76.9110   71.9800 C.3       1 FBP         0.1071
     16 O6         12.5040   76.1410   71.4010 O.3       1 FBP        -0.2734
     17 P2         13.7820   75.9730   72.3240 P.3       1 FBP         0.2008
     18 O4P        14.7490   77.0230   71.9650 O.co2     1 FBP        -0.5537
     19 O5P        13.3530   76.1950   73.7230 O.co2     1 FBP        -0.5537
     20 O6P        14.4160   74.6970   71.9530 O.co2     1 FBP        -0.5537
     21 H1          8.6300   74.1692   75.0351 H         1 FBP         0.0667
     22 H2          6.9418   74.4146   74.4728 H         1 FBP         0.0667
     23 H3          7.8617   77.4747   73.1930 H         1 FBP         0.2129
     24 H4          7.7294   74.7484   71.5742 H         1 FBP         0.0675
     25 H5          6.9788   77.4063   72.2947 H         1 FBP         0.2101
     26 H6          8.9749   77.5166   71.2728 H         1 FBP         0.0648
     27 H7         10.0223   76.3358   69.5940 H         1 FBP         0.2100
     28 H8         10.5587   74.9811   71.8105 H         1 FBP         0.0650
     29 H9         11.7695   77.2859   72.9667 H         1 FBP         0.0639
     30 H10        11.2100   77.7602   71.3270 H         1 FBP         0.0639
@<TRIPOS>BOND
     1    1    2 ar 
     2    1    3 ar 
     3    1    4 ar 
     4    1    5 1  
     5    5    6 1  
     6    6    7 1  
     7    7    8 1  
     8    7    9 1  
     9    7   14 1  
    10    9   10 1  
    11    9   11 1  
    12   11   12 1  
    13   11   13 1  
    14   13   14 1  
    15   13   15 1  
    16   15   16 1  
    17   16   17 1  
    18   17   18 ar 
    19   17   19 ar 
    20   17   20 ar 
    21    6   21 1  
    22    6   22 1  
    23    8   23 1  
    24    9   24 1  
    25   10   25 1  
    26   11   26 1  
    27   12   27 1  
    28   13   28 1  
    29   15   29 1  
    30   15   30 1  
@<TRIPOS>SUBSTRUCTURE
     1 FBP         1

