1bo5_ligand
  -I-interpret- 

 34 34  0  0  0  0  0  0  0  0999 V2000
    7.8280   71.7600   73.8110 P   0  0  0  0  0
    9.0160   71.3110   74.5710 O   0  0  0  0  0
    6.7770   71.9780   74.8430 O   0  0  0  0  0
    7.7190   70.8740   72.6140 O   0  0  0  0  0
    8.1310   73.2240   73.2520 O   0  0  0  0  0
    7.9910   74.3280   74.1540 C   0  0  0  0  0
    8.4180   75.6110   73.4320 C   0  0  0  0  0
    7.6740   76.7710   73.8030 O   0  0  0  0  0
    7.9370   75.7350   72.0140 C   0  0  0  0  0
    6.7780   76.5410   71.9580 O   0  0  0  0  0
    9.0980   76.4240   71.3060 C   0  0  0  0  0
    9.2950   75.8900   70.0120 O   0  0  0  0  0
   10.2590   75.9920   72.1240 C   0  0  0  0  0
    9.8270   75.9590   73.4780 O   0  0  0  0  0
   11.4600   76.9110   71.9800 C   0  0  0  0  0
   12.5040   76.1410   71.4010 O   0  0  0  0  0
   13.7820   75.9730   72.3240 P   0  0  0  0  0
   14.7490   77.0230   71.9650 O   0  0  0  0  0
   13.3530   76.1950   73.7230 O   0  0  0  0  0
   14.4160   74.6970   71.9530 O   0  0  0  0  0
    5.9689   72.2738   74.4176 H   0  0  0  0  0
    6.9563   71.1348   72.0926 H   0  0  0  0  0
    8.6186   74.1708   75.0312 H   0  0  0  0  0
    6.9533   74.4129   74.4765 H   0  0  0  0  0
    7.8030   76.9471   74.7379 H   0  0  0  0  0
    7.6708   74.7776   71.5661 H   0  0  0  0  0
    6.4822   76.6114   71.0474 H   0  0  0  0  0
    8.9447   77.4989   71.2100 H   0  0  0  0  0
   10.0300   76.3405   69.5896 H   0  0  0  0  0
   10.5906   75.0123   71.7798 H   0  0  0  0  0
   11.7632   77.3048   72.9501 H   0  0  0  0  0
   11.2175   77.7674   71.3508 H   0  0  0  0  0
   12.7208   75.5176   73.9740 H   0  0  0  0  0
   13.8237   73.9725   72.1673 H   0  0  0  0  0
  1  2  2  0  0  0
  1  3  1  0  0  0
  1  4  1  0  0  0
  1  5  1  0  0  0
  5  6  1  0  0  0
  6  7  1  0  0  0
  7  8  1  0  0  0
  7  9  1  0  0  0
  7 14  1  0  0  0
  9 10  1  0  0  0
  9 11  1  0  0  0
 11 12  1  0  0  0
 11 13  1  0  0  0
 13 14  1  0  0  0
 13 15  1  0  0  0
 15 16  1  0  0  0
 16 17  1  0  0  0
 17 18  2  0  0  0
 17 19  1  0  0  0
 17 20  1  0  0  0
  3 21  1  0  0  0
  4 22  1  0  0  0
  6 23  1  0  0  0
  6 24  1  0  0  0
  8 25  1  0  0  0
  9 26  1  0  0  0
 10 27  1  0  0  0
 11 28  1  0  0  0
 12 29  1  0  0  0
 13 30  1  0  0  0
 15 31  1  0  0  0
 15 32  1  0  0  0
 19 33  1  0  0  0
 20 34  1  0  0  0
M  END
$$$$
