5xsu_ligand
  -I-interpret- 

 35 38  0  0  0  0  0  0  0  0999 V2000
  -31.3330   18.8470  -25.4550 C   0  0  0  0  0
  -32.3860   19.2050  -24.3890 C   0  0  0  0  0
  -32.3940   18.5770  -23.1440 C   0  0  0  0  0
  -33.3550   18.9130  -22.1770 C   0  0  0  0  0
  -34.3200   19.8720  -22.4770 C   0  0  0  0  0
  -34.3170   20.5110  -23.7440 C   0  0  0  0  0
  -34.6680   21.7270  -25.5080 C   0  0  0  0  0
  -35.2560   22.6590  -26.3660 C   0  0  0  0  0
  -34.9200   22.8740  -27.6810 C   0  0  0  0  0
  -35.7760   23.9080  -28.1680 C   0  0  0  0  0
  -36.5860   24.2700  -27.1460 C   0  0  0  0  0
  -37.6380   25.3590  -27.3250 C   0  0  0  0  0
  -36.8710   25.7740  -29.6030 C   0  0  0  0  0
  -35.8650   24.5720  -29.5620 C   0  0  0  0  0
  -33.3650   20.1890  -24.6910 C   0  0  0  0  0
  -33.3800   18.3040  -20.9490 F   0  0  0  0  0
  -31.2880   19.5690  -26.7210 N   0  0  0  0  0
  -35.1160   21.4750  -24.2810 N   0  0  0  0  0
  -38.0350   25.6020  -28.7070 N   0  3  0  0  0
  -33.5970   20.9680  -25.7870 N   0  0  0  0  0
  -30.5520   17.9830  -25.2600 O   0  0  0  0  0
  -36.2560   23.4930  -26.0420 O   0  0  0  0  0
  -31.6459   17.8168  -22.9190 H   0  0  0  0  0
  -35.0779   20.1317  -21.7379 H   0  0  0  0  0
  -34.1463   22.3536  -28.2456 H   0  0  0  0  0
  -37.2015   26.2858  -26.9528 H   0  0  0  0  0
  -38.5298   25.0291  -26.7922 H   0  0  0  0  0
  -37.2508   25.8479  -30.6220 H   0  0  0  0  0
  -36.3326   26.6624  -29.2729 H   0  0  0  0  0
  -36.2173   23.8192  -30.2672 H   0  0  0  0  0
  -34.8761   24.9572  -29.8107 H   0  0  0  0  0
  -30.5890   19.3251  -27.4226 H   0  0  0  0  0
  -31.9555   20.3180  -26.9050 H   0  0  0  0  0
  -38.5837   26.4615  -28.7323 H   0  0  0  0  0
  -38.5668   24.7939  -29.0304 H   0  0  0  0  0
  2  1  1  0  0  0
  1 17  1  0  0  0
  1 21  2  0  0  0
  2  3  4  0  0  0
 15  2  4  0  0  0
  4  3  4  0  0  0
  5  4  4  0  0  0
  4 16  1  0  0  0
  6  5  4  0  0  0
  6 15  4  0  0  0
 18  6  4  0  0  0
  7  8  1  0  0  0
  7 18  4  0  0  0
  7 20  4  0  0  0
  8  9  4  0  0  0
  8 22  4  0  0  0
  9 10  4  0  0  0
 10 11  4  0  0  0
 10 14  1  0  0  0
 11 12  1  0  0  0
 11 22  4  0  0  0
 12 19  1  0  0  0
 14 13  1  0  0  0
 13 19  1  0  0  0
 15 20  4  0  0  0
  3 23  1  0  0  0
  5 24  1  0  0  0
  9 25  1  0  0  0
 12 26  1  0  0  0
 12 27  1  0  0  0
 13 28  1  0  0  0
 13 29  1  0  0  0
 14 30  1  0  0  0
 14 31  1  0  0  0
 17 32  1  0  0  0
 17 33  1  0  0  0
 19 34  1  0  0  0
 19 35  1  0  0  0
M  END
$$$$
