4my6_ligand
  -I-interpret- 

 88 94  0  0  0  0  0  0  0  0999 V2000
   20.9950   -8.6690  -17.3670 C   0  0  0  0  0
   21.1490   -9.7410  -16.7700 O   0  0  0  0  0
   20.7270   -8.6650  -18.8460 C   0  0  0  0  0
   24.0640   -9.5550  -13.9650 Cl  0  0  0  0  0
   24.4720   -8.9890  -15.5390 C   0  0  0  0  0
   25.3810   -9.7580  -16.3060 C   0  0  0  0  0
   25.7120   -9.2810  -17.5660 C   0  0  0  0  0
   25.1970   -8.0910  -18.0780 C   0  0  0  0  0
   24.2970   -7.3180  -17.2960 C   0  0  0  0  0
   23.9600   -7.7500  -16.0060 C   0  0  0  0  0
   22.9810   -6.9540  -15.1660 C   0  0  0  0  0
   21.5230   -7.4530  -15.2960 C   0  0  0  0  0
   21.0700   -7.4650  -16.7200 N   0  0  0  0  0
   20.6400   -6.5130  -14.5610 C   0  0  0  0  0
   20.2920   -5.4710  -15.0640 O   0  0  0  0  0
   20.2740   -6.8100  -13.2720 N   0  0  0  0  0
   20.6160   -8.0600  -12.5670 C   0  0  0  0  0
   20.3000   -7.7250  -11.1040 C   0  0  0  0  0
   19.1750   -6.7160  -11.1890 C   0  0  0  0  0
   19.4970   -5.8610  -12.4310 C   0  0  0  0  0
   20.3740   -4.6990  -12.0720 C   0  0  0  0  0
   21.6160   -4.7110  -12.0360 O   0  0  0  0  0
   19.7340   -3.5420  -11.7770 N   0  0  0  0  0
   18.2340   -5.4310  -13.1550 C   0  0  0  0  0
   17.6380   -4.2430  -12.9030 C   0  0  0  0  0
   18.2850   -3.3060  -11.9120 C   0  0  0  0  0
   18.1550   -1.8210  -12.2470 C   0  0  0  0  0
   19.3780   -1.2160  -11.5350 C   0  0  0  0  0
   20.4600   -2.3030  -11.4820 C   0  0  0  0  0
   21.0890   -2.3760  -10.1140 C   0  0  0  0  0
   20.7270   -3.2250   -9.2940 O   0  0  0  0  0
   22.0920   -1.4860   -9.8070 N   0  0  0  0  0
   22.7160   -0.5270  -10.7890 C   0  0  0  0  0
   24.1050   -0.2480  -10.2500 C   0  0  0  0  0
   23.8190   -0.3060   -8.7450 C   0  0  0  0  0
   22.8400   -1.4820   -8.5560 C   0  0  0  0  0
   21.9740   -1.2590   -7.3430 C   0  0  0  0  0
   20.7500   -0.9780   -7.3840 O   0  0  0  0  0
   25.0100   -0.5090   -7.8730 C   0  0  0  0  0
   25.0730   -1.1990   -6.7110 C   0  0  0  0  0
   23.9960   -1.9440   -6.0000 C   0  0  0  0  0
   24.3050   -1.9910   -4.4970 C   0  0  0  0  0
   23.0310   -1.6200   -3.7720 C   0  0  0  0  0
   21.9630   -1.2710   -4.8160 C   0  0  0  0  0
   22.6110   -1.3860   -6.1380 N   0  0  0  0  0
   21.5240    0.1300   -4.5540 C   0  0  0  0  0
   20.5060    0.3100   -3.8070 O   0  0  0  0  0
   22.1980    1.0570   -5.0850 O   0  0  0  0  0
   21.5588   -9.1402  -19.3660 H   0  0  0  0  0
   19.8081   -9.2151  -19.0489 H   0  0  0  0  0
   20.6204   -7.6368  -19.1918 H   0  0  0  0  0
   25.8033  -10.6866  -15.9220 H   0  0  0  0  0
   26.4021   -9.8596  -18.1800 H   0  0  0  0  0
   25.4836   -7.7548  -19.0744 H   0  0  0  0  0
   23.8724   -6.3972  -17.6959 H   0  0  0  0  0
   23.0096   -5.9215  -15.5140 H   0  0  0  0  0
   23.2760   -7.0624  -14.1223 H   0  0  0  0  0
   21.4751   -8.4661  -14.8966 H   0  0  0  0  0
   20.8230   -6.5982  -17.1976 H   0  0  0  0  0
   21.6526   -8.3614  -12.7180 H   0  0  0  0  0
   20.0567   -8.9202  -12.9348 H   0  0  0  0  0
   21.1678   -7.3301  -10.5757 H   0  0  0  0  0
   20.0178   -8.6085  -10.5314 H   0  0  0  0  0
   19.1092   -6.1081  -10.2867 H   0  0  0  0  0
   18.2030   -7.2017  -11.2745 H   0  0  0  0  0
   17.7955   -6.0973  -13.8979 H   0  0  0  0  0
   16.7103   -3.9682  -13.4049 H   0  0  0  0  0
   17.7373   -3.5292  -10.9964 H   0  0  0  0  0
   17.2100   -1.3883  -11.9185 H   0  0  0  0  0
   18.1411   -1.6227  -13.3187 H   0  0  0  0  0
   19.1129   -0.8905  -10.5291 H   0  0  0  0  0
   19.7407   -0.3410  -12.0743 H   0  0  0  0  0
   21.2743   -2.1103  -12.1805 H   0  0  0  0  0
   22.1311    0.3880  -10.8823 H   0  0  0  0  0
   22.7532   -0.9494  -11.7931 H   0  0  0  0  0
   24.5417    0.6907  -10.5910 H   0  0  0  0  0
   24.8704   -0.9448  -10.5915 H   0  0  0  0  0
   23.4244    0.6623   -8.4370 H   0  0  0  0  0
   23.3193   -2.4431   -8.3698 H   0  0  0  0  0
   25.9383   -0.0481   -8.2105 H   0  0  0  0  0
   26.0493   -1.2118   -6.2265 H   0  0  0  0  0
   23.9955   -2.9239   -6.4773 H   0  0  0  0  0
   25.1074   -1.2972   -4.2463 H   0  0  0  0  0
   24.6403   -2.9856   -4.2031 H   0  0  0  0  0
   23.2087   -0.7646   -3.1203 H   0  0  0  0  0
   22.6940   -2.4560   -3.1592 H   0  0  0  0  0
   21.0933   -1.9268   -4.7758 H   0  0  0  0  0
   20.1636   -0.5411   -3.5240 H   0  0  0  0  0
  1  2  2  0  0  0
  1  3  1  0  0  0
 13  1  1  0  0  0
  5  4  1  0  0  0
  5  6  4  0  0  0
 10  5  4  0  0  0
  6  7  4  0  0  0
  8  7  4  0  0  0
  9  8  4  0  0  0
 10  9  4  0  0  0
 11 10  1  0  0  0
 12 11  1  0  0  0
 12 13  1  0  0  0
 12 14  1  0  0  0
 14 15  2  0  0  0
 14 16  1  0  0  0
 16 17  1  0  0  0
 16 20  1  0  0  0
 17 18  1  0  0  0
 18 19  1  0  0  0
 19 20  1  0  0  0
 20 21  1  0  0  0
 20 24  1  0  0  0
 21 22  2  0  0  0
 21 23  1  0  0  0
 23 26  1  0  0  0
 23 29  1  0  0  0
 24 25  2  0  0  0
 25 26  1  0  0  0
 26 27  1  0  0  0
 27 28  1  0  0  0
 28 29  1  0  0  0
 29 30  1  0  0  0
 30 31  2  0  0  0
 30 32  1  0  0  0
 32 33  1  0  0  0
 32 36  1  0  0  0
 33 34  1  0  0  0
 34 35  1  0  0  0
 35 36  1  0  0  0
 35 39  1  0  0  0
 36 37  1  0  0  0
 37 38  2  0  0  0
 37 45  1  0  0  0
 39 40  2  0  0  0
 40 41  1  0  0  0
 41 42  1  0  0  0
 41 45  1  0  0  0
 42 43  1  0  0  0
 43 44  1  0  0  0
 44 45  1  0  0  0
 44 46  1  0  0  0
 46 47  1  0  0  0
 46 48  2  0  0  0
  3 49  1  0  0  0
  3 50  1  0  0  0
  3 51  1  0  0  0
  6 52  1  0  0  0
  7 53  1  0  0  0
  8 54  1  0  0  0
  9 55  1  0  0  0
 11 56  1  0  0  0
 11 57  1  0  0  0
 12 58  1  0  0  0
 13 59  1  0  0  0
 17 60  1  0  0  0
 17 61  1  0  0  0
 18 62  1  0  0  0
 18 63  1  0  0  0
 19 64  1  0  0  0
 19 65  1  0  0  0
 24 66  1  0  0  0
 25 67  1  0  0  0
 26 68  1  0  0  0
 27 69  1  0  0  0
 27 70  1  0  0  0
 28 71  1  0  0  0
 28 72  1  0  0  0
 29 73  1  0  0  0
 33 74  1  0  0  0
 33 75  1  0  0  0
 34 76  1  0  0  0
 34 77  1  0  0  0
 35 78  1  0  0  0
 36 79  1  0  0  0
 39 80  1  0  0  0
 40 81  1  0  0  0
 41 82  1  0  0  0
 42 83  1  0  0  0
 42 84  1  0  0  0
 43 85  1  0  0  0
 43 86  1  0  0  0
 44 87  1  0  0  0
 47 88  1  0  0  0
M  END
$$$$
