3cdb_ligand
  -I-interpret- 

 81 84  0  0  0  0  0  0  0  0999 V2000
   14.3860    6.5480   45.4770 N   0  0  0  0  0
   10.9610    7.4240   51.3610 N   0  0  0  0  0
   14.5670    5.2740   45.8620 C   0  0  0  0  0
   15.4940    8.8340   45.8730 C   0  0  0  0  0
   13.3080    6.9340   44.5720 C   0  0  0  0  0
   13.7390    6.7040   43.1340 C   0  0  0  0  0
   12.9670    6.1130   40.8620 C   0  0  0  0  0
   14.2200    9.6060   46.2210 C   0  0  0  0  0
   12.3190    2.2800   46.2390 C   0  0  0  0  0
   15.7760    7.0350   51.3220 C   0  0  0  0  0
   14.5580    7.2400   51.9820 C   0  0  0  0  0
   14.2090    3.2580   44.4460 C   0  0  0  0  0
   17.5150    2.0290   47.1600 C   0  0  0  0  0
   13.5750    2.0490   44.1930 C   0  0  0  0  0
   14.7180    7.5460   49.2380 C   0  0  0  0  0
   17.4920    1.8500   48.5270 C   0  0  0  0  0
   12.0840    8.4000   53.0310 O   0  0  0  0  0
   12.0950    7.8310   51.9490 C   0  0  0  0  0
   13.4160    7.6000   51.2630 C   0  0  0  0  0
   13.5080    7.7530   49.8860 C   0  0  0  0  0
   15.8780    7.1870   49.9330 C   0  0  0  0  0
   17.0960    6.9700   49.3440 N   0  0  0  0  0
   17.4550    6.9580   47.7680 S   0  0  0  0  0
   18.0050    8.2250   47.3980 O   0  0  0  0  0
   18.4950    5.9980   47.5610 O   0  0  0  0  0
   16.1620    6.5290   46.8290 C   0  0  0  0  0
   15.7030    5.2520   46.7700 C   0  0  0  0  0
   16.3020    4.0670   47.4260 C   0  0  0  0  0
   16.9240    3.1420   46.6090 C   0  0  0  0  0
   16.2770    3.8950   48.8050 C   0  0  0  0  0
   16.8780    2.7770   49.3620 C   0  0  0  0  0
   18.0740    0.7600   49.0240 F   0  0  0  0  0
   15.3400    7.3570   46.0450 C   0  0  0  0  0
   15.9900    9.1380   44.4600 C   0  0  0  0  0
   13.8910    3.9790   45.5940 C   0  0  0  0  0
   12.6340    1.5650   45.0940 C   0  0  0  0  0
   12.9510    3.4910   46.4910 C   0  0  0  0  0
   12.0240    0.4040   44.8510 F   0  0  0  0  0
   12.5260    6.6510   42.2160 C   0  0  0  0  0
   11.9960    7.9580   42.0640 O   0  0  0  0  0
   13.0460    4.5940   40.8430 C   0  0  0  0  0
   11.7790    4.0510   41.1830 O   0  0  0  0  0
   13.4780    4.1510   39.4510 C   0  0  0  0  0
   13.9130    2.7050   39.4440 C   0  0  0  0  0
   14.9610    2.3630   39.9760 O   0  0  0  0  0
   13.1480    1.7990   38.8470 O   0  0  0  0  0
   10.0632    7.5871   51.8168 H   0  0  0  0  0
   10.9960    6.9513   50.4578 H   0  0  0  0  0
   16.2420    9.1820   46.5854 H   0  0  0  0  0
   13.0768    7.9895   44.7152 H   0  0  0  0  0
   12.4247    6.3318   44.7849 H   0  0  0  0  0
   14.2722    5.7554   43.0715 H   0  0  0  0  0
   14.3838    7.5255   42.8218 H   0  0  0  0  0
   13.9610    6.5062   40.6491 H   0  0  0  0  0
   12.2321    6.4230   40.1190 H   0  0  0  0  0
   13.4085    9.2769   45.5719 H   0  0  0  0  0
   13.9546    9.4166   47.2611 H   0  0  0  0  0
   14.3923   10.6726   46.0770 H   0  0  0  0  0
   11.5782    1.8934   46.9389 H   0  0  0  0  0
   16.6577    6.7530   51.8975 H   0  0  0  0  0
   14.5009    7.1178   53.0636 H   0  0  0  0  0
   14.9533    3.6415   43.7482 H   0  0  0  0  0
   17.9992    1.2921   46.5192 H   0  0  0  0  0
   13.8139    1.4827   43.2928 H   0  0  0  0  0
   14.7658    7.6667   48.1558 H   0  0  0  0  0
   12.6263    8.0369   49.3114 H   0  0  0  0  0
   17.8738    6.7939   49.9799 H   0  0  0  0  0
   16.9462    3.2942   45.5299 H   0  0  0  0  0
   15.7893    4.6324   49.4425 H   0  0  0  0  0
   16.8694    2.6263   50.4415 H   0  0  0  0  0
   15.2204    8.8623   43.7390 H   0  0  0  0  0
   16.2061   10.2029   44.3734 H   0  0  0  0  0
   16.8961    8.5649   44.2632 H   0  0  0  0  0
   12.7093    4.0566   47.3909 H   0  0  0  0  0
   11.7590    6.0025   42.6394 H   0  0  0  0  0
   11.7198    8.2917   42.9207 H   0  0  0  0  0
   13.7734    4.2359   41.5716 H   0  0  0  0  0
   11.8293    3.0924   41.1709 H   0  0  0  0  0
   14.3202    4.7676   39.1371 H   0  0  0  0  0
   12.6309    4.2612   38.7740 H   0  0  0  0  0
   12.3699    2.2282   38.4837 H   0  0  0  0  0
  3  1  4  0  0  0
  1  5  1  0  0  0
 33  1  4  0  0  0
 18  2  1  0  0  0
 27  3  4  0  0  0
  3 35  1  0  0  0
  4  8  1  0  0  0
 33  4  1  0  0  0
  4 34  1  0  0  0
  5  6  1  0  0  0
  6 39  1  0  0  0
 39  7  1  0  0  0
  7 41  1  0  0  0
 36  9  4  0  0  0
  9 37  4  0  0  0
 10 11  4  0  0  0
 21 10  4  0  0  0
 11 19  4  0  0  0
 12 14  4  0  0  0
 35 12  4  0  0  0
 13 16  4  0  0  0
 29 13  4  0  0  0
 14 36  4  0  0  0
 15 20  4  0  0  0
 21 15  4  0  0  0
 16 31  4  0  0  0
 16 32  1  0  0  0
 18 17  2  0  0  0
 19 18  1  0  0  0
 20 19  4  0  0  0
 22 21  1  0  0  0
 23 22  1  0  0  0
 23 24  2  0  0  0
 23 25  2  0  0  0
 26 23  1  0  0  0
 27 26  4  0  0  0
 26 33  4  0  0  0
 28 27  1  0  0  0
 28 29  4  0  0  0
 28 30  4  0  0  0
 30 31  4  0  0  0
 35 37  4  0  0  0
 36 38  1  0  0  0
 39 40  1  0  0  0
 41 42  1  0  0  0
 41 43  1  0  0  0
 43 44  1  0  0  0
 44 45  2  0  0  0
 44 46  1  0  0  0
  2 47  1  0  0  0
  2 48  1  0  0  0
  4 49  1  0  0  0
  5 50  1  0  0  0
  5 51  1  0  0  0
  6 52  1  0  0  0
  6 53  1  0  0  0
  7 54  1  0  0  0
  7 55  1  0  0  0
  8 56  1  0  0  0
  8 57  1  0  0  0
  8 58  1  0  0  0
  9 59  1  0  0  0
 10 60  1  0  0  0
 11 61  1  0  0  0
 12 62  1  0  0  0
 13 63  1  0  0  0
 14 64  1  0  0  0
 15 65  1  0  0  0
 20 66  1  0  0  0
 22 67  1  0  0  0
 29 68  1  0  0  0
 30 69  1  0  0  0
 31 70  1  0  0  0
 34 71  1  0  0  0
 34 72  1  0  0  0
 34 73  1  0  0  0
 37 74  1  0  0  0
 39 75  1  0  0  0
 40 76  1  0  0  0
 41 77  1  0  0  0
 42 78  1  0  0  0
 43 79  1  0  0  0
 43 80  1  0  0  0
 46 81  1  0  0  0
M  END
$$$$
