1hxw_ligand
  -I-interpret- 

 98101  0  0  0  0  0  0  0  0999 V2000
   16.6620   17.7900    1.4940 C   0  0  0  0  0
   16.2290   17.9350    2.7840 C   0  0  0  0  0
   17.3450   17.3240    4.0360 S   0  0  0  0  0
   18.3160   17.1130    2.5550 C   0  0  0  0  0
   17.8670   17.3660    1.3770 N   0  0  0  0  0
   15.0730   18.4170    3.4890 C   0  0  0  0  0
   15.1860   19.8130    3.7080 O   0  0  0  0  0
   14.2160   20.6020    4.3390 C   0  0  0  0  0
   14.6500   21.8720    4.5250 N   0  0  0  0  0
   13.8730   22.9120    5.2280 C   0  0  0  0  0
   13.5030   24.1400    4.3920 C   0  0  0  0  0
   12.6720   23.8060    3.1710 C   0  0  0  0  0
   11.1400   23.5720    3.3150 C   0  0  0  0  0
    9.9600   24.2980    5.3480 C   0  0  0  0  0
    9.2740   25.5150    5.9960 C   0  0  0  0  0
    7.9060   25.6800    5.5030 N   0  0  0  0  0
    7.6650   26.5180    4.4810 C   0  0  0  0  0
   13.1030   20.1700    4.6600 O   0  0  0  0  0
   14.2610   23.2430    6.6710 C   0  0  0  0  0
   14.8160   22.2250    7.5340 C   0  0  0  0  0
   13.7990   21.7080    8.3440 C   0  0  0  0  0
   14.0980   20.6030    9.1570 C   0  0  0  0  0
   15.3740   20.0130    9.1710 C   0  0  0  0  0
   16.3920   20.5660    8.3640 C   0  0  0  0  0
   16.1150   21.6680    7.5490 C   0  0  0  0  0
   14.7540   24.6640    3.9780 O   0  0  0  0  0
   10.5690   23.5860    1.9290 C   0  0  0  0  0
    9.2540   22.9780    2.0010 C   0  0  0  0  0
    8.1490   23.8450    2.0180 C   0  0  0  0  0
    6.8360   23.3350    2.0410 C   0  0  0  0  0
    6.6600   21.9490    2.0260 C   0  0  0  0  0
    7.7560   21.0900    2.0030 C   0  0  0  0  0
    9.0590   21.5930    1.9920 C   0  0  0  0  0
   10.4690   24.5540    4.1370 N   0  0  0  0  0
    9.9680   23.1590    5.8580 O   0  0  0  0  0
    9.2550   25.5670    7.5570 C   0  0  0  0  0
   10.5960   25.2750    8.2820 C   0  0  0  0  0
    8.5650   26.8410    8.0950 C   0  0  0  0  0
    6.4230   26.4000    3.9580 N   0  0  0  0  0
    5.9690   27.3450    2.9380 C   0  0  0  0  0
    8.4710   27.4270    4.1920 O   0  0  0  0  0
    5.9100   26.8490    1.5590 C   0  0  0  0  0
    7.0240   27.0120    0.7840 C   0  0  0  0  0
    6.6390   26.2570   -0.7850 S   0  0  0  0  0
    5.0870   25.7360   -0.1240 C   0  0  0  0  0
    4.8710   26.2630    1.0440 N   0  0  0  0  0
    4.4970   24.8860   -1.0460 C   0  0  0  0  0
    4.1390   25.1310   -2.5060 C   0  0  0  0  0
    3.2450   24.3730   -0.4620 C   0  0  0  0  0
    5.4840   25.5080    4.2400 C   0  0  0  0  0
   16.0325   18.0169    0.6336 H   0  0  0  0  0
   19.3398   16.7520    2.6532 H   0  0  0  0  0
   15.0009   17.9079    4.4501 H   0  0  0  0  0
   14.1815   18.2183    2.8942 H   0  0  0  0  0
   15.5675   22.1244    4.1577 H   0  0  0  0  0
   12.9391   22.3672    5.3658 H   0  0  0  0  0
   12.8948   24.8308    4.9760 H   0  0  0  0  0
   13.0635   22.8484    2.8277 H   0  0  0  0  0
   12.7552   24.6870    2.5346 H   0  0  0  0  0
   10.9821   22.6209    3.8235 H   0  0  0  0  0
    9.9160   26.3397    5.6866 H   0  0  0  0  0
    7.1399   25.1617    5.9329 H   0  0  0  0  0
   13.3183   23.5132    7.1469 H   0  0  0  0  0
   15.0614   23.9762    6.5720 H   0  0  0  0  0
   12.8029   22.1505    8.3439 H   0  0  0  0  0
   13.3176   20.1903    9.7963 H   0  0  0  0  0
   15.5743   19.1422    9.7952 H   0  0  0  0  0
   17.3928   20.1344    8.3763 H   0  0  0  0  0
   16.8999   22.0970    6.9260 H   0  0  0  0  0
   14.6100   25.4468    3.4413 H   0  0  0  0  0
   11.2109   23.0325    1.2437 H   0  0  0  0  0
   10.5000   24.6066    1.5524 H   0  0  0  0  0
    8.3090   24.9232    2.0133 H   0  0  0  0  0
    5.9775   24.0060    2.0698 H   0  0  0  0  0
    5.6518   21.5347    2.0324 H   0  0  0  0  0
    7.5950   20.0120    1.9935 H   0  0  0  0  0
    9.9125   20.9152    1.9766 H   0  0  0  0  0
   10.3778   25.5017    3.7709 H   0  0  0  0  0
    8.6411   24.7056    7.8201 H   0  0  0  0  0
   10.9367   24.2725    8.0232 H   0  0  0  0  0
   11.3426   26.0055    7.9704 H   0  0  0  0  0
   10.4472   25.3427    9.3597 H   0  0  0  0  0
    9.0977   27.7210    7.7345 H   0  0  0  0  0
    7.5335   26.8699    7.7438 H   0  0  0  0  0
    8.5788   26.8275    9.1848 H   0  0  0  0  0
    6.6979   28.1555    2.9343 H   0  0  0  0  0
    4.9457   27.6074    3.2064 H   0  0  0  0  0
    7.9555   27.5023    1.0667 H   0  0  0  0  0
    5.4045   24.2992   -1.1878 H   0  0  0  0  0
    3.4335   25.9593   -2.5717 H   0  0  0  0  0
    5.0426   25.3765   -3.0641 H   0  0  0  0  0
    3.6856   24.2319   -2.9234 H   0  0  0  0  0
    3.4693   23.8324    0.4575 H   0  0  0  0  0
    2.5798   25.2078   -0.2412 H   0  0  0  0  0
    2.7632   23.7007   -1.1719 H   0  0  0  0  0
    5.8588   24.5074    4.0247 H   0  0  0  0  0
    5.2217   25.5798    5.2955 H   0  0  0  0  0
    4.6020   25.7059    3.6309 H   0  0  0  0  0
  1  5  4  0  0  0
  1  2  4  0  0  0
  2  6  1  0  0  0
  2  3  4  0  0  0
  3  4  4  0  0  0
  4  5  4  0  0  0
  6  7  1  0  0  0
  7  8  1  0  0  0
  8 18  2  0  0  0
  8  9  1  0  0  0
  9 10  1  0  0  0
 10 19  1  0  0  0
 10 11  1  0  0  0
 11 26  1  0  0  0
 11 12  1  0  0  0
 12 13  1  0  0  0
 13 34  1  0  0  0
 13 27  1  0  0  0
 27 28  1  0  0  0
 28 33  4  0  0  0
 28 29  4  0  0  0
 29 30  4  0  0  0
 30 31  4  0  0  0
 31 32  4  0  0  0
 32 33  4  0  0  0
 34 14  1  0  0  0
 14 35  2  0  0  0
 14 15  1  0  0  0
 15 36  1  0  0  0
 15 16  1  0  0  0
 16 17  1  0  0  0
 17 41  2  0  0  0
 17 39  1  0  0  0
 39 50  1  0  0  0
 39 40  1  0  0  0
 40 42  1  0  0  0
 42 46  4  0  0  0
 42 43  4  0  0  0
 43 44  4  0  0  0
 44 45  4  0  0  0
 45 47  1  0  0  0
 45 46  4  0  0  0
 47 49  1  0  0  0
 47 48  1  0  0  0
 36 38  1  0  0  0
 36 37  1  0  0  0
 19 20  1  0  0  0
 20 25  4  0  0  0
 20 21  4  0  0  0
 21 22  4  0  0  0
 22 23  4  0  0  0
 23 24  4  0  0  0
 24 25  4  0  0  0
  1 51  1  0  0  0
  4 52  1  0  0  0
  6 53  1  0  0  0
  6 54  1  0  0  0
  9 55  1  0  0  0
 10 56  1  0  0  0
 11 57  1  0  0  0
 12 58  1  0  0  0
 12 59  1  0  0  0
 13 60  1  0  0  0
 15 61  1  0  0  0
 16 62  1  0  0  0
 19 63  1  0  0  0
 19 64  1  0  0  0
 21 65  1  0  0  0
 22 66  1  0  0  0
 23 67  1  0  0  0
 24 68  1  0  0  0
 25 69  1  0  0  0
 26 70  1  0  0  0
 27 71  1  0  0  0
 27 72  1  0  0  0
 29 73  1  0  0  0
 30 74  1  0  0  0
 31 75  1  0  0  0
 32 76  1  0  0  0
 33 77  1  0  0  0
 34 78  1  0  0  0
 36 79  1  0  0  0
 37 80  1  0  0  0
 37 81  1  0  0  0
 37 82  1  0  0  0
 38 83  1  0  0  0
 38 84  1  0  0  0
 38 85  1  0  0  0
 40 86  1  0  0  0
 40 87  1  0  0  0
 43 88  1  0  0  0
 47 89  1  0  0  0
 48 90  1  0  0  0
 48 91  1  0  0  0
 48 92  1  0  0  0
 49 93  1  0  0  0
 49 94  1  0  0  0
 49 95  1  0  0  0
 50 96  1  0  0  0
 50 97  1  0  0  0
 50 98  1  0  0  0
M  END
$$$$
