### 
### Created by X-TOOL on Mon Sep 10 21:12:59 2018
### 

@<TRIPOS>MOLECULE
3jzp_ligand
  207   212     1     0     0
SMALL
GAST_HUCK


@<TRIPOS>ATOM
      1 N         -23.9600   10.0800   -6.0490 N.4       1 LEU         0.2379
      2 CA        -24.8660   10.0810   -7.2350 C.3       1 LEU         0.0652
      3 C         -24.0420   10.1680   -8.5110 C.2       1 LEU         0.2268
      4 O         -24.5660    9.9630   -9.6190 O.2       1 LEU        -0.3907
      5 CB        -25.8510   11.2670   -7.1610 C.3       1 LEU         0.0102
      6 CG        -26.8650   11.2750   -6.0020 C.3       1 LEU        -0.0394
      7 CD1       -27.7750   12.4930   -6.1170 C.3       1 LEU        -0.0623
      8 CD2       -27.6870    9.9990   -6.0420 C.3       1 LEU        -0.0623
      9 N         -22.7630   10.5050   -8.3650 N.am      1 THR        -0.2586
     10 CA        -21.8570   10.5680   -9.5160 C.3       1 THR         0.1566
     11 C         -20.7860    9.4790   -9.3430 C.2       1 THR         0.2066
     12 O         -20.5260    9.0270   -8.2310 O.2       1 THR        -0.3943
     13 CB        -21.1300   11.9320   -9.6490 C.3       1 THR         0.0924
     14 OG1       -20.3320   12.1660   -8.4890 O.3       1 THR        -0.3874
     15 CG2       -22.1330   13.0690   -9.8200 C.3       1 THR        -0.0346
     16 N         -20.1790    9.0590  -10.4440 N.am      1 PHE        -0.2619
     17 CA        -19.1300    8.0470  -10.3660 C.3       1 PHE         0.1404
     18 C         -18.0040    8.5500   -9.4480 C.2       1 PHE         0.2060
     19 O         -17.5250    7.8270   -8.5700 O.2       1 PHE        -0.3942
     20 CB        -18.5620    7.7610  -11.7450 C.3       1 PHE         0.0214
     21 CG        -17.3690    6.8770  -11.7060 C.ar      1 PHE        -0.0386
     22 CD1       -17.5110    5.5150  -11.4340 C.ar      1 PHE        -0.0601
     23 CD2       -16.0980    7.4030  -11.8570 C.ar      1 PHE        -0.0601
     24 CE1       -16.3930    4.7060  -11.3080 C.ar      1 PHE        -0.0686
     25 CE2       -14.9750    6.5960  -11.7340 C.ar      1 PHE        -0.0686
     26 CZ        -15.1280    5.2390  -11.4550 C.ar      1 PHE        -0.0687
     27 N         -17.5840    9.7960   -9.6380 N.am      1 GLU        -0.2635
     28 CA        -16.5140   10.3240   -8.8090 C.3       1 GLU         0.1325
     29 C         -16.8430   10.3260   -7.3100 C.2       1 GLU         0.2041
     30 O         -15.9610   10.0810   -6.4800 O.2       1 GLU        -0.3944
     31 CB        -16.1270   11.7260   -9.2800 C.3       1 GLU        -0.0008
     32 CG        -14.7890   12.1920   -8.7010 C.3       1 GLU         0.0044
     33 CD        -13.6600   11.1550   -8.8660 C.2       1 GLU         0.0350
     34 OE1       -13.3100   10.8020  -10.0260 O.co2     1 GLU        -0.5690
     35 OE2       -13.1210   10.6940   -7.8250 O.co2     1 GLU        -0.5690
     36 N         -18.1030   10.6120   -6.9540 N.am      1 HIS        -0.2625
     37 CA        -18.5390   10.6040   -5.5470 C.3       1 HIS         0.1369
     38 C         -18.2560    9.2400   -4.9220 C.2       1 HIS         0.2054
     39 O         -17.7340    9.1480   -3.8040 O.2       1 HIS        -0.3942
     40 CB        -20.0460   10.8720   -5.4360 C.3       1 HIS         0.0145
     41 CG        -20.5980   10.6860   -4.0520 C.2       1 HIS        -0.0027
     42 ND1       -20.4430   11.6280   -3.0560 N.2       1 HIS        -0.3252
     43 CD2       -21.2480    9.6420   -3.4840 C.2       1 HIS         0.0291
     44 CE1       -20.9730   11.1710   -1.9340 C.2       1 HIS         0.0907
     45 NE2       -21.4660    9.9680   -2.1640 N.pl3     1 HIS        -0.2752
     46 N         -18.6140    8.1850   -5.6410 N.am      1 TRP        -0.2625
     47 CA        -18.4010    6.8310   -5.1410 C.3       1 TRP         0.1352
     48 C         -16.9360    6.4020   -5.1940 C.2       1 TRP         0.2052
     49 O         -16.4140    5.8360   -4.2320 O.2       1 TRP        -0.3942
     50 CB        -19.2360    5.8430   -5.9580 C.3       1 TRP         0.0042
     51 CG        -20.6980    6.1240   -5.8950 C.2       1 TRP        -0.0418
     52 CD1       -21.5070    6.5230   -6.9160 C.2       1 TRP         0.0167
     53 CD2       -21.5220    6.0370   -4.7350 C.ar      1 TRP        -0.0214
     54 NE1       -22.7960    6.6900   -6.4630 N.pl3     1 TRP        -0.2890
     55 CE2       -22.8300    6.3990   -5.1230 C.ar      1 TRP         0.0603
     56 CE3       -21.2810    5.6860   -3.4030 C.ar      1 TRP        -0.0747
     57 CZ2       -23.9020    6.4220   -4.2240 C.ar      1 TRP        -0.0443
     58 CZ3       -22.3520    5.7070   -2.5030 C.ar      1 TRP        -0.0792
     59 CH2       -23.6440    6.0740   -2.9240 C.ar      1 TRP        -0.0768
     60 N         -16.2850    6.6670   -6.3260 N.am      1 TRP        -0.2626
     61 CA        -14.8930    6.2760   -6.5110 C.3       1 TRP         0.1352
     62 C         -13.9500    6.9290   -5.4950 C.2       1 TRP         0.2052
     63 O         -13.0590    6.2760   -4.9500 O.2       1 TRP        -0.3942
     64 CB        -14.4460    6.6000   -7.9500 C.3       1 TRP         0.0042
     65 CG        -13.0760    6.0570   -8.2760 C.2       1 TRP        -0.0418
     66 CD1       -11.8820    6.7090   -8.1990 C.2       1 TRP         0.0167
     67 CD2       -12.7790    4.7120   -8.6540 C.ar      1 TRP        -0.0214
     68 NE1       -10.8520    5.8510   -8.4970 N.pl3     1 TRP        -0.2890
     69 CE2       -11.3760    4.6140   -8.7840 C.ar      1 TRP         0.0603
     70 CE3       -13.5710    3.5750   -8.8930 C.ar      1 TRP        -0.0747
     71 CZ2       -10.7370    3.4270   -9.1440 C.ar      1 TRP        -0.0443
     72 CZ3       -12.9360    2.3790   -9.2570 C.ar      1 TRP        -0.0792
     73 CH2       -11.5240    2.3200   -9.3780 C.ar      1 TRP        -0.0768
     74 N         -14.1720    8.2100   -5.2140 N.am      1 ALA        -0.2639
     75 CA        -13.3080    8.9300   -4.2830 C.3       1 ALA         0.1282
     76 C         -13.3280    8.3470   -2.8710 C.2       1 ALA         0.2036
     77 O         -12.3760    8.5200   -2.1050 O.2       1 ALA        -0.3944
     78 CB        -13.7080   10.4090   -4.2580 C.3       1 ALA        -0.0244
     79 N         -14.3910    7.6460   -2.5140 N.am      1 GLN        -0.2636
     80 CA        -14.4390    7.0990   -1.1680 C.3       1 GLN         0.1330
     81 C         -13.6580    5.8010   -1.0020 C.2       1 GLN         0.2040
     82 O         -13.5430    5.2920    0.1170 O.2       1 GLN        -0.3944
     83 CB        -15.8960    6.9740   -0.7180 C.3       1 GLN         0.0045
     84 CG        -16.5590    8.3630   -0.6140 C.3       1 GLN         0.0412
     85 CD        -17.8870    8.3480    0.1020 C.2       1 GLN         0.1737
     86 OE1       -17.9580    8.0880    1.3130 O.2       1 GLN        -0.3973
     87 NE2       -18.9570    8.6260   -0.6420 N.am      1 GLN        -0.3009
     88 N         -13.0850    5.2810   -2.0930 N.am      1 LEU        -0.2637
     89 CA        -12.2810    4.0560   -1.9970 C.3       1 LEU         0.1312
     90 C         -10.8960    4.3770   -1.4270 C.2       1 LEU         0.2040
     91 O         -10.1600    3.4670   -1.0370 O.2       1 LEU        -0.3944
     92 CB        -12.1160    3.3940   -3.3650 C.3       1 LEU        -0.0101
     93 CG        -13.4190    2.9360   -4.0360 C.3       1 LEU        -0.0425
     94 CD1       -13.0640    2.2430   -5.3290 C.3       1 LEU        -0.0625
     95 CD2       -14.2160    1.9950   -3.1140 C.3       1 LEU        -0.0625
     96 N         -10.5330    5.6590   -1.3820 N.am      1 THR        -0.2613
     97 CA         -9.2430    6.0500   -0.8040 C.3       1 THR         0.1564
     98 C          -9.4270    7.1030    0.2810 C.2       1 THR         0.2060
     99 O         -10.3280    7.9450    0.1950 O.2       1 THR        -0.3943
    100 CB         -8.2610    6.6340   -1.8370 C.3       1 THR         0.0924
    101 OG1        -8.8930    7.6990   -2.5610 O.3       1 THR        -0.3874
    102 CG2        -7.7820    5.5740   -2.7890 C.3       1 THR        -0.0346
    103 N          -8.5540    7.0680    1.2870 N.am      1 SER        -0.2672
    104 CA         -8.6180    8.0360    2.3820 C.3       1 SER         0.1173
    105 C          -7.8390    9.2830    1.9840 C.2       1 SER         0.0623
    106 O          -6.9370    9.1510    1.1160 O.co2     1 SER        -0.5665
    107 CB         -7.9960    7.4450    3.6470 C.3       1 SER         0.0789
    108 OG         -6.5910    7.2780    3.4810 O.3       1 SER        -0.3910
    109 OXT        -8.1180   10.3670    2.5560 O.co2     1 SER        -0.5665
    110 H1        -24.5099   10.0223   -5.2062 H         1 LEU         0.2015
    111 H2        -23.4184   10.9300   -6.0392 H         1 LEU         0.2015
    112 H3        -23.3399    9.2870   -6.1005 H         1 LEU         0.2015
    113 H4        -25.4406    9.1431   -7.2441 H         1 LEU         0.1098
    114 H5        -26.4234   11.2796   -8.1002 H         1 LEU         0.0348
    115 H6        -25.2538   12.1875   -7.0832 H         1 LEU         0.0348
    116 H7        -26.3214   11.3230   -5.0469 H         1 LEU         0.0299
    117 H8        -28.4960   12.4917   -5.2862 H         1 LEU         0.0232
    118 H9        -28.3174   12.4565   -7.0733 H         1 LEU         0.0232
    119 H10       -27.1682   13.4095   -6.0744 H         1 LEU         0.0232
    120 H11       -27.0185    9.1295   -5.9582 H         1 LEU         0.0232
    121 H12       -28.2381    9.9475   -6.9926 H         1 LEU         0.0232
    122 H13       -28.3998    9.9956   -5.2042 H         1 LEU         0.0232
    123 H14       -22.4132   10.7193   -7.4530 H         1 THR         0.1885
    124 H15       -22.4353   10.3822  -10.4331 H         1 THR         0.0826
    125 H16       -20.4766   11.9003  -10.5333 H         1 THR         0.0639
    126 H17       -19.8887   13.0019   -8.5743 H         1 THR         0.2101
    127 H18       -21.5934   14.0232   -9.9119 H         1 THR         0.0257
    128 H19       -22.7976   13.1065   -8.9443 H         1 THR         0.0257
    129 H20       -22.7310   12.8971  -10.7271 H         1 THR         0.0257
    130 H21       -20.4409    9.4371  -11.3319 H         1 PHE         0.1885
    131 H22       -19.5531    7.1204   -9.9508 H         1 PHE         0.0823
    132 H23       -18.2768    8.7152  -12.2121 H         1 PHE         0.0474
    133 H24       -19.3401    7.2741  -12.3512 H         1 PHE         0.0474
    134 H25       -18.5010    5.0881  -11.3208 H         1 PHE         0.0557
    135 H26       -15.9777    8.4582  -12.0740 H         1 PHE         0.0557
    136 H27       -16.5122    3.6502  -11.0931 H         1 PHE         0.0599
    137 H28       -13.9843    7.0191  -11.8543 H         1 PHE         0.0599
    138 H29       -14.2557    4.6035  -11.3537 H         1 PHE         0.0559
    139 H30       -18.0010   10.3660  -10.3460 H         1 GLU         0.1883
    140 H31       -15.6408    9.6696   -8.9480 H         1 GLU         0.0801
    141 H32       -16.9110   12.4316   -8.9679 H         1 GLU         0.0330
    142 H33       -16.0536   11.7214  -10.3775 H         1 GLU         0.0330
    143 H34       -14.9239   12.3937   -7.6281 H         1 GLU         0.0433
    144 H35       -14.4901   13.1182   -9.2136 H         1 GLU         0.0433
    145 H36       -18.7680   10.8379   -7.6659 H         1 HIS         0.1885
    146 H37       -17.9889   11.3823   -4.9978 H         1 HIS         0.0817
    147 H38       -20.5710   10.1825   -6.1135 H         1 HIS         0.0420
    148 H39       -20.2370   11.9093   -5.7482 H         1 HIS         0.0420
    149 H40       -21.5430    8.7178   -3.9787 H         1 HIS         0.0729
    150 H41       -20.9985   11.6979   -0.9813 H         1 HIS         0.1199
    151 H42       -21.9369    9.3708   -1.4694 H         1 HIS         0.2361
    152 H43       -19.0356    8.3192   -6.5378 H         1 TRP         0.1884
    153 H44       -18.7328    6.7971   -4.0928 H         1 TRP         0.0815
    154 H45       -19.0571    4.8290   -5.5709 H         1 TRP         0.0397
    155 H46       -18.9139    5.8967   -7.0084 H         1 TRP         0.0397
    156 H47       -21.1810    6.6862   -7.9422 H         1 TRP         0.0795
    157 H48       -23.6006    6.9843   -7.0347 H         1 TRP         0.2216
    158 H49       -20.2870    5.4040   -3.0752 H         1 TRP         0.0540
    159 H50       -24.8985    6.7043   -4.5437 H         1 TRP         0.0541
    160 H51       -22.1844    5.4368   -1.4667 H         1 TRP         0.0510
    161 H52       -24.4536    6.0815   -2.2032 H         1 TRP         0.0530
    162 H53       -16.7615    7.1443   -7.0643 H         1 TRP         0.1884
    163 H54       -14.8301    5.1870   -6.3696 H         1 TRP         0.0815
    164 H55       -14.4291    7.6928   -8.0746 H         1 TRP         0.0397
    165 H56       -15.1727    6.1623   -8.6502 H         1 TRP         0.0397
    166 H57       -11.7618    7.7595   -7.9386 H         1 TRP         0.0795
    167 H58        -9.8513    6.0948   -8.5041 H         1 TRP         0.2216
    168 H59       -14.6498    3.6221   -8.7979 H         1 TRP         0.0540
    169 H60        -9.6581    3.3772   -9.2365 H         1 TRP         0.0541
    170 H61       -13.5292    1.4920   -9.4475 H         1 TRP         0.0510
    171 H62       -11.0541    1.3848   -9.6604 H         1 TRP         0.0530
    172 H63       -14.9391    8.6851   -5.6451 H         1 ALA         0.1883
    173 H64       -12.2763    8.8573   -4.6575 H         1 ALA         0.0797
    174 H65       -13.0578   10.9528   -3.5569 H         1 ALA         0.0277
    175 H66       -14.7550   10.5003   -3.9331 H         1 ALA         0.0277
    176 H67       -13.5983   10.8356   -5.2659 H         1 ALA         0.0277
    177 H68       -15.1439    7.4958   -3.1547 H         1 GLN         0.1883
    178 H69       -13.9581    7.8348   -0.5067 H         1 GLN         0.0801
    179 H70       -15.9285    6.4844    0.2665 H         1 GLN         0.0337
    180 H71       -16.4481    6.3649   -1.4489 H         1 GLN         0.0337
    181 H72       -16.7173    8.7496   -1.6316 H         1 GLN         0.0504
    182 H73       -15.8780    9.0332   -0.0690 H         1 GLN         0.0504
    183 H74       -19.8667    8.6323   -0.2268 H         1 GLN         0.1814
    184 H75       -18.8502    8.8284   -1.6155 H         1 GLN         0.1814
    185 H76       -13.2048    5.7290   -2.9790 H         1 LEU         0.1883
    186 H77       -12.7921    3.3533   -1.3225 H         1 LEU         0.0800
    187 H78       -11.4706    2.5121   -3.2397 H         1 LEU         0.0315
    188 H79       -11.6250    4.1157   -4.0344 H         1 LEU         0.0315
    189 H80       -14.0388    3.8174   -4.2572 H         1 LEU         0.0298
    190 H81       -13.9840    1.9053   -5.8286 H         1 LEU         0.0232
    191 H82       -12.4228    1.3750   -5.1158 H         1 LEU         0.0232
    192 H83       -12.5266    2.9436   -5.9850 H         1 LEU         0.0232
    193 H84       -14.4633    2.5201   -2.1796 H         1 LEU         0.0232
    194 H85       -13.6102    1.1058   -2.8855 H         1 LEU         0.0232
    195 H86       -15.1439    1.6870   -3.6181 H         1 LEU         0.0232
    196 H87       -11.1459    6.3605   -1.7457 H         1 THR         0.1884
    197 H88        -8.7891    5.1523   -0.3589 H         1 THR         0.0826
    198 H89        -7.3903    7.0397   -1.3009 H         1 THR         0.0639
    199 H90        -9.1539    8.3817   -1.9542 H         1 THR         0.2101
    200 H91        -7.0840    6.0197   -3.5130 H         1 THR         0.0257
    201 H92        -8.6423    5.1463   -3.3247 H         1 THR         0.0257
    202 H93        -7.2690    4.7803   -2.2261 H         1 THR         0.0257
    203 H94        -7.8413    6.3665    1.2936 H         1 SER         0.1876
    204 H95        -9.6677    8.3000    2.5780 H         1 SER         0.0749
    205 H96        -8.4549    6.4668    3.8531 H         1 SER         0.0599
    206 H97        -8.1825    8.1230    4.4929 H         1 SER         0.0599
    207 H98        -6.1915    8.1218    3.3053 H         1 SER         0.2096
@<TRIPOS>BOND
     1    1    2 1  
     2    2    3 1  
     3    2    5 1  
     4    3    4 2  
     5    3    9 am 
     6    5    6 1  
     7    6    7 1  
     8    6    8 1  
     9    9   10 1  
    10   10   11 1  
    11   10   13 1  
    12   11   12 2  
    13   11   16 am 
    14   13   14 1  
    15   13   15 1  
    16   16   17 1  
    17   17   18 1  
    18   17   20 1  
    19   18   19 2  
    20   18   27 am 
    21   20   21 1  
    22   21   22 ar 
    23   21   23 ar 
    24   22   24 ar 
    25   23   25 ar 
    26   24   26 ar 
    27   25   26 ar 
    28   27   28 1  
    29   28   29 1  
    30   28   31 1  
    31   29   30 2  
    32   29   36 am 
    33   31   32 1  
    34   32   33 1  
    35   33   34 ar 
    36   33   35 ar 
    37   36   37 1  
    38   37   38 1  
    39   37   40 1  
    40   38   39 2  
    41   38   46 am 
    42   40   41 1  
    43   41   42 1  
    44   41   43 2  
    45   42   44 2  
    46   43   45 1  
    47   44   45 1  
    48   46   47 1  
    49   47   48 1  
    50   47   50 1  
    51   48   49 2  
    52   48   60 am 
    53   50   51 1  
    54   51   52 2  
    55   51   53 1  
    56   52   54 1  
    57   53   55 ar 
    58   53   56 ar 
    59   54   55 1  
    60   55   57 ar 
    61   56   58 ar 
    62   57   59 ar 
    63   58   59 ar 
    64   60   61 1  
    65   61   62 1  
    66   61   64 1  
    67   62   63 2  
    68   62   74 am 
    69   64   65 1  
    70   65   66 2  
    71   65   67 1  
    72   66   68 1  
    73   67   69 ar 
    74   67   70 ar 
    75   68   69 1  
    76   69   71 ar 
    77   70   72 ar 
    78   71   73 ar 
    79   72   73 ar 
    80   74   75 1  
    81   75   76 1  
    82   75   78 1  
    83   76   77 2  
    84   76   79 am 
    85   79   80 1  
    86   80   81 1  
    87   80   83 1  
    88   81   82 2  
    89   81   88 am 
    90   83   84 1  
    91   84   85 1  
    92   85   86 2  
    93   85   87 am 
    94   88   89 1  
    95   89   90 1  
    96   89   92 1  
    97   90   91 2  
    98   90   96 am 
    99   92   93 1  
   100   93   94 1  
   101   93   95 1  
   102   96   97 1  
   103   97   98 1  
   104   97  100 1  
   105   98   99 2  
   106   98  103 am 
   107  100  101 1  
   108  100  102 1  
   109  103  104 1  
   110  104  105 1  
   111  104  107 1  
   112  105  106 ar 
   113  105  109 ar 
   114  107  108 1  
   115    1  110 1  
   116    1  111 1  
   117    1  112 1  
   118    2  113 1  
   119    5  114 1  
   120    5  115 1  
   121    6  116 1  
   122    7  117 1  
   123    7  118 1  
   124    7  119 1  
   125    8  120 1  
   126    8  121 1  
   127    8  122 1  
   128    9  123 1  
   129   10  124 1  
   130   13  125 1  
   131   14  126 1  
   132   15  127 1  
   133   15  128 1  
   134   15  129 1  
   135   16  130 1  
   136   17  131 1  
   137   20  132 1  
   138   20  133 1  
   139   22  134 1  
   140   23  135 1  
   141   24  136 1  
   142   25  137 1  
   143   26  138 1  
   144   27  139 1  
   145   28  140 1  
   146   31  141 1  
   147   31  142 1  
   148   32  143 1  
   149   32  144 1  
   150   36  145 1  
   151   37  146 1  
   152   40  147 1  
   153   40  148 1  
   154   43  149 1  
   155   44  150 1  
   156   45  151 1  
   157   46  152 1  
   158   47  153 1  
   159   50  154 1  
   160   50  155 1  
   161   52  156 1  
   162   54  157 1  
   163   56  158 1  
   164   57  159 1  
   165   58  160 1  
   166   59  161 1  
   167   60  162 1  
   168   61  163 1  
   169   64  164 1  
   170   64  165 1  
   171   66  166 1  
   172   68  167 1  
   173   70  168 1  
   174   71  169 1  
   175   72  170 1  
   176   73  171 1  
   177   74  172 1  
   178   75  173 1  
   179   78  174 1  
   180   78  175 1  
   181   78  176 1  
   182   79  177 1  
   183   80  178 1  
   184   83  179 1  
   185   83  180 1  
   186   84  181 1  
   187   84  182 1  
   188   87  183 1  
   189   87  184 1  
   190   88  185 1  
   191   89  186 1  
   192   92  187 1  
   193   92  188 1  
   194   93  189 1  
   195   94  190 1  
   196   94  191 1  
   197   94  192 1  
   198   95  193 1  
   199   95  194 1  
   200   95  195 1  
   201   96  196 1  
   202   97  197 1  
   203  100  198 1  
   204  101  199 1  
   205  102  200 1  
   206  102  201 1  
   207  102  202 1  
   208  103  203 1  
   209  104  204 1  
   210  107  205 1  
   211  107  206 1  
   212  108  207 1  
@<TRIPOS>SUBSTRUCTURE
     1 LEU         1

