3jzp_ligand
  -I-interpret- 

206211  0  0  0  0  0  0  0  0999 V2000
  -23.9600   10.0800   -6.0490 N   0  3  0  0  0
  -24.8660   10.0810   -7.2350 C   0  0  0  0  0
  -24.0420   10.1680   -8.5110 C   0  0  0  0  0
  -24.5660    9.9630   -9.6190 O   0  0  0  0  0
  -25.8510   11.2670   -7.1610 C   0  0  0  0  0
  -26.8650   11.2750   -6.0020 C   0  0  0  0  0
  -27.7750   12.4930   -6.1170 C   0  0  0  0  0
  -27.6870    9.9990   -6.0420 C   0  0  0  0  0
  -22.7630   10.5050   -8.3650 N   0  0  0  0  0
  -21.8570   10.5680   -9.5160 C   0  0  0  0  0
  -20.7860    9.4790   -9.3430 C   0  0  0  0  0
  -20.5260    9.0270   -8.2310 O   0  0  0  0  0
  -21.1300   11.9320   -9.6490 C   0  0  0  0  0
  -20.3320   12.1660   -8.4890 O   0  0  0  0  0
  -22.1330   13.0690   -9.8200 C   0  0  0  0  0
  -20.1790    9.0590  -10.4440 N   0  0  0  0  0
  -19.1300    8.0470  -10.3660 C   0  0  0  0  0
  -18.0040    8.5500   -9.4480 C   0  0  0  0  0
  -17.5250    7.8270   -8.5700 O   0  0  0  0  0
  -18.5620    7.7610  -11.7450 C   0  0  0  0  0
  -17.3690    6.8770  -11.7060 C   0  0  0  0  0
  -17.5110    5.5150  -11.4340 C   0  0  0  0  0
  -16.0980    7.4030  -11.8570 C   0  0  0  0  0
  -16.3930    4.7060  -11.3080 C   0  0  0  0  0
  -14.9750    6.5960  -11.7340 C   0  0  0  0  0
  -15.1280    5.2390  -11.4550 C   0  0  0  0  0
  -17.5840    9.7960   -9.6380 N   0  0  0  0  0
  -16.5140   10.3240   -8.8090 C   0  0  0  0  0
  -16.8430   10.3260   -7.3100 C   0  0  0  0  0
  -15.9610   10.0810   -6.4800 O   0  0  0  0  0
  -16.1270   11.7260   -9.2800 C   0  0  0  0  0
  -14.7890   12.1920   -8.7010 C   0  0  0  0  0
  -13.6600   11.1550   -8.8660 C   0  0  0  0  0
  -13.3100   10.8020  -10.0260 O   0  0  0  0  0
  -13.1210   10.6940   -7.8250 O   0  0  0  0  0
  -18.1030   10.6120   -6.9540 N   0  0  0  0  0
  -18.5390   10.6040   -5.5470 C   0  0  0  0  0
  -18.2560    9.2400   -4.9220 C   0  0  0  0  0
  -17.7340    9.1480   -3.8040 O   0  0  0  0  0
  -20.0460   10.8720   -5.4360 C   0  0  0  0  0
  -20.5980   10.6860   -4.0520 C   0  0  0  0  0
  -20.4430   11.6280   -3.0560 N   0  0  0  0  0
  -21.2480    9.6420   -3.4840 C   0  0  0  0  0
  -20.9730   11.1710   -1.9340 C   0  0  0  0  0
  -21.4660    9.9680   -2.1640 N   0  0  0  0  0
  -18.6140    8.1850   -5.6410 N   0  0  0  0  0
  -18.4010    6.8310   -5.1410 C   0  0  0  0  0
  -16.9360    6.4020   -5.1940 C   0  0  0  0  0
  -16.4140    5.8360   -4.2320 O   0  0  0  0  0
  -19.2360    5.8430   -5.9580 C   0  0  0  0  0
  -20.6980    6.1240   -5.8950 C   0  0  0  0  0
  -21.5070    6.5230   -6.9160 C   0  0  0  0  0
  -21.5220    6.0370   -4.7350 C   0  0  0  0  0
  -22.7960    6.6900   -6.4630 N   0  0  0  0  0
  -22.8300    6.3990   -5.1230 C   0  0  0  0  0
  -21.2810    5.6860   -3.4030 C   0  0  0  0  0
  -23.9020    6.4220   -4.2240 C   0  0  0  0  0
  -22.3520    5.7070   -2.5030 C   0  0  0  0  0
  -23.6440    6.0740   -2.9240 C   0  0  0  0  0
  -16.2850    6.6670   -6.3260 N   0  0  0  0  0
  -14.8930    6.2760   -6.5110 C   0  0  0  0  0
  -13.9500    6.9290   -5.4950 C   0  0  0  0  0
  -13.0590    6.2760   -4.9500 O   0  0  0  0  0
  -14.4460    6.6000   -7.9500 C   0  0  0  0  0
  -13.0760    6.0570   -8.2760 C   0  0  0  0  0
  -11.8820    6.7090   -8.1990 C   0  0  0  0  0
  -12.7790    4.7120   -8.6540 C   0  0  0  0  0
  -10.8520    5.8510   -8.4970 N   0  0  0  0  0
  -11.3760    4.6140   -8.7840 C   0  0  0  0  0
  -13.5710    3.5750   -8.8930 C   0  0  0  0  0
  -10.7370    3.4270   -9.1440 C   0  0  0  0  0
  -12.9360    2.3790   -9.2570 C   0  0  0  0  0
  -11.5240    2.3200   -9.3780 C   0  0  0  0  0
  -14.1720    8.2100   -5.2140 N   0  0  0  0  0
  -13.3080    8.9300   -4.2830 C   0  0  0  0  0
  -13.3280    8.3470   -2.8710 C   0  0  0  0  0
  -12.3760    8.5200   -2.1050 O   0  0  0  0  0
  -13.7080   10.4090   -4.2580 C   0  0  0  0  0
  -14.3910    7.6460   -2.5140 N   0  0  0  0  0
  -14.4390    7.0990   -1.1680 C   0  0  0  0  0
  -13.6580    5.8010   -1.0020 C   0  0  0  0  0
  -13.5430    5.2920    0.1170 O   0  0  0  0  0
  -15.8960    6.9740   -0.7180 C   0  0  0  0  0
  -16.5590    8.3630   -0.6140 C   0  0  0  0  0
  -17.8870    8.3480    0.1020 C   0  0  0  0  0
  -17.9580    8.0880    1.3130 O   0  0  0  0  0
  -18.9570    8.6260   -0.6420 N   0  0  0  0  0
  -13.0850    5.2810   -2.0930 N   0  0  0  0  0
  -12.2810    4.0560   -1.9970 C   0  0  0  0  0
  -10.8960    4.3770   -1.4270 C   0  0  0  0  0
  -10.1600    3.4670   -1.0370 O   0  0  0  0  0
  -12.1160    3.3940   -3.3650 C   0  0  0  0  0
  -13.4190    2.9360   -4.0360 C   0  0  0  0  0
  -13.0640    2.2430   -5.3290 C   0  0  0  0  0
  -14.2160    1.9950   -3.1140 C   0  0  0  0  0
  -10.5330    5.6590   -1.3820 N   0  0  0  0  0
   -9.2430    6.0500   -0.8040 C   0  0  0  0  0
   -9.4270    7.1030    0.2810 C   0  0  0  0  0
  -10.3280    7.9450    0.1950 O   0  0  0  0  0
   -8.2610    6.6340   -1.8370 C   0  0  0  0  0
   -8.8930    7.6990   -2.5610 O   0  0  0  0  0
   -7.7820    5.5740   -2.7890 C   0  0  0  0  0
   -8.5540    7.0680    1.2870 N   0  0  0  0  0
   -8.6180    8.0360    2.3820 C   0  0  0  0  0
   -7.8390    9.2830    1.9840 C   0  0  0  0  0
   -6.9370    9.1510    1.1160 O   0  0  0  0  0
   -7.9960    7.4450    3.6470 C   0  0  0  0  0
   -6.5910    7.2780    3.4810 O   0  0  0  0  0
   -8.1180   10.3670    2.5560 O   0  0  0  0  0
  -23.3170    9.2909   -6.1145 H   0  0  0  0  0
  -23.4299   10.9511   -6.0269 H   0  0  0  0  0
  -24.5161    9.9973   -5.1979 H   0  0  0  0  0
  -25.4396    9.1541   -7.2394 H   0  0  0  0  0
  -26.4464   11.2122   -8.0724 H   0  0  0  0  0
  -25.2335   12.1537   -7.0177 H   0  0  0  0  0
  -26.3319   11.3269   -5.0527 H   0  0  0  0  0
  -28.3208   12.4495   -7.0595 H   0  0  0  0  0
  -28.4811   12.4971   -5.2866 H   0  0  0  0  0
  -27.1714   13.4001   -6.0868 H   0  0  0  0  0
  -28.3929    9.9969   -5.2114 H   0  0  0  0  0
  -28.2326    9.9492   -6.9843 H   0  0  0  0  0
  -27.0235    9.1382   -5.9589 H   0  0  0  0  0
  -22.4062   10.7236   -7.4348 H   0  0  0  0  0
  -22.4612   10.4269  -10.4121 H   0  0  0  0  0
  -20.4929   11.8984  -10.5328 H   0  0  0  0  0
  -19.8840   13.0107   -8.5752 H   0  0  0  0  0
  -22.7249   12.8975  -10.7191 H   0  0  0  0  0
  -22.7909   13.1050   -8.9517 H   0  0  0  0  0
  -21.5972   14.0138   -9.9109 H   0  0  0  0  0
  -20.4461    9.4447  -11.3497 H   0  0  0  0  0
  -19.5579    7.1287   -9.9639 H   0  0  0  0  0
  -18.2583    8.7114  -12.1839 H   0  0  0  0  0
  -19.3335    7.2541  -12.3245 H   0  0  0  0  0
  -18.5064    5.0858  -11.3202 H   0  0  0  0  0
  -15.9770    8.4641  -12.0752 H   0  0  0  0  0
  -16.5129    3.6444  -11.0919 H   0  0  0  0  0
  -13.9788    7.0215  -11.8550 H   0  0  0  0  0
  -14.2508    4.6000  -11.3531 H   0  0  0  0  0
  -18.0094   10.3773  -10.3602 H   0  0  0  0  0
  -15.6661    9.6495   -8.9282 H   0  0  0  0  0
  -16.8982   12.4184   -8.9425 H   0  0  0  0  0
  -16.0327   11.7014  -10.3656 H   0  0  0  0  0
  -14.9315   12.3573   -7.6331 H   0  0  0  0  0
  -14.4918   13.0916   -9.2399 H   0  0  0  0  0
  -13.8419   11.2680  -10.6752 H   0  0  0  0  0
  -18.7813   10.8424   -7.6801 H   0  0  0  0  0
  -17.9888   11.3879   -5.0266 H   0  0  0  0  0
  -20.5508   10.1561   -6.0847 H   0  0  0  0  0
  -20.2109   11.9132   -5.7131 H   0  0  0  0  0
  -21.5432    8.7169   -3.9792 H   0  0  0  0  0
  -20.9985   11.6984   -0.9804 H   0  0  0  0  0
  -19.0440    8.3218   -6.5558 H   0  0  0  0  0
  -18.7078    6.8294   -4.0951 H   0  0  0  0  0
  -19.0712    4.8480   -5.5446 H   0  0  0  0  0
  -18.9262    5.9286   -6.9995 H   0  0  0  0  0
  -21.1807    6.6864   -7.9431 H   0  0  0  0  0
  -20.2815    5.4025   -3.0734 H   0  0  0  0  0
  -24.9041    6.7059   -4.5455 H   0  0  0  0  0
  -22.1835    5.4353   -1.4610 H   0  0  0  0  0
  -24.4581    6.0816   -2.1992 H   0  0  0  0  0
  -16.7710    7.1538   -7.0791 H   0  0  0  0  0
  -14.8342    5.2011   -6.3403 H   0  0  0  0  0
  -14.4066    7.6847   -8.0500 H   0  0  0  0  0
  -15.1587    6.1366   -8.6322 H   0  0  0  0  0
  -11.7617    7.7605   -7.9383 H   0  0  0  0  0
  -14.6558    3.6223   -8.7973 H   0  0  0  0  0
   -9.6521    3.3769   -9.2370 H   0  0  0  0  0
  -13.5325    1.4871   -9.4486 H   0  0  0  0  0
  -11.0515    1.3797   -9.6619 H   0  0  0  0  0
  -14.9544    8.6946   -5.6537 H   0  0  0  0  0
  -12.2841    8.8231   -4.6412 H   0  0  0  0  0
  -13.5989   10.8305   -5.2573 H   0  0  0  0  0
  -14.7455   10.4981   -3.9360 H   0  0  0  0  0
  -13.0631   10.9468   -3.5630 H   0  0  0  0  0
  -15.1590    7.4928   -3.1676 H   0  0  0  0  0
  -13.9268    7.8006   -0.5096 H   0  0  0  0  0
  -15.9212    6.4985    0.2625 H   0  0  0  0  0
  -16.4403    6.3790   -1.4514 H   0  0  0  0  0
  -16.7398    8.7151   -1.6296 H   0  0  0  0  0
  -15.8872    9.0032   -0.0422 H   0  0  0  0  0
  -19.8851    8.6311   -0.2188 H   0  0  0  0  0
  -18.8480    8.8337   -1.6347 H   0  0  0  0  0
  -13.2072    5.7379   -2.9967 H   0  0  0  0  0
  -12.8048    3.3675   -1.3340 H   0  0  0  0  0
  -11.5155    2.4982   -3.2070 H   0  0  0  0  0
  -11.6739    4.1429   -4.0221 H   0  0  0  0  0
  -14.0526    3.8000   -4.2365 H   0  0  0  0  0
  -12.5315    2.9382   -5.9780 H   0  0  0  0  0
  -12.4287    1.3832   -5.1164 H   0  0  0  0  0
  -13.9763    1.9089   -5.8231 H   0  0  0  0  0
  -13.6132    1.1161   -2.8853 H   0  0  0  0  0
  -14.4638    2.5177   -2.1901 H   0  0  0  0  0
  -15.1332    1.6874   -3.6162 H   0  0  0  0  0
  -11.1582    6.3745   -1.7530 H   0  0  0  0  0
   -8.8266    5.1274   -0.3996 H   0  0  0  0  0
   -7.3943    7.0243   -1.3036 H   0  0  0  0  0
   -8.2760    8.0584   -3.2027 H   0  0  0  0  0
   -7.2740    4.7881   -2.2300 H   0  0  0  0  0
   -8.6354    5.1510   -3.3191 H   0  0  0  0  0
   -7.0905    6.0169   -3.5058 H   0  0  0  0  0
   -7.8271    6.3525    1.2938 H   0  0  0  0  0
   -9.6607    8.2849    2.5795 H   0  0  0  0  0
   -6.9076    8.2372    0.8231 H   0  0  0  0  0
   -8.4476    6.4724    3.8425 H   0  0  0  0  0
   -8.1759    8.1239    4.4805 H   0  0  0  0  0
   -6.2170    6.9065    4.2833 H   0  0  0  0  0
  1  2  1  0  0  0
  2  3  1  0  0  0
  2  5  1  0  0  0
  3  4  2  0  0  0
  3  9  1  0  0  0
  5  6  1  0  0  0
  6  7  1  0  0  0
  6  8  1  0  0  0
  9 10  1  0  0  0
 10 11  1  0  0  0
 10 13  1  0  0  0
 11 12  2  0  0  0
 11 16  1  0  0  0
 13 14  1  0  0  0
 13 15  1  0  0  0
 16 17  1  0  0  0
 17 18  1  0  0  0
 17 20  1  0  0  0
 18 19  2  0  0  0
 18 27  1  0  0  0
 20 21  1  0  0  0
 21 22  4  0  0  0
 21 23  4  0  0  0
 22 24  4  0  0  0
 23 25  4  0  0  0
 24 26  4  0  0  0
 25 26  4  0  0  0
 27 28  1  0  0  0
 28 29  1  0  0  0
 28 31  1  0  0  0
 29 30  2  0  0  0
 29 36  1  0  0  0
 31 32  1  0  0  0
 32 33  1  0  0  0
 33 34  1  0  0  0
 33 35  2  0  0  0
 36 37  1  0  0  0
 37 38  1  0  0  0
 37 40  1  0  0  0
 38 39  2  0  0  0
 38 46  1  0  0  0
 40 41  1  0  0  0
 41 42  4  0  0  0
 41 43  4  0  0  0
 42 44  4  0  0  0
 43 45  4  0  0  0
 44 45  4  0  0  0
 46 47  1  0  0  0
 47 48  1  0  0  0
 47 50  1  0  0  0
 48 49  2  0  0  0
 48 60  1  0  0  0
 50 51  1  0  0  0
 51 52  4  0  0  0
 51 53  4  0  0  0
 52 54  4  0  0  0
 53 55  4  0  0  0
 53 56  4  0  0  0
 54 55  4  0  0  0
 55 57  4  0  0  0
 56 58  4  0  0  0
 57 59  4  0  0  0
 58 59  4  0  0  0
 60 61  1  0  0  0
 61 62  1  0  0  0
 61 64  1  0  0  0
 62 63  2  0  0  0
 62 74  1  0  0  0
 64 65  1  0  0  0
 65 66  4  0  0  0
 65 67  4  0  0  0
 66 68  4  0  0  0
 67 69  4  0  0  0
 67 70  4  0  0  0
 68 69  4  0  0  0
 69 71  4  0  0  0
 70 72  4  0  0  0
 71 73  4  0  0  0
 72 73  4  0  0  0
 74 75  1  0  0  0
 75 76  1  0  0  0
 75 78  1  0  0  0
 76 77  2  0  0  0
 76 79  1  0  0  0
 79 80  1  0  0  0
 80 81  1  0  0  0
 80 83  1  0  0  0
 81 82  2  0  0  0
 81 88  1  0  0  0
 83 84  1  0  0  0
 84 85  1  0  0  0
 85 86  2  0  0  0
 85 87  1  0  0  0
 88 89  1  0  0  0
 89 90  1  0  0  0
 89 92  1  0  0  0
 90 91  2  0  0  0
 90 96  1  0  0  0
 92 93  1  0  0  0
 93 94  1  0  0  0
 93 95  1  0  0  0
 96 97  1  0  0  0
 97 98  1  0  0  0
 97100  1  0  0  0
 98 99  2  0  0  0
 98103  1  0  0  0
100101  1  0  0  0
100102  1  0  0  0
103104  1  0  0  0
104105  1  0  0  0
104107  1  0  0  0
105106  1  0  0  0
105109  2  0  0  0
107108  1  0  0  0
  1110  1  0  0  0
  1111  1  0  0  0
  1112  1  0  0  0
  2113  1  0  0  0
  5114  1  0  0  0
  5115  1  0  0  0
  6116  1  0  0  0
  7117  1  0  0  0
  7118  1  0  0  0
  7119  1  0  0  0
  8120  1  0  0  0
  8121  1  0  0  0
  8122  1  0  0  0
  9123  1  0  0  0
 10124  1  0  0  0
 13125  1  0  0  0
 14126  1  0  0  0
 15127  1  0  0  0
 15128  1  0  0  0
 15129  1  0  0  0
 16130  1  0  0  0
 17131  1  0  0  0
 20132  1  0  0  0
 20133  1  0  0  0
 22134  1  0  0  0
 23135  1  0  0  0
 24136  1  0  0  0
 25137  1  0  0  0
 26138  1  0  0  0
 27139  1  0  0  0
 28140  1  0  0  0
 31141  1  0  0  0
 31142  1  0  0  0
 32143  1  0  0  0
 32144  1  0  0  0
 34145  1  0  0  0
 36146  1  0  0  0
 37147  1  0  0  0
 40148  1  0  0  0
 40149  1  0  0  0
 43150  1  0  0  0
 44151  1  0  0  0
 46152  1  0  0  0
 47153  1  0  0  0
 50154  1  0  0  0
 50155  1  0  0  0
 52156  1  0  0  0
 56157  1  0  0  0
 57158  1  0  0  0
 58159  1  0  0  0
 59160  1  0  0  0
 60161  1  0  0  0
 61162  1  0  0  0
 64163  1  0  0  0
 64164  1  0  0  0
 66165  1  0  0  0
 70166  1  0  0  0
 71167  1  0  0  0
 72168  1  0  0  0
 73169  1  0  0  0
 74170  1  0  0  0
 75171  1  0  0  0
 78172  1  0  0  0
 78173  1  0  0  0
 78174  1  0  0  0
 79175  1  0  0  0
 80176  1  0  0  0
 83177  1  0  0  0
 83178  1  0  0  0
 84179  1  0  0  0
 84180  1  0  0  0
 87181  1  0  0  0
 87182  1  0  0  0
 88183  1  0  0  0
 89184  1  0  0  0
 92185  1  0  0  0
 92186  1  0  0  0
 93187  1  0  0  0
 94188  1  0  0  0
 94189  1  0  0  0
 94190  1  0  0  0
 95191  1  0  0  0
 95192  1  0  0  0
 95193  1  0  0  0
 96194  1  0  0  0
 97195  1  0  0  0
100196  1  0  0  0
101197  1  0  0  0
102198  1  0  0  0
102199  1  0  0  0
102200  1  0  0  0
103201  1  0  0  0
104202  1  0  0  0
106203  1  0  0  0
107204  1  0  0  0
107205  1  0  0  0
108206  1  0  0  0
M  END
$$$$
