5y5w_ligand
  -I-interpret- 

113113  0  0  0  0  0  0  0  0999 V2000
   -2.1440   10.8720  -37.0360 N   0  3  0  0  0
   -3.4240   10.0860  -37.0390 C   0  0  0  0  0
   -3.7260    9.3990  -35.6880 C   0  0  0  0  0
   -4.2640    8.2840  -35.6510 O   0  0  0  0  0
   -3.4290    9.0520  -38.1890 C   0  0  0  0  0
   -4.8090    8.8410  -38.8000 C   0  0  0  0  0
   -4.9480    7.4920  -39.4760 C   0  0  0  0  0
   -4.9320    6.3990  -38.5110 N   0  0  0  0  0
   -5.1090    5.1110  -38.8070 C   0  0  0  0  0
   -5.3260    4.7140  -40.0640 N   0  0  0  0  0
   -5.0690    4.2070  -37.8300 N   0  0  0  0  0
   -3.4110   10.0930  -34.5910 N   0  0  0  0  0
   -3.6190    9.5990  -33.2270 C   0  0  0  0  0
   -4.8430   10.2210  -32.6080 C   0  0  0  0  0
   -4.9730   11.4500  -32.5580 O   0  0  0  0  0
   -2.4520    9.9860  -32.3310 C   0  0  0  0  0
   -1.2740    9.0860  -32.4460 C   0  0  0  0  0
   -1.3710    7.7240  -32.3220 N   0  0  0  0  0
    0.0310    9.3610  -32.6410 C   0  0  0  0  0
   -0.1750    7.1930  -32.4670 C   0  0  0  0  0
    0.6940    8.1670  -32.6530 N   0  0  0  0  0
   -5.7090    9.3720  -32.0830 N   0  0  0  0  0
   -6.8950    9.8480  -31.4170 C   0  0  0  0  0
   -6.5820   10.1050  -29.9510 C   0  0  0  0  0
   -5.9040    9.3180  -29.3160 O   0  0  0  0  0
   -8.0370    8.8500  -31.5860 C   0  0  0  0  0
   -8.7470    8.9590  -32.9350 C   0  0  0  0  0
   -8.9080    7.6010  -33.5960 C   0  0  0  0  0
   -9.4300    6.5920  -32.6700 N   0  0  0  0  0
   -9.6660    5.3160  -32.9750 C   0  0  0  0  0
   -9.4480    4.8400  -34.2030 N   0  0  0  0  0
  -10.1340    4.5070  -32.0340 N   0  0  0  0  0
   -7.0550   11.2380  -29.4450 N   0  0  0  0  0
   -7.0880   11.5070  -28.0170 C   0  0  0  0  0
   -7.1250   13.0070  -27.7650 C   0  0  0  0  0
   -5.7030   13.5690  -27.8210 C   0  0  0  0  0
   -5.0620   13.7490  -26.4380 C   0  0  0  0  0
   -3.7920   12.9200  -26.2030 C   0  0  0  0  0
   -2.6070   13.6360  -25.6820 N   0  3  0  0  0
   -8.2880   10.7960  -27.4330 C   0  0  0  0  0
   -9.3430   10.6810  -28.0660 O   0  0  0  0  0
   -2.8010   14.0900  -24.3070 C   0  0  0  0  0
   -2.2140   14.7950  -26.4630 C   0  0  0  0  0
   -1.5000   12.6960  -25.6940 C   0  0  0  0  0
   -8.1060   10.2790  -26.2200 N   0  0  0  0  0
   -9.0670    9.3900  -25.5620 C   0  0  0  0  0
  -10.4170   10.0510  -25.2520 C   0  0  0  0  0
  -10.4860   11.1870  -24.7710 O   0  0  0  0  0
   -8.4380    8.7670  -24.2770 C   0  0  0  0  0
   -8.2780    9.7890  -23.1480 C   0  0  0  0  0
   -9.2320    7.5560  -23.8070 C   0  0  0  0  0
  -11.4860    9.4720  -25.4720 O   0  0  0  0  0
   -2.1624   11.5465  -36.2711 H   0  0  0  0  0
   -1.3563   10.2361  -36.9114 H   0  0  0  0  0
   -2.0472   11.3652  -37.9236 H   0  0  0  0  0
   -4.2241   10.8082  -37.2013 H   0  0  0  0  0
   -3.1007    8.0978  -37.7769 H   0  0  0  0  0
   -2.7738    9.4283  -38.9746 H   0  0  0  0  0
   -4.9624    9.6117  -39.5554 H   0  0  0  0  0
   -5.5427    8.8898  -37.9954 H   0  0  0  0  0
   -4.1064    7.3611  -40.1561 H   0  0  0  0  0
   -5.9016    7.4696  -40.0035 H   0  0  0  0  0
   -4.7729    6.6386  -37.5324 H   0  0  0  0  0
   -5.4597    3.7241  -40.2703 H   0  0  0  0  0
   -5.3579    5.4008  -40.8174 H   0  0  0  0  0
   -4.9044    4.5029  -36.8678 H   0  0  0  0  0
   -3.0022   11.0200  -34.7095 H   0  0  0  0  0
   -3.7228    8.5165  -33.3016 H   0  0  0  0  0
   -2.8032    9.9276  -31.3008 H   0  0  0  0  0
   -2.1283   10.9814  -32.6350 H   0  0  0  0  0
    0.4735   10.3493  -32.7656 H   0  0  0  0  0
    0.0574    6.1285  -32.4382 H   0  0  0  0  0
   -5.5361    8.3690  -32.1499 H   0  0  0  0  0
   -7.2179   10.7867  -31.8672 H   0  0  0  0  0
   -8.7733    9.0602  -30.8103 H   0  0  0  0  0
   -7.6100    7.8493  -31.5204 H   0  0  0  0  0
   -8.1462    9.5906  -33.5894 H   0  0  0  0  0
   -9.7386    9.3797  -32.7683 H   0  0  0  0  0
   -7.9266    7.2719  -33.9376 H   0  0  0  0  0
   -9.6167    7.7059  -34.4175 H   0  0  0  0  0
   -9.6288    6.8903  -31.7150 H   0  0  0  0  0
   -9.6412    3.8605  -34.4121 H   0  0  0  0  0
   -9.0882    5.4558  -34.9322 H   0  0  0  0  0
  -10.3077    4.8642  -31.0945 H   0  0  0  0  0
   -7.4098   11.9488  -30.0848 H   0  0  0  0  0
   -6.1878   11.1327  -27.5295 H   0  0  0  0  0
   -7.5533   13.1996  -26.7813 H   0  0  0  0  0
   -7.7363   13.4886  -28.5282 H   0  0  0  0  0
   -5.7572   14.5525  -28.2879 H   0  0  0  0  0
   -5.0910   12.8581  -28.3761 H   0  0  0  0  0
   -5.7962   13.4173  -25.7038 H   0  0  0  0  0
   -4.7746   14.7973  -26.3570 H   0  0  0  0  0
   -3.5015   12.5381  -27.1817 H   0  0  0  0  0
   -4.0537   12.1855  -25.4413 H   0  0  0  0  0
   -3.6535   14.7680  -24.2665 H   0  0  0  0  0
   -2.9886   13.2296  -23.6647 H   0  0  0  0  0
   -1.9052   14.6100  -23.9676 H   0  0  0  0  0
   -1.9754   14.4826  -27.4796 H   0  0  0  0  0
   -3.0347   15.5120  -26.4850 H   0  0  0  0  0
   -1.3378   15.2576  -26.0086 H   0  0  0  0  0
   -1.7429   11.8425  -25.0610 H   0  0  0  0  0
   -1.3256   12.3551  -26.7145 H   0  0  0  0  0
   -0.6037   13.1874  -25.3155 H   0  0  0  0  0
   -7.2488   10.5151  -25.7201 H   0  0  0  0  0
   -9.2896    8.5981  -26.2772 H   0  0  0  0  0
   -9.5999   11.5342  -24.6447 H   0  0  0  0  0
   -7.4359    8.4356  -24.5489 H   0  0  0  0  0
   -7.6288   10.5985  -23.4817 H   0  0  0  0  0
   -9.2556   10.1915  -22.8827 H   0  0  0  0  0
   -7.8361    9.3020  -22.2787 H   0  0  0  0  0
  -10.2549    7.8585  -23.5827 H   0  0  0  0  0
   -9.2392    6.8006  -24.5928 H   0  0  0  0  0
   -8.7684    7.1449  -22.9102 H   0  0  0  0  0
  1  2  1  0  0  0
  2  3  1  0  0  0
  2  5  1  0  0  0
  3  4  2  0  0  0
  3 12  1  0  0  0
  5  6  1  0  0  0
  6  7  1  0  0  0
  7  8  1  0  0  0
  8  9  1  0  0  0
  9 10  1  0  0  0
  9 11  2  0  0  0
 12 13  1  0  0  0
 13 14  1  0  0  0
 13 16  1  0  0  0
 14 15  2  0  0  0
 14 22  1  0  0  0
 16 17  1  0  0  0
 17 18  4  0  0  0
 17 19  4  0  0  0
 18 20  4  0  0  0
 19 21  4  0  0  0
 20 21  4  0  0  0
 22 23  1  0  0  0
 23 24  1  0  0  0
 23 26  1  0  0  0
 24 25  2  0  0  0
 24 33  1  0  0  0
 26 27  1  0  0  0
 27 28  1  0  0  0
 28 29  1  0  0  0
 29 30  1  0  0  0
 30 31  1  0  0  0
 30 32  2  0  0  0
 33 34  1  0  0  0
 34 35  1  0  0  0
 34 40  1  0  0  0
 35 36  1  0  0  0
 36 37  1  0  0  0
 37 38  1  0  0  0
 38 39  1  0  0  0
 39 42  1  0  0  0
 39 43  1  0  0  0
 39 44  1  0  0  0
 40 41  2  0  0  0
 40 45  1  0  0  0
 45 46  1  0  0  0
 46 47  1  0  0  0
 46 49  1  0  0  0
 47 48  1  0  0  0
 47 52  2  0  0  0
 49 50  1  0  0  0
 49 51  1  0  0  0
  1 53  1  0  0  0
  1 54  1  0  0  0
  1 55  1  0  0  0
  2 56  1  0  0  0
  5 57  1  0  0  0
  5 58  1  0  0  0
  6 59  1  0  0  0
  6 60  1  0  0  0
  7 61  1  0  0  0
  7 62  1  0  0  0
  8 63  1  0  0  0
 10 64  1  0  0  0
 10 65  1  0  0  0
 11 66  1  0  0  0
 12 67  1  0  0  0
 13 68  1  0  0  0
 16 69  1  0  0  0
 16 70  1  0  0  0
 19 71  1  0  0  0
 20 72  1  0  0  0
 22 73  1  0  0  0
 23 74  1  0  0  0
 26 75  1  0  0  0
 26 76  1  0  0  0
 27 77  1  0  0  0
 27 78  1  0  0  0
 28 79  1  0  0  0
 28 80  1  0  0  0
 29 81  1  0  0  0
 31 82  1  0  0  0
 31 83  1  0  0  0
 32 84  1  0  0  0
 33 85  1  0  0  0
 34 86  1  0  0  0
 35 87  1  0  0  0
 35 88  1  0  0  0
 36 89  1  0  0  0
 36 90  1  0  0  0
 37 91  1  0  0  0
 37 92  1  0  0  0
 38 93  1  0  0  0
 38 94  1  0  0  0
 42 95  1  0  0  0
 42 96  1  0  0  0
 42 97  1  0  0  0
 43 98  1  0  0  0
 43 99  1  0  0  0
 43100  1  0  0  0
 44101  1  0  0  0
 44102  1  0  0  0
 44103  1  0  0  0
 45104  1  0  0  0
 46105  1  0  0  0
 48106  1  0  0  0
 49107  1  0  0  0
 50108  1  0  0  0
 50109  1  0  0  0
 50110  1  0  0  0
 51111  1  0  0  0
 51112  1  0  0  0
 51113  1  0  0  0
M  END
$$$$
