### 
### Created by X-TOOL on Fri Nov  2 10:26:32 2018
### 

@<TRIPOS>MOLECULE
5y5w_ligand
  115   115     1     0     0
SMALL
GAST_HUCK


@<TRIPOS>ATOM
      1 N          -2.1440   10.8720  -37.0360 N.4       1 ARG         0.2379
      2 CA         -3.4240   10.0860  -37.0390 C.3       1 ARG         0.0651
      3 C          -3.7260    9.3990  -35.6880 C.2       1 ARG         0.2268
      4 O          -4.2640    8.2840  -35.6510 O.2       1 ARG        -0.3907
      5 CB         -3.4290    9.0520  -38.1890 C.3       1 ARG         0.0110
      6 CG         -4.8090    8.8410  -38.8000 C.3       1 ARG        -0.0125
      7 CD         -4.9480    7.4920  -39.4760 C.3       1 ARG         0.0629
      8 NE         -4.9320    6.3990  -38.5110 N.pl3     1 ARG        -0.2723
      9 CZ         -5.1090    5.1110  -38.8070 C.cat     1 ARG         0.2882
     10 NH1        -5.3260    4.7140  -40.0640 N.pl3     1 ARG        -0.2849
     11 NH2        -5.0690    4.2070  -37.8300 N.pl3     1 ARG        -0.2849
     12 N          -3.4110   10.0930  -34.5910 N.am      1 ARG        -0.2598
     13 CA         -3.6190    9.5990  -33.2270 C.3       1 ARG         0.1370
     14 C          -4.8430   10.2210  -32.6080 C.2       1 ARG         0.2054
     15 O          -4.9730   11.4500  -32.5580 O.2       1 ARG        -0.3942
     16 CB         -2.4520    9.9860  -32.3310 C.3       1 ARG         0.0145
     17 CG         -1.2740    9.0860  -32.4460 C.2       1 ARG        -0.0027
     18 ND1        -1.3710    7.7240  -32.3220 N.2       1 ARG        -0.3252
     19 CD2         0.0310    9.3610  -32.6410 C.2       1 ARG         0.0291
     20 CE1        -0.1750    7.1930  -32.4670 C.2       1 ARG         0.0907
     21 NE2         0.6940    8.1670  -32.6530 N.pl3     1 ARG        -0.2752
     22 N          -5.7090    9.3720  -32.0830 N.am      1 ARG        -0.2636
     23 CA         -6.8950    9.8480  -31.4170 C.3       1 ARG         0.1311
     24 C          -6.5820   10.1050  -29.9510 C.2       1 ARG         0.2039
     25 O          -5.9040    9.3180  -29.3160 O.2       1 ARG        -0.3944
     26 CB         -8.0370    8.8500  -31.5860 C.3       1 ARG        -0.0092
     27 CG         -8.7470    8.9590  -32.9350 C.3       1 ARG        -0.0156
     28 CD         -8.9080    7.6010  -33.5960 C.3       1 ARG         0.0627
     29 NE         -9.4300    6.5920  -32.6700 N.pl3     1 ARG        -0.2723
     30 CZ         -9.6660    5.3160  -32.9750 C.cat     1 ARG         0.2882
     31 NH1        -9.4480    4.8400  -34.2030 N.pl3     1 ARG        -0.2849
     32 NH2       -10.1340    4.5070  -32.0340 N.pl3     1 ARG        -0.2849
     33 N          -7.0550   11.2380  -29.4450 N.am      1 ARG        -0.2637
     34 CA         -7.0880   11.5070  -28.0170 C.3       1 ARG         0.1309
     35 CB         -7.1250   13.0070  -27.7650 C.3       1 ARG        -0.0122
     36 CG         -5.7030   13.5690  -27.8210 C.3       1 ARG        -0.0440
     37 CD         -5.0620   13.7490  -26.4380 C.3       1 ARG        -0.0123
     38 CE         -3.7920   12.9200  -26.2030 C.3       1 ARG        -0.0309
     39 NZ         -2.6070   13.6360  -25.6820 N.4       1 ARG         0.2369
     40 C          -8.2880   10.7960  -27.4330 C.2       1 ARG         0.2033
     41 O          -9.3430   10.6810  -28.0660 O.2       1 ARG        -0.3944
     42 CM1        -2.8010   14.0900  -24.3070 C.3       1 ARG        -0.0418
     43 CM2        -2.2140   14.7950  -26.4630 C.3       1 ARG        -0.0418
     44 CM3        -1.5000   12.6960  -25.6940 C.3       1 ARG        -0.0418
     45 N          -8.1060   10.2790  -26.2200 N.am      1 ARG        -0.2692
     46 CA         -9.0670    9.3900  -25.5620 C.3       1 ARG         0.0967
     47 C         -10.4170   10.0510  -25.2520 C.2       1 ARG         0.0603
     48 O         -10.4860   11.1870  -24.7710 O.co2     1 ARG        -0.5666
     49 CB         -8.4380    8.7670  -24.2770 C.3       1 ARG        -0.0118
     50 CG1        -8.2780    9.7890  -23.1480 C.3       1 ARG        -0.0590
     51 CG2        -9.2320    7.5560  -23.8070 C.3       1 ARG        -0.0590
     52 OXT       -11.4860    9.4720  -25.4720 O.co2     1 ARG        -0.5666
     53 H1         -2.0060   11.2928  -37.9415 H         1 ARG         0.2015
     54 H2         -1.3724   10.2569  -36.8303 H         1 ARG         0.2015
     55 H3         -2.1946   11.5938  -36.3343 H         1 ARG         0.2015
     56 H4         -4.2401   10.7988  -37.2287 H         1 ARG         0.1098
     57 H5         -3.0700    8.0896  -37.7955 H         1 ARG         0.0347
     58 H6         -2.7473    9.4029  -38.9778 H         1 ARG         0.0347
     59 H7         -4.9878    9.6289  -39.5464 H         1 ARG         0.0302
     60 H8         -5.5624    8.9141  -38.0019 H         1 ARG         0.0302
     61 H9         -4.1129    7.3583  -40.1793 H         1 ARG         0.0689
     62 H10        -5.8995    7.4663  -40.0274 H         1 ARG         0.0689
     63 H11        -4.7713    6.6409  -37.5228 H         1 ARG         0.2642
     64 H12        -5.4604    3.7143  -40.2724 H         1 ARG         0.2615
     65 H13        -5.3589    5.4076  -40.8247 H         1 ARG         0.2615
     66 H14        -4.9021    4.5057  -36.8585 H         1 ARG         0.2615
     67 H15        -5.2049    3.2091  -38.0458 H         1 ARG         0.2615
     68 H16        -3.0102   11.0018  -34.7071 H         1 ARG         0.1886
     69 H17        -3.7265    8.5046  -33.2540 H         1 ARG         0.0817
     70 H18        -2.7980    9.9704  -31.2870 H         1 ARG         0.0420
     71 H19        -2.1353   11.0052  -32.5971 H         1 ARG         0.0420
     72 H20         0.4731   10.3484  -32.7654 H         1 ARG         0.0729
     73 H21         0.0572    6.1294  -32.4382 H         1 ARG         0.1199
     74 H22         1.7083    8.0469  -32.7858 H         1 ARG         0.2361
     75 H23        -5.5395    8.3887  -32.1486 H         1 ARG         0.1883
     76 H24        -7.1997   10.7990  -31.8783 H         1 ARG         0.0800
     77 H25        -8.7745    9.0265  -30.7892 H         1 ARG         0.0313
     78 H26        -7.6283    7.8334  -31.4888 H         1 ARG         0.0313
     79 H27        -8.1570    9.6100  -33.5969 H         1 ARG         0.0301
     80 H28        -9.7426    9.4000  -32.7793 H         1 ARG         0.0301
     81 H29        -7.9267    7.2685  -33.9655 H         1 ARG         0.0689
     82 H30        -9.6043    7.6992  -34.4418 H         1 ARG         0.0689
     83 H31        -9.6307    6.8932  -31.7057 H         1 ARG         0.2642
     84 H32        -9.6385    3.8498  -34.4128 H         1 ARG         0.2615
     85 H33        -9.0893    5.4630  -34.9407 H         1 ARG         0.2615
     86 H34       -10.3049    4.8665  -31.0840 H         1 ARG         0.2615
     87 H35       -10.3266    3.5192  -32.2532 H         1 ARG         0.2615
     88 H36        -7.4028   11.9348  -30.0723 H         1 ARG         0.1883
     89 H37        -6.1771   11.1013  -27.5525 H         1 ARG         0.0800
     90 H38        -7.5572   13.2015  -26.7724 H         1 ARG         0.0312
     91 H39        -7.7419   13.4931  -28.5352 H         1 ARG         0.0312
     92 H40        -5.7350   14.5486  -28.3203 H         1 ARG         0.0269
     93 H41        -5.0785   12.8789  -28.4072 H         1 ARG         0.0269
     94 H42        -5.8032   13.4620  -25.6776 H         1 ARG         0.0317
     95 H43        -4.8042   14.8114  -26.3162 H         1 ARG         0.0317
     96 H44        -3.5092   12.4671  -27.1647 H         1 ARG         0.0815
     97 H45        -4.0425   12.1265  -25.4835 H         1 ARG         0.0815
     98 H46        -1.8975   14.6150  -23.9633 H         1 ARG         0.0778
     99 H47        -2.9903   13.2225  -23.6577 H         1 ARG         0.0778
    100 H48        -3.6611   14.7744  -24.2647 H         1 ARG         0.0778
    101 H49        -2.0571   14.4957  -27.5098 H         1 ARG         0.0778
    102 H50        -1.2804   15.2114  -26.0569 H         1 ARG         0.0778
    103 H51        -3.0067   15.5560  -26.4142 H         1 ARG         0.0778
    104 H52        -1.7694   11.8048  -25.1083 H         1 ARG         0.0778
    105 H53        -0.6114   13.1703  -25.2520 H         1 ARG         0.0778
    106 H54        -1.2808   12.4009  -26.7307 H         1 ARG         0.0778
    107 H55        -7.2656   10.5105  -25.7299 H         1 ARG         0.1875
    108 H56        -9.2711    8.5663  -26.2619 H         1 ARG         0.0729
    109 H57        -7.4301    8.4175  -24.5452 H         1 ARG         0.0336
    110 H58        -7.8321    9.2987  -22.2701 H         1 ARG         0.0234
    111 H59        -9.2640   10.1959  -22.8793 H         1 ARG         0.0234
    112 H60        -7.6229   10.6065  -23.4835 H         1 ARG         0.0234
    113 H61        -9.3320    6.8392  -24.6353 H         1 ARG         0.0234
    114 H62       -10.2311    7.8778  -23.4779 H         1 ARG         0.0234
    115 H63        -8.7066    7.0760  -22.9682 H         1 ARG         0.0234
@<TRIPOS>BOND
     1    1    2 1  
     2    2    3 1  
     3    2    5 1  
     4    3    4 2  
     5    3   12 am 
     6    5    6 1  
     7    6    7 1  
     8    7    8 1  
     9    8    9 ar 
    10    9   10 ar 
    11    9   11 ar 
    12   12   13 1  
    13   13   14 1  
    14   13   16 1  
    15   14   15 2  
    16   14   22 am 
    17   16   17 1  
    18   17   18 1  
    19   17   19 2  
    20   18   20 2  
    21   19   21 1  
    22   20   21 1  
    23   22   23 1  
    24   23   24 1  
    25   23   26 1  
    26   24   25 2  
    27   24   33 am 
    28   26   27 1  
    29   27   28 1  
    30   28   29 1  
    31   29   30 ar 
    32   30   31 ar 
    33   30   32 ar 
    34   33   34 1  
    35   34   35 1  
    36   34   40 1  
    37   35   36 1  
    38   36   37 1  
    39   37   38 1  
    40   38   39 1  
    41   39   42 1  
    42   39   43 1  
    43   39   44 1  
    44   40   41 2  
    45   40   45 am 
    46   45   46 1  
    47   46   47 1  
    48   46   49 1  
    49   47   48 ar 
    50   47   52 ar 
    51   49   50 1  
    52   49   51 1  
    53    1   53 1  
    54    1   54 1  
    55    1   55 1  
    56    2   56 1  
    57    5   57 1  
    58    5   58 1  
    59    6   59 1  
    60    6   60 1  
    61    7   61 1  
    62    7   62 1  
    63    8   63 1  
    64   10   64 1  
    65   10   65 1  
    66   11   66 1  
    67   11   67 1  
    68   12   68 1  
    69   13   69 1  
    70   16   70 1  
    71   16   71 1  
    72   19   72 1  
    73   20   73 1  
    74   21   74 1  
    75   22   75 1  
    76   23   76 1  
    77   26   77 1  
    78   26   78 1  
    79   27   79 1  
    80   27   80 1  
    81   28   81 1  
    82   28   82 1  
    83   29   83 1  
    84   31   84 1  
    85   31   85 1  
    86   32   86 1  
    87   32   87 1  
    88   33   88 1  
    89   34   89 1  
    90   35   90 1  
    91   35   91 1  
    92   36   92 1  
    93   36   93 1  
    94   37   94 1  
    95   37   95 1  
    96   38   96 1  
    97   38   97 1  
    98   42   98 1  
    99   42   99 1  
   100   42  100 1  
   101   43  101 1  
   102   43  102 1  
   103   43  103 1  
   104   44  104 1  
   105   44  105 1  
   106   44  106 1  
   107   45  107 1  
   108   46  108 1  
   109   49  109 1  
   110   50  110 1  
   111   50  111 1  
   112   50  112 1  
   113   51  113 1  
   114   51  114 1  
   115   51  115 1  
@<TRIPOS>SUBSTRUCTURE
     1 ARG         1

