4mqu_ligand
  -I-interpret- 

 55 57  0  0  0  0  0  0  0  0999 V2000
   44.6490  -20.8770  -15.5030 C   0  0  0  0  0
   45.3420  -19.6930  -15.7450 C   0  0  0  0  0
   45.0860  -18.5850  -14.9480 C   0  0  0  0  0
   45.7390  -17.4710  -15.1680 N   0  0  0  0  0
   44.1820  -18.6340  -13.9390 N   0  0  0  0  0
   43.5040  -19.7580  -13.6840 C   0  0  0  0  0
   43.7170  -20.9150  -14.4610 C   0  0  0  0  0
   42.7890  -22.3300  -14.1680 S   0  0  0  0  0
   43.5320  -23.5390  -14.6350 O   0  0  0  0  0
   42.4450  -22.3780  -12.7280 O   0  0  0  0  0
   41.3910  -22.2030  -14.9480 N   0  0  0  0  0
   40.8130  -20.8560  -14.7460 C   0  0  0  0  0
   39.3850  -20.7470  -15.3830 C   0  0  0  0  0
   38.5120  -21.7560  -14.7390 C   0  0  0  0  0
   37.8150  -22.5870  -14.2360 C   0  0  0  0  0
   36.9700  -23.6170  -13.6350 C   0  0  0  0  0
   41.6320  -22.4280  -16.3730 C   0  0  0  0  0
   40.3230  -22.3530  -17.1520 C   0  0  0  0  0
   39.4220  -21.2450  -16.7910 N   0  0  0  0  0
   38.4060  -20.9920  -17.6790 C   0  0  0  0  0
   37.2650  -20.3540  -17.2750 C   0  0  0  0  0
   36.2370  -20.1120  -18.1830 C   0  0  0  0  0
   38.4780  -21.4020  -19.0030 C   0  0  0  0  0
   37.4630  -21.1300  -19.9090 C   0  0  0  0  0
   36.3070  -20.4970  -19.5010 C   0  0  0  0  0
   35.1280  -20.2280  -20.4460 C   0  0  0  0  0
   34.7430  -21.5250  -21.1680 C   0  0  0  0  0
   33.6850  -21.3160  -21.9530 F   0  0  0  0  0
   34.4290  -22.4880  -20.2790 F   0  0  0  0  0
   35.7850  -21.9150  -21.8960 F   0  0  0  0  0
   35.4130  -19.0930  -21.4320 C   0  0  0  0  0
   36.4390  -19.3680  -22.2310 F   0  0  0  0  0
   35.6320  -17.9700  -20.7720 F   0  0  0  0  0
   34.3520  -18.8930  -22.1990 F   0  0  0  0  0
   34.0150  -19.9170  -19.6560 O   0  0  0  0  0
   44.8303  -21.7598  -16.1161 H   0  0  0  0  0
   46.0755  -19.6370  -16.5493 H   0  0  0  0  0
   46.4278  -17.4233  -15.9188 H   0  0  0  0  0
   45.5587  -16.6512  -14.5885 H   0  0  0  0  0
   42.7808  -19.7799  -12.8688 H   0  0  0  0  0
   41.4633  -20.1242  -15.2252 H   0  0  0  0  0
   40.7300  -20.6713  -13.6750 H   0  0  0  0  0
   39.0544  -19.7129  -15.2863 H   0  0  0  0  0
   36.2750  -23.9974  -14.3836 H   0  0  0  0  0
   37.5958  -24.4319  -13.2711 H   0  0  0  0  0
   36.4112  -23.1872  -12.8037 H   0  0  0  0  0
   42.0688  -23.4176  -16.5072 H   0  0  0  0  0
   42.3104  -21.6597  -16.7439 H   0  0  0  0  0
   39.7816  -23.2731  -16.9318 H   0  0  0  0  0
   40.5956  -22.1992  -18.1961 H   0  0  0  0  0
   37.1601  -20.0338  -16.2384 H   0  0  0  0  0
   35.3416  -19.5970  -17.8349 H   0  0  0  0  0
   39.3560  -21.9528  -19.3403 H   0  0  0  0  0
   37.5801  -21.4193  -20.9534 H   0  0  0  0  0
   33.2600  -19.7434  -20.2230 H   0  0  0  0  0
  1  2  4  0  0  0
  1  7  4  0  0  0
  2  3  4  0  0  0
  3  4  1  0  0  0
  3  5  4  0  0  0
  5  6  4  0  0  0
  6  7  4  0  0  0
  7  8  1  0  0  0
  8  9  2  0  0  0
  8 10  2  0  0  0
  8 11  1  0  0  0
 11 12  1  0  0  0
 11 17  1  0  0  0
 12 13  1  0  0  0
 13 14  1  0  0  0
 13 19  1  0  0  0
 14 15  3  0  0  0
 15 16  1  0  0  0
 17 18  1  0  0  0
 18 19  1  0  0  0
 19 20  1  0  0  0
 20 21  4  0  0  0
 20 23  4  0  0  0
 21 22  4  0  0  0
 22 25  4  0  0  0
 23 24  4  0  0  0
 24 25  4  0  0  0
 25 26  1  0  0  0
 26 27  1  0  0  0
 26 31  1  0  0  0
 26 35  1  0  0  0
 27 28  1  0  0  0
 27 29  1  0  0  0
 27 30  1  0  0  0
 31 32  1  0  0  0
 31 33  1  0  0  0
 31 34  1  0  0  0
  1 36  1  0  0  0
  2 37  1  0  0  0
  4 38  1  0  0  0
  4 39  1  0  0  0
  6 40  1  0  0  0
 12 41  1  0  0  0
 12 42  1  0  0  0
 13 43  1  0  0  0
 16 44  1  0  0  0
 16 45  1  0  0  0
 16 46  1  0  0  0
 17 47  1  0  0  0
 17 48  1  0  0  0
 18 49  1  0  0  0
 18 50  1  0  0  0
 21 51  1  0  0  0
 22 52  1  0  0  0
 23 53  1  0  0  0
 24 54  1  0  0  0
 35 55  1  0  0  0
M  END
$$$$
