4z2g_ligand
  -I-interpret- 

109110  0  0  0  0  0  0  0  0999 V2000
  -20.7580    3.5640  -31.5190 N   0  0  0  0  0
  -24.3480    5.4910  -33.3780 C   0  0  0  0  0
  -18.6840   -1.8170  -29.8880 N   0  0  0  0  0
  -25.1990    3.1490  -32.6670 C   0  0  0  0  0
  -24.9270    1.6450  -32.9280 C   0  0  0  0  0
  -25.9070    1.0500  -33.9480 C   0  0  0  0  0
  -20.5400   -6.2790  -30.9110 C   0  0  0  0  0
  -20.9570   -5.0910  -30.1890 N   0  0  0  0  0
  -20.0430   -4.1390  -30.0380 C   0  0  0  0  0
  -18.9040   -4.2680  -30.5790 O   0  0  0  0  0
  -20.4640   -3.0950  -29.3120 N   0  0  0  0  0
  -19.7920   -1.9590  -29.2610 C   0  0  0  0  0
  -20.2830   -0.9500  -28.5390 N   0  0  0  0  0
  -19.0070    2.2950  -30.3420 C   0  0  0  0  0
  -19.4640    2.8880  -31.6910 C   0  0  0  0  0
  -21.6950    3.5870  -32.4550 C   0  0  0  0  0
  -21.4890    3.2500  -33.5900 O   0  0  0  0  0
  -23.0310    3.8980  -32.0500 O   0  0  0  0  0
  -24.0040    3.9930  -33.0950 C   0  0  0  0  0
  -25.6130    3.5310  -31.2420 C   0  0  0  0  0
  -23.2570    6.0940  -34.2690 C   0  0  0  0  0
  -25.6900    5.7250  -34.0430 C   0  0  0  0  0
  -25.7810    5.7310  -35.2370 O   0  0  0  0  0
  -26.9090    5.9080  -33.2700 O   0  0  0  0  0
  -28.0610    6.4430  -33.9310 C   0  0  0  0  0
  -28.3490    7.8470  -33.3830 C   0  0  0  0  0
  -27.2010    8.7810  -33.7270 C   0  0  0  0  0
  -29.2320    5.4990  -33.6910 C   0  0  0  0  0
  -30.4310    6.1090  -34.1430 O   0  0  0  0  0
  -29.5030    5.3190  -32.1930 C   0  0  0  0  0
  -28.8380    4.2170  -34.5110 C   0  0  0  0  0
  -29.4730    2.8870  -34.0840 C   0  0  0  0  0
  -30.9870    2.9130  -33.9180 C   0  0  0  0  0
  -28.9890    4.3580  -35.9330 O   0  0  0  0  0
  -28.3260    3.3720  -36.7380 C   0  0  0  0  0
  -27.0400    3.9070  -37.3520 C   0  0  0  0  0
  -29.2780    3.0140  -37.8780 C   0  0  0  0  0
  -27.9990    2.1930  -35.9750 O   0  0  0  0  0
  -29.0060    1.7600  -35.0310 C   0  0  0  0  0
  -28.4590    0.5220  -34.2630 C   0  0  0  0  0
  -29.5990   -0.1860  -33.5050 C   0  0  0  0  0
  -27.2820    0.8310  -33.3050 C   0  0  0  0  0
  -25.9780    1.9130  -35.0910 O   0  0  0  0  0
  -25.3340   -0.2830  -34.4040 C   0  0  0  0  0
  -24.9870    0.8470  -31.7200 O   0  0  0  0  0
  -23.7550    0.8960  -31.0250 C   0  0  0  0  0
  -22.8430   -0.0540  -31.6160 C   0  0  0  0  0
  -22.0350   -0.8840  -32.1250 C   0  0  0  0  0
  -19.4050    0.8350  -30.1110 C   0  0  0  0  0
  -19.6090    0.3670  -28.6260 C   0  0  0  0  0
  -20.9435    4.0387  -30.6354 H   0  0  0  0  0
  -24.4026    5.9695  -32.4002 H   0  0  0  0  0
  -18.3069   -2.5886  -30.4382 H   0  0  0  0  0
  -26.0758    3.3615  -33.2787 H   0  0  0  0  0
  -23.9136    1.6076  -33.3276 H   0  0  0  0  0
  -20.2294   -6.0003  -31.9180 H   0  0  0  0  0
  -19.7054   -6.7461  -30.3882 H   0  0  0  0  0
  -21.3731   -6.9796  -30.9672 H   0  0  0  0  0
  -21.9017   -4.9924  -29.8173 H   0  0  0  0  0
  -21.1003   -1.0816  -27.9432 H   0  0  0  0  0
  -19.4902    2.8810  -29.5602 H   0  0  0  0  0
  -17.9176    2.3297  -30.3353 H   0  0  0  0  0
  -18.7231    3.6072  -32.0402 H   0  0  0  0  0
  -19.5683    2.0865  -32.4224 H   0  0  0  0  0
  -23.6333    3.6060  -34.0442 H   0  0  0  0  0
  -24.7798    3.3516  -30.5625 H   0  0  0  0  0
  -25.8852    4.5861  -31.2146 H   0  0  0  0  0
  -26.4675    2.9260  -30.9388 H   0  0  0  0  0
  -22.2956    6.0270  -33.7598 H   0  0  0  0  0
  -23.2112    5.5431  -35.2084 H   0  0  0  0  0
  -23.4908    7.1394  -34.4704 H   0  0  0  0  0
  -27.8939    6.5292  -35.0047 H   0  0  0  0  0
  -28.4583    7.7950  -32.2997 H   0  0  0  0  0
  -29.2678    8.2263  -33.8302 H   0  0  0  0  0
  -26.2806    8.4024  -33.2825 H   0  0  0  0  0
  -27.0885    8.8328  -34.8099 H   0  0  0  0  0
  -27.4133    9.7755  -33.3345 H   0  0  0  0  0
  -31.1685    5.5135  -33.9914 H   0  0  0  0  0
  -28.6173    4.9037  -31.7122 H   0  0  0  0  0
  -29.7393    6.2860  -31.7490 H   0  0  0  0  0
  -30.3444    4.6397  -32.0563 H   0  0  0  0  0
  -27.7815    4.1526  -34.2506 H   0  0  0  0  0
  -29.1146    2.6881  -33.0740 H   0  0  0  0  0
  -31.2551    3.6439  -33.1551 H   0  0  0  0  0
  -31.4504    3.1881  -34.8654 H   0  0  0  0  0
  -31.3350    1.9255  -33.6151 H   0  0  0  0  0
  -27.2701    4.7645  -37.9843 H   0  0  0  0  0
  -26.3591    4.2122  -36.5575 H   0  0  0  0  0
  -26.5732    3.1261  -37.9523 H   0  0  0  0  0
  -30.2044    2.6154  -37.4644 H   0  0  0  0  0
  -29.4947    3.9079  -38.4629 H   0  0  0  0  0
  -28.8117    2.2642  -38.5171 H   0  0  0  0  0
  -29.9051    1.4782  -35.5790 H   0  0  0  0  0
  -28.0495   -0.1403  -35.0257 H   0  0  0  0  0
  -30.0445    0.5071  -32.7914 H   0  0  0  0  0
  -30.3571   -0.5147  -34.2159 H   0  0  0  0  0
  -29.1989   -1.0494  -32.9735 H   0  0  0  0  0
  -27.5353    1.7698  -32.8125 H   0  0  0  0  0
  -27.1776   -0.0460  -32.6662 H   0  0  0  0  0
  -25.0996    2.0235  -35.4622 H   0  0  0  0  0
  -25.2295   -0.9452  -33.5445 H   0  0  0  0  0
  -26.0059   -0.7354  -35.1333 H   0  0  0  0  0
  -24.3573   -0.1203  -34.8598 H   0  0  0  0  0
  -23.9151    0.6476  -29.9758 H   0  0  0  0  0
  -23.3348    1.8995  -31.0927 H   0  0  0  0  0
  -18.5765    0.2402  -30.4954 H   0  0  0  0  0
  -20.3753    0.7151  -30.5929 H   0  0  0  0  0
  -18.6268    0.2756  -28.1623 H   0  0  0  0  0
  -20.2371    1.1022  -28.1229 H   0  0  0  0  0
 15  1  1  0  0  0
  1 16  1  0  0  0
 19  2  1  0  0  0
  2 21  1  0  0  0
  2 22  1  0  0  0
 12  3  2  0  0  0
  4  5  1  0  0  0
 19  4  1  0  0  0
  4 20  1  0  0  0
  5  6  1  0  0  0
  5 45  1  0  0  0
  6 42  1  0  0  0
  6 43  1  0  0  0
  6 44  1  0  0  0
  8  7  1  0  0  0
  9  8  1  0  0  0
  9 10  2  0  0  0
 11  9  1  0  0  0
 12 11  4  0  0  0
 13 12  1  0  0  0
 50 13  1  0  0  0
 14 15  1  0  0  0
 49 14  1  0  0  0
 16 17  2  0  0  0
 16 18  1  0  0  0
 18 19  1  0  0  0
 22 23  2  0  0  0
 22 24  1  0  0  0
 24 25  1  0  0  0
 25 26  1  0  0  0
 25 28  1  0  0  0
 26 27  1  0  0  0
 28 29  1  0  0  0
 28 30  1  0  0  0
 28 31  1  0  0  0
 31 32  1  0  0  0
 31 34  1  0  0  0
 32 33  1  0  0  0
 39 32  1  0  0  0
 34 35  1  0  0  0
 35 36  1  0  0  0
 35 37  1  0  0  0
 38 35  1  0  0  0
 39 38  1  0  0  0
 40 39  1  0  0  0
 40 41  1  0  0  0
 42 40  1  0  0  0
 45 46  1  0  0  0
 46 47  1  0  0  0
 47 48  3  0  0  0
 49 50  1  0  0  0
  1 51  1  0  0  0
  2 52  1  0  0  0
  3 53  1  0  0  0
  4 54  1  0  0  0
  5 55  1  0  0  0
  7 56  1  0  0  0
  7 57  1  0  0  0
  7 58  1  0  0  0
  8 59  1  0  0  0
 13 60  1  0  0  0
 14 61  1  0  0  0
 14 62  1  0  0  0
 15 63  1  0  0  0
 15 64  1  0  0  0
 19 65  1  0  0  0
 20 66  1  0  0  0
 20 67  1  0  0  0
 20 68  1  0  0  0
 21 69  1  0  0  0
 21 70  1  0  0  0
 21 71  1  0  0  0
 25 72  1  0  0  0
 26 73  1  0  0  0
 26 74  1  0  0  0
 27 75  1  0  0  0
 27 76  1  0  0  0
 27 77  1  0  0  0
 29 78  1  0  0  0
 30 79  1  0  0  0
 30 80  1  0  0  0
 30 81  1  0  0  0
 31 82  1  0  0  0
 32 83  1  0  0  0
 33 84  1  0  0  0
 33 85  1  0  0  0
 33 86  1  0  0  0
 36 87  1  0  0  0
 36 88  1  0  0  0
 36 89  1  0  0  0
 37 90  1  0  0  0
 37 91  1  0  0  0
 37 92  1  0  0  0
 39 93  1  0  0  0
 40 94  1  0  0  0
 41 95  1  0  0  0
 41 96  1  0  0  0
 41 97  1  0  0  0
 42 98  1  0  0  0
 42 99  1  0  0  0
 43100  1  0  0  0
 44101  1  0  0  0
 44102  1  0  0  0
 44103  1  0  0  0
 46104  1  0  0  0
 46105  1  0  0  0
 49106  1  0  0  0
 49107  1  0  0  0
 50108  1  0  0  0
 50109  1  0  0  0
M  END
$$$$
