6nvh_ligand
  -I-interpret- 

 57 59  0  0  0  0  0  0  0  0999 V2000
    2.7410  -21.3690    8.4200 C   0  0  0  0  0
    3.4220  -20.1500    8.4110 C   0  0  0  0  0
    4.5690  -19.9670    7.6420 C   0  0  0  0  0
    4.9950  -21.0280    6.8730 C   0  0  0  0  0
    4.3370  -22.2520    6.8590 C   0  0  0  0  0
    3.1980  -22.4120    7.6270 C   0  0  0  0  0
    1.6310  -21.4800    9.2120 O   0  0  0  0  0
    4.8580  -23.2270    6.0630 O   0  0  0  0  0
    0.8600  -22.6800    9.1460 C   0  0  0  0  0
    4.7260  -24.5880    6.4800 C   0  0  0  0  0
    2.8770  -18.8580    9.4310 Cl  0  0  0  0  0
    6.4020  -20.8170    5.9020 Cl  0  0  0  0  0
    5.3380  -18.6720    7.6340 C   0  0  0  0  0
    6.4750  -18.8040    8.4970 O   0  0  0  0  0
    7.5930  -18.0350    8.2660 C   0  0  0  0  0
    8.8240  -18.5490    8.6210 C   0  0  0  0  0
    9.9550  -17.8580    8.4440 N   0  0  0  0  0
    9.8240  -16.6220    7.9080 C   0  0  0  0  0
    8.6600  -16.0520    7.5350 N   0  0  0  0  0
    7.5440  -16.7560    7.7310 C   0  0  0  0  0
   10.9570  -15.9060    7.6810 N   0  0  0  0  0
   11.0970  -14.5660    7.2290 C   0  0  0  0  0
   11.6330  -13.6090    8.1070 C   0  0  0  0  0
   11.7810  -12.2720    7.6490 C   0  0  0  0  0
   11.3600  -11.9230    6.3910 C   0  0  0  0  0
   10.8200  -12.8760    5.5460 C   0  0  0  0  0
   10.6830  -14.2050    5.9380 C   0  0  0  0  0
   10.0920  -15.1980    4.9730 C   0  0  0  0  0
   12.0900  -14.0250    9.3790 N   0  0  0  0  0
   11.9580  -13.3740   10.5530 C   0  0  0  0  0
   12.5920  -14.0750   11.7340 C   0  0  0  0  0
   12.1940  -15.5200   11.8760 C   0  0  0  0  0
   11.3870  -12.3000   10.6570 O   0  0  0  0  0
    2.6584  -23.3589    7.6093 H   0  0  0  0  0
    0.4907  -22.8176    8.1298 H   0  0  0  0  0
    1.4856  -23.5280    9.4246 H   0  0  0  0  0
    0.0173  -22.6072    9.8335 H   0  0  0  0  0
    5.2178  -24.7207    7.4436 H   0  0  0  0  0
    3.6690  -24.8374    6.5727 H   0  0  0  0  0
    5.1909  -25.2400    5.7405 H   0  0  0  0  0
    4.6997  -17.8614    7.9857 H   0  0  0  0  0
    5.6683  -18.4450    6.6203 H   0  0  0  0  0
    8.8755  -19.5463    9.0579 H   0  0  0  0  0
    6.5803  -16.3203    7.4672 H   0  0  0  0  0
   11.8307  -16.4008    7.8606 H   0  0  0  0  0
   12.2304  -11.5215    8.2993 H   0  0  0  0  0
   11.4514  -10.8899    6.0556 H   0  0  0  0  0
   10.4939  -12.5793    4.5492 H   0  0  0  0  0
   10.8155  -15.9902    4.7803 H   0  0  0  0  0
    9.1874  -15.6272    5.4038 H   0  0  0  0  0
    9.8467  -14.6930    4.0387 H   0  0  0  0  0
   12.5758  -14.9213    9.4126 H   0  0  0  0  0
   12.2578  -13.5582   12.6336 H   0  0  0  0  0
   13.6712  -14.0508   11.5826 H   0  0  0  0  0
   11.1136  -15.5871   12.0040 H   0  0  0  0  0
   12.4897  -16.0667   10.9806 H   0  0  0  0  0
   12.6915  -15.9488   12.7459 H   0  0  0  0  0
  1  2  4  0  0  0
  1  6  4  0  0  0
  1  7  1  0  0  0
  2  3  4  0  0  0
  2 11  1  0  0  0
  3  4  4  0  0  0
  3 13  1  0  0  0
  4  5  4  0  0  0
  4 12  1  0  0  0
  5  6  4  0  0  0
  5  8  1  0  0  0
  7  9  1  0  0  0
  8 10  1  0  0  0
 13 14  1  0  0  0
 14 15  1  0  0  0
 15 16  4  0  0  0
 15 20  4  0  0  0
 16 17  4  0  0  0
 17 18  4  0  0  0
 18 19  4  0  0  0
 18 21  1  0  0  0
 19 20  4  0  0  0
 21 22  1  0  0  0
 22 23  4  0  0  0
 22 27  4  0  0  0
 23 24  4  0  0  0
 23 29  1  0  0  0
 24 25  4  0  0  0
 25 26  4  0  0  0
 26 27  4  0  0  0
 27 28  1  0  0  0
 29 30  1  0  0  0
 30 31  1  0  0  0
 30 33  2  0  0  0
 31 32  1  0  0  0
  6 34  1  0  0  0
  9 35  1  0  0  0
  9 36  1  0  0  0
  9 37  1  0  0  0
 10 38  1  0  0  0
 10 39  1  0  0  0
 10 40  1  0  0  0
 13 41  1  0  0  0
 13 42  1  0  0  0
 16 43  1  0  0  0
 20 44  1  0  0  0
 21 45  1  0  0  0
 24 46  1  0  0  0
 25 47  1  0  0  0
 26 48  1  0  0  0
 28 49  1  0  0  0
 28 50  1  0  0  0
 28 51  1  0  0  0
 29 52  1  0  0  0
 31 53  1  0  0  0
 31 54  1  0  0  0
 32 55  1  0  0  0
 32 56  1  0  0  0
 32 57  1  0  0  0
M  END
$$$$
