4p4b_ligand
  -I-interpret- 

 52 51  0  0  0  0  0  0  0  0999 V2000
   27.2440   44.2430   39.9390 O   0  0  0  0  0
   26.1180   43.7230   39.8240 C   0  0  0  0  0
   25.5180   43.6430   38.7310 O   0  0  0  0  0
   25.4110   43.2430   41.1440 C   0  0  0  0  0
   26.3710   42.7420   42.1530 N   0  3  0  0  0
   24.5160   44.3910   41.7550 C   0  0  0  0  0
   23.7950   44.0640   43.0880 C   0  0  0  0  0
   22.9030   45.3050   43.4650 C   0  0  0  0  0
   23.4200   46.4160   43.5600 O   0  0  0  0  0
   21.5880   45.1210   43.6130 N   0  0  0  0  0
   20.6110   46.2580   43.8650 C   0  0  0  0  0
   20.4570   46.4980   45.4000 C   0  0  0  0  0
   20.9710   45.6750   46.1750 O   0  0  0  0  0
   19.7680   47.4540   45.7470 O   0  0  0  0  0
   19.2580   45.8520   43.3070 C   0  0  0  0  0
   18.7120   44.8590   44.1440 O   0  0  0  0  0
   17.5810   43.9320   43.5750 P   0  0  0  0  0
   16.8550   43.2940   44.7740 O   0  0  0  0  0
   18.1450   42.9590   42.5820 O   0  0  0  0  0
   16.5250   44.8880   42.7850 N   0  0  0  0  0
   15.9950   44.3870   41.4810 C   0  0  0  0  0
   17.0080   44.5280   40.3390 C   0  0  0  0  0
   16.8470   43.7610   39.3350 O   0  0  0  0  0
   17.8930   45.4120   40.4210 O   0  0  0  0  0
   14.6660   45.1570   41.0010 C   0  0  0  0  0
   14.9290   46.6750   40.9190 C   0  0  0  0  0
   13.8060   47.4570   40.1870 C   0  0  0  0  0
   12.9940   46.8230   39.4360 O   0  0  0  0  0
   13.7460   48.6970   40.4330 O   0  0  0  0  0
   24.6713   43.2103   38.8630 H   0  0  0  0  0
   24.7701   42.4059   40.8674 H   0  0  0  0  0
   26.9399   42.0021   41.7414 H   0  0  0  0  0
   26.9737   43.5069   42.4564 H   0  0  0  0  0
   25.8587   42.3729   42.9541 H   0  0  0  0  0
   23.7305   44.5847   41.0246 H   0  0  0  0  0
   25.1905   45.2198   41.9701 H   0  0  0  0  0
   24.5229   43.8664   43.8749 H   0  0  0  0  0
   23.1779   43.1724   42.9772 H   0  0  0  0  0
   21.2216   44.1709   43.5540 H   0  0  0  0  0
   20.9772   47.1680   43.3897 H   0  0  0  0  0
   21.4608   45.0229   45.6686 H   0  0  0  0  0
   19.3729   45.4648   42.2946 H   0  0  0  0  0
   18.5946   46.7161   43.2714 H   0  0  0  0  0
   16.5286   43.9858   45.3541 H   0  0  0  0  0
   16.2378   45.7902   43.1644 H   0  0  0  0  0
   15.7753   43.3378   41.6784 H   0  0  0  0  0
   16.1101   43.1686   39.5012 H   0  0  0  0  0
   13.8675   44.9718   41.7195 H   0  0  0  0  0
   14.3784   44.7913   40.0153 H   0  0  0  0  0
   15.8505   46.8186   40.3548 H   0  0  0  0  0
   14.9820   47.0547   41.9394 H   0  0  0  0  0
   13.2449   45.8969   39.4052 H   0  0  0  0  0
  1  2  2  0  0  0
  2  3  1  0  0  0
  2  4  1  0  0  0
  4  5  1  0  0  0
  4  6  1  0  0  0
  6  7  1  0  0  0
  7  8  1  0  0  0
  8  9  2  0  0  0
  8 10  1  0  0  0
 10 11  1  0  0  0
 11 12  1  0  0  0
 11 15  1  0  0  0
 12 13  1  0  0  0
 12 14  2  0  0  0
 15 16  1  0  0  0
 16 17  1  0  0  0
 17 18  1  0  0  0
 17 19  2  0  0  0
 17 20  1  0  0  0
 20 21  1  0  0  0
 21 22  1  0  0  0
 21 25  1  0  0  0
 22 23  1  0  0  0
 22 24  2  0  0  0
 25 26  1  0  0  0
 26 27  1  0  0  0
 27 28  1  0  0  0
 27 29  2  0  0  0
  3 30  1  0  0  0
  4 31  1  0  0  0
  5 32  1  0  0  0
  5 33  1  0  0  0
  5 34  1  0  0  0
  6 35  1  0  0  0
  6 36  1  0  0  0
  7 37  1  0  0  0
  7 38  1  0  0  0
 10 39  1  0  0  0
 11 40  1  0  0  0
 13 41  1  0  0  0
 15 42  1  0  0  0
 15 43  1  0  0  0
 18 44  1  0  0  0
 20 45  1  0  0  0
 21 46  1  0  0  0
 23 47  1  0  0  0
 25 48  1  0  0  0
 25 49  1  0  0  0
 26 50  1  0  0  0
 26 51  1  0  0  0
 28 52  1  0  0  0
M  END
$$$$
