### 
### Created by X-TOOL on Mon Sep 10 21:13:20 2018
### 

@<TRIPOS>MOLECULE
4p4b_ligand
   47    46     1     0     0
SMALL
GAST_HUCK


@<TRIPOS>ATOM
      1 O          27.2440   44.2430   39.9390 O.co2     1 2G2        -0.5643
      2 C          26.1180   43.7230   39.8240 C.2       1 2G2         0.0846
      3 OXT        25.5180   43.6430   38.7310 O.co2     1 2G2        -0.5643
      4 CA         25.4110   43.2430   41.1440 C.3       1 2G2         0.0304
      5 N          26.3710   42.7420   42.1530 N.4       1 2G2         0.2328
      6 CB         24.5160   44.3910   41.7550 C.3       1 2G2         0.0192
      7 CAN        23.7950   44.0640   43.0880 C.3       1 2G2         0.0440
      8 CAV        22.9030   45.3050   43.4650 C.2       1 2G2         0.1781
      9 OAC        23.4200   46.4160   43.5600 O.2       1 2G2        -0.3970
     10 NAR        21.5880   45.1210   43.6130 N.am      1 2G2        -0.2687
     11 CBA        20.6110   46.2580   43.8650 C.3       1 2G2         0.1228
     12 CAX        20.4570   46.4980   45.4000 C.2       1 2G2         0.0628
     13 OAJ        20.9710   45.6750   46.1750 O.co2     1 2G2        -0.5665
     14 OAE        19.7680   47.4540   45.7470 O.co2     1 2G2        -0.5665
     15 CAQ        19.2580   45.8520   43.3070 C.3       1 2G2         0.1185
     16 OAT        18.7120   44.8590   44.1440 O.3       1 2G2        -0.2572
     17 PBC        17.5810   43.9320   43.5750 P.3       1 2G2         0.2034
     18 OAL        16.8550   43.2940   44.7740 O.co2     1 2G2        -0.6076
     19 OAG        18.1450   42.9590   42.5820 O.co2     1 2G2        -0.6076
     20 NAS        16.5250   44.8880   42.7850 N.am      1 2G2        -0.2605
     21 CBB        15.9950   44.3870   41.4810 C.3       1 2G2         0.0893
     22 CAY        17.0080   44.5280   40.3390 C.2       1 2G2         0.0564
     23 OAK        16.8470   43.7610   39.3350 O.co2     1 2G2        -0.5670
     24 OAF        17.8930   45.4120   40.4210 O.co2     1 2G2        -0.5670
     25 CAP        14.6660   45.1570   41.0010 C.3       1 2G2        -0.0099
     26 CAM        14.9290   46.6750   40.9190 C.3       1 2G2         0.0034
     27 CAU        13.8060   47.4570   40.1870 C.2       1 2G2         0.0350
     28 OAH        12.9940   46.8230   39.4360 O.co2     1 2G2        -0.5690
     29 OAB        13.7460   48.6970   40.4330 O.co2     1 2G2        -0.5690
     30 H1         24.7480   42.4072   40.8759 H         1 2G2         0.1026
     31 H2         25.8698   42.4479   42.9766 H         1 2G2         0.2010
     32 H3         27.0162   43.4770   42.3969 H         1 2G2         0.2010
     33 H4         26.8807   41.9599   41.7727 H         1 2G2         0.2010
     34 H5         23.7465   44.6475   41.0120 H         1 2G2         0.0363
     35 H6         25.1628   45.2635   41.9292 H         1 2G2         0.0363
     36 H7         24.5361   43.8807   43.8799 H         1 2G2         0.0505
     37 H8         23.1632   43.1722   42.9635 H         1 2G2         0.0505
     38 H9         21.2288   44.1895   43.5552 H         1 2G2         0.1876
     39 H10        20.9670   47.1761   43.3748 H         1 2G2         0.0753
     40 H11        19.3802   45.4538   42.2889 H         1 2G2         0.0666
     41 H12        18.5894   46.7251   43.2814 H         1 2G2         0.0666
     42 H13        16.2434   45.7725   43.1569 H         1 2G2         0.1677
     43 H14        15.7558   43.3213   41.6113 H         1 2G2         0.0681
     44 H15        13.8562   44.9671   41.7208 H         1 2G2         0.0319
     45 H16        14.3694   44.7857   40.0090 H         1 2G2         0.0319
     46 H17        15.8743   46.8364   40.3801 H         1 2G2         0.0432
     47 H18        15.0182   47.0691   41.9421 H         1 2G2         0.0432
@<TRIPOS>BOND
     1    1    2 ar 
     2    2    3 ar 
     3    2    4 1  
     4    4    5 1  
     5    4    6 1  
     6    6    7 1  
     7    7    8 1  
     8    8    9 2  
     9    8   10 am 
    10   10   11 1  
    11   11   12 1  
    12   11   15 1  
    13   12   13 ar 
    14   12   14 ar 
    15   15   16 1  
    16   16   17 1  
    17   17   18 ar 
    18   17   19 ar 
    19   17   20 am 
    20   20   21 1  
    21   21   22 1  
    22   21   25 1  
    23   22   23 ar 
    24   22   24 ar 
    25   25   26 1  
    26   26   27 1  
    27   27   28 ar 
    28   27   29 ar 
    29    4   30 1  
    30    5   31 1  
    31    5   32 1  
    32    5   33 1  
    33    6   34 1  
    34    6   35 1  
    35    7   36 1  
    36    7   37 1  
    37   10   38 1  
    38   11   39 1  
    39   15   40 1  
    40   15   41 1  
    41   20   42 1  
    42   21   43 1  
    43   25   44 1  
    44   25   45 1  
    45   26   46 1  
    46   26   47 1  
@<TRIPOS>SUBSTRUCTURE
     1 2G2         1

