6buv_ligand
  -I-interpret- 

 67 70  0  0  0  0  0  0  0  0999 V2000
   -0.1090   60.8340   59.0630 C   0  0  0  0  0
   -4.8390   59.0630   56.2760 N   0  3  0  0  0
   -2.1510   64.0410   59.4620 C   0  0  0  0  0
   -1.0110   60.5970   57.9260 O   0  0  0  0  0
   -0.2450   64.0740   57.8530 C   0  0  0  0  0
   -1.1510   63.1730   58.7040 C   0  0  0  0  0
    0.3750   59.9680   61.4180 C   0  0  0  0  0
    0.2010   61.3900   61.9150 C   0  0  0  0  0
   -0.7840   62.1630   61.0540 C   0  0  0  0  0
   -0.3070   62.2500   59.6050 C   0  0  0  0  0
   -2.8120   59.7980   55.9380 N   0  0  0  0  0
    1.8370   59.5610   61.3010 C   0  0  0  0  0
   -0.5000   59.8790   56.9010 C   0  0  0  0  0
   -1.3800   59.7770   55.6730 C   0  0  0  0  0
   -3.5460   58.7060   56.2060 C   0  0  0  0  0
   -5.9770   58.1880   56.5170 C   0  0  0  0  0
   -4.9400   60.4380   56.0320 C   0  0  0  0  0
   -3.6570   60.8980   55.8020 C   0  0  0  0  0
   -3.4240   62.2180   55.4470 C   0  0  0  0  0
   -4.5160   63.0630   55.3370 C   0  0  0  0  0
   -5.8060   62.6050   55.5870 C   0  0  0  0  0
   -6.0370   61.2850   55.9450 C   0  0  0  0  0
   -2.9420   57.2970   56.3150 C   0  0  0  0  0
   -1.7280   56.4230   58.2330 C   0  0  0  0  0
   -1.6890   56.2750   59.6120 C   0  0  0  0  0
   -0.5890   55.6750   60.2010 C   0  0  0  0  0
    0.4590   55.2240   59.4290 C   0  0  0  0  0
    0.4120   55.3620   58.0590 C   0  0  0  0  0
   -0.6790   55.9570   57.4500 C   0  0  0  0  0
   -0.3750   59.7560   60.1000 C   0  0  0  0  0
    0.5870   59.3810   56.9280 O   0  0  0  0  0
   -2.8260   57.0850   57.7250 O   0  0  0  0  0
    0.9368   60.7709   58.7624 H   0  0  0  0  0
   -2.8456   63.4015   60.0067 H   0  0  0  0  0
   -1.6162   64.6800   60.1647 H   0  0  0  0  0
   -2.7031   64.6594   58.7543 H   0  0  0  0  0
    0.3730   64.6881   58.5080 H   0  0  0  0  0
    0.3942   63.4542   57.2242 H   0  0  0  0  0
   -0.8612   64.7171   57.2247 H   0  0  0  0  0
   -1.7313   62.5028   58.0699 H   0  0  0  0  0
   -0.0639   59.3122   62.1699 H   0  0  0  0  0
    1.1673   61.8924   61.8706 H   0  0  0  0  0
   -0.1838   61.3553   62.9342 H   0  0  0  0  0
   -0.8724   63.1742   61.4512 H   0  0  0  0  0
   -1.7424   61.6442   61.0729 H   0  0  0  0  0
    0.6576   62.7575   59.5927 H   0  0  0  0  0
    2.3425   60.2246   60.5995 H   0  0  0  0  0
    2.3125   59.6339   62.2791 H   0  0  0  0  0
    1.8992   58.5341   60.9409 H   0  0  0  0  0
   -1.1615   60.6487   55.0562 H   0  0  0  0  0
   -1.1603   58.8162   55.2075 H   0  0  0  0  0
   -6.0272   57.4345   55.7310 H   0  0  0  0  0
   -5.8593   57.6989   57.4840 H   0  0  0  0  0
   -6.8937   58.7777   56.5159 H   0  0  0  0  0
   -2.4128   62.5795   55.2603 H   0  0  0  0  0
   -4.3624   64.1033   55.0500 H   0  0  0  0  0
   -6.6468   63.2932   55.5003 H   0  0  0  0  0
   -7.0450   60.9249   56.1510 H   0  0  0  0  0
   -1.9836   57.2150   55.8023 H   0  0  0  0  0
   -3.5604   56.5413   55.8307 H   0  0  0  0  0
   -2.5172   56.6281   60.2264 H   0  0  0  0  0
   -0.5519   55.5586   61.2841 H   0  0  0  0  0
    1.3241   54.7587   59.9013 H   0  0  0  0  0
    1.2404   54.9998   57.4502 H   0  0  0  0  0
   -0.7151   56.0592   56.3654 H   0  0  0  0  0
   -0.0335   58.8098   59.6802 H   0  0  0  0  0
   -1.4412   59.7779   60.3255 H   0  0  0  0  0
  4  1  1  0  0  0
  1 10  1  0  0  0
  1 30  1  0  0  0
 15  2  4  0  0  0
  2 16  1  0  0  0
  2 17  4  0  0  0
  6  3  1  0  0  0
 13  4  1  0  0  0
  6  5  1  0  0  0
 10  6  1  0  0  0
  7  8  1  0  0  0
  7 12  1  0  0  0
 30  7  1  0  0  0
  9  8  1  0  0  0
 10  9  1  0  0  0
 11 14  1  0  0  0
 15 11  4  0  0  0
 11 18  4  0  0  0
 14 13  1  0  0  0
 13 31  2  0  0  0
 23 15  1  0  0  0
 18 17  4  0  0  0
 17 22  4  0  0  0
 18 19  4  0  0  0
 19 20  4  0  0  0
 20 21  4  0  0  0
 22 21  4  0  0  0
 32 23  1  0  0  0
 24 25  4  0  0  0
 24 29  4  0  0  0
 24 32  1  0  0  0
 25 26  4  0  0  0
 26 27  4  0  0  0
 27 28  4  0  0  0
 28 29  4  0  0  0
  1 33  1  0  0  0
  3 34  1  0  0  0
  3 35  1  0  0  0
  3 36  1  0  0  0
  5 37  1  0  0  0
  5 38  1  0  0  0
  5 39  1  0  0  0
  6 40  1  0  0  0
  7 41  1  0  0  0
  8 42  1  0  0  0
  8 43  1  0  0  0
  9 44  1  0  0  0
  9 45  1  0  0  0
 10 46  1  0  0  0
 12 47  1  0  0  0
 12 48  1  0  0  0
 12 49  1  0  0  0
 14 50  1  0  0  0
 14 51  1  0  0  0
 16 52  1  0  0  0
 16 53  1  0  0  0
 16 54  1  0  0  0
 19 55  1  0  0  0
 20 56  1  0  0  0
 21 57  1  0  0  0
 22 58  1  0  0  0
 23 59  1  0  0  0
 23 60  1  0  0  0
 25 61  1  0  0  0
 26 62  1  0  0  0
 27 63  1  0  0  0
 28 64  1  0  0  0
 29 65  1  0  0  0
 30 66  1  0  0  0
 30 67  1  0  0  0
M  END
$$$$
