5lhi_ligand
  -I-interpret- 

 71 75  0  0  0  0  0  0  0  0999 V2000
    8.3310  -45.5580  -36.8710 C   0  0  0  0  0
    8.1530  -46.0070  -38.3320 C   0  0  0  0  0
    9.1590  -46.9170  -38.6700 O   0  0  0  0  0
    8.8620  -47.6800  -39.8590 C   0  0  0  0  0
    9.4320  -49.1020  -39.7010 C   0  0  0  0  0
   10.5390  -49.5010  -40.4370 C   0  0  0  0  0
   11.0670  -50.8340  -40.2830 C   0  0  0  0  0
   10.4730  -51.7210  -39.3950 C   0  0  0  0  0
    9.3280  -51.3140  -38.6490 C   0  0  0  0  0
    8.8200  -50.0070  -38.7850 C   0  0  0  0  0
    7.5640  -49.5490  -37.9640 C   0  0  0  0  0
    7.7500  -49.8140  -36.5500 O   0  0  0  0  0
    6.6510  -50.4510  -35.9150 C   0  0  0  0  0
    5.8880  -51.3660  -36.5990 C   0  0  0  0  0
    4.7990  -52.0070  -35.9590 C   0  0  0  0  0
    4.4950  -51.7070  -34.6200 C   0  0  0  0  0
    5.2560  -50.7970  -33.9350 C   0  0  0  0  0
    6.3470  -50.1570  -34.5780 C   0  0  0  0  0
    3.4230  -52.3420  -33.9930 O   0  0  0  0  0
    2.9740  -51.6930  -32.8290 C   0  0  0  0  0
    2.6990  -52.7810  -31.7200 C   0  0  0  0  0
    2.9580  -54.2130  -32.3010 C   0  0  0  0  0
    1.5600  -54.9600  -32.1990 C   0  0  0  0  0
    0.8720  -54.2930  -31.2560 N   0  3  0  0  0
    1.3850  -52.7400  -31.3560 C   0  0  0  0  0
    8.6690  -52.2250  -37.6580 N   0  0  0  0  0
    8.6250  -53.6910  -37.6470 C   0  0  0  0  0
    9.1400  -54.3800  -38.4970 O   0  0  0  0  0
    7.8810  -54.2930  -36.4440 C   0  0  0  0  0
    8.1350  -53.8810  -35.1130 C   0  0  0  0  0
    7.2930  -54.6090  -34.2830 C   0  0  0  0  0
    6.5600  -55.4260  -35.1330 C   0  0  0  0  0
    6.9440  -55.2000  -36.4150 N   0  0  0  0  0
    6.3860  -55.8850  -37.5830 C   0  0  0  0  0
    5.6260  -56.2630  -34.4890 C   0  0  0  0  0
    5.5680  -56.1580  -33.1050 C   0  0  0  0  0
    6.7460  -54.9490  -32.6590 S   0  0  0  0  0
    8.2693  -46.4265  -36.2152 H   0  0  0  0  0
    9.3045  -45.0817  -36.7547 H   0  0  0  0  0
    7.5448  -44.8489  -36.6118 H   0  0  0  0  0
    8.2157  -45.1384  -38.9876 H   0  0  0  0  0
    7.1798  -46.4841  -38.4478 H   0  0  0  0  0
    9.3138  -47.1982  -40.7261 H   0  0  0  0  0
    7.7826  -47.7315  -40.0014 H   0  0  0  0  0
   11.0098  -48.8059  -41.1322 H   0  0  0  0  0
   11.9343  -51.1460  -40.8649 H   0  0  0  0  0
   10.8803  -52.7241  -39.2687 H   0  0  0  0  0
    6.6932  -50.1031  -38.3144 H   0  0  0  0  0
    7.4224  -48.4776  -38.1057 H   0  0  0  0  0
    6.1214  -51.5995  -37.6378 H   0  0  0  0  0
    4.1967  -52.7330  -36.5050 H   0  0  0  0  0
    5.0234  -50.5645  -32.8958 H   0  0  0  0  0
    6.9513  -49.4338  -34.0304 H   0  0  0  0  0
    2.0588  -51.1405  -33.0418 H   0  0  0  0  0
    3.7312  -50.9908  -32.4802 H   0  0  0  0  0
    3.3538  -52.5771  -30.8728 H   0  0  0  0  0
    3.7367  -54.7377  -31.7475 H   0  0  0  0  0
    3.3189  -54.1718  -33.3287 H   0  0  0  0  0
    1.6838  -56.0112  -31.9385 H   0  0  0  0  0
    1.0346  -54.9623  -33.1540 H   0  0  0  0  0
    1.0370  -54.6820  -30.3276 H   0  0  0  0  0
   -0.1343  -54.3646  -31.4067 H   0  0  0  0  0
    0.7977  -52.1845  -32.0872 H   0  0  0  0  0
    1.2636  -52.2297  -30.4005 H   0  0  0  0  0
    8.1860  -51.7632  -36.8873 H   0  0  0  0  0
    8.8591  -53.1297  -34.7978 H   0  0  0  0  0
    5.9438  -55.1507  -38.2563 H   0  0  0  0  0
    7.1801  -56.4229  -38.1009 H   0  0  0  0  0
    5.6203  -56.5894  -37.2580 H   0  0  0  0  0
    4.9879  -56.9510  -35.0436 H   0  0  0  0  0
    4.9178  -56.7178  -32.4327 H   0  0  0  0  0
  1  2  1  0  0  0
  2  3  1  0  0  0
  3  4  1  0  0  0
  4  5  1  0  0  0
  5  6  4  0  0  0
  5 10  4  0  0  0
  6  7  4  0  0  0
  7  8  4  0  0  0
  8  9  4  0  0  0
  9 10  4  0  0  0
  9 26  1  0  0  0
 10 11  1  0  0  0
 11 12  1  0  0  0
 12 13  1  0  0  0
 13 14  4  0  0  0
 13 18  4  0  0  0
 14 15  4  0  0  0
 15 16  4  0  0  0
 16 17  4  0  0  0
 16 19  1  0  0  0
 17 18  4  0  0  0
 19 20  1  0  0  0
 20 21  1  0  0  0
 21 22  1  0  0  0
 21 25  1  0  0  0
 22 23  1  0  0  0
 23 24  1  0  0  0
 24 25  1  0  0  0
 26 27  1  0  0  0
 27 28  2  0  0  0
 27 29  1  0  0  0
 29 30  4  0  0  0
 29 33  4  0  0  0
 30 31  4  0  0  0
 31 32  4  0  0  0
 31 37  4  0  0  0
 32 33  4  0  0  0
 32 35  4  0  0  0
 33 34  1  0  0  0
 35 36  4  0  0  0
 36 37  4  0  0  0
  1 38  1  0  0  0
  1 39  1  0  0  0
  1 40  1  0  0  0
  2 41  1  0  0  0
  2 42  1  0  0  0
  4 43  1  0  0  0
  4 44  1  0  0  0
  6 45  1  0  0  0
  7 46  1  0  0  0
  8 47  1  0  0  0
 11 48  1  0  0  0
 11 49  1  0  0  0
 14 50  1  0  0  0
 15 51  1  0  0  0
 17 52  1  0  0  0
 18 53  1  0  0  0
 20 54  1  0  0  0
 20 55  1  0  0  0
 21 56  1  0  0  0
 22 57  1  0  0  0
 22 58  1  0  0  0
 23 59  1  0  0  0
 23 60  1  0  0  0
 24 61  1  0  0  0
 24 62  1  0  0  0
 25 63  1  0  0  0
 25 64  1  0  0  0
 26 65  1  0  0  0
 30 66  1  0  0  0
 34 67  1  0  0  0
 34 68  1  0  0  0
 34 69  1  0  0  0
 35 70  1  0  0  0
 36 71  1  0  0  0
M  END
$$$$
