3rvi_ligand
  -I-interpret- 

 70 73  0  0  0  0  0  0  0  0999 V2000
   70.7030   49.9630   12.2580 C   0  0  0  0  0
   71.8210   49.1330   12.4580 C   0  0  0  0  0
   72.6050   49.2960   13.6000 C   0  0  0  0  0
   69.8760   49.8480   11.1380 C   0  0  0  0  0
   69.8670   50.8640   10.1790 C   0  0  0  0  0
   69.0360   48.7410   10.9820 C   0  0  0  0  0
   66.5510   47.4750    8.5460 C   0  0  0  0  0
   72.2230   48.0350   11.4560 C   0  0  0  0  0
   64.1780   46.6430    8.6500 C   0  0  0  0  0
   63.9470   47.1640   10.0750 C   0  0  0  0  0
   64.0420   50.0900   11.9950 C   0  0  0  0  0
   65.0240   52.3920   11.7360 C   0  0  0  0  0
   66.3000   50.5730   12.9870 C   0  0  0  0  0
   64.1700   51.2960   11.0610 C   0  0  0  0  0
   66.4070   51.8650   12.1630 C   0  0  0  0  0
   65.4380   49.5190   12.2690 C   0  0  0  0  0
   63.0750   49.0270   11.4460 C   0  0  0  0  0
   63.4440   48.3990   10.1540 N   0  0  0  0  0
   64.1940   46.4500   11.0510 O   0  0  0  0  0
   63.2510   45.4320    8.4160 C   0  0  0  0  0
   61.7750   45.8220    8.6220 C   0  0  0  0  0
   60.8400   44.6100    8.7090 C   0  0  0  0  0
   65.6480   46.2430    8.4160 C   0  0  0  0  0
   66.6030   48.5320    7.6260 C   0  0  0  0  0
   67.4210   49.5790    7.8270 N   0  0  0  0  0
   65.8520   48.5270    6.5290 N   0  0  0  0  0
   67.3720   47.5450    9.6750 C   0  0  0  0  0
   68.2120   48.6450    9.8580 C   0  0  0  0  0
   68.2140   49.6630    8.9050 C   0  0  0  0  0
   69.0390   50.7710    9.0650 C   0  0  0  0  0
   70.3920   50.9440   13.2040 C   0  0  0  0  0
   71.1790   51.1000   14.3400 C   0  0  0  0  0
   72.2850   50.2790   14.5350 C   0  0  0  0  0
   73.4702   48.6530   13.7617 H   0  0  0  0  0
   70.5119   51.7338   10.3043 H   0  0  0  0  0
   69.0242   47.9542   11.7363 H   0  0  0  0  0
   71.4071   47.3191   11.3568 H   0  0  0  0  0
   72.4305   48.4879   10.4865 H   0  0  0  0  0
   73.1149   47.5235   11.8179 H   0  0  0  0  0
   63.9490   47.4404    7.9430 H   0  0  0  0  0
   63.6048   50.4196   12.9375 H   0  0  0  0  0
   64.4985   52.7321   12.6284 H   0  0  0  0  0
   65.1734   53.1982   11.0178 H   0  0  0  0  0
   65.8327   50.8097   13.9429 H   0  0  0  0  0
   67.3018   50.1659   13.1242 H   0  0  0  0  0
   63.1777   51.6930   10.8469 H   0  0  0  0  0
   64.6508   50.9844   10.1337 H   0  0  0  0  0
   66.8859   52.6249   12.7805 H   0  0  0  0  0
   66.9826   51.6490   11.2629 H   0  0  0  0  0
   65.9097   49.2505   11.3238 H   0  0  0  0  0
   65.3485   48.6352   12.9006 H   0  0  0  0  0
   62.1295   49.5408   11.2722 H   0  0  0  0  0
   63.0641   48.2216   12.1803 H   0  0  0  0  0
   63.3086   48.9299    9.2937 H   0  0  0  0  0
   63.5097   44.6494    9.1293 H   0  0  0  0  0
   63.3818   45.0831    7.3917 H   0  0  0  0  0
   61.4665   46.4177    7.7629 H   0  0  0  0  0
   61.7038   46.3639    9.5650 H   0  0  0  0  0
   60.9049   44.0356    7.7849 H   0  0  0  0  0
   61.1372   43.9830    9.5496 H   0  0  0  0  0
   59.8155   44.9527    8.8541 H   0  0  0  0  0
   65.9417   45.5020    9.1595 H   0  0  0  0  0
   65.7519   45.8252    7.4146 H   0  0  0  0  0
   65.2238   47.7449    6.3446 H   0  0  0  0  0
   65.9040   49.3053    5.8718 H   0  0  0  0  0
   67.3564   46.7418   10.4117 H   0  0  0  0  0
   69.0369   51.5654    8.3187 H   0  0  0  0  0
   69.5278   51.5903   13.0505 H   0  0  0  0  0
   70.9297   51.8642   15.0762 H   0  0  0  0  0
   72.9042   50.4050   15.4231 H   0  0  0  0  0
  1  2  4  0  0  0
  4  1  1  0  0  0
  1 31  4  0  0  0
  2  3  4  0  0  0
  2  8  1  0  0  0
  3 33  4  0  0  0
  4  5  4  0  0  0
  6  4  4  0  0  0
  5 30  4  0  0  0
 28  6  4  0  0  0
  7 23  1  0  0  0
  7 24  4  0  0  0
 27  7  4  0  0  0
  9 10  1  0  0  0
  9 20  1  0  0  0
 23  9  1  0  0  0
 10 18  1  0  0  0
 10 19  2  0  0  0
 11 14  1  0  0  0
 11 16  1  0  0  0
 17 11  1  0  0  0
 14 12  1  0  0  0
 12 15  1  0  0  0
 13 15  1  0  0  0
 16 13  1  0  0  0
 18 17  1  0  0  0
 20 21  1  0  0  0
 21 22  1  0  0  0
 24 25  4  0  0  0
 24 26  1  0  0  0
 25 29  4  0  0  0
 27 28  4  0  0  0
 28 29  4  0  0  0
 29 30  4  0  0  0
 31 32  4  0  0  0
 32 33  4  0  0  0
  3 34  1  0  0  0
  5 35  1  0  0  0
  6 36  1  0  0  0
  8 37  1  0  0  0
  8 38  1  0  0  0
  8 39  1  0  0  0
  9 40  1  0  0  0
 11 41  1  0  0  0
 12 42  1  0  0  0
 12 43  1  0  0  0
 13 44  1  0  0  0
 13 45  1  0  0  0
 14 46  1  0  0  0
 14 47  1  0  0  0
 15 48  1  0  0  0
 15 49  1  0  0  0
 16 50  1  0  0  0
 16 51  1  0  0  0
 17 52  1  0  0  0
 17 53  1  0  0  0
 18 54  1  0  0  0
 20 55  1  0  0  0
 20 56  1  0  0  0
 21 57  1  0  0  0
 21 58  1  0  0  0
 22 59  1  0  0  0
 22 60  1  0  0  0
 22 61  1  0  0  0
 23 62  1  0  0  0
 23 63  1  0  0  0
 26 64  1  0  0  0
 26 65  1  0  0  0
 27 66  1  0  0  0
 30 67  1  0  0  0
 31 68  1  0  0  0
 32 69  1  0  0  0
 33 70  1  0  0  0
M  END
$$$$
