3l6h_ligand
  -I-interpret- 

 20 19  0  0  0  0  0  0  0  0999 V2000
   19.3700   -4.7470   50.0060 N   0  3  0  0  0
   20.2490   -4.1690   48.9660 C   0  0  0  0  0
   21.4130   -3.3540   49.4900 C   0  0  0  0  0
   21.3630   -2.8290   50.6290 O   0  0  0  0  0
   22.4060   -3.2320   48.7390 O   0  0  0  0  0
   18.5440   -5.7970   49.3880 C   0  0  0  0  0
   18.4800   -3.7070   50.5470 C   0  0  0  0  0
   20.1420   -5.3570   51.1030 C   0  0  0  0  0
   19.6326   -3.4920   48.3745 H   0  0  0  0  0
   20.6753   -5.0067   48.4140 H   0  0  0  0  0
   20.5220   -3.0404   51.0409 H   0  0  0  0  0
   17.8834   -6.2277   50.1404 H   0  0  0  0  0
   17.9481   -5.3632   48.5850 H   0  0  0  0  0
   19.1910   -6.5749   48.9826 H   0  0  0  0  0
   17.7952   -4.1551   51.2670 H   0  0  0  0  0
   19.0772   -2.9402   51.0404 H   0  0  0  0  0
   17.9108   -3.2582   49.7329 H   0  0  0  0  0
   20.7387   -4.5896   51.5962 H   0  0  0  0  0
   19.4567   -5.8046   51.8228 H   0  0  0  0  0
   20.7997   -6.1264   50.6986 H   0  0  0  0  0
  1  2  1  0  0  0
  1  6  1  0  0  0
  1  7  1  0  0  0
  1  8  1  0  0  0
  2  3  1  0  0  0
  3  4  1  0  0  0
  3  5  2  0  0  0
  2  9  1  0  0  0
  2 10  1  0  0  0
  4 11  1  0  0  0
  6 12  1  0  0  0
  6 13  1  0  0  0
  6 14  1  0  0  0
  7 15  1  0  0  0
  7 16  1  0  0  0
  7 17  1  0  0  0
  8 18  1  0  0  0
  8 19  1  0  0  0
  8 20  1  0  0  0
M  END
$$$$
