2liq_ligand
  -I-interpret- 

 80 82  0  0  0  0  0  0  0  0999 V2000
   59.3340  -11.9570   22.3000 C   0  0  0  0  0
   58.6860  -11.8700   23.6920 C   0  0  0  0  0
   58.7650  -13.2370   24.3930 C   0  0  0  0  0
   58.1510  -14.3440   23.5210 C   0  0  0  0  0
   58.7300  -14.3410   22.0970 C   0  0  0  0  0
   57.9870  -15.2960   21.1620 C   0  0  0  0  0
   58.8930   -9.6760   24.8050 C   0  0  0  0  0
   59.8230   -8.7930   25.6440 C   0  0  0  0  0
   59.3840  -10.8730   24.5080 N   0  0  0  0  0
   58.0670  -13.1900   25.6680 O   0  0  0  0  0
   58.4420  -15.6170   24.1390 O   0  0  0  0  0
   58.6220  -12.9760   21.5270 O   0  0  0  0  0
   58.4020  -15.0310   19.8040 O   0  0  0  0  0
   57.7790   -9.3030   24.4430 O   0  0  0  0  0
   61.0960   -9.0140   18.1540 C   0  0  0  0  0
   59.7010   -9.6630   17.9660 C   0  0  0  0  0
   59.0030   -9.9650   19.3110 C   0  0  0  0  0
   59.9530  -10.6000   20.3350 C   0  0  0  0  0
   61.2220   -9.7640   20.4980 C   0  0  0  0  0
   62.2320  -10.2970   21.5190 C   0  0  0  0  0
   58.5550   -8.9270   15.8850 C   0  0  0  0  0
   57.7930   -7.7550   15.2190 C   0  0  0  0  0
   58.8620   -8.7590   17.1680 N   0  0  0  0  0
   61.8190   -9.0190   16.8750 O   0  0  0  0  0
   57.8910  -10.9230   19.1120 O   0  0  0  0  0
   59.2510  -10.6540   21.6300 O   0  0  0  0  0
   61.8740   -9.7240   19.1760 O   0  0  0  0  0
   63.3470   -9.3860   21.5900 O   0  0  0  0  0
   58.8610   -9.9470   15.2690 O   0  0  0  0  0
   63.1450   -8.3880   16.9300 C   0  0  0  0  0
   56.5670  -10.3680   18.7820 C   0  0  0  0  0
   55.6090  -11.5180   18.3750 C   0  0  0  0  0
   55.2790  -12.3930   19.5960 C   0  0  0  0  0
   54.6960  -11.5530   20.7320 C   0  0  0  0  0
   55.6900  -10.4380   21.1130 C   0  0  0  0  0
   55.2390   -9.5350   22.2560 C   0  0  0  0  0
   56.2140  -12.3600   17.3440 O   0  0  0  0  0
   54.3110  -13.4130   19.2460 O   0  0  0  0  0
   53.4080  -11.0320   20.3160 O   0  0  0  0  0
   56.0140   -9.6060   19.9270 O   0  0  0  0  0
   60.3862  -12.2280   22.3867 H   0  0  0  0  0
   57.6423  -11.5788   23.5738 H   0  0  0  0  0
   59.8181  -13.4642   24.5585 H   0  0  0  0  0
   57.0777  -14.1694   23.4456 H   0  0  0  0  0
   59.7673  -14.6669   22.1740 H   0  0  0  0  0
   56.9117  -15.1449   21.2567 H   0  0  0  0  0
   58.2195  -16.3278   21.4255 H   0  0  0  0  0
   60.0433   -7.8765   25.0966 H   0  0  0  0  0
   59.3348   -8.5462   26.5868 H   0  0  0  0  0
   60.7501   -9.3304   25.8433 H   0  0  0  0  0
   60.3062  -11.1142   24.8710 H   0  0  0  0  0
   58.4483  -12.4994   26.2150 H   0  0  0  0  0
   58.0839  -15.6284   25.0296 H   0  0  0  0  0
   57.9410  -15.6258   19.2079 H   0  0  0  0  0
   60.9573   -7.9861   18.4892 H   0  0  0  0  0
   59.8407  -10.6162   17.4562 H   0  0  0  0  0
   58.6478   -9.0050   19.6855 H   0  0  0  0  0
   60.2383  -11.5948   19.9929 H   0  0  0  0  0
   60.9171   -8.7884   20.8765 H   0  0  0  0  0
   62.5804  -11.2835   21.2131 H   0  0  0  0  0
   61.7592  -10.3786   22.4977 H   0  0  0  0  0
   58.3811   -7.3669   14.3874 H   0  0  0  0  0
   56.8312   -8.1115   14.8504 H   0  0  0  0  0
   57.6323   -6.9646   15.9521 H   0  0  0  0  0
   58.4841   -7.9353   17.6361 H   0  0  0  0  0
   63.9855   -9.7126   22.2282 H   0  0  0  0  0
   63.0381   -7.3466   17.2336 H   0  0  0  0  0
   63.7676   -8.9162   17.6521 H   0  0  0  0  0
   63.6094   -8.4348   15.9450 H   0  0  0  0  0
   56.6718   -9.6785   17.9443 H   0  0  0  0  0
   54.6971  -11.0677   17.9829 H   0  0  0  0  0
   56.2105  -12.8557   19.9220 H   0  0  0  0  0
   54.5387  -12.1599   21.6236 H   0  0  0  0  0
   56.5736  -10.9632   21.4757 H   0  0  0  0  0
   54.3063   -9.0421   21.9816 H   0  0  0  0  0
   55.0841  -10.1356   23.1523 H   0  0  0  0  0
   56.0054   -8.7841   22.4482 H   0  0  0  0  0
   55.6045  -13.0632   17.1084 H   0  0  0  0  0
   54.1179  -13.9481   20.0193 H   0  0  0  0  0
   53.0343  -10.5026   21.0243 H   0  0  0  0  0
  1  2  1  0  0  0
  1 12  1  0  0  0
 26  1  1  0  0  0
  2  3  1  0  0  0
  2  9  1  0  0  0
  3  4  1  0  0  0
  3 10  1  0  0  0
  5  4  1  0  0  0
  4 11  1  0  0  0
  5  6  1  0  0  0
 12  5  1  0  0  0
  6 13  1  0  0  0
  7  8  1  0  0  0
  9  7  1  0  0  0
  7 14  2  0  0  0
 16 15  1  0  0  0
 15 24  1  0  0  0
 15 27  1  0  0  0
 16 17  1  0  0  0
 23 16  1  0  0  0
 17 18  1  0  0  0
 17 25  1  0  0  0
 18 19  1  0  0  0
 18 26  1  0  0  0
 19 20  1  0  0  0
 27 19  1  0  0  0
 20 28  1  0  0  0
 21 22  1  0  0  0
 21 23  1  0  0  0
 21 29  2  0  0  0
 24 30  1  0  0  0
 25 31  1  0  0  0
 31 32  1  0  0  0
 31 40  1  0  0  0
 32 33  1  0  0  0
 32 37  1  0  0  0
 33 34  1  0  0  0
 33 38  1  0  0  0
 34 35  1  0  0  0
 34 39  1  0  0  0
 35 36  1  0  0  0
 35 40  1  0  0  0
  1 41  1  0  0  0
  2 42  1  0  0  0
  3 43  1  0  0  0
  4 44  1  0  0  0
  5 45  1  0  0  0
  6 46  1  0  0  0
  6 47  1  0  0  0
  8 48  1  0  0  0
  8 49  1  0  0  0
  8 50  1  0  0  0
  9 51  1  0  0  0
 10 52  1  0  0  0
 11 53  1  0  0  0
 13 54  1  0  0  0
 15 55  1  0  0  0
 16 56  1  0  0  0
 17 57  1  0  0  0
 18 58  1  0  0  0
 19 59  1  0  0  0
 20 60  1  0  0  0
 20 61  1  0  0  0
 22 62  1  0  0  0
 22 63  1  0  0  0
 22 64  1  0  0  0
 23 65  1  0  0  0
 28 66  1  0  0  0
 30 67  1  0  0  0
 30 68  1  0  0  0
 30 69  1  0  0  0
 31 70  1  0  0  0
 32 71  1  0  0  0
 33 72  1  0  0  0
 34 73  1  0  0  0
 35 74  1  0  0  0
 36 75  1  0  0  0
 36 76  1  0  0  0
 36 77  1  0  0  0
 37 78  1  0  0  0
 38 79  1  0  0  0
 39 80  1  0  0  0
M  END
$$$$
