3p79_ligand
  -I-interpret- 

 63 66  0  0  0  0  0  0  0  0999 V2000
   50.0690   28.0860  -18.8210 C   0  0  0  0  0
   48.9430   27.4700  -18.2700 C   0  0  0  0  0
   50.0190   28.3060  -16.6150 N   0  0  0  0  0
   48.9000   27.6260  -16.9330 N   0  0  0  0  0
   47.7580   26.7650  -18.9280 C   0  0  0  0  0
   50.7440   28.6390  -17.7310 C   0  0  0  0  0
   50.3350   28.7380  -15.2270 C   0  0  0  0  0
   51.4980   28.0270  -14.6290 C   0  0  0  0  0
   51.5530   27.8910  -13.2960 N   0  0  0  0  0
   52.3420   27.5490  -15.3620 O   0  0  0  0  0
   52.4240   30.0970  -18.6410 C   0  0  0  0  0
   53.6810   30.4520  -18.7150 N   0  0  0  0  0
   51.6030   30.5120  -19.5990 O   0  0  0  0  0
   54.2170   31.3570  -19.5510 C   0  0  0  0  0
   53.7150   32.6250  -19.7900 C   0  0  0  0  0
   54.3800   33.5140  -20.6580 C   0  0  0  0  0
   55.5260   33.0520  -21.3230 C   0  0  0  0  0
   56.0160   31.7700  -21.1020 C   0  0  0  0  0
   55.3920   30.9050  -20.1820 C   0  0  0  0  0
   51.9560   29.3400  -17.6190 N   0  0  0  0  0
   46.6790   26.5090  -17.8650 C   0  0  0  0  0
   48.1170   25.5840  -19.8090 C   0  0  0  0  0
   47.0930   27.7550  -19.8480 C   0  0  0  0  0
   56.1760   33.9380  -22.2210 C   0  0  0  0  0
   57.3460   33.4790  -22.8740 C   0  0  0  0  0
   57.8590   32.1780  -22.6400 C   0  0  0  0  0
   57.2010   31.3110  -21.7170 C   0  0  0  0  0
   50.5720   28.5020  -12.4090 C   0  0  0  0  0
   51.2870   29.4620  -11.4450 C   0  0  0  0  0
   52.5080   28.6220  -10.6030 S   0  0  0  0  0
   53.4400   27.8550  -11.8260 C   0  0  0  0  0
   52.4840   26.9810  -12.6420 C   0  0  0  0  0
   51.8230   27.3800   -9.7600 O   0  0  0  0  0
   53.4810   29.8180   -9.9210 O   0  0  0  0  0
   50.3575   28.1262  -19.8714 H   0  0  0  0  0
   49.4644   28.5150  -14.6102 H   0  0  0  0  0
   50.5855   29.7982  -15.2647 H   0  0  0  0  0
   54.3228   29.9926  -18.0689 H   0  0  0  0  0
   52.7934   32.9398  -19.3004 H   0  0  0  0  0
   54.0151   34.5300  -20.8083 H   0  0  0  0  0
   55.8045   29.9195  -19.9659 H   0  0  0  0  0
   52.4929   29.2783  -16.7539 H   0  0  0  0  0
   45.7541   26.2034  -18.3542 H   0  0  0  0  0
   47.0137   25.7195  -17.1922 H   0  0  0  0  0
   46.5062   27.4231  -17.2970 H   0  0  0  0  0
   48.4901   24.7694  -19.1882 H   0  0  0  0  0
   47.2305   25.2534  -20.3502 H   0  0  0  0  0
   48.8875   25.8833  -20.5195 H   0  0  0  0  0
   46.1887   27.3113  -20.2646 H   0  0  0  0  0
   46.8335   28.6528  -19.2871 H   0  0  0  0  0
   47.7772   28.0148  -20.6558 H   0  0  0  0  0
   55.7872   34.9400  -22.4024 H   0  0  0  0  0
   57.8626   34.1393  -23.5706 H   0  0  0  0  0
   58.7536   31.8410  -23.1637 H   0  0  0  0  0
   57.6020   30.3224  -21.4932 H   0  0  0  0  0
   50.0619   27.7255  -11.8390 H   0  0  0  0  0
   49.8410   29.0548  -12.9990 H   0  0  0  0  0
   50.5663   29.8635  -10.7327 H   0  0  0  0  0
   51.7340   30.2785  -12.0121 H   0  0  0  0  0
   54.2306   27.2493  -11.3831 H   0  0  0  0  0
   53.9213   28.5965  -12.4637 H   0  0  0  0  0
   53.0278   26.3843  -13.3743 H   0  0  0  0  0
   51.9561   26.2746  -12.0013 H   0  0  0  0  0
  1  2  4  0  0  0
  6  1  4  0  0  0
  4  2  4  0  0  0
  2  5  1  0  0  0
  3  4  4  0  0  0
  6  3  4  0  0  0
  3  7  1  0  0  0
  5 21  1  0  0  0
  5 22  1  0  0  0
  5 23  1  0  0  0
 20  6  1  0  0  0
  7  8  1  0  0  0
  8  9  1  0  0  0
  8 10  2  0  0  0
  9 28  1  0  0  0
  9 32  1  0  0  0
 11 12  1  0  0  0
 11 13  2  0  0  0
 11 20  1  0  0  0
 12 14  1  0  0  0
 14 15  4  0  0  0
 14 19  4  0  0  0
 15 16  4  0  0  0
 16 17  4  0  0  0
 17 18  4  0  0  0
 17 24  4  0  0  0
 18 19  4  0  0  0
 18 27  4  0  0  0
 24 25  4  0  0  0
 25 26  4  0  0  0
 26 27  4  0  0  0
 28 29  1  0  0  0
 29 30  1  0  0  0
 30 31  1  0  0  0
 30 33  2  0  0  0
 30 34  2  0  0  0
 31 32  1  0  0  0
  1 35  1  0  0  0
  7 36  1  0  0  0
  7 37  1  0  0  0
 12 38  1  0  0  0
 15 39  1  0  0  0
 16 40  1  0  0  0
 19 41  1  0  0  0
 20 42  1  0  0  0
 21 43  1  0  0  0
 21 44  1  0  0  0
 21 45  1  0  0  0
 22 46  1  0  0  0
 22 47  1  0  0  0
 22 48  1  0  0  0
 23 49  1  0  0  0
 23 50  1  0  0  0
 23 51  1  0  0  0
 24 52  1  0  0  0
 25 53  1  0  0  0
 26 54  1  0  0  0
 27 55  1  0  0  0
 28 56  1  0  0  0
 28 57  1  0  0  0
 29 58  1  0  0  0
 29 59  1  0  0  0
 31 60  1  0  0  0
 31 61  1  0  0  0
 32 62  1  0  0  0
 32 63  1  0  0  0
M  END
$$$$
