3hdz_ligand
  -I-interpret- 

 43 45  0  0  0  0  0  0  0  0999 V2000
   20.1520   -6.7490   11.9030 N   0  0  0  0  0
   18.2550   -5.2510   11.8590 C   0  0  0  0  0
   18.2170   -5.1720   14.5640 C   0  0  0  0  0
   20.1210   -6.6960   14.6770 C   0  0  0  0  0
   21.0540   -7.4740   12.6100 C   0  0  0  0  0
   20.2890   -6.8680   10.4530 C   0  0  0  0  0
   16.2790   -3.6970   11.7500 C   0  0  0  0  0
   15.0450   -3.4270   12.3450 C   0  0  0  0  0
   14.0600   -2.7150   11.6600 C   0  0  0  0  0
   15.5100   -2.5350    9.7430 C   0  0  0  0  0
   14.2860   -2.2640   10.3560 C   0  0  0  0  0
   19.2120   -6.0000   12.5470 C   0  0  0  0  0
   19.1880   -5.9620   13.9420 C   0  0  0  0  0
   17.2990   -4.4750   12.5120 C   0  0  0  0  0
   17.3080   -4.4560   13.8670 N   0  0  0  0  0
   18.0880   -5.0510   15.8900 N   0  0  0  0  0
   21.0650   -7.4580   13.9970 C   0  0  0  0  0
   20.1900   -6.7330   15.9980 O   0  0  0  0  0
   21.3220   -5.8810    9.8900 C   0  0  0  0  0
   21.0790   -4.4000   10.2120 C   0  0  0  0  0
   16.4810   -3.2470   10.4430 C   0  0  0  0  0
   22.1300   -3.4500    9.6190 C   0  0  0  0  0
   18.2557   -5.2742   10.7692 H   0  0  0  0  0
   22.0138   -7.0361   12.3359 H   0  0  0  0  0
   20.8106   -8.5072   12.3624 H   0  0  0  0  0
   19.3229   -6.6457    9.9999 H   0  0  0  0  0
   20.6241   -7.8796   10.2241 H   0  0  0  0  0
   14.8486   -3.7772   13.3583 H   0  0  0  0  0
   13.1062   -2.5086   12.1455 H   0  0  0  0  0
   15.7042   -2.1929    8.7265 H   0  0  0  0  0
   13.5147   -1.7069    9.8241 H   0  0  0  0  0
   18.7215   -5.5532   16.5120 H   0  0  0  0  0
   17.3561   -4.4566   16.2791 H   0  0  0  0  0
   21.8060   -8.0368   14.5484 H   0  0  0  0  0
   19.5002   -6.1779   16.3690 H   0  0  0  0  0
   21.2732   -5.9712    8.8048 H   0  0  0  0  0
   22.2766   -6.1419   10.3469 H   0  0  0  0  0
   21.1227   -4.2938   11.2959 H   0  0  0  0  0
   20.1168   -4.1287    9.7776 H   0  0  0  0  0
   17.4315   -3.4605    9.9541 H   0  0  0  0  0
   23.1136   -3.7077   10.0118 H   0  0  0  0  0
   22.1341   -3.5469    8.5333 H   0  0  0  0  0
   21.8856   -2.4236    9.8925 H   0  0  0  0  0
  1  5  1  0  0  0
  1  6  1  0  0  0
 12  1  1  0  0  0
  2 12  4  0  0  0
 14  2  4  0  0  0
 13  3  4  0  0  0
  3 15  4  0  0  0
  3 16  1  0  0  0
  4 13  1  0  0  0
 17  4  2  0  0  0
  4 18  1  0  0  0
  5 17  1  0  0  0
  6 19  1  0  0  0
  7  8  4  0  0  0
  7 14  1  0  0  0
  7 21  4  0  0  0
  8  9  4  0  0  0
  9 11  4  0  0  0
 11 10  4  0  0  0
 10 21  4  0  0  0
 12 13  4  0  0  0
 14 15  4  0  0  0
 19 20  1  0  0  0
 20 22  1  0  0  0
  2 23  1  0  0  0
  5 24  1  0  0  0
  5 25  1  0  0  0
  6 26  1  0  0  0
  6 27  1  0  0  0
  8 28  1  0  0  0
  9 29  1  0  0  0
 10 30  1  0  0  0
 11 31  1  0  0  0
 16 32  1  0  0  0
 16 33  1  0  0  0
 17 34  1  0  0  0
 18 35  1  0  0  0
 19 36  1  0  0  0
 19 37  1  0  0  0
 20 38  1  0  0  0
 20 39  1  0  0  0
 21 40  1  0  0  0
 22 41  1  0  0  0
 22 42  1  0  0  0
 22 43  1  0  0  0
M  END
$$$$
