4psx_ligand
  -I-interpret- 

191190  0  0  0  0  0  0  0  0999 V2000
  -10.4770  -40.2040   31.0410 N   0  3  0  0  0
  -10.1820  -38.9340   30.3860 C   0  0  0  0  0
  -11.3750  -37.9930   30.3490 C   0  0  0  0  0
  -11.2980  -36.9260   29.7320 O   0  0  0  0  0
   -9.6970  -39.1630   28.9970 C   0  0  0  0  0
  -12.4840  -38.3870   30.9720 N   0  0  0  0  0
  -13.5800  -37.4430   31.1560 C   0  0  0  0  0
  -13.1480  -36.4950   32.2950 C   0  0  0  0  0
  -12.3550  -36.8770   33.1780 O   0  0  0  0  0
  -14.8730  -38.1790   31.5120 C   0  0  0  0  0
  -15.1490  -39.3610   30.6070 C   0  0  0  0  0
  -16.1800  -40.2750   31.2240 C   0  0  0  0  0
  -15.9280  -41.6420   30.7830 N   0  0  0  0  0
  -16.7010  -42.3180   29.9490 C   0  0  0  0  0
  -17.8050  -41.7600   29.4670 N   0  0  0  0  0
  -16.3790  -43.5580   29.6090 N   0  0  0  0  0
  -13.6830  -35.2790   32.2960 N   0  0  0  0  0
  -13.3570  -34.3170   33.3410 C   0  0  0  0  0
  -14.6140  -34.0140   34.1250 C   0  0  0  0  0
  -15.4730  -33.2760   33.6440 O   0  0  0  0  0
  -12.8290  -32.9960   32.7410 C   0  0  0  0  0
  -11.6500  -33.2520   31.9610 O   0  0  0  0  0
  -12.4960  -31.9980   33.8470 C   0  0  0  0  0
  -14.7290  -34.5840   35.3250 N   0  0  0  0  0
  -15.9470  -34.4080   36.1160 C   0  0  0  0  0
  -16.1500  -32.9380   36.4610 C   0  0  0  0  0
  -15.2170  -32.2360   36.8590 O   0  0  0  0  0
  -15.9570  -35.2840   37.3810 C   0  0  0  0  0
  -17.3450  -35.4110   38.0350 C   0  0  0  0  0
  -17.2880  -36.2640   39.2880 C   0  0  0  0  0
  -16.9880  -37.7170   38.9560 C   0  0  0  0  0
  -16.6730  -38.4970   40.1890 N   0  3  0  0  0
  -17.3890  -32.4900   36.3050 N   0  0  0  0  0
  -17.7220  -31.0800   36.3990 C   0  0  0  0  0
  -17.8640  -30.6090   37.8420 C   0  0  0  0  0
  -17.8840  -31.4150   38.7810 O   0  0  0  0  0
  -19.0310  -30.8160   35.6380 C   0  0  0  0  0
  -20.2040  -31.6580   36.1320 C   0  0  0  0  0
  -21.4750  -31.4340   35.3360 C   0  0  0  0  0
  -21.8460  -32.2480   34.4930 O   0  0  0  0  0
  -22.1580  -30.3330   35.6140 N   0  0  0  0  0
  -17.9620  -29.2940   38.0060 N   0  0  0  0  0
  -18.4110  -28.7220   39.2630 C   0  0  0  0  0
  -19.9070  -28.4730   39.0780 C   0  0  0  0  0
  -20.3510  -28.0470   38.0020 O   0  0  0  0  0
  -17.6690  -27.4150   39.5980 C   0  0  0  0  0
  -16.2540  -27.6370   39.5330 O   0  0  0  0  0
  -18.0170  -26.9510   40.9970 C   0  0  0  0  0
  -20.6810  -28.7710   40.1160 N   0  0  0  0  0
  -22.1320  -28.7460   40.0190 C   0  0  0  0  0
  -22.7080  -27.3910   40.4250 C   0  0  0  0  0
  -22.0950  -26.6490   41.1980 O   0  0  0  0  0
  -22.7260  -29.8540   40.8680 C   0  0  0  0  0
  -23.8790  -27.0700   39.8820 N   0  0  0  0  0
  -24.5720  -25.8340   40.2190 C   0  0  0  0  0
  -26.0730  -26.0920   40.3280 C   0  0  0  0  0
  -26.6040  -27.0050   39.6840 O   0  0  0  0  0
  -24.3020  -24.7570   39.1660 C   0  0  0  0  0
  -23.0910  -23.8870   39.4630 C   0  0  0  0  0
  -22.8090  -22.9400   38.3090 C   0  0  0  0  0
  -21.7020  -22.0290   38.5930 N   0  0  0  0  0
  -21.8570  -20.7560   38.9480 C   0  0  0  0  0
  -23.0780  -20.2430   39.0780 N   0  0  0  0  0
  -20.7930  -19.9970   39.1820 N   0  0  0  0  0
  -26.7500  -25.2820   41.1400 N   0  0  0  0  0
  -28.1790  -25.4570   41.3870 C   0  0  0  0  0
  -29.0130  -24.6470   40.3980 C   0  0  0  0  0
  -28.4680  -24.0110   39.4950 O   0  0  0  0  0
  -28.5200  -25.0630   42.8270 C   0  0  0  0  0
  -29.1390  -26.1870   43.6430 C   0  0  0  0  0
  -30.6280  -25.9510   43.8640 C   0  0  0  0  0
  -30.9490  -25.6820   45.3290 C   0  0  0  0  0
  -31.3420  -26.9300   46.0400 N   0  3  0  0  0
  -30.3300  -24.6640   40.5680 N   0  0  0  0  0
  -31.2050  -23.9650   39.6320 C   0  0  0  0  0
  -31.5680  -22.5340   40.0510 C   0  0  0  0  0
  -32.0110  -22.2870   41.1760 O   0  0  0  0  0
  -32.4660  -24.7870   39.3560 C   0  0  0  0  0
  -32.2210  -25.7360   38.3320 O   0  0  0  0  0
  -31.3780  -21.6020   39.1150 N   0  0  0  0  0
  -31.7530  -20.1970   39.2800 C   0  0  0  0  0
  -33.2750  -20.0210   39.3610 C   0  0  0  0  0
  -33.8600  -19.2520   38.5950 O   0  0  0  0  0
  -31.2130  -19.3430   38.1030 C   0  0  0  0  0
  -31.4960  -20.0020   36.8610 O   0  0  0  0  0
  -29.7040  -19.1390   38.2190 C   0  0  0  0  0
  -33.9070  -20.7280   40.2970 N   0  0  0  0  0
  -35.3570  -20.7650   40.3890 C   0  0  0  0  0
  -35.9300  -22.1030   39.9480 C   0  0  0  0  0
  -35.3050  -23.1540   40.1180 O   0  0  0  0  0
  -37.0635  -22.1395   39.3990 O   0  0  0  0  0
  -10.8073  -40.0272   31.9897 H   0  0  0  0  0
  -11.1985  -40.6970   30.5149 H   0  0  0  0  0
   -9.6307  -40.7724   31.0747 H   0  0  0  0  0
   -9.4046  -38.4578   30.9835 H   0  0  0  0  0
  -10.4960  -39.6069   28.4031 H   0  0  0  0  0
   -9.4001  -38.2116   28.5557 H   0  0  0  0  0
   -8.8411  -39.8376   29.0190 H   0  0  0  0  0
  -12.5663  -39.3429   31.3182 H   0  0  0  0  0
  -13.7818  -36.8858   30.2412 H   0  0  0  0  0
  -15.6976  -37.4750   31.3997 H   0  0  0  0  0
  -14.7710  -38.5564   32.5295 H   0  0  0  0  0
  -14.2237  -39.9190   30.4636 H   0  0  0  0  0
  -15.5286  -38.9940   29.6534 H   0  0  0  0  0
  -17.1779  -39.9665   30.9124 H   0  0  0  0  0
  -16.1149  -40.2217   32.3107 H   0  0  0  0  0
  -15.0965  -42.1103   31.1432 H   0  0  0  0  0
  -18.4074  -42.2856   28.8336 H   0  0  0  0  0
  -18.0508  -40.8056   29.7300 H   0  0  0  0  0
  -15.5368  -43.9890   29.9902 H   0  0  0  0  0
  -14.3315  -35.0148   31.5544 H   0  0  0  0  0
  -12.5836  -34.7464   33.9779 H   0  0  0  0  0
  -13.6062  -32.5722   32.1050 H   0  0  0  0  0
  -11.3271  -32.4271   31.5911 H   0  0  0  0  0
  -13.3942  -31.7883   34.4279 H   0  0  0  0  0
  -11.7311  -32.4211   34.4982 H   0  0  0  0  0
  -12.1258  -31.0745   33.4019 H   0  0  0  0  0
  -13.9624  -35.1466   35.6940 H   0  0  0  0  0
  -16.7842  -34.7406   35.5023 H   0  0  0  0  0
  -15.2958  -34.8133   38.1086 H   0  0  0  0  0
  -15.6427  -36.2853   37.0865 H   0  0  0  0  0
  -18.0217  -35.8843   37.3236 H   0  0  0  0  0
  -17.6919  -34.4147   38.3090 H   0  0  0  0  0
  -18.2570  -36.2151   39.7846 H   0  0  0  0  0
  -16.4931  -35.8841   39.9298 H   0  0  0  0  0
  -16.1245  -37.7515   38.2918 H   0  0  0  0  0
  -17.8665  -38.1546   38.4818 H   0  0  0  0  0
  -16.4765  -39.4655   39.9363 H   0  0  0  0  0
  -15.8568  -38.0916   40.6471 H   0  0  0  0  0
  -17.4712  -38.4651   40.8232 H   0  0  0  0  0
  -18.1338  -33.1597   36.1122 H   0  0  0  0  0
  -16.9009  -30.5171   35.9552 H   0  0  0  0  0
  -18.8598  -31.0745   34.5930 H   0  0  0  0  0
  -19.2927  -29.7689   35.7905 H   0  0  0  0  0
  -20.4053  -31.3717   37.1643 H   0  0  0  0  0
  -19.9269  -32.7067   36.0247 H   0  0  0  0  0
  -23.0283  -30.1344   35.1205 H   0  0  0  0  0
  -21.8135  -29.6841   36.3215 H   0  0  0  0  0
  -17.7170  -28.6742   37.2338 H   0  0  0  0  0
  -18.2069  -29.3926   40.0977 H   0  0  0  0  0
  -17.9692  -26.6545   38.8772 H   0  0  0  0  0
  -15.7933  -26.8212   39.7421 H   0  0  0  0  0
  -19.0908  -26.7763   41.0639 H   0  0  0  0  0
  -17.7268  -27.7177   41.7154 H   0  0  0  0  0
  -17.4829  -26.0262   41.2151 H   0  0  0  0  0
  -20.2465  -29.0238   41.0036 H   0  0  0  0  0
  -22.3999  -28.9094   38.9751 H   0  0  0  0  0
  -22.3582  -30.8174   40.5149 H   0  0  0  0  0
  -22.4323  -29.7104   41.9078 H   0  0  0  0  0
  -23.8128  -29.8275   40.7891 H   0  0  0  0  0
  -24.3043  -27.7083   39.2097 H   0  0  0  0  0
  -24.1975  -25.4788   41.1791 H   0  0  0  0  0
  -25.1725  -24.1013   39.1453 H   0  0  0  0  0
  -24.1074  -25.2693   38.2238 H   0  0  0  0  0
  -22.2236  -24.5308   39.6086 H   0  0  0  0  0
  -23.2925  -23.2989   40.3583 H   0  0  0  0  0
  -23.7034  -22.3408   38.1384 H   0  0  0  0  0
  -22.5379  -23.5392   37.4398 H   0  0  0  0  0
  -20.7518  -22.3914   38.5142 H   0  0  0  0  0
  -23.1949  -19.2688   39.3568 H   0  0  0  0  0
  -23.8970  -20.8240   38.8988 H   0  0  0  0  0
  -19.8562  -20.3897   39.0897 H   0  0  0  0  0
  -26.2569  -24.5181   41.6023 H   0  0  0  0  0
  -28.4217  -26.5100   41.2440 H   0  0  0  0  0
  -29.2520  -24.2569   42.7779 H   0  0  0  0  0
  -27.5870  -24.7830   43.3161 H   0  0  0  0  0
  -28.6447  -26.2255   44.6137 H   0  0  0  0  0
  -29.0118  -27.1230   43.0991 H   0  0  0  0  0
  -31.1658  -26.8474   43.5552 H   0  0  0  0  0
  -30.9258  -25.0782   43.2829 H   0  0  0  0  0
  -31.7821  -24.9807   45.3767 H   0  0  0  0  0
  -30.0579  -25.2774   45.8089 H   0  0  0  0  0
  -31.5492  -26.7135   47.0150 H   0  0  0  0  0
  -32.1697  -27.3270   45.5953 H   0  0  0  0  0
  -30.5754  -27.6013   45.9950 H   0  0  0  0  0
  -30.7326  -25.1687   41.3577 H   0  0  0  0  0
  -30.6279  -23.8604   38.7132 H   0  0  0  0  0
  -33.2643  -24.1171   39.0365 H   0  0  0  0  0
  -32.7542  -25.3126   40.2664 H   0  0  0  0  0
  -33.0196  -26.2435   38.1699 H   0  0  0  0  0
  -30.9471  -21.8848   38.2348 H   0  0  0  0  0
  -31.3094  -19.8597   40.2168 H   0  0  0  0  0
  -31.7042  -18.3706   38.1377 H   0  0  0  0  0
  -31.1607  -19.4712   36.1347 H   0  0  0  0  0
  -29.4787  -18.6267   39.1544 H   0  0  0  0  0
  -29.2055  -20.1082   38.2049 H   0  0  0  0  0
  -29.3545  -18.5369   37.3803 H   0  0  0  0  0
  -33.3557  -21.2601   40.9703 H   0  0  0  0  0
  -35.7571  -19.9929   39.7318 H   0  0  0  0  0
  -35.6337  -20.6059   41.4312 H   0  0  0  0  0
  -37.4177  -21.2492   39.3392 H   0  0  0  0  0
  1  2  1  0  0  0
  2  3  1  0  0  0
  2  5  1  0  0  0
  3  4  2  0  0  0
  3  6  1  0  0  0
  6  7  1  0  0  0
  7  8  1  0  0  0
  7 10  1  0  0  0
  8  9  2  0  0  0
  8 17  1  0  0  0
 10 11  1  0  0  0
 11 12  1  0  0  0
 12 13  1  0  0  0
 13 14  1  0  0  0
 14 15  1  0  0  0
 14 16  2  0  0  0
 17 18  1  0  0  0
 18 19  1  0  0  0
 18 21  1  0  0  0
 19 20  2  0  0  0
 19 24  1  0  0  0
 21 22  1  0  0  0
 21 23  1  0  0  0
 24 25  1  0  0  0
 25 26  1  0  0  0
 25 28  1  0  0  0
 26 27  2  0  0  0
 26 33  1  0  0  0
 28 29  1  0  0  0
 29 30  1  0  0  0
 30 31  1  0  0  0
 31 32  1  0  0  0
 33 34  1  0  0  0
 34 35  1  0  0  0
 34 37  1  0  0  0
 35 36  2  0  0  0
 35 42  1  0  0  0
 37 38  1  0  0  0
 38 39  1  0  0  0
 39 40  2  0  0  0
 39 41  1  0  0  0
 42 43  1  0  0  0
 43 44  1  0  0  0
 43 46  1  0  0  0
 44 45  2  0  0  0
 44 49  1  0  0  0
 46 47  1  0  0  0
 46 48  1  0  0  0
 49 50  1  0  0  0
 50 51  1  0  0  0
 50 53  1  0  0  0
 51 52  2  0  0  0
 51 54  1  0  0  0
 54 55  1  0  0  0
 55 56  1  0  0  0
 55 58  1  0  0  0
 56 57  2  0  0  0
 56 65  1  0  0  0
 58 59  1  0  0  0
 59 60  1  0  0  0
 60 61  1  0  0  0
 61 62  1  0  0  0
 62 63  1  0  0  0
 62 64  2  0  0  0
 65 66  1  0  0  0
 66 67  1  0  0  0
 66 69  1  0  0  0
 67 68  2  0  0  0
 67 74  1  0  0  0
 69 70  1  0  0  0
 70 71  1  0  0  0
 71 72  1  0  0  0
 72 73  1  0  0  0
 74 75  1  0  0  0
 75 76  1  0  0  0
 75 78  1  0  0  0
 76 77  2  0  0  0
 76 80  1  0  0  0
 78 79  1  0  0  0
 80 81  1  0  0  0
 81 82  1  0  0  0
 81 84  1  0  0  0
 82 83  2  0  0  0
 82 87  1  0  0  0
 84 85  1  0  0  0
 84 86  1  0  0  0
 87 88  1  0  0  0
 88 89  1  0  0  0
 89 90  2  0  0  0
 89 91  1  0  0  0
  1 92  1  0  0  0
  1 93  1  0  0  0
  1 94  1  0  0  0
  2 95  1  0  0  0
  5 96  1  0  0  0
  5 97  1  0  0  0
  5 98  1  0  0  0
  6 99  1  0  0  0
  7100  1  0  0  0
 10101  1  0  0  0
 10102  1  0  0  0
 11103  1  0  0  0
 11104  1  0  0  0
 12105  1  0  0  0
 12106  1  0  0  0
 13107  1  0  0  0
 15108  1  0  0  0
 15109  1  0  0  0
 16110  1  0  0  0
 17111  1  0  0  0
 18112  1  0  0  0
 21113  1  0  0  0
 22114  1  0  0  0
 23115  1  0  0  0
 23116  1  0  0  0
 23117  1  0  0  0
 24118  1  0  0  0
 25119  1  0  0  0
 28120  1  0  0  0
 28121  1  0  0  0
 29122  1  0  0  0
 29123  1  0  0  0
 30124  1  0  0  0
 30125  1  0  0  0
 31126  1  0  0  0
 31127  1  0  0  0
 32128  1  0  0  0
 32129  1  0  0  0
 32130  1  0  0  0
 33131  1  0  0  0
 34132  1  0  0  0
 37133  1  0  0  0
 37134  1  0  0  0
 38135  1  0  0  0
 38136  1  0  0  0
 41137  1  0  0  0
 41138  1  0  0  0
 42139  1  0  0  0
 43140  1  0  0  0
 46141  1  0  0  0
 47142  1  0  0  0
 48143  1  0  0  0
 48144  1  0  0  0
 48145  1  0  0  0
 49146  1  0  0  0
 50147  1  0  0  0
 53148  1  0  0  0
 53149  1  0  0  0
 53150  1  0  0  0
 54151  1  0  0  0
 55152  1  0  0  0
 58153  1  0  0  0
 58154  1  0  0  0
 59155  1  0  0  0
 59156  1  0  0  0
 60157  1  0  0  0
 60158  1  0  0  0
 61159  1  0  0  0
 63160  1  0  0  0
 63161  1  0  0  0
 64162  1  0  0  0
 65163  1  0  0  0
 66164  1  0  0  0
 69165  1  0  0  0
 69166  1  0  0  0
 70167  1  0  0  0
 70168  1  0  0  0
 71169  1  0  0  0
 71170  1  0  0  0
 72171  1  0  0  0
 72172  1  0  0  0
 73173  1  0  0  0
 73174  1  0  0  0
 73175  1  0  0  0
 74176  1  0  0  0
 75177  1  0  0  0
 78178  1  0  0  0
 78179  1  0  0  0
 79180  1  0  0  0
 80181  1  0  0  0
 81182  1  0  0  0
 84183  1  0  0  0
 85184  1  0  0  0
 86185  1  0  0  0
 86186  1  0  0  0
 86187  1  0  0  0
 87188  1  0  0  0
 88189  1  0  0  0
 88190  1  0  0  0
 91191  1  0  0  0
M  END
$$$$
