### 
### Created by X-TOOL on Mon Sep 10 21:13:18 2018
### 

@<TRIPOS>MOLECULE
4psx_ligand
  192   191     1     0     0
SMALL
GAST_HUCK


@<TRIPOS>ATOM
      1 N         -10.4770  -40.2040   31.0410 N.4       1 ALA         0.2377
      2 CA        -10.1820  -38.9340   30.3860 C.3       1 ALA         0.0621
      3 C         -11.3750  -37.9930   30.3490 C.2       1 ALA         0.2264
      4 O         -11.2980  -36.9260   29.7320 O.2       1 ALA        -0.3907
      5 CB         -9.6970  -39.1630   28.9970 C.3       1 ALA        -0.0040
      6 N         -12.4840  -38.3870   30.9720 N.am      1 ARG        -0.2610
      7 CA        -13.5800  -37.4430   31.1560 C.3       1 ARG         0.1312
      8 C         -13.1480  -36.4950   32.2950 C.2       1 ARG         0.2040
      9 O         -12.3550  -36.8770   33.1780 O.2       1 ARG        -0.3944
     10 CB        -14.8730  -38.1790   31.5120 C.3       1 ARG        -0.0092
     11 CG        -15.1490  -39.3610   30.6070 C.3       1 ARG        -0.0156
     12 CD        -16.1800  -40.2750   31.2240 C.3       1 ARG         0.0627
     13 NE        -15.9280  -41.6420   30.7830 N.pl3     1 ARG        -0.2723
     14 CZ        -16.7010  -42.3180   29.9490 C.cat     1 ARG         0.2882
     15 NH1       -17.8050  -41.7600   29.4670 N.pl3     1 ARG        -0.2849
     16 NH2       -16.3790  -43.5580   29.6090 N.pl3     1 ARG        -0.2849
     17 N         -13.6830  -35.2790   32.2960 N.am      1 THR        -0.2613
     18 CA        -13.3570  -34.3170   33.3410 C.3       1 THR         0.1565
     19 C         -14.6140  -34.0140   34.1250 C.2       1 THR         0.2065
     20 O         -15.4730  -33.2760   33.6440 O.2       1 THR        -0.3943
     21 CB        -12.8290  -32.9960   32.7410 C.3       1 THR         0.0924
     22 OG1       -11.6500  -33.2520   31.9610 O.3       1 THR        -0.3874
     23 CG2       -12.4960  -31.9980   33.8470 C.3       1 THR        -0.0346
     24 N         -14.7290  -34.5840   35.3250 N.am      1 LYS        -0.2637
     25 CA        -15.9470  -34.4080   36.1160 C.3       1 LYS         0.1310
     26 C         -16.1500  -32.9380   36.4610 C.2       1 LYS         0.2039
     27 O         -15.2170  -32.2360   36.8590 O.2       1 LYS        -0.3944
     28 CB        -15.9570  -35.2840   37.3810 C.3       1 LYS        -0.0122
     29 CG        -17.3450  -35.4110   38.0350 C.3       1 LYS        -0.0440
     30 CD        -17.2880  -36.2640   39.2880 C.3       1 LYS        -0.0124
     31 CE        -16.9880  -37.7170   38.9560 C.3       1 LYS        -0.0354
     32 NZ        -16.6730  -38.4970   40.1890 N.4       1 LYS         0.2185
     33 N         -17.3890  -32.4900   36.3050 N.am      1 GLN        -0.2636
     34 CA        -17.7220  -31.0800   36.3990 C.3       1 GLN         0.1330
     35 C         -17.8640  -30.6090   37.8420 C.2       1 GLN         0.2041
     36 O         -17.8840  -31.4150   38.7810 O.2       1 GLN        -0.3944
     37 CB        -19.0310  -30.8160   35.6380 C.3       1 GLN         0.0045
     38 CG        -20.2040  -31.6580   36.1320 C.3       1 GLN         0.0412
     39 CD        -21.4750  -31.4340   35.3360 C.2       1 GLN         0.1737
     40 OE1       -21.8460  -32.2480   34.4930 O.2       1 GLN        -0.3973
     41 NE2       -22.1580  -30.3330   35.6140 N.am      1 GLN        -0.3009
     42 N         -17.9620  -29.2940   38.0060 N.am      1 THR        -0.2613
     43 CA        -18.4110  -28.7220   39.2630 C.3       1 THR         0.1565
     44 C         -19.9070  -28.4730   39.0780 C.2       1 THR         0.2065
     45 O         -20.3510  -28.0470   38.0020 O.2       1 THR        -0.3943
     46 CB        -17.6690  -27.4150   39.5980 C.3       1 THR         0.0924
     47 OG1       -16.2540  -27.6370   39.5330 O.3       1 THR        -0.3874
     48 CG2       -18.0170  -26.9510   40.9970 C.3       1 THR        -0.0346
     49 N         -20.6810  -28.7710   40.1160 N.am      1 ALA        -0.2639
     50 CA        -22.1320  -28.7460   40.0190 C.3       1 ALA         0.1282
     51 C         -22.7080  -27.3910   40.4250 C.2       1 ALA         0.2036
     52 O         -22.0950  -26.6490   41.1980 O.2       1 ALA        -0.3944
     53 CB        -22.7260  -29.8540   40.8680 C.3       1 ALA        -0.0244
     54 N         -23.8790  -27.0700   39.8820 N.am      1 ARG        -0.2637
     55 CA        -24.5720  -25.8340   40.2190 C.3       1 ARG         0.1311
     56 C         -26.0730  -26.0920   40.3280 C.2       1 ARG         0.2039
     57 O         -26.6040  -27.0050   39.6840 O.2       1 ARG        -0.3944
     58 CB        -24.3020  -24.7570   39.1660 C.3       1 ARG        -0.0092
     59 CG        -23.0910  -23.8870   39.4630 C.3       1 ARG        -0.0156
     60 CD        -22.8090  -22.9400   38.3090 C.3       1 ARG         0.0627
     61 NE        -21.7020  -22.0290   38.5930 N.pl3     1 ARG        -0.2723
     62 CZ        -21.8570  -20.7560   38.9480 C.cat     1 ARG         0.2882
     63 NH1       -23.0780  -20.2430   39.0780 N.pl3     1 ARG        -0.2849
     64 NH2       -20.7930  -19.9970   39.1820 N.pl3     1 ARG        -0.2849
     65 N         -26.7500  -25.2820   41.1400 N.am      1 LYS        -0.2637
     66 CA        -28.1790  -25.4570   41.3870 C.3       1 LYS         0.1310
     67 C         -29.0130  -24.6470   40.3980 C.2       1 LYS         0.2040
     68 O         -28.4680  -24.0110   39.4950 O.2       1 LYS        -0.3944
     69 CB        -28.5200  -25.0630   42.8270 C.3       1 LYS        -0.0122
     70 CG        -29.1390  -26.1870   43.6430 C.3       1 LYS        -0.0440
     71 CD        -30.6280  -25.9510   43.8640 C.3       1 LYS        -0.0124
     72 CE        -30.9490  -25.6820   45.3290 C.3       1 LYS        -0.0354
     73 NZ        -31.3420  -26.9300   46.0400 N.4       1 LYS         0.2185
     74 N         -30.3300  -24.6640   40.5680 N.am      1 SER        -0.2616
     75 CA        -31.2050  -23.9650   39.6320 C.3       1 SER         0.1539
     76 C         -31.5680  -22.5340   40.0510 C.2       1 SER         0.2063
     77 O         -32.0110  -22.2870   41.1760 O.2       1 SER        -0.3943
     78 CB        -32.4660  -24.7870   39.3560 C.3       1 SER         0.0843
     79 OG        -32.2210  -25.7360   38.3320 O.3       1 SER        -0.3903
     80 N         -31.3780  -21.6020   39.1150 N.am      1 THR        -0.2613
     81 CA        -31.7530  -20.1970   39.2800 C.3       1 THR         0.1564
     82 C         -33.2750  -20.0210   39.3610 C.2       1 THR         0.2058
     83 O         -33.8600  -19.2520   38.5950 O.2       1 THR        -0.3943
     84 CB        -31.2130  -19.3430   38.1030 C.3       1 THR         0.0924
     85 OG1       -31.4960  -20.0020   36.8610 O.3       1 THR        -0.3874
     86 CG2       -29.7040  -19.1390   38.2190 C.3       1 THR        -0.0346
     87 N         -33.9070  -20.7280   40.2970 N.am      1 GLY        -0.2697
     88 CA        -35.3570  -20.7650   40.3890 C.3       1 GLY         0.1116
     89 C         -35.9300  -22.1030   39.9480 C.2       1 GLY         0.2118
     90 O         -35.3050  -23.1540   40.1180 O.co2     1 GLY        -0.4123
     91 H          -9.6527  -40.7842   31.0357 H         1 ALA         0.2015
     92 H         -11.2206  -40.6721   30.5470 H         1 ALA         0.2015
     93 H         -10.7614  -40.0331   31.9928 H         1 ALA         0.2015
     94 H          -9.3808  -38.4423   30.9572 H         1 ALA         0.1095
     95 H          -9.4802  -38.1957   28.5202 H         1 ALA         0.0310
     96 H         -10.4712  -39.6905   28.4206 H         1 ALA         0.0310
     97 H          -8.7813  -39.7718   29.0240 H         1 ALA         0.0310
     98 H         -12.5647  -39.3242   31.3114 H         1 ARG         0.1884
     99 H         -13.7388  -36.8681   30.2318 H         1 ARG         0.0800
    100 H         -15.7122  -37.4724   31.4315 H         1 ARG         0.0313
    101 H         -14.7965  -38.5410   32.5479 H         1 ARG         0.0313
    102 H         -14.2159  -39.9222   30.4510 H         1 ARG         0.0301
    103 H         -15.5232  -38.9955   29.6393 H         1 ARG         0.0301
    104 H         -17.1860  -39.9644   30.9054 H         1 ARG         0.0689
    105 H         -16.1102  -40.2226   32.3205 H         1 ARG         0.0689
    106 H         -15.0884  -42.1149   31.1468 H         1 ARG         0.2642
    107 H         -18.4068  -42.2864   28.8177 H         1 ARG         0.2615
    108 H         -18.0597  -40.8007   29.7424 H         1 ARG         0.2615
    109 H         -15.5220  -43.9888   29.9842 H         1 ARG         0.2615
    110 H         -16.9858  -44.0908   28.9696 H         1 ARG         0.2615
    111 H         -14.3188  -35.0200   31.5689 H         1 THR         0.1884
    112 H         -12.5939  -34.7465   34.0067 H         1 THR         0.0826
    113 H         -13.6049  -32.5646   32.0914 H         1 THR         0.0639
    114 H         -11.3304  -32.4357   31.5949 H         1 THR         0.2101
    115 H         -12.1222  -31.0655   33.3990 H         1 THR         0.0257
    116 H         -11.7241  -32.4238   34.5049 H         1 THR         0.0257
    117 H         -13.4017  -31.7855   34.4340 H         1 THR         0.0257
    118 H         -13.9774  -35.1356   35.6867 H         1 LYS         0.1883
    119 H         -16.7951  -34.7252   35.4914 H         1 LYS         0.0800
    120 H         -15.2666  -34.8424   38.1147 H         1 LYS         0.0312
    121 H         -15.6080  -36.2910   37.1088 H         1 LYS         0.0312
    122 H         -18.0382  -35.8743   37.3175 H         1 LYS         0.0269
    123 H         -17.7090  -34.4076   38.3009 H         1 LYS         0.0269
    124 H         -18.2578  -36.2076   39.8039 H         1 LYS         0.0317
    125 H         -16.4981  -35.8773   39.9487 H         1 LYS         0.0317
    126 H         -16.1256  -37.7590   38.2745 H         1 LYS         0.0813
    127 H         -17.8658  -38.1616   38.4644 H         1 LYS         0.0813
    128 H         -16.4786  -39.4543   39.9404 H         1 LYS         0.1994
    129 H         -17.4612  -38.4663   40.8166 H         1 LYS         0.1994
    130 H         -15.8665  -38.0973   40.6426 H         1 LYS         0.1994
    131 H         -18.1192  -33.1466   36.1160 H         1 GLN         0.1883
    132 H         -16.9137  -30.5023   35.9268 H         1 GLN         0.0801
    133 H         -18.8660  -31.0397   34.5737 H         1 GLN         0.0337
    134 H         -19.2923  -29.7537   35.7532 H         1 GLN         0.0337
    135 H         -20.4001  -31.4020   37.1837 H         1 GLN         0.0504
    136 H         -19.9278  -32.7202   36.0585 H         1 GLN         0.0504
    137 H         -23.0046  -30.1319   35.1211 H         1 GLN         0.1814
    138 H         -21.8269  -29.7032   36.3166 H         1 GLN         0.1814
    139 H         -17.7218  -28.6864   37.2490 H         1 THR         0.1884
    140 H         -18.2468  -29.4400   40.0800 H         1 THR         0.0826
    141 H         -17.9556  -26.6392   38.8727 H         1 THR         0.0639
    142 H         -15.7981  -26.8297   39.7399 H         1 THR         0.2101
    143 H         -17.4786  -26.0177   41.2183 H         1 THR         0.0257
    144 H         -17.7246  -27.7239   41.7230 H         1 THR         0.0257
    145 H         -19.1005  -26.7743   41.0658 H         1 THR         0.0257
    146 H         -20.2550  -29.0188   40.9862 H         1 ALA         0.1883
    147 H         -22.4065  -28.9296   38.9698 H         1 ALA         0.0797
    148 H         -23.8229  -29.8283   40.7893 H         1 ALA         0.0277
    149 H         -22.4303  -29.7102   41.9177 H         1 ALA         0.0277
    150 H         -22.3556  -30.8269   40.5126 H         1 ALA         0.0277
    151 H         -24.2960  -27.6958   39.2228 H         1 ARG         0.1883
    152 H         -24.2018  -25.4764   41.1911 H         1 ARG         0.0800
    153 H         -25.1869  -24.1068   39.1023 H         1 ARG         0.0313
    154 H         -24.1413  -25.2534   38.1977 H         1 ARG         0.0313
    155 H         -22.2143  -24.5320   39.6223 H         1 ARG         0.0301
    156 H         -23.2839  -23.2992   40.3725 H         1 ARG         0.0301
    157 H         -23.7132  -22.3459   38.1106 H         1 ARG         0.0689
    158 H         -22.5577  -23.5340   37.4180 H         1 ARG         0.0689
    159 H         -20.7425  -22.3950   38.5134 H         1 ARG         0.2642
    160 H         -23.1959  -19.2574   39.3529 H         1 ARG         0.2615
    161 H         -23.9051  -20.8316   38.9037 H         1 ARG         0.2615
    162 H         -19.8469  -20.3916   39.0821 H         1 ARG         0.2615
    163 H         -20.9137  -19.0136   39.4634 H         1 ARG         0.2615
    164 H         -26.2665  -24.5331   41.5932 H         1 LYS         0.1883
    165 H         -28.4239  -26.5208   41.2517 H         1 LYS         0.0800
    166 H         -29.2311  -24.2243   42.7975 H         1 LYS         0.0312
    167 H         -27.5943  -24.7415   43.3266 H         1 LYS         0.0312
    168 H         -28.6354  -26.2411   44.6194 H         1 LYS         0.0269
    169 H         -29.0020  -27.1375   43.1066 H         1 LYS         0.0269
    170 H         -31.1820  -26.8431   43.5365 H         1 LYS         0.0317
    171 H         -30.9433  -25.0834   43.2657 H         1 LYS         0.0317
    172 H         -31.7783  -24.9616   45.3867 H         1 LYS         0.0813
    173 H         -30.0597  -25.2573   45.8176 H         1 LYS         0.0813
    174 H         -31.5470  -26.7173   47.0037 H         1 LYS         0.1994
    175 H         -30.5851  -27.5942   45.9962 H         1 LYS         0.1994
    176 H         -32.1599  -27.3232   45.6014 H         1 LYS         0.1994
    177 H         -30.7247  -25.1588   41.3422 H         1 SER         0.1884
    178 H         -30.6522  -23.8843   38.6844 H         1 SER         0.0823
    179 H         -33.2762  -24.1134   39.0400 H         1 SER         0.0606
    180 H         -32.7641  -25.3135   40.2746 H         1 SER         0.0606
    181 H         -31.5229  -26.3202   38.6036 H         1 SER         0.2097
    182 H         -30.9555  -21.8793   38.2521 H         1 THR         0.1884
    183 H         -31.3077  -19.8305   40.2167 H         1 THR         0.0826
    184 H         -31.7103  -18.3619   38.1170 H         1 THR         0.0639
    185 H         -32.4352  -20.1105   36.7682 H         1 THR         0.2101
    186 H         -29.3501  -18.5315   37.3730 H         1 THR         0.0257
    187 H         -29.1997  -20.1165   38.2048 H         1 THR         0.0257
    188 H         -29.4753  -18.6220   39.1626 H         1 THR         0.0257
    189 H         -33.3665  -21.2497   40.9571 H         1 GLY         0.1874
    190 H         -35.7724  -19.9738   39.7475 H         1 GLY         0.0714
    191 H         -35.6499  -20.5819   41.4333 H         1 GLY         0.0714
    192 O1        -37.0635  -22.1395   39.3990 O.co2     1 GLY        -0.4123
@<TRIPOS>BOND
     1    1    2 1  
     2    2    3 1  
     3    2    5 1  
     4    3    4 2  
     5    3    6 am 
     6    6    7 1  
     7    7    8 1  
     8    7   10 1  
     9    8    9 2  
    10    8   17 am 
    11   10   11 1  
    12   11   12 1  
    13   12   13 1  
    14   13   14 ar 
    15   14   15 ar 
    16   14   16 ar 
    17   17   18 1  
    18   18   19 1  
    19   18   21 1  
    20   19   20 2  
    21   19   24 am 
    22   21   22 1  
    23   21   23 1  
    24   24   25 1  
    25   25   26 1  
    26   25   28 1  
    27   26   27 2  
    28   26   33 am 
    29   28   29 1  
    30   29   30 1  
    31   30   31 1  
    32   31   32 1  
    33   33   34 1  
    34   34   35 1  
    35   34   37 1  
    36   35   36 2  
    37   35   42 am 
    38   37   38 1  
    39   38   39 1  
    40   39   40 2  
    41   39   41 am 
    42   42   43 1  
    43   43   44 1  
    44   43   46 1  
    45   44   45 2  
    46   44   49 am 
    47   46   47 1  
    48   46   48 1  
    49   49   50 1  
    50   50   51 1  
    51   50   53 1  
    52   51   52 2  
    53   51   54 am 
    54   54   55 1  
    55   55   56 1  
    56   55   58 1  
    57   56   57 2  
    58   56   65 am 
    59   58   59 1  
    60   59   60 1  
    61   60   61 1  
    62   61   62 ar 
    63   62   63 ar 
    64   62   64 ar 
    65   65   66 1  
    66   66   67 1  
    67   66   69 1  
    68   67   68 2  
    69   67   74 am 
    70   69   70 1  
    71   70   71 1  
    72   71   72 1  
    73   72   73 1  
    74   74   75 1  
    75   75   76 1  
    76   75   78 1  
    77   76   77 2  
    78   76   80 am 
    79   78   79 1  
    80   80   81 1  
    81   81   82 1  
    82   81   84 1  
    83   82   83 2  
    84   82   87 am 
    85   84   85 1  
    86   84   86 1  
    87   87   88 1  
    88   88   89 1  
    89   89   90 ar 
    90    1   91 1  
    91    1   92 1  
    92    1   93 1  
    93    2   94 1  
    94    5   95 1  
    95    5   96 1  
    96    5   97 1  
    97    6   98 1  
    98    7   99 1  
    99   10  100 1  
   100   10  101 1  
   101   11  102 1  
   102   11  103 1  
   103   12  104 1  
   104   12  105 1  
   105   13  106 1  
   106   15  107 1  
   107   15  108 1  
   108   16  109 1  
   109   16  110 1  
   110   17  111 1  
   111   18  112 1  
   112   21  113 1  
   113   22  114 1  
   114   23  115 1  
   115   23  116 1  
   116   23  117 1  
   117   24  118 1  
   118   25  119 1  
   119   28  120 1  
   120   28  121 1  
   121   29  122 1  
   122   29  123 1  
   123   30  124 1  
   124   30  125 1  
   125   31  126 1  
   126   31  127 1  
   127   32  128 1  
   128   32  129 1  
   129   32  130 1  
   130   33  131 1  
   131   34  132 1  
   132   37  133 1  
   133   37  134 1  
   134   38  135 1  
   135   38  136 1  
   136   41  137 1  
   137   41  138 1  
   138   42  139 1  
   139   43  140 1  
   140   46  141 1  
   141   47  142 1  
   142   48  143 1  
   143   48  144 1  
   144   48  145 1  
   145   49  146 1  
   146   50  147 1  
   147   53  148 1  
   148   53  149 1  
   149   53  150 1  
   150   54  151 1  
   151   55  152 1  
   152   58  153 1  
   153   58  154 1  
   154   59  155 1  
   155   59  156 1  
   156   60  157 1  
   157   60  158 1  
   158   61  159 1  
   159   63  160 1  
   160   63  161 1  
   161   64  162 1  
   162   64  163 1  
   163   65  164 1  
   164   66  165 1  
   165   69  166 1  
   166   69  167 1  
   167   70  168 1  
   168   70  169 1  
   169   71  170 1  
   170   71  171 1  
   171   72  172 1  
   172   72  173 1  
   173   73  174 1  
   174   73  175 1  
   175   73  176 1  
   176   74  177 1  
   177   75  178 1  
   178   78  179 1  
   179   78  180 1  
   180   79  181 1  
   181   80  182 1  
   182   81  183 1  
   183   84  184 1  
   184   85  185 1  
   185   86  186 1  
   186   86  187 1  
   187   86  188 1  
   188   87  189 1  
   189   88  190 1  
   190   88  191 1  
   191   89  192 ar 
@<TRIPOS>SUBSTRUCTURE
     1 ALA         1

