6qyl_ligand
  -I-interpret- 

 53 57  0  0  0  0  0  0  0  0999 V2000
  -13.4930   11.7300   -4.1730 C   0  0  0  0  0
  -13.5420   12.3720   -2.9180 C   0  0  0  0  0
  -14.6080   11.8800   -5.0120 C   0  0  0  0  0
  -15.6580   13.1910   -3.3750 C   0  0  0  0  0
  -11.4680   11.1700   -3.2220 C   0  0  0  0  0
  -14.6080   13.0920   -2.5570 N   0  0  0  0  0
  -15.3070    6.3520   -7.5060 C   0  0  0  0  0
  -14.2000    7.1600   -7.7410 C   0  0  0  0  0
  -14.4000    8.5180   -7.9980 C   0  0  0  0  0
  -15.6870    9.0440   -8.0240 C   0  0  0  0  0
  -15.8950   10.5230   -8.3080 C   0  0  0  0  0
  -12.2920   11.0380   -4.3430 C   0  0  0  0  0
  -15.6550   12.5920   -4.5780 N   0  0  0  0  0
  -11.0320    8.7480   -7.7460 C   0  0  0  0  0
  -11.2310   10.1240   -7.8710 C   0  0  0  0  0
  -11.6450   10.8750   -6.7620 C   0  0  0  0  0
  -11.2620    8.1160   -6.5150 C   0  0  0  0  0
  -11.8820   10.2420   -5.5280 C   0  0  0  0  0
  -11.6840    8.8550   -5.4150 C   0  0  0  0  0
  -16.0570   11.2610   -6.9740 C   0  0  0  0  0
  -11.4640    6.7100   -4.8310 C   0  0  0  0  0
  -11.8020    7.9650   -4.3560 C   0  0  0  0  0
  -16.6050    6.8890   -7.5240 C   0  0  0  0  0
  -16.8000    8.2450   -7.7680 C   0  0  0  0  0
  -16.4680   12.6640   -7.3710 C   0  0  0  0  0
  -15.6030   13.4470   -7.7540 O   0  0  0  0  0
  -17.6590   12.9950   -7.3110 O   0  0  0  0  0
  -14.7440   11.2950   -6.2700 N   0  0  0  0  0
  -12.1510   12.1560   -1.9640 S   0  0  0  0  0
  -10.0970   10.5540   -3.0870 C   0  0  0  0  0
   -9.1990   11.5370   -2.3000 C   0  0  0  0  0
  -11.1440    6.8370   -6.1250 N   0  0  0  0  0
  -16.5301   13.7657   -3.0630 H   0  0  0  0  0
  -15.1660    5.2899   -7.3055 H   0  0  0  0  0
  -13.1939    6.7408   -7.7249 H   0  0  0  0  0
  -13.5440    9.1681   -8.1789 H   0  0  0  0  0
  -16.7873   10.6611   -8.9186 H   0  0  0  0  0
  -15.0366   10.9206   -8.8495 H   0  0  0  0  0
  -10.6981    8.1650   -8.6044 H   0  0  0  0  0
  -11.0646   10.6142   -8.8302 H   0  0  0  0  0
  -11.7836   11.9521   -6.8559 H   0  0  0  0  0
  -16.7793   10.7890   -6.3079 H   0  0  0  0  0
  -11.4591    5.7845   -4.2553 H   0  0  0  0  0
  -12.1050    8.2097   -3.3380 H   0  0  0  0  0
  -17.4630    6.2407   -7.3461 H   0  0  0  0  0
  -17.8022    8.6734   -7.7591 H   0  0  0  0  0
  -18.1800   12.2548   -6.9912 H   0  0  0  0  0
  -13.9267   10.8811   -6.7185 H   0  0  0  0  0
   -9.6722   10.3669   -4.0732 H   0  0  0  0  0
  -10.1644    9.6034   -2.5579 H   0  0  0  0  0
   -9.1340   12.4808   -2.8415 H   0  0  0  0  0
   -9.6301   11.7112   -1.3142 H   0  0  0  0  0
   -8.2023   11.1094   -2.1917 H   0  0  0  0  0
  1  2  4  0  0  0
  3  1  4  0  0  0
  1 12  4  0  0  0
  2  6  4  0  0  0
  2 29  4  0  0  0
  3 13  4  0  0  0
 28  3  1  0  0  0
  4  6  4  0  0  0
 13  4  4  0  0  0
 12  5  4  0  0  0
  5 29  4  0  0  0
  5 30  1  0  0  0
  8  7  4  0  0  0
  7 23  4  0  0  0
  9  8  4  0  0  0
 10  9  4  0  0  0
 11 10  1  0  0  0
 10 24  4  0  0  0
 20 11  1  0  0  0
 12 18  1  0  0  0
 15 14  4  0  0  0
 17 14  4  0  0  0
 16 15  4  0  0  0
 18 16  4  0  0  0
 19 17  4  0  0  0
 17 32  4  0  0  0
 18 19  4  0  0  0
 19 22  4  0  0  0
 20 25  1  0  0  0
 20 28  1  0  0  0
 22 21  4  0  0  0
 21 32  4  0  0  0
 23 24  4  0  0  0
 25 26  2  0  0  0
 25 27  1  0  0  0
 30 31  1  0  0  0
  4 33  1  0  0  0
  7 34  1  0  0  0
  8 35  1  0  0  0
  9 36  1  0  0  0
 11 37  1  0  0  0
 11 38  1  0  0  0
 14 39  1  0  0  0
 15 40  1  0  0  0
 16 41  1  0  0  0
 20 42  1  0  0  0
 21 43  1  0  0  0
 22 44  1  0  0  0
 23 45  1  0  0  0
 24 46  1  0  0  0
 27 47  1  0  0  0
 28 48  1  0  0  0
 30 49  1  0  0  0
 30 50  1  0  0  0
 31 51  1  0  0  0
 31 52  1  0  0  0
 31 53  1  0  0  0
M  END
$$$$
