4zgk_ligand
  -I-interpret- 

 50 54  0  0  0  0  0  0  0  0999 V2000
   11.9910    2.5380  -22.9420 Cl  0  0  0  0  0
   10.6590    3.2570  -23.9650 C   0  0  0  0  0
   10.9720    3.9210  -25.1690 C   0  0  0  0  0
    9.9580    4.4700  -25.9590 C   0  0  0  0  0
    9.3280    3.1200  -23.5850 C   0  0  0  0  0
    8.3080    3.6690  -24.3660 C   0  0  0  0  0
    8.6210    4.3580  -25.5500 C   0  0  0  0  0
    7.5480    4.9900  -26.4220 C   0  0  0  0  0
    6.1330    4.4180  -26.2360 C   0  0  0  0  0
    5.3000    4.7860  -25.2670 C   0  0  0  0  0
    5.5960    5.4930  -24.3350 O   0  0  0  0  0
    3.9890    4.1670  -25.3960 O   0  0  0  0  0
    4.0910    3.2900  -26.5040 C   0  0  0  0  0
    3.1080    3.6650  -27.4390 O   0  0  0  0  0
    3.9270    1.8430  -26.0620 C   0  0  0  0  0
    4.9460    1.3870  -25.0020 C   0  0  0  0  0
    6.0080    0.5710  -25.3370 C   0  0  0  0  0
    6.9400    0.1330  -24.3900 C   0  0  0  0  0
    4.7570    1.7360  -23.6800 C   0  0  0  0  0
    5.6550    1.2910  -22.6980 C   0  0  0  0  0
    6.7330    0.4820  -23.0590 C   0  0  0  0  0
    7.8380   -0.0960  -21.7810 Cl  0  0  0  0  0
    5.5300    3.5030  -27.0050 C   0  0  0  0  0
    6.2610    2.8170  -28.1100 C   0  0  0  0  0
    7.5770    2.3490  -28.1680 C   0  0  0  0  0
    7.8010    1.7950  -29.3790 N   0  0  0  0  0
    6.7200    1.8640  -30.1790 C   0  0  0  0  0
    5.6300    2.5160  -29.4160 C   0  0  0  0  0
    6.4630    1.4550  -31.4760 C   0  0  0  0  0
    5.1950    1.6680  -32.0090 C   0  0  0  0  0
    4.8870    1.1600  -33.6870 Cl  0  0  0  0  0
    4.1580    2.2890  -31.2970 C   0  0  0  0  0
    4.3750    2.7020  -29.9880 C   0  0  0  0  0
   12.0115    4.0067  -25.4857 H   0  0  0  0  0
   10.2051    4.9828  -26.8886 H   0  0  0  0  0
    9.0790    2.5804  -22.6713 H   0  0  0  0  0
    7.2683    3.5628  -24.0566 H   0  0  0  0  0
    7.8308    4.7957  -27.4566 H   0  0  0  0  0
    7.4990    6.0429  -26.1445 H   0  0  0  0  0
    3.1558    3.0845  -28.2021 H   0  0  0  0  0
    4.0783    1.2188  -26.9427 H   0  0  0  0  0
    2.9368    1.7537  -25.6153 H   0  0  0  0  0
    6.1243    0.2574  -26.3744 H   0  0  0  0  0
    7.8027   -0.4639  -24.6860 H   0  0  0  0  0
    3.9080    2.3588  -23.3982 H   0  0  0  0  0
    5.5109    1.5765  -21.6560 H   0  0  0  0  0
    8.3076    2.4201  -27.3622 H   0  0  0  0  0
    7.2403    0.9743  -32.0699 H   0  0  0  0  0
    3.1876    2.4467  -31.7678 H   0  0  0  0  0
    3.5717    3.1662  -29.4159 H   0  0  0  0  0
  1  2  1  0  0  0
  2  3  4  0  0  0
  2  5  4  0  0  0
  3  4  4  0  0  0
  4  7  4  0  0  0
  5  6  4  0  0  0
  6  7  4  0  0  0
  7  8  1  0  0  0
  8  9  1  0  0  0
  9 10  1  0  0  0
  9 23  2  0  0  0
 10 11  2  0  0  0
 10 12  1  0  0  0
 12 13  1  0  0  0
 13 14  1  0  0  0
 13 15  1  0  0  0
 13 23  1  0  0  0
 15 16  1  0  0  0
 16 17  4  0  0  0
 16 19  4  0  0  0
 17 18  4  0  0  0
 18 21  4  0  0  0
 19 20  4  0  0  0
 20 21  4  0  0  0
 21 22  1  0  0  0
 23 24  1  0  0  0
 24 25  4  0  0  0
 24 28  4  0  0  0
 25 26  4  0  0  0
 26 27  4  0  0  0
 27 28  4  0  0  0
 27 29  4  0  0  0
 28 33  4  0  0  0
 29 30  4  0  0  0
 30 31  1  0  0  0
 30 32  4  0  0  0
 32 33  4  0  0  0
  3 34  1  0  0  0
  4 35  1  0  0  0
  5 36  1  0  0  0
  6 37  1  0  0  0
  8 38  1  0  0  0
  8 39  1  0  0  0
 14 40  1  0  0  0
 15 41  1  0  0  0
 15 42  1  0  0  0
 17 43  1  0  0  0
 18 44  1  0  0  0
 19 45  1  0  0  0
 20 46  1  0  0  0
 25 47  1  0  0  0
 29 48  1  0  0  0
 32 49  1  0  0  0
 33 50  1  0  0  0
M  END
$$$$
