4b3c_ligand
  -I-interpret- 

 16 17  0  0  0  0  0  0  0  0999 V2000
    9.1680   17.1980   23.6190 O   0  0  0  0  0
    9.6650   16.8520   22.4040 C   0  0  0  0  0
   10.3780   17.7850   21.6560 C   0  0  0  0  0
   10.8820   17.4280   20.4120 C   0  0  0  0  0
   10.6740   16.1380   19.9250 C   0  0  0  0  0
   11.0350   15.5370   18.7930 N   0  0  0  0  0
    9.4600   15.5630   21.9130 C   0  0  0  0  0
    9.9670   15.2100   20.6730 C   0  0  0  0  0
    9.9280   14.0830   19.9690 C   0  0  0  0  0
   10.5790   14.2850   18.8230 C   0  0  0  0  0
    8.7068   16.4474   24.0004 H   0  0  0  0  0
   10.5398   18.7904   22.0447 H   0  0  0  0  0
   11.4382   18.1536   19.8185 H   0  0  0  0  0
    8.9026   14.8355   22.5030 H   0  0  0  0  0
    9.4469   13.1542   20.2756 H   0  0  0  0  0
   10.7164   13.5438   18.0357 H   0  0  0  0  0
  1  2  1  0  0  0
  2  3  4  0  0  0
  2  7  4  0  0  0
  3  4  4  0  0  0
  4  5  4  0  0  0
  5  6  4  0  0  0
  5  8  4  0  0  0
  6 10  4  0  0  0
  7  8  4  0  0  0
  8  9  4  0  0  0
  9 10  4  0  0  0
  1 11  1  0  0  0
  3 12  1  0  0  0
  4 13  1  0  0  0
  7 14  1  0  0  0
  9 15  1  0  0  0
 10 16  1  0  0  0
M  END
$$$$
