5hzx_ligand
  -I-interpret- 

 29 31  0  0  0  0  0  0  0  0999 V2000
  -14.5130    7.9980  -24.1080 C   0  0  0  0  0
  -11.3860    5.9210  -22.3600 C   0  0  0  0  0
  -18.1100    6.1660  -24.0870 N   0  0  0  0  0
  -16.9200    6.7600  -24.0930 C   0  0  0  0  0
  -16.7130    7.7850  -24.9360 N   0  0  0  0  0
  -15.5140    8.4320  -24.9620 C   0  0  0  0  0
  -15.3650    9.5330  -25.8670 C   0  0  0  0  0
  -16.3460   10.5320  -25.8590 C   0  0  0  0  0
  -16.2900   11.6240  -26.7200 C   0  0  0  0  0
  -15.2470   11.7420  -27.6290 C   0  0  0  0  0
  -14.2590   10.7660  -27.6530 C   0  0  0  0  0
  -12.9370   10.8970  -28.7970 Cl  0  0  0  0  0
  -14.3100    9.6640  -26.7730 C   0  0  0  0  0
  -13.0590    8.5030  -26.8580 Cl  0  0  0  0  0
  -14.7500    6.9130  -23.2320 C   0  0  0  0  0
  -13.8230    6.4330  -22.3910 N   0  0  0  0  0
  -12.4250    6.9670  -22.2600 C   0  0  0  0  0
  -11.5320    6.9470  -23.3620 C   0  0  0  0  0
  -15.9580    6.3240  -23.2450 N   0  0  0  0  0
  -13.5420    8.4931  -24.1112 H   0  0  0  0  0
  -10.8844    5.0358  -21.9688 H   0  0  0  0  0
  -18.8452    6.4906  -24.7151 H   0  0  0  0  0
  -18.2874    5.3858  -23.4543 H   0  0  0  0  0
  -17.1773   10.4522  -25.1585 H   0  0  0  0  0
  -17.0664   12.3881  -26.6807 H   0  0  0  0  0
  -15.2042   12.5887  -28.3141 H   0  0  0  0  0
  -14.0863    5.6473  -21.7962 H   0  0  0  0  0
  -12.7211    7.7605  -21.5738 H   0  0  0  0  0
  -11.1958    7.3911  -24.2989 H   0  0  0  0  0
  1  6  4  0  0  0
 15  1  4  0  0  0
 17  2  1  0  0  0
  2 18  2  0  0  0
  4  3  1  0  0  0
  4  5  4  0  0  0
 19  4  4  0  0  0
  6  5  4  0  0  0
  6  7  1  0  0  0
  7  8  4  0  0  0
  7 13  4  0  0  0
  8  9  4  0  0  0
  9 10  4  0  0  0
 11 10  4  0  0  0
 11 12  1  0  0  0
 13 11  4  0  0  0
 13 14  1  0  0  0
 16 15  1  0  0  0
 15 19  4  0  0  0
 16 17  1  0  0  0
 17 18  1  0  0  0
  1 20  1  0  0  0
  2 21  1  0  0  0
  3 22  1  0  0  0
  3 23  1  0  0  0
  8 24  1  0  0  0
  9 25  1  0  0  0
 10 26  1  0  0  0
 16 27  1  0  0  0
 17 28  1  0  0  0
 18 29  1  0  0  0
M  END
$$$$
