### 
### Created by X-TOOL on Mon Sep 10 21:13:01 2018
### 

@<TRIPOS>MOLECULE
3a29_ligand
   28    30     1     0     0
SMALL
GAST_HUCK


@<TRIPOS>ATOM
      1 C1         17.7880   60.6800   15.6990 C.ar      1 2T0         0.1203
      2 C2         18.7150   61.3960   14.9470 C.ar      1 2T0        -0.0277
      3 C3         20.0810   61.1890   15.1760 C.ar      1 2T0        -0.0581
      4 C4         20.5280   60.2780   16.1470 C.ar      1 2T0        -0.0303
      5 C52        19.5730   59.5760   16.8880 C.ar      1 2T0        -0.0049
      6 C6         18.2210   59.7790   16.6610 C.ar      1 2T0        -0.0218
      7 P8         15.2470   60.0030   16.1080 P.3       1 2T0         0.1121
      8 C9         21.3670   58.3110   18.0420 C.2       1 2T0         0.0900
      9 C10        20.0180   58.6130   17.9010 C.2       1 2T0         0.0575
     10 S11        21.5380   57.1860   19.2920 S.3       1 2T0         0.0760
     11 C12        19.8750   57.1460   19.5950 C.2       1 2T0         0.2066
     12 N13        19.1840   57.9640   18.7690 N.2       1 2T0        -0.2821
     13 N14        19.2940   56.3120   20.6400 N.pl3     1 2T0        -0.2874
     14 O18        16.3970   60.8690   15.4880 O.3       1 2T0        -0.2400
     15 C20        22.5100   58.8510   17.2270 C.3       1 2T0         0.0278
     16 C21        22.0430   60.0770   16.3760 C.3       1 2T0         0.0006
     17 O26        15.2700   60.0420   17.6430 O.co2     1 2T0        -0.6699
     18 O27        13.8840   60.5320   15.6340 O.co2     1 2T0        -0.6699
     19 O28        15.3560   58.5130   15.7030 O.co2     1 2T0        -0.6699
     20 H1         18.3844   62.1035   14.1951 H         1 2T0         0.0593
     21 H2         20.8075   61.7427   14.5924 H         1 2T0         0.0551
     22 H3         17.4921   59.2265   17.2428 H         1 2T0         0.0535
     23 H4         18.2756   56.3147   20.7944 H         1 2T0         0.1949
     24 H5         19.9019   55.7200   21.2239 H         1 2T0         0.1949
     25 H6         22.8794   58.0629   16.5544 H         1 2T0         0.0591
     26 H7         23.3193   59.1660   17.9022 H         1 2T0         0.0591
     27 H8         22.4194   60.9819   16.8755 H         1 2T0         0.0475
     28 H9         22.5120   59.9829   15.3855 H         1 2T0         0.0475
@<TRIPOS>BOND
     1    1    2 ar 
     2    1    6 ar 
     3    1   14 1  
     4    2    3 ar 
     5    3    4 ar 
     6    4    5 ar 
     7    4   16 1  
     8    5    6 ar 
     9    5    9 1  
    10   14    7 1  
    11    7   17 ar 
    12    7   18 ar 
    13    7   19 ar 
    14    9    8 2  
    15    8   10 1  
    16    8   15 1  
    17    9   12 1  
    18   10   11 1  
    19   11   12 2  
    20   11   13 1  
    21   15   16 1  
    22    2   20 1  
    23    3   21 1  
    24    6   22 1  
    25   13   23 1  
    26   13   24 1  
    27   15   25 1  
    28   15   26 1  
    29   16   27 1  
    30   16   28 1  
@<TRIPOS>SUBSTRUCTURE
     1 2T0         1

