3a29_ligand
  -I-interpret- 

 30 32  0  0  0  0  0  0  0  0999 V2000
   17.7880   60.6800   15.6990 C   0  0  0  0  0
   18.7150   61.3960   14.9470 C   0  0  0  0  0
   20.0810   61.1890   15.1760 C   0  0  0  0  0
   20.5280   60.2780   16.1470 C   0  0  0  0  0
   19.5730   59.5760   16.8880 C   0  0  0  0  0
   18.2210   59.7790   16.6610 C   0  0  0  0  0
   15.2470   60.0030   16.1080 P   0  0  0  0  0
   21.3670   58.3110   18.0420 C   0  0  0  0  0
   20.0180   58.6130   17.9010 C   0  0  0  0  0
   21.5380   57.1860   19.2920 S   0  0  0  0  0
   19.8750   57.1460   19.5950 C   0  0  0  0  0
   19.1840   57.9640   18.7690 N   0  0  0  0  0
   19.2940   56.3120   20.6400 N   0  0  0  0  0
   16.3970   60.8690   15.4880 O   0  0  0  0  0
   22.5100   58.8510   17.2270 C   0  0  0  0  0
   22.0430   60.0770   16.3760 C   0  0  0  0  0
   15.2700   60.0420   17.6430 O   0  0  0  0  0
   13.8840   60.5320   15.6340 O   0  0  0  0  0
   15.3560   58.5130   15.7030 O   0  0  0  0  0
   18.3826   62.1074   14.1910 H   0  0  0  0  0
   20.8116   61.7458   14.5892 H   0  0  0  0  0
   17.4881   59.2234   17.2460 H   0  0  0  0  0
   19.8960   55.7258   21.2183 H   0  0  0  0  0
   18.2855   56.3147   20.7929 H   0  0  0  0  0
   22.8677   58.0696   16.5565 H   0  0  0  0  0
   23.3062   59.1692   17.9000 H   0  0  0  0  0
   22.3662   60.9540   16.9367 H   0  0  0  0  0
   22.4629   59.9128   15.3836 H   0  0  0  0  0
   13.8514   60.5149   14.6747 H   0  0  0  0  0
   15.3454   58.4411   14.7458 H   0  0  0  0  0
  1  2  4  0  0  0
  1  6  4  0  0  0
  1 14  1  0  0  0
  2  3  4  0  0  0
  3  4  4  0  0  0
  4  5  4  0  0  0
  4 16  1  0  0  0
  5  6  4  0  0  0
  5  9  1  0  0  0
 14  7  1  0  0  0
  7 17  2  0  0  0
  7 18  1  0  0  0
  7 19  1  0  0  0
  9  8  4  0  0  0
  8 10  4  0  0  0
  8 15  1  0  0  0
  9 12  4  0  0  0
 10 11  4  0  0  0
 11 12  4  0  0  0
 11 13  1  0  0  0
 15 16  1  0  0  0
  2 20  1  0  0  0
  3 21  1  0  0  0
  6 22  1  0  0  0
 13 23  1  0  0  0
 13 24  1  0  0  0
 15 25  1  0  0  0
 15 26  1  0  0  0
 16 27  1  0  0  0
 16 28  1  0  0  0
 18 29  1  0  0  0
 19 30  1  0  0  0
M  END
$$$$
