5syn_ligand
  -I-interpret- 

 53 57  0  0  0  0  0  0  0  0999 V2000
   25.2960   -5.1780   39.0480 C   0  0  0  0  0
   29.0460   -6.3090   44.9620 C   0  0  0  0  0
   28.2740   -6.0410   42.0400 C   0  0  0  0  0
   26.9390   -5.5750   41.5350 C   0  0  0  0  0
   22.9100   -6.5700   39.2100 C   0  0  0  0  0
   29.3930   -4.2400   45.9970 C   0  0  0  0  0
   30.4340   -4.9760   46.5450 C   0  0  0  0  0
   31.4020   -4.4080   47.4590 C   0  0  0  0  0
   32.6650   -4.9880   47.6140 C   0  0  0  0  0
   29.1730   -2.8160   46.4020 C   0  0  0  0  0
   27.5200   -8.3300   42.0840 C   0  0  0  0  0
   31.1120   -3.2470   48.1900 C   0  0  0  0  0
   33.2970   -3.2780   49.1800 C   0  0  0  0  0
   26.3020   -6.6340   40.7460 N   0  0  0  0  0
   20.7640   -5.6830   37.5560 C   0  0  0  0  0
   22.0150   -4.9870   37.5710 O   0  0  0  0  0
   23.0190   -5.4800   38.3640 C   0  0  0  0  0
   28.1010   -7.2370   42.8700 N   0  0  0  0  0
   29.6490   -1.1300   48.3520 O   0  0  0  0  0
   30.4320   -6.6200   45.9480 S   0  0  0  0  0
   28.6100   -3.3100   48.8450 O   0  0  0  0  0
   23.9920   -6.9500   39.9840 C   0  0  0  0  0
   28.3830   -8.5040   44.7050 O   0  0  0  0  0
   25.1990   -6.2590   39.9210 C   0  0  0  0  0
   28.4660   -7.4120   44.1580 C   0  0  0  0  0
   28.6090   -5.0090   45.0910 C   0  0  0  0  0
   33.6020   -4.4230   48.4670 C   0  0  0  0  0
   32.0520   -2.6790   49.0430 C   0  0  0  0  0
   26.1910   -7.8990   41.4830 C   0  0  0  0  0
   24.2140   -4.7900   38.2750 C   0  0  0  0  0
   29.5610   -2.5410   48.0910 S   0  0  0  0  0
   26.2354   -4.6303   38.9721 H   0  0  0  0  0
   28.7294   -5.2508   42.6369 H   0  0  0  0  0
   28.9164   -6.2803   41.1926 H   0  0  0  0  0
   27.0810   -4.6962   40.9060 H   0  0  0  0  0
   26.3014   -5.3283   42.3839 H   0  0  0  0  0
   21.9749   -7.1272   39.2663 H   0  0  0  0  0
   32.9156   -5.8923   47.0595 H   0  0  0  0  0
   28.1195   -2.5795   46.2528 H   0  0  0  0  0
   29.8253   -2.1863   45.7969 H   0  0  0  0  0
   27.3545   -9.1881   42.7355 H   0  0  0  0  0
   28.2061   -8.5933   41.2790 H   0  0  0  0  0
   34.0371   -2.8440   49.8523 H   0  0  0  0  0
   20.9221   -6.7044   37.2099 H   0  0  0  0  0
   20.3468   -5.6996   38.5629 H   0  0  0  0  0
   20.0740   -5.1730   36.8838 H   0  0  0  0  0
   23.8979   -7.8045   40.6542 H   0  0  0  0  0
   27.7492   -4.6092   44.5534 H   0  0  0  0  0
   34.5837   -4.8840   48.5758 H   0  0  0  0  0
   31.8136   -1.7721   49.5988 H   0  0  0  0  0
   25.4801   -7.7568   42.2970 H   0  0  0  0  0
   25.8670   -8.6714   40.7855 H   0  0  0  0  0
   24.3045   -3.9413   37.5970 H   0  0  0  0  0
 24  1  4  0  0  0
  1 30  4  0  0  0
  2 20  4  0  0  0
 25  2  1  0  0  0
  2 26  4  0  0  0
  3  4  1  0  0  0
 18  3  1  0  0  0
  4 14  1  0  0  0
 17  5  4  0  0  0
  5 22  4  0  0  0
  6  7  4  0  0  0
  6 10  1  0  0  0
 26  6  4  0  0  0
  7  8  1  0  0  0
 20  7  4  0  0  0
  8  9  4  0  0  0
  8 12  4  0  0  0
  9 27  4  0  0  0
 10 31  1  0  0  0
 18 11  1  0  0  0
 11 29  1  0  0  0
 12 28  4  0  0  0
 31 12  1  0  0  0
 27 13  4  0  0  0
 28 13  4  0  0  0
 14 24  1  0  0  0
 29 14  1  0  0  0
 16 15  1  0  0  0
 17 16  1  0  0  0
 30 17  4  0  0  0
 18 25  1  0  0  0
 31 19  2  0  0  0
 31 21  2  0  0  0
 22 24  4  0  0  0
 25 23  2  0  0  0
  1 32  1  0  0  0
  3 33  1  0  0  0
  3 34  1  0  0  0
  4 35  1  0  0  0
  4 36  1  0  0  0
  5 37  1  0  0  0
  9 38  1  0  0  0
 10 39  1  0  0  0
 10 40  1  0  0  0
 11 41  1  0  0  0
 11 42  1  0  0  0
 13 43  1  0  0  0
 15 44  1  0  0  0
 15 45  1  0  0  0
 15 46  1  0  0  0
 22 47  1  0  0  0
 26 48  1  0  0  0
 27 49  1  0  0  0
 28 50  1  0  0  0
 29 51  1  0  0  0
 29 52  1  0  0  0
 30 53  1  0  0  0
M  END
$$$$
