1bil_ligand
  -I-interpret- 

 98100  0  0  0  0  0  0  0  0999 V2000
   42.6780   61.3260   49.5400 C   0  0  0  0  0
   43.8000   62.4050   47.5520 C   0  0  0  0  0
   41.6350   61.3190   47.3170 C   0  0  0  0  0
   41.6010   61.6280   46.1740 O   0  0  0  0  0
   42.6860   61.6600   48.1050 N   0  0  0  0  0
   39.5960   60.0250   46.8630 N   0  0  0  0  0
   38.8020   60.9020   46.2930 C   0  0  0  0  0
   38.9480   62.0460   46.6140 O   0  0  0  0  0
   40.5160   60.4930   47.9050 C   0  0  0  0  0
   39.5960   58.6350   46.4440 C   0  0  0  0  0
   41.0710   58.3440   46.0070 C   0  0  0  0  0
   39.2750   57.7620   47.6730 C   0  0  0  0  0
   40.0460   56.7350   47.9830 C   0  0  0  0  0
   38.2760   58.0740   48.4460 C   0  0  0  0  0
   39.8170   56.0270   49.0960 C   0  0  0  0  0
   38.0320   57.3560   49.5440 C   0  0  0  0  0
   38.7890   56.3200   49.8620 C   0  0  0  0  0
   36.2920   61.0310   43.5100 C   0  0  0  0  0
   36.5720   60.1740   42.6580 O   0  0  0  0  0
   37.4220   61.6330   44.2900 C   0  0  0  0  0
   37.7980   60.4680   45.2390 C   0  0  0  0  0
   38.6110   61.9110   43.3530 C   0  0  0  0  0
   38.4330   63.2880   42.7490 C   0  0  0  0  0
   37.8310   63.4240   41.5910 C   0  0  0  0  0
   37.6200   65.1320   41.1860 S   0  0  0  0  0
   38.4270   65.4480   42.6970 C   0  0  0  0  0
   38.7640   64.4180   43.3590 N   0  0  0  0  0
   38.6720   66.6810   43.0370 N   0  0  0  0  0
   32.9370   61.5410   42.5010 C   0  0  0  0  0
   33.8720   60.5950   43.2990 C   0  0  0  0  0
   33.0270   59.8490   44.3920 C   0  0  0  0  0
   33.8770   59.1580   45.4910 C   0  0  0  0  0
   32.9940   58.8390   46.7460 C   0  0  0  0  0
   33.8070   57.9750   47.7630 C   0  0  0  0  0
   34.1990   56.6280   47.0890 C   0  0  0  0  0
   35.1680   56.9920   45.9410 C   0  0  0  0  0
   34.3530   57.8270   44.9140 C   0  0  0  0  0
   35.0080   61.2930   43.9130 N   0  0  0  0  0
   32.7980   62.8060   43.1460 O   0  0  0  0  0
   33.5000   61.7800   41.0910 C   0  0  0  0  0
   32.5460   62.7620   40.3350 C   0  0  0  0  0
   33.1650   63.1330   38.9640 C   0  0  0  0  0
   32.1240   63.6600   37.9810 C   0  0  0  0  0
   34.2660   64.1800   39.1790 C   0  0  0  0  0
   33.4940   60.5190   40.4480 O   0  0  0  0  0
   41.8253   61.8073   50.0190 H   0  0  0  0  0
   42.6014   60.2453   49.6598 H   0  0  0  0  0
   43.6013   61.6792   49.9991 H   0  0  0  0  0
   44.2534   61.8315   46.7436 H   0  0  0  0  0
   43.4414   63.3590   47.1656 H   0  0  0  0  0
   44.5398   62.5826   48.3325 H   0  0  0  0  0
   40.9492   59.6247   48.4014 H   0  0  0  0  0
   39.9588   61.1129   48.6074 H   0  0  0  0  0
   38.8753   58.4335   45.6515 H   0  0  0  0  0
   41.7464   58.5884   46.8269 H   0  0  0  0  0
   41.1720   57.2887   45.7536 H   0  0  0  0  0
   41.3178   58.9530   45.1374 H   0  0  0  0  0
   40.8738   56.4623   47.3285 H   0  0  0  0  0
   37.6383   58.9221   48.1966 H   0  0  0  0  0
   40.4827   55.2076   49.3673 H   0  0  0  0  0
   37.1959   57.6278   50.1884 H   0  0  0  0  0
   38.5651   55.7192   50.7435 H   0  0  0  0  0
   37.1702   62.5698   44.7871 H   0  0  0  0  0
   38.2472   59.6726   44.6443 H   0  0  0  0  0
   36.8929   60.1322   45.7451 H   0  0  0  0  0
   38.6472   61.1598   42.5640 H   0  0  0  0  0
   39.5450   61.8678   43.9133 H   0  0  0  0  0
   37.5047   62.5950   40.9629 H   0  0  0  0  0
   38.3921   67.4449   42.4218 H   0  0  0  0  0
   39.1438   66.8828   43.9185 H   0  0  0  0  0
   31.9617   61.0574   42.4460 H   0  0  0  0  0
   34.3017   59.8807   42.5967 H   0  0  0  0  0
   32.4617   59.0678   43.8838 H   0  0  0  0  0
   32.4085   60.5978   44.8870 H   0  0  0  0  0
   34.7013   59.8076   45.7853 H   0  0  0  0  0
   32.1089   58.2860   46.4315 H   0  0  0  0  0
   32.6979   59.7728   47.2239 H   0  0  0  0  0
   33.1987   57.7794   48.6461 H   0  0  0  0  0
   34.7079   58.5112   48.0613 H   0  0  0  0  0
   33.3202   56.1044   46.7127 H   0  0  0  0  0
   34.6691   55.9515   47.8028 H   0  0  0  0  0
   35.5730   56.0933   45.4758 H   0  0  0  0  0
   36.0178   57.5618   46.3168 H   0  0  0  0  0
   35.0010   58.0409   44.0640 H   0  0  0  0  0
   33.4734   57.2484   44.6319 H   0  0  0  0  0
   34.8403   61.9805   44.6476 H   0  0  0  0  0
   32.2150   63.3657   42.6279 H   0  0  0  0  0
   34.5023   62.2078   41.1117 H   0  0  0  0  0
   32.4114   63.6661   40.9288 H   0  0  0  0  0
   31.5803   62.2813   40.1788 H   0  0  0  0  0
   33.5838   62.2268   38.5264 H   0  0  0  0  0
   31.3650   62.8959   37.8132 H   0  0  0  0  0
   31.6564   64.5540   38.3935 H   0  0  0  0  0
   32.6095   63.9052   37.0364 H   0  0  0  0  0
   33.8355   65.0685   39.6408 H   0  0  0  0  0
   35.0360   63.7671   39.8307 H   0  0  0  0  0
   34.7058   64.4455   38.2177 H   0  0  0  0  0
   34.0807   59.9199   40.9154 H   0  0  0  0  0
  5  1  1  0  0  0
  5  2  1  0  0  0
  3  5  1  0  0  0
  3  4  2  0  0  0
  6 10  1  0  0  0
  6  9  1  0  0  0
  7  6  1  0  0  0
  7  8  2  0  0  0
 10 12  1  0  0  0
 10 11  1  0  0  0
 12 14  4  0  0  0
 12 13  4  0  0  0
 13 15  4  0  0  0
 15 17  4  0  0  0
 16 17  4  0  0  0
 14 16  4  0  0  0
 18 20  1  0  0  0
 18 19  2  0  0  0
 20 22  1  0  0  0
 20 21  1  0  0  0
 22 23  1  0  0  0
 23 27  4  0  0  0
 23 24  4  0  0  0
 24 25  4  0  0  0
 25 26  4  0  0  0
 26 28  1  0  0  0
 27 26  4  0  0  0
 29 39  1  0  0  0
 30 29  1  0  0  0
 38 30  1  0  0  0
 30 31  1  0  0  0
 31 32  1  0  0  0
 32 37  1  0  0  0
 32 33  1  0  0  0
 33 34  1  0  0  0
 34 35  1  0  0  0
 36 35  1  0  0  0
 37 36  1  0  0  0
 40 45  1  0  0  0
 40 41  1  0  0  0
 41 42  1  0  0  0
 42 44  1  0  0  0
 42 43  1  0  0  0
  9  3  1  0  0  0
 21  7  1  0  0  0
 29 40  1  0  0  0
 38 18  1  0  0  0
  1 46  1  0  0  0
  1 47  1  0  0  0
  1 48  1  0  0  0
  2 49  1  0  0  0
  2 50  1  0  0  0
  2 51  1  0  0  0
  9 52  1  0  0  0
  9 53  1  0  0  0
 10 54  1  0  0  0
 11 55  1  0  0  0
 11 56  1  0  0  0
 11 57  1  0  0  0
 13 58  1  0  0  0
 14 59  1  0  0  0
 15 60  1  0  0  0
 16 61  1  0  0  0
 17 62  1  0  0  0
 20 63  1  0  0  0
 21 64  1  0  0  0
 21 65  1  0  0  0
 22 66  1  0  0  0
 22 67  1  0  0  0
 24 68  1  0  0  0
 28 69  1  0  0  0
 28 70  1  0  0  0
 29 71  1  0  0  0
 30 72  1  0  0  0
 31 73  1  0  0  0
 31 74  1  0  0  0
 32 75  1  0  0  0
 33 76  1  0  0  0
 33 77  1  0  0  0
 34 78  1  0  0  0
 34 79  1  0  0  0
 35 80  1  0  0  0
 35 81  1  0  0  0
 36 82  1  0  0  0
 36 83  1  0  0  0
 37 84  1  0  0  0
 37 85  1  0  0  0
 38 86  1  0  0  0
 39 87  1  0  0  0
 40 88  1  0  0  0
 41 89  1  0  0  0
 41 90  1  0  0  0
 42 91  1  0  0  0
 43 92  1  0  0  0
 43 93  1  0  0  0
 43 94  1  0  0  0
 44 95  1  0  0  0
 44 96  1  0  0  0
 44 97  1  0  0  0
 45 98  1  0  0  0
M  END
$$$$
