### 
### Created by X-TOOL on Mon Sep 10 21:13:12 2018
### 

@<TRIPOS>MOLECULE
4j86_ligand
  109   109     1     0     0
SMALL
GAST_HUCK


@<TRIPOS>ATOM
      1 N         -27.1220  -13.8860  -19.5650 N.4       1 THR         0.2398
      2 CA        -27.4830  -12.4960  -19.1990 C.3       1 THR         0.0911
      3 C         -26.6560  -11.5210  -20.0160 C.2       1 THR         0.2294
      4 O         -25.6230  -11.8860  -20.5740 O.2       1 THR        -0.3906
      5 CB        -27.1630  -12.2210  -17.7350 C.3       1 THR         0.1120
      6 OG1       -25.7660  -12.4540  -17.5260 O.3       1 THR        -0.3840
      7 CG2       -27.9810  -13.1340  -16.8120 C.3       1 THR        -0.0314
      8 N         -27.0950  -10.2710  -20.0650 N.am      1 PHE        -0.2591
      9 CA        -26.3250   -9.2500  -20.7280 C.3       1 PHE         0.1406
     10 C         -24.9690   -9.0910  -20.0370 C.2       1 PHE         0.2060
     11 O         -23.9650   -8.8330  -20.7110 O.2       1 PHE        -0.3942
     12 CB        -27.0720   -7.9260  -20.7160 C.3       1 PHE         0.0214
     13 CG        -28.2920   -7.8990  -21.5960 C.ar      1 PHE        -0.0386
     14 CD1       -28.2320   -8.3340  -22.9080 C.ar      1 PHE        -0.0601
     15 CD2       -29.4950   -7.4200  -21.1050 C.ar      1 PHE        -0.0601
     16 CE1       -29.3650   -8.2930  -23.7230 C.ar      1 PHE        -0.0686
     17 CE2       -30.6230   -7.3730  -21.9040 C.ar      1 PHE        -0.0686
     18 CZ        -30.5560   -7.8080  -23.2170 C.ar      1 PHE        -0.0687
     19 N         -24.9240   -9.2290  -18.7090 N.am      1 LYS        -0.2636
     20 CA        -23.6190   -9.1170  -18.0340 C.3       1 LYS         0.1310
     21 C         -22.6510  -10.1750  -18.5330 C.2       1 LYS         0.2039
     22 O         -21.4900   -9.8830  -18.8170 O.2       1 LYS        -0.3944
     23 CB        -23.7420   -9.1850  -16.5030 C.3       1 LYS        -0.0122
     24 CG        -22.3920   -9.0420  -15.7890 C.3       1 LYS        -0.0440
     25 CD        -21.7160   -7.7180  -16.1240 C.3       1 LYS        -0.0124
     26 CE        -20.4050   -7.5610  -15.3590 C.3       1 LYS        -0.0354
     27 NZ        -19.8140   -6.2170  -15.6180 N.4       1 LYS         0.2185
     28 N         -23.1290  -11.4020  -18.6690 N.am      1 LYS        -0.2637
     29 CA        -22.3210  -12.4890  -19.1860 C.3       1 LYS         0.1310
     30 C         -21.8320  -12.1880  -20.6040 C.2       1 LYS         0.2040
     31 O         -20.6570  -12.3420  -20.9040 O.2       1 LYS        -0.3944
     32 CB        -23.1820  -13.7620  -19.1870 C.3       1 LYS        -0.0122
     33 CG        -22.6310  -14.9690  -19.9220 C.3       1 LYS        -0.0440
     34 CD        -21.5780  -15.6180  -19.0880 C.3       1 LYS        -0.0124
     35 CE        -21.1480  -16.9990  -19.5820 C.3       1 LYS        -0.0354
     36 NZ        -20.0980  -17.5380  -18.6500 N.4       1 LYS         0.2185
     37 N         -22.7260  -11.7440  -21.4820 N.am      1 THR        -0.2613
     38 CA        -22.3970  -11.7290  -22.9060 C.3       1 THR         0.1564
     39 C         -21.9230  -10.4110  -23.5220 C.2       1 THR         0.2060
     40 O         -21.2560  -10.4600  -24.5520 O.2       1 THR        -0.3943
     41 CB        -23.5680  -12.2740  -23.7500 C.3       1 THR         0.0924
     42 OG1       -24.6990  -11.4110  -23.6180 O.3       1 THR        -0.3874
     43 CG2       -23.9210  -13.6740  -23.3110 C.3       1 THR        -0.0346
     44 N         -22.2560   -9.2680  -22.9130 N.am      1 ASN        -0.2673
     45 CA        -21.8990   -7.9730  -23.4740 C.3       1 ASN         0.1110
     46 C         -20.4150   -7.8880  -23.7820 C.2       1 ASN         0.0624
     47 O         -19.6030   -8.4280  -23.0090 O.co2     1 ASN        -0.5665
     48 CB        -22.2170   -6.8520  -22.4780 C.3       1 ASN         0.0718
     49 CG        -23.6730   -6.4010  -22.5160 C.2       1 ASN         0.1774
     50 OD1       -24.4330   -6.7820  -23.4010 O.2       1 ASN        -0.3971
     51 ND2       -24.0570   -5.5810  -21.5390 N.am      1 ASN        -0.3007
     52 OXT       -20.0210   -7.2420  -24.7590 O.co2     1 ASN        -0.5665
     53 H1        -27.3417  -14.0457  -20.5357 H         1 THR         0.2016
     54 H2        -27.6437  -14.5306  -18.9920 H         1 THR         0.2016
     55 H3        -26.1351  -14.0271  -19.4163 H         1 THR         0.2016
     56 H4        -28.5550  -12.3355  -19.3863 H         1 THR         0.1125
     57 H5        -27.3997  -11.1722  -17.5029 H         1 THR         0.0674
     58 H6        -25.2622  -11.8730  -18.0839 H         1 THR         0.2102
     59 H7        -27.7307  -12.9145  -15.7636 H         1 THR         0.0258
     60 H8        -27.7448  -14.1854  -17.0330 H         1 THR         0.0258
     61 H9        -29.0539  -12.9566  -16.9777 H         1 THR         0.0258
     62 H10       -27.9680  -10.0350  -19.6381 H         1 PHE         0.1886
     63 H11       -26.1594   -9.5533  -21.7723 H         1 PHE         0.0823
     64 H12       -26.3837   -7.1383  -21.0562 H         1 PHE         0.0474
     65 H13       -27.3869   -7.7168  -19.6830 H         1 PHE         0.0474
     66 H14       -27.2968   -8.7101  -23.3069 H         1 PHE         0.0557
     67 H15       -29.5535   -7.0766  -20.0785 H         1 PHE         0.0557
     68 H16       -29.3106   -8.6402  -24.7485 H         1 PHE         0.0599
     69 H17       -31.5573   -6.9966  -21.5034 H         1 PHE         0.0599
     70 H18       -31.4370   -7.7681  -23.8473 H         1 PHE         0.0559
     71 H19       -25.7573   -9.4044  -18.1847 H         1 LYS         0.1883
     72 H20       -23.2009   -8.1321  -18.2892 H         1 LYS         0.0800
     73 H21       -24.1830  -10.1548  -16.2290 H         1 LYS         0.0312
     74 H22       -24.4041   -8.3732  -16.1676 H         1 LYS         0.0312
     75 H23       -21.7345   -9.8670  -16.1006 H         1 LYS         0.0269
     76 H24       -22.5558   -9.0939  -14.7025 H         1 LYS         0.0269
     77 H25       -22.3904   -6.8920  -15.8541 H         1 LYS         0.0317
     78 H26       -21.5081   -7.6839  -17.2036 H         1 LYS         0.0317
     79 H27       -19.6982   -8.3376  -15.6865 H         1 LYS         0.0813
     80 H28       -20.5978   -7.6714  -14.2817 H         1 LYS         0.0813
     81 H29       -18.9495   -6.1261  -15.1076 H         1 LYS         0.1994
     82 H30       -20.4585   -5.5028  -15.3171 H         1 LYS         0.1994
     83 H31       -19.6342   -6.1134  -16.6044 H         1 LYS         0.1994
     84 H32       -24.0766  -11.5847  -18.4070 H         1 LYS         0.1883
     85 H33       -21.4487  -12.6359  -18.5322 H         1 LYS         0.0800
     86 H34       -24.1488  -13.5077  -19.6459 H         1 LYS         0.0312
     87 H35       -23.3397  -14.0561  -18.1388 H         1 LYS         0.0312
     88 H36       -22.1949  -14.6482  -20.8795 H         1 LYS         0.0269
     89 H37       -23.4434  -15.6862  -20.1110 H         1 LYS         0.0269
     90 H38       -21.9658  -15.7236  -18.0641 H         1 LYS         0.0317
     91 H39       -20.6934  -14.9642  -19.0795 H         1 LYS         0.0317
     92 H40       -20.7343  -16.9167  -20.5979 H         1 LYS         0.0813
     93 H41       -22.0156  -17.6751  -19.5930 H         1 LYS         0.0813
     94 H42       -19.8053  -18.4497  -18.9649 H         1 LYS         0.1994
     95 H43       -20.4795  -17.6103  -17.7198 H         1 LYS         0.1994
     96 H44       -19.3054  -16.9153  -18.6407 H         1 LYS         0.1994
     97 H45       -23.6196  -11.4217  -21.1696 H         1 THR         0.1884
     98 H46       -21.5585  -12.4319  -23.0192 H         1 THR         0.0826
     99 H47       -23.2630  -12.3012  -24.8065 H         1 THR         0.0639
    100 H48       -24.4691  -10.5408  -23.9220 H         1 THR         0.2101
    101 H49       -24.7562  -14.0497  -23.9203 H         1 THR         0.0257
    102 H50       -24.2163  -13.6626  -22.2514 H         1 THR         0.0257
    103 H51       -23.0479  -14.3303  -23.4413 H         1 THR         0.0257
    104 H52       -22.7625   -9.3037  -22.0515 H         1 ASN         0.1877
    105 H53       -22.4733   -7.8186  -24.3993 H         1 ASN         0.0752
    106 H54       -21.5783   -5.9873  -22.7111 H         1 ASN         0.0544
    107 H55       -21.9904   -7.2125  -21.4638 H         1 ASN         0.0544
    108 H56       -24.9996   -5.2486  -21.5067 H         1 ASN         0.1814
    109 H57       -23.4027   -5.2978  -20.8378 H         1 ASN         0.1814
@<TRIPOS>BOND
     1    1    2 1  
     2    2    3 1  
     3    2    5 1  
     4    3    4 2  
     5    3    8 am 
     6    5    6 1  
     7    5    7 1  
     8    8    9 1  
     9    9   10 1  
    10    9   12 1  
    11   10   11 2  
    12   10   19 am 
    13   12   13 1  
    14   13   14 ar 
    15   13   15 ar 
    16   14   16 ar 
    17   15   17 ar 
    18   16   18 ar 
    19   17   18 ar 
    20   19   20 1  
    21   20   21 1  
    22   20   23 1  
    23   21   22 2  
    24   21   28 am 
    25   23   24 1  
    26   24   25 1  
    27   25   26 1  
    28   26   27 1  
    29   28   29 1  
    30   29   30 1  
    31   29   32 1  
    32   30   31 2  
    33   30   37 am 
    34   32   33 1  
    35   33   34 1  
    36   34   35 1  
    37   35   36 1  
    38   37   38 1  
    39   38   39 1  
    40   38   41 1  
    41   39   40 2  
    42   39   44 am 
    43   41   42 1  
    44   41   43 1  
    45   44   45 1  
    46   45   46 1  
    47   45   48 1  
    48   46   47 ar 
    49   46   52 ar 
    50   48   49 1  
    51   49   50 2  
    52   49   51 am 
    53    1   53 1  
    54    1   54 1  
    55    1   55 1  
    56    2   56 1  
    57    5   57 1  
    58    6   58 1  
    59    7   59 1  
    60    7   60 1  
    61    7   61 1  
    62    8   62 1  
    63    9   63 1  
    64   12   64 1  
    65   12   65 1  
    66   14   66 1  
    67   15   67 1  
    68   16   68 1  
    69   17   69 1  
    70   18   70 1  
    71   19   71 1  
    72   20   72 1  
    73   23   73 1  
    74   23   74 1  
    75   24   75 1  
    76   24   76 1  
    77   25   77 1  
    78   25   78 1  
    79   26   79 1  
    80   26   80 1  
    81   27   81 1  
    82   27   82 1  
    83   27   83 1  
    84   28   84 1  
    85   29   85 1  
    86   32   86 1  
    87   32   87 1  
    88   33   88 1  
    89   33   89 1  
    90   34   90 1  
    91   34   91 1  
    92   35   92 1  
    93   35   93 1  
    94   36   94 1  
    95   36   95 1  
    96   36   96 1  
    97   37   97 1  
    98   38   98 1  
    99   41   99 1  
   100   42  100 1  
   101   43  101 1  
   102   43  102 1  
   103   43  103 1  
   104   44  104 1  
   105   45  105 1  
   106   48  106 1  
   107   48  107 1  
   108   51  108 1  
   109   51  109 1  
@<TRIPOS>SUBSTRUCTURE
     1 THR         1

