4j86_ligand
  -I-interpret- 

110110  0  0  0  0  0  0  0  0999 V2000
  -27.1220  -13.8860  -19.5650 N   0  3  0  0  0
  -27.4830  -12.4960  -19.1990 C   0  0  0  0  0
  -26.6560  -11.5210  -20.0160 C   0  0  0  0  0
  -25.6230  -11.8860  -20.5740 O   0  0  0  0  0
  -27.1630  -12.2210  -17.7350 C   0  0  0  0  0
  -25.7660  -12.4540  -17.5260 O   0  0  0  0  0
  -27.9810  -13.1340  -16.8120 C   0  0  0  0  0
  -27.0950  -10.2710  -20.0650 N   0  0  0  0  0
  -26.3250   -9.2500  -20.7280 C   0  0  0  0  0
  -24.9690   -9.0910  -20.0370 C   0  0  0  0  0
  -23.9650   -8.8330  -20.7110 O   0  0  0  0  0
  -27.0720   -7.9260  -20.7160 C   0  0  0  0  0
  -28.2920   -7.8990  -21.5960 C   0  0  0  0  0
  -28.2320   -8.3340  -22.9080 C   0  0  0  0  0
  -29.4950   -7.4200  -21.1050 C   0  0  0  0  0
  -29.3650   -8.2930  -23.7230 C   0  0  0  0  0
  -30.6230   -7.3730  -21.9040 C   0  0  0  0  0
  -30.5560   -7.8080  -23.2170 C   0  0  0  0  0
  -24.9240   -9.2290  -18.7090 N   0  0  0  0  0
  -23.6190   -9.1170  -18.0340 C   0  0  0  0  0
  -22.6510  -10.1750  -18.5330 C   0  0  0  0  0
  -21.4900   -9.8830  -18.8170 O   0  0  0  0  0
  -23.7420   -9.1850  -16.5030 C   0  0  0  0  0
  -22.3920   -9.0420  -15.7890 C   0  0  0  0  0
  -21.7160   -7.7180  -16.1240 C   0  0  0  0  0
  -20.4050   -7.5610  -15.3590 C   0  0  0  0  0
  -19.8140   -6.2170  -15.6180 N   0  3  0  0  0
  -23.1290  -11.4020  -18.6690 N   0  0  0  0  0
  -22.3210  -12.4890  -19.1860 C   0  0  0  0  0
  -21.8320  -12.1880  -20.6040 C   0  0  0  0  0
  -20.6570  -12.3420  -20.9040 O   0  0  0  0  0
  -23.1820  -13.7620  -19.1870 C   0  0  0  0  0
  -22.6310  -14.9690  -19.9220 C   0  0  0  0  0
  -21.5780  -15.6180  -19.0880 C   0  0  0  0  0
  -21.1480  -16.9990  -19.5820 C   0  0  0  0  0
  -20.0980  -17.5380  -18.6500 N   0  3  0  0  0
  -22.7260  -11.7440  -21.4820 N   0  0  0  0  0
  -22.3970  -11.7290  -22.9060 C   0  0  0  0  0
  -21.9230  -10.4110  -23.5220 C   0  0  0  0  0
  -21.2560  -10.4600  -24.5520 O   0  0  0  0  0
  -23.5680  -12.2740  -23.7500 C   0  0  0  0  0
  -24.6990  -11.4110  -23.6180 O   0  0  0  0  0
  -23.9210  -13.6740  -23.3110 C   0  0  0  0  0
  -22.2560   -9.2680  -22.9130 N   0  0  0  0  0
  -21.8990   -7.9730  -23.4740 C   0  0  0  0  0
  -20.4150   -7.8880  -23.7820 C   0  0  0  0  0
  -19.6030   -8.4280  -23.0090 O   0  0  0  0  0
  -22.2170   -6.8520  -22.4780 C   0  0  0  0  0
  -23.6730   -6.4010  -22.5160 C   0  0  0  0  0
  -24.4330   -6.7820  -23.4010 O   0  0  0  0  0
  -24.0570   -5.5810  -21.5390 N   0  0  0  0  0
  -20.0210   -7.2420  -24.7590 O   0  0  0  0  0
  -27.3448  -14.0464  -20.5474 H   0  0  0  0  0
  -26.1232  -14.0276  -19.4141 H   0  0  0  0  0
  -27.6504  -14.5373  -18.9845 H   0  0  0  0  0
  -28.5497  -12.3734  -19.3864 H   0  0  0  0  0
  -27.4192  -11.1879  -17.5000 H   0  0  0  0  0
  -25.2572  -11.8815  -18.1047 H   0  0  0  0  0
  -27.7496  -14.1755  -17.0352 H   0  0  0  0  0
  -27.7287  -12.9188  -15.7737 H   0  0  0  0  0
  -29.0438  -12.9539  -16.9738 H   0  0  0  0  0
  -27.9854  -10.0303  -19.6296 H   0  0  0  0  0
  -26.1676   -9.5497  -21.7641 H   0  0  0  0  0
  -26.3868   -7.1665  -21.0924 H   0  0  0  0  0
  -27.4089   -7.7558  -19.6934 H   0  0  0  0  0
  -27.2917   -8.7122  -23.3091 H   0  0  0  0  0
  -29.5538   -7.0747  -20.0728 H   0  0  0  0  0
  -29.3103   -8.6421  -24.7541 H   0  0  0  0  0
  -31.5624   -6.9945  -21.5012 H   0  0  0  0  0
  -31.4419   -7.7679  -23.8508 H   0  0  0  0  0
  -25.7740   -9.4079  -18.1743 H   0  0  0  0  0
  -23.2238   -8.1329  -18.2858 H   0  0  0  0  0
  -24.1534  -10.1608  -16.2450 H   0  0  0  0  0
  -24.3771   -8.3590  -16.1829 H   0  0  0  0  0
  -21.7418   -9.8528  -16.1174 H   0  0  0  0  0
  -22.5664   -9.0766  -14.7136 H   0  0  0  0  0
  -22.3840   -6.9042  -15.8417 H   0  0  0  0  0
  -21.5009   -7.6969  -17.1924 H   0  0  0  0  0
  -19.7050   -8.3279  -15.6905 H   0  0  0  0  0
  -20.6007   -7.6645  -14.2917 H   0  0  0  0  0
  -18.9394   -6.1261  -15.1011 H   0  0  0  0  0
  -19.6326   -6.1133  -16.6164 H   0  0  0  0  0
  -20.4671   -5.4952  -15.3131 H   0  0  0  0  0
  -24.0956  -11.5884  -18.4018 H   0  0  0  0  0
  -21.4409  -12.6194  -18.5563 H   0  0  0  0  0
  -24.1042  -13.4958  -19.7035 H   0  0  0  0  0
  -23.2664  -14.0637  -18.1430 H   0  0  0  0  0
  -22.1995  -14.6517  -20.8713 H   0  0  0  0  0
  -23.4359  -15.6795  -20.1102 H   0  0  0  0  0
  -21.9951  -15.7497  -18.0896 H   0  0  0  0  0
  -20.6982  -14.9756  -19.1247 H   0  0  0  0  0
  -20.7436  -16.9222  -20.5913 H   0  0  0  0  0
  -22.0068  -17.6700  -19.6005 H   0  0  0  0  0
  -19.8026  -18.4605  -18.9696 H   0  0  0  0  0
  -19.2966  -16.9071  -18.6414 H   0  0  0  0  0
  -20.4852  -17.6107  -17.7091 H   0  0  0  0  0
  -23.6375  -11.4153  -21.1633 H   0  0  0  0  0
  -21.5205  -12.3762  -22.9381 H   0  0  0  0  0
  -23.2679  -12.3072  -24.7973 H   0  0  0  0  0
  -25.4248  -11.7538  -24.1445 H   0  0  0  0  0
  -23.0551  -14.3232  -23.4406 H   0  0  0  0  0
  -24.2133  -13.6613  -22.2610 H   0  0  0  0  0
  -24.7487  -14.0451  -23.9154 H   0  0  0  0  0
  -22.7726   -9.3044  -22.0342 H   0  0  0  0  0
  -22.4774   -7.8603  -24.3910 H   0  0  0  0  0
  -20.0808   -8.8837  -22.3121 H   0  0  0  0  0
  -21.6006   -5.9931  -22.7432 H   0  0  0  0  0
  -22.0187   -7.2363  -21.4774 H   0  0  0  0  0
  -25.0188   -5.2430  -21.5054 H   0  0  0  0  0
  -23.3893   -5.2911  -20.8245 H   0  0  0  0  0
  1  2  1  0  0  0
  2  3  1  0  0  0
  2  5  1  0  0  0
  3  4  2  0  0  0
  3  8  1  0  0  0
  5  6  1  0  0  0
  5  7  1  0  0  0
  8  9  1  0  0  0
  9 10  1  0  0  0
  9 12  1  0  0  0
 10 11  2  0  0  0
 10 19  1  0  0  0
 12 13  1  0  0  0
 13 14  4  0  0  0
 13 15  4  0  0  0
 14 16  4  0  0  0
 15 17  4  0  0  0
 16 18  4  0  0  0
 17 18  4  0  0  0
 19 20  1  0  0  0
 20 21  1  0  0  0
 20 23  1  0  0  0
 21 22  2  0  0  0
 21 28  1  0  0  0
 23 24  1  0  0  0
 24 25  1  0  0  0
 25 26  1  0  0  0
 26 27  1  0  0  0
 28 29  1  0  0  0
 29 30  1  0  0  0
 29 32  1  0  0  0
 30 31  2  0  0  0
 30 37  1  0  0  0
 32 33  1  0  0  0
 33 34  1  0  0  0
 34 35  1  0  0  0
 35 36  1  0  0  0
 37 38  1  0  0  0
 38 39  1  0  0  0
 38 41  1  0  0  0
 39 40  2  0  0  0
 39 44  1  0  0  0
 41 42  1  0  0  0
 41 43  1  0  0  0
 44 45  1  0  0  0
 45 46  1  0  0  0
 45 48  1  0  0  0
 46 47  1  0  0  0
 46 52  2  0  0  0
 48 49  1  0  0  0
 49 50  2  0  0  0
 49 51  1  0  0  0
  1 53  1  0  0  0
  1 54  1  0  0  0
  1 55  1  0  0  0
  2 56  1  0  0  0
  5 57  1  0  0  0
  6 58  1  0  0  0
  7 59  1  0  0  0
  7 60  1  0  0  0
  7 61  1  0  0  0
  8 62  1  0  0  0
  9 63  1  0  0  0
 12 64  1  0  0  0
 12 65  1  0  0  0
 14 66  1  0  0  0
 15 67  1  0  0  0
 16 68  1  0  0  0
 17 69  1  0  0  0
 18 70  1  0  0  0
 19 71  1  0  0  0
 20 72  1  0  0  0
 23 73  1  0  0  0
 23 74  1  0  0  0
 24 75  1  0  0  0
 24 76  1  0  0  0
 25 77  1  0  0  0
 25 78  1  0  0  0
 26 79  1  0  0  0
 26 80  1  0  0  0
 27 81  1  0  0  0
 27 82  1  0  0  0
 27 83  1  0  0  0
 28 84  1  0  0  0
 29 85  1  0  0  0
 32 86  1  0  0  0
 32 87  1  0  0  0
 33 88  1  0  0  0
 33 89  1  0  0  0
 34 90  1  0  0  0
 34 91  1  0  0  0
 35 92  1  0  0  0
 35 93  1  0  0  0
 36 94  1  0  0  0
 36 95  1  0  0  0
 36 96  1  0  0  0
 37 97  1  0  0  0
 38 98  1  0  0  0
 41 99  1  0  0  0
 42100  1  0  0  0
 43101  1  0  0  0
 43102  1  0  0  0
 43103  1  0  0  0
 44104  1  0  0  0
 45105  1  0  0  0
 47106  1  0  0  0
 48107  1  0  0  0
 48108  1  0  0  0
 51109  1  0  0  0
 51110  1  0  0  0
M  END
$$$$
