3px8_ligand
  -I-interpret- 

 19 20  0  0  0  0  0  0  0  0999 V2000
    2.7170    3.3470    8.4280 C   0  0  0  0  0
    3.7870    3.0330    9.1810 N   0  0  0  0  0
   -0.7260    3.1600    8.4760 O   0  0  0  0  0
    0.4810    3.4130    8.1150 C   0  0  0  0  0
    1.4880    3.0590    8.8930 N   0  0  0  0  0
    2.6270    6.7300    3.2230 O   0  0  0  0  0
    0.6120    4.1400    6.8760 C   0  0  0  0  0
    2.9620    3.9920    7.2640 N   0  0  0  0  0
    0.4800    6.9920    2.8640 O   0  0  0  0  0
    1.9460    4.4350    6.4460 C   0  0  0  0  0
    2.2430    5.1690    5.3630 N   0  0  0  0  0
    1.1650    5.6570    4.6570 C   0  0  0  0  0
   -0.4560    4.5010    6.0610 N   0  0  0  0  0
   -0.2060    5.2730    4.9930 C   0  0  0  0  0
    1.4120    6.4790    3.4980 C   0  0  0  0  0
    3.6584    2.5842   10.0879 H   0  0  0  0  0
    3.1969    6.2408    3.8209 H   0  0  0  0  0
    3.9290    4.1553    6.9835 H   0  0  0  0  0
   -1.0316    5.6172    4.3700 H   0  0  0  0  0
  1  2  2  0  0  0
  1  5  4  0  0  0
  8  1  1  0  0  0
  4  3  2  0  0  0
  4  5  1  0  0  0
  7  4  1  0  0  0
 15  6  1  0  0  0
 10  7  4  0  0  0
  7 13  4  0  0  0
 10  8  1  0  0  0
 15  9  2  0  0  0
 11 10  4  0  0  0
 12 11  4  0  0  0
 12 14  4  0  0  0
 12 15  1  0  0  0
 13 14  4  0  0  0
  2 16  1  0  0  0
  6 17  1  0  0  0
  8 18  1  0  0  0
 14 19  1  0  0  0
M  END
$$$$
