2vvu_ligand
  -I-interpret- 

 53 56  0  0  0  0  0  0  0  0999 V2000
   -3.6650    9.7270   19.7840 F   0  0  0  0  0
   -4.8590    9.1110   19.8080 C   0  0  0  0  0
   -5.0640    8.0370   18.9520 C   0  0  0  0  0
   -6.2820    7.3840   18.9520 C   0  0  0  0  0
   -6.4580    6.2980   18.0600 N   0  0  0  0  0
   -6.4190    5.0490   18.5120 C   0  0  0  0  0
   -6.5930    3.9610   17.6670 C   0  0  0  0  0
   -6.8210    4.0840   16.2350 C   0  0  0  0  0
   -6.8430    5.4700   15.7930 C   0  0  0  0  0
   -6.6730    6.5220   16.6760 C   0  0  0  0  0
   -6.7070    7.7770   16.1690 O   0  0  0  0  0
   -7.2940    7.8130   19.8190 C   0  0  0  0  0
   -7.0830    8.8980   20.6870 C   0  0  0  0  0
   -5.8530    9.5570   20.6690 C   0  0  0  0  0
   -5.6040   10.6180   21.4830 N   0  0  0  0  0
   -5.1940   11.7920   20.9740 C   0  0  0  0  0
   -4.9470   11.9650   19.7910 O   0  0  0  0  0
   -5.0350   12.9760   21.9050 C   0  0  0  0  0
   -4.8940   12.5370   23.2970 N   0  3  0  0  0
   -3.5670   11.9320   23.5430 C   0  0  0  0  0
   -3.0640   12.4280   24.8970 C   0  0  0  0  0
   -4.1500   13.3730   25.4000 C   0  0  0  0  0
   -5.0300   13.6970   24.1920 C   0  0  0  0  0
   -3.0110   11.2760   25.8000 N   0  0  0  0  0
   -2.0490   10.3650   25.6450 C   0  0  0  0  0
   -1.2160   10.4720   24.7550 O   0  0  0  0  0
   -1.9620    9.1790   26.5430 C   0  0  0  0  0
   -2.7000    8.7280   27.6480 C   0  0  0  0  0
   -2.2180    7.5250   28.1530 C   0  0  0  0  0
   -0.6540    8.1350   26.0730 S   0  0  0  0  0
   -1.1280    7.1240   27.3910 C   0  0  0  0  0
   -0.1830    5.5740   27.7080 Cl  0  0  0  0  0
   -4.2678    7.7104   18.2830 H   0  0  0  0  0
   -6.2459    4.8740   19.5738 H   0  0  0  0  0
   -6.5569    2.9611   18.0995 H   0  0  0  0  0
   -6.9598    3.2330   15.5682 H   0  0  0  0  0
   -6.9978    5.6860   14.7359 H   0  0  0  0  0
   -8.2558    7.3001   19.8209 H   0  0  0  0  0
   -7.8714    9.2212   21.3668 H   0  0  0  0  0
   -5.7299   10.5214   22.4906 H   0  0  0  0  0
   -5.9221   13.6043   21.8253 H   0  0  0  0  0
   -4.1382   13.5262   21.6200 H   0  0  0  0  0
   -5.6193   11.8424   23.4758 H   0  0  0  0  0
   -2.8709   12.2194   22.7550 H   0  0  0  0  0
   -3.6442   10.8447   23.5459 H   0  0  0  0  0
   -2.0862   12.9061   24.8389 H   0  0  0  0  0
   -3.7162   14.2789   25.8233 H   0  0  0  0  0
   -4.7328   12.9116   26.1972 H   0  0  0  0  0
   -6.0675   13.8630   24.4820 H   0  0  0  0  0
   -4.7205   14.6212   23.7040 H   0  0  0  0  0
   -3.7039   11.1712   26.5412 H   0  0  0  0  0
   -3.5551    9.2607   28.0640 H   0  0  0  0  0
   -2.6283    6.9854   29.0066 H   0  0  0  0  0
  1  2  1  0  0  0
  2  3  4  0  0  0
  2 14  4  0  0  0
  3  4  4  0  0  0
  4  5  1  0  0  0
  4 12  4  0  0  0
  5  6  1  0  0  0
  5 10  1  0  0  0
  6  7  2  0  0  0
  7  8  1  0  0  0
  8  9  2  0  0  0
  9 10  1  0  0  0
 10 11  2  0  0  0
 12 13  4  0  0  0
 13 14  4  0  0  0
 14 15  1  0  0  0
 15 16  1  0  0  0
 16 17  2  0  0  0
 16 18  1  0  0  0
 18 19  1  0  0  0
 19 20  1  0  0  0
 19 23  1  0  0  0
 20 21  1  0  0  0
 21 22  1  0  0  0
 21 24  1  0  0  0
 22 23  1  0  0  0
 24 25  1  0  0  0
 25 26  2  0  0  0
 25 27  1  0  0  0
 27 28  4  0  0  0
 27 30  4  0  0  0
 28 29  4  0  0  0
 29 31  4  0  0  0
 30 31  4  0  0  0
 31 32  1  0  0  0
  3 33  1  0  0  0
  6 34  1  0  0  0
  7 35  1  0  0  0
  8 36  1  0  0  0
  9 37  1  0  0  0
 12 38  1  0  0  0
 13 39  1  0  0  0
 15 40  1  0  0  0
 18 41  1  0  0  0
 18 42  1  0  0  0
 19 43  1  0  0  0
 20 44  1  0  0  0
 20 45  1  0  0  0
 21 46  1  0  0  0
 22 47  1  0  0  0
 22 48  1  0  0  0
 23 49  1  0  0  0
 23 50  1  0  0  0
 24 51  1  0  0  0
 28 52  1  0  0  0
 29 53  1  0  0  0
M  END
$$$$
