2v11_ligand
  -I-interpret- 

 79 81  0  0  0  0  0  0  0  0999 V2000
   15.0980   46.6280   70.8630 C   0  0  0  0  0
   15.6330   45.8010   69.8770 C   0  0  0  0  0
   15.3530   44.4480   69.8410 C   0  0  0  0  0
   14.5260   43.9220   70.8090 C   0  0  0  0  0
   13.9920   44.7510   71.7950 C   0  0  0  0  0
   14.2740   46.1030   71.8330 C   0  0  0  0  0
   13.7260   46.9640   72.9610 C   0  0  0  0  0
   12.8210   48.0430   72.5900 N   0  0  0  0  0
   11.8290   47.9420   71.7430 C   0  0  0  0  0
   12.8690   49.2940   73.1280 C   0  0  0  0  0
   11.6110   51.3680   73.0890 C   0  0  0  0  0
   11.7980   50.0680   72.6660 C   0  0  0  0  0
   11.2070   49.1690   71.8180 C   0  0  0  0  0
   13.7740   49.8320   74.0370 C   0  0  0  0  0
   13.5850   51.1360   74.4660 C   0  0  0  0  0
   12.5180   51.8890   73.9970 C   0  0  0  0  0
   10.0360   49.6460   71.1980 C   0  0  0  0  0
    9.1630   50.1370   71.9240 O   0  0  0  0  0
    9.8390   49.6510   69.9610 O   0  0  0  0  0
    9.7260   48.3690   69.3950 C   0  0  0  0  0
    8.3020   48.0460   69.3880 C   0  0  0  0  0
    8.0580   48.1910   67.9210 C   0  0  0  0  0
    8.2130   46.6440   69.9150 C   0  0  0  0  0
    6.8700   45.9430   70.0740 C   0  0  0  0  0
    7.0100   44.5790   70.5290 N   0  3  0  0  0
    6.1410   45.8060   68.8060 C   0  0  0  0  0
    6.9710   45.0670   67.9300 O   0  0  0  0  0
    4.7760   46.3900   68.5280 C   0  0  0  0  0
    3.6910   45.5860   67.8910 C   0  0  0  0  0
    3.3020   44.4370   68.7760 C   0  0  0  0  0
    2.5390   46.5610   67.8030 C   0  0  0  0  0
    1.8130   46.7350   68.7790 O   0  0  0  0  0
    2.3520   47.3480   66.7560 N   0  0  0  0  0
    1.7190   46.8670   65.5630 C   0  0  0  0  0
    1.0820   48.0260   64.8790 C   0  0  0  0  0
    2.1650   48.9200   64.3010 C   0  0  0  0  0
    2.8290   48.3390   63.0020 C   0  0  0  0  0
   15.3324   47.6925   70.8662 H   0  0  0  0  0
   16.2865   46.2306   69.1177 H   0  0  0  0  0
   15.7770   43.8116   69.0643 H   0  0  0  0  0
   14.2891   42.8581   70.8042 H   0  0  0  0  0
   13.3369   44.3224   72.5534 H   0  0  0  0  0
   14.5920   47.4452   73.4155 H   0  0  0  0  0
   13.1447   46.2921   73.5925 H   0  0  0  0  0
   11.5581   47.0873   71.1232 H   0  0  0  0  0
   10.7769   51.9653   72.7207 H   0  0  0  0  0
   14.6132   49.2410   74.4037 H   0  0  0  0  0
   14.2821   51.5750   75.1797 H   0  0  0  0  0
   12.3909   52.9122   74.3506 H   0  0  0  0  0
   10.2907   47.6358   69.9709 H   0  0  0  0  0
   10.1367   48.3494   68.3855 H   0  0  0  0  0
    7.5927   48.6267   69.9777 H   0  0  0  0  0
    8.2975   49.2088   67.6130 H   0  0  0  0  0
    8.6891   47.4876   67.3777 H   0  0  0  0  0
    7.0101   47.9820   67.7059 H   0  0  0  0  0
    8.5899   46.7228   70.9347 H   0  0  0  0  0
    8.7324   46.0483   69.1644 H   0  0  0  0  0
    6.3421   46.5748   70.7883 H   0  0  0  0  0
    6.0865   44.1554   70.6191 H   0  0  0  0  0
    7.5628   44.0515   69.8533 H   0  0  0  0  0
    7.4792   44.5704   71.4346 H   0  0  0  0  0
    5.1326   46.0444   68.4679 H   0  0  0  0  0
    6.5261   44.9565   67.0865 H   0  0  0  0  0
    4.9754   47.1764   67.8000 H   0  0  0  0  0
    4.3836   46.6120   69.5204 H   0  0  0  0  0
    3.9866   45.1662   66.9295 H   0  0  0  0  0
    4.1689   43.7970   68.9404 H   0  0  0  0  0
    2.9456   44.8208   69.7319 H   0  0  0  0  0
    2.5102   43.8621   68.2958 H   0  0  0  0  0
    2.6650   48.3179   66.7986 H   0  0  0  0  0
    0.9675   46.1178   65.8119 H   0  0  0  0  0
    2.4556   46.4020   64.9077 H   0  0  0  0  0
    0.4845   48.5905   65.5948 H   0  0  0  0  0
    0.4359   47.6683   64.0773 H   0  0  0  0  0
    2.9472   49.0161   65.0540 H   0  0  0  0  0
    1.6993   49.8688   64.0348 H   0  0  0  0  0
    3.2863   47.3759   63.2288 H   0  0  0  0  0
    2.0674   48.2089   62.2332 H   0  0  0  0  0
    3.5926   49.0303   62.6455 H   0  0  0  0  0
  1  2  4  0  0  0
  1  6  4  0  0  0
  2  3  4  0  0  0
  3  4  4  0  0  0
  4  5  4  0  0  0
  5  6  4  0  0  0
  6  7  1  0  0  0
  7  8  1  0  0  0
  8  9  4  0  0  0
  8 10  4  0  0  0
  9 13  4  0  0  0
 10 12  4  0  0  0
 10 14  4  0  0  0
 12 11  4  0  0  0
 11 16  4  0  0  0
 12 13  4  0  0  0
 13 17  1  0  0  0
 14 15  4  0  0  0
 15 16  4  0  0  0
 17 18  2  0  0  0
 17 19  1  0  0  0
 19 20  1  0  0  0
 20 21  1  0  0  0
 21 22  1  0  0  0
 21 23  1  0  0  0
 23 24  1  0  0  0
 24 25  1  0  0  0
 24 26  1  0  0  0
 26 27  1  0  0  0
 26 28  1  0  0  0
 28 29  1  0  0  0
 29 30  1  0  0  0
 29 31  1  0  0  0
 31 32  2  0  0  0
 31 33  1  0  0  0
 33 34  1  0  0  0
 34 35  1  0  0  0
 35 36  1  0  0  0
 36 37  1  0  0  0
  1 38  1  0  0  0
  2 39  1  0  0  0
  3 40  1  0  0  0
  4 41  1  0  0  0
  5 42  1  0  0  0
  7 43  1  0  0  0
  7 44  1  0  0  0
  9 45  1  0  0  0
 11 46  1  0  0  0
 14 47  1  0  0  0
 15 48  1  0  0  0
 16 49  1  0  0  0
 20 50  1  0  0  0
 20 51  1  0  0  0
 21 52  1  0  0  0
 22 53  1  0  0  0
 22 54  1  0  0  0
 22 55  1  0  0  0
 23 56  1  0  0  0
 23 57  1  0  0  0
 24 58  1  0  0  0
 25 59  1  0  0  0
 25 60  1  0  0  0
 25 61  1  0  0  0
 26 62  1  0  0  0
 27 63  1  0  0  0
 28 64  1  0  0  0
 28 65  1  0  0  0
 29 66  1  0  0  0
 30 67  1  0  0  0
 30 68  1  0  0  0
 30 69  1  0  0  0
 33 70  1  0  0  0
 34 71  1  0  0  0
 34 72  1  0  0  0
 35 73  1  0  0  0
 35 74  1  0  0  0
 36 75  1  0  0  0
 36 76  1  0  0  0
 37 77  1  0  0  0
 37 78  1  0  0  0
 37 79  1  0  0  0
M  END
$$$$
