4jpa_ligand
  -I-interpret- 

 57 60  0  0  0  0  0  0  0  0999 V2000
   37.3230  -14.2930   21.5680 C   0  0  0  0  0
   38.6160  -13.9970   20.8310 C   0  0  0  0  0
   39.6920  -14.9920   21.2150 C   0  0  0  0  0
   38.8090  -10.7690   19.5630 O   0  0  0  0  0
   38.0670  -15.1270   18.7770 O   0  0  0  0  0
   38.9960  -12.6230   20.9200 N   0  0  0  0  0
   42.0010  -12.7800   18.8470 C   0  0  0  0  0
   43.2750  -13.7380   15.5340 C   0  0  0  0  0
   43.4940  -14.5280   13.3940 C   0  0  0  0  0
   44.4370  -13.5730   13.1080 C   0  0  0  0  0
   44.9100  -14.6190   11.1030 C   0  0  0  0  0
   45.7440  -14.4650    9.8760 C   0  0  0  0  0
   45.1640  -14.3840    8.6250 C   0  0  0  0  0
   45.9510  -14.2400    7.5040 C   0  0  0  0  0
   47.3240  -14.1800    7.6240 C   0  0  0  0  0
   47.8990  -14.2600    8.8750 C   0  0  0  0  0
   44.7470  -12.7090   14.1290 C   0  0  0  0  0
   38.7470  -11.9780   19.7410 C   0  0  0  0  0
   38.3290  -14.0830   19.3620 C   0  0  0  0  0
   41.3760  -14.5140   20.8900 S   0  0  0  0  0
   41.6920  -13.3600   21.7070 O   0  0  0  0  0
   42.1150  -15.7450   21.0770 O   0  0  0  0  0
   41.4010  -14.0960   19.2250 N   0  0  0  0  0
   41.3100  -15.1750   18.1970 C   0  0  0  0  0
   42.5220  -15.1870   17.2970 C   0  0  0  0  0
   42.6460  -13.8360   16.7930 N   0  0  0  0  0
   43.0750  -12.8690   17.7790 C   0  0  0  0  0
   42.9090  -14.6270   14.5950 N   0  0  0  0  0
   45.0730  -13.4340   11.8740 O   0  0  0  0  0
   49.3080  -14.2020    9.0280 C   0  0  0  0  0
   50.4640  -14.1700    9.1210 N   0  0  0  0  0
   47.1150  -14.4020    9.9960 C   0  0  0  0  0
   44.1830  -12.7680   15.3370 N   0  0  0  0  0
   38.4150  -12.8780   18.8150 N   0  0  0  0  0
   36.5682  -13.5598   21.2838 H   0  0  0  0  0
   36.9772  -15.2928   21.3053 H   0  0  0  0  0
   37.4980  -14.2383   22.6425 H   0  0  0  0  0
   39.5098  -15.8798   20.6095 H   0  0  0  0  0
   39.6174  -15.1127   22.2957 H   0  0  0  0  0
   39.3975  -12.1840   21.7485 H   0  0  0  0  0
   42.4709  -12.3722   19.7420 H   0  0  0  0  0
   41.1970  -12.1643   18.4437 H   0  0  0  0  0
   43.2098  -15.2337   12.6134 H   0  0  0  0  0
   45.2233  -15.4938   11.6728 H   0  0  0  0  0
   43.8624  -14.7644   10.8393 H   0  0  0  0  0
   44.0798  -14.4342    8.5247 H   0  0  0  0  0
   45.4879  -14.1733    6.5195 H   0  0  0  0  0
   47.9490  -14.0703    6.7377 H   0  0  0  0  0
   45.4919  -11.9352   13.9434 H   0  0  0  0  0
   40.4271  -14.9937   17.5840 H   0  0  0  0  0
   41.2514  -16.1353   18.7093 H   0  0  0  0  0
   42.4087  -15.9061   16.4857 H   0  0  0  0  0
   43.4170  -15.4941   17.8381 H   0  0  0  0  0
   44.0218  -13.1777   18.2220 H   0  0  0  0  0
   43.2231  -11.8954   17.3119 H   0  0  0  0  0
   47.5788  -14.4648   10.9804 H   0  0  0  0  0
   38.2511  -12.6701   17.8300 H   0  0  0  0  0
  2  1  1  0  0  0
  3  2  1  0  0  0
  2  6  1  0  0  0
  2 19  1  0  0  0
 20  3  1  0  0  0
 18  4  2  0  0  0
 19  5  2  0  0  0
  6 18  1  0  0  0
 23  7  1  0  0  0
  7 27  1  0  0  0
 26  8  1  0  0  0
  8 28  4  0  0  0
  8 33  4  0  0  0
  9 10  4  0  0  0
 28  9  4  0  0  0
 17 10  4  0  0  0
 10 29  1  0  0  0
 11 12  1  0  0  0
 29 11  1  0  0  0
 12 13  4  0  0  0
 12 32  4  0  0  0
 13 14  4  0  0  0
 14 15  4  0  0  0
 16 15  4  0  0  0
 16 30  1  0  0  0
 32 16  4  0  0  0
 33 17  4  0  0  0
 34 18  1  0  0  0
 19 34  1  0  0  0
 20 21  2  0  0  0
 20 22  2  0  0  0
 23 20  1  0  0  0
 24 23  1  0  0  0
 25 24  1  0  0  0
 25 26  1  0  0  0
 26 27  1  0  0  0
 30 31  3  0  0  0
  1 35  1  0  0  0
  1 36  1  0  0  0
  1 37  1  0  0  0
  3 38  1  0  0  0
  3 39  1  0  0  0
  6 40  1  0  0  0
  7 41  1  0  0  0
  7 42  1  0  0  0
  9 43  1  0  0  0
 11 44  1  0  0  0
 11 45  1  0  0  0
 13 46  1  0  0  0
 14 47  1  0  0  0
 15 48  1  0  0  0
 17 49  1  0  0  0
 24 50  1  0  0  0
 24 51  1  0  0  0
 25 52  1  0  0  0
 25 53  1  0  0  0
 27 54  1  0  0  0
 27 55  1  0  0  0
 32 56  1  0  0  0
 34 57  1  0  0  0
M  END
$$$$
