5qb1_ligand
  -I-interpret- 

 49 51  0  0  0  0  0  0  0  0999 V2000
   -4.3880   11.8160  128.0950 N   0  0  0  0  0
   -7.2440    7.9920  122.3760 C   0  0  0  0  0
   -2.5930   11.8950  129.4850 O   0  0  0  0  0
   -8.8540    7.5090  124.2250 C   0  0  0  0  0
   -9.3590    6.2870  123.7840 C   0  0  0  0  0
  -11.3950    6.6400  125.0100 C   0  0  0  0  0
  -10.6180    5.8600  124.1730 C   0  0  0  0  0
  -10.9060    7.8540  125.4730 C   0  0  0  0  0
   -5.7790    8.5900  120.4230 C   0  0  0  0  0
   -6.0310    8.4800  121.9070 C   0  0  0  0  0
  -12.5980   10.4600  127.6300 C   0  0  0  0  0
   -9.6410    8.2770  125.0820 C   0  0  0  0  0
   -6.5990    8.5290  124.6190 C   0  0  0  0  0
   -5.3740    9.0220  124.1710 C   0  0  0  0  0
   -4.3960    9.6170  125.1120 C   0  0  0  0  0
   -3.0280    9.5340  124.8660 C   0  0  0  0  0
   -2.1220   10.1700  125.6930 C   0  0  0  0  0
   -2.5600   10.8960  126.7870 C   0  0  0  0  0
   -3.9190   10.9880  127.0510 C   0  0  0  0  0
   -3.6820   12.3380  129.1250 C   0  0  0  0  0
   -4.3090   13.5330  129.7720 C   0  0  0  0  0
   -4.8260   10.3370  126.2250 C   0  0  0  0  0
   -5.0960    8.9830  122.8070 C   0  0  0  0  0
   -7.5480    8.0130  123.7360 C   0  0  0  0  0
  -11.4570    9.8440  126.8760 C   0  0  0  0  0
  -11.7260    8.6370  126.3190 N   0  0  0  0  0
   -6.6110    8.0540  119.6540 O   0  0  0  0  0
  -10.3680   10.4020  126.7720 O   0  0  0  0  0
   -4.7480    9.2030  120.0480 O   0  0  0  0  0
   -5.3807   12.0491  128.0695 H   0  0  0  0  0
   -7.9688    7.5867  121.6700 H   0  0  0  0  0
   -8.7567    5.6606  123.1259 H   0  0  0  0  0
  -12.3885    6.3025  125.3053 H   0  0  0  0  0
  -10.9989    4.9028  123.8170 H   0  0  0  0  0
  -12.3039   10.6158  128.6680 H   0  0  0  0  0
  -12.8568   11.4169  127.1768 H   0  0  0  0  0
  -13.4595    9.7933  127.5913 H   0  0  0  0  0
   -9.2569    9.2274  125.4525 H   0  0  0  0  0
   -6.8208    8.5472  125.6860 H   0  0  0  0  0
   -2.6678    8.9610  124.0116 H   0  0  0  0  0
   -1.0549   10.0995  125.4824 H   0  0  0  0  0
   -1.8408   11.3930  127.4380 H   0  0  0  0  0
   -4.4680   13.3297  130.8310 H   0  0  0  0  0
   -3.6486   14.3930  129.6610 H   0  0  0  0  0
   -5.2655   13.7436  129.2936 H   0  0  0  0  0
   -5.8910   10.3900  126.4508 H   0  0  0  0  0
   -4.1372    9.3498  122.4407 H   0  0  0  0  0
  -12.6401    8.2417  126.5391 H   0  0  0  0  0
   -4.2703    9.5234  120.8166 H   0  0  0  0  0
 19  1  1  0  0  0
  1 20  1  0  0  0
  2 10  4  0  0  0
 24  2  4  0  0  0
 20  3  2  0  0  0
  4  5  4  0  0  0
 12  4  4  0  0  0
  4 24  1  0  0  0
  7  5  4  0  0  0
  6  7  4  0  0  0
  8  6  4  0  0  0
  8 12  4  0  0  0
 26  8  1  0  0  0
 10  9  1  0  0  0
  9 27  2  0  0  0
  9 29  1  0  0  0
 10 23  4  0  0  0
 25 11  1  0  0  0
 13 14  4  0  0  0
 24 13  4  0  0  0
 14 15  1  0  0  0
 14 23  4  0  0  0
 15 16  4  0  0  0
 15 22  4  0  0  0
 16 17  4  0  0  0
 17 18  4  0  0  0
 19 18  4  0  0  0
 22 19  4  0  0  0
 20 21  1  0  0  0
 25 26  1  0  0  0
 25 28  2  0  0  0
  1 30  1  0  0  0
  2 31  1  0  0  0
  5 32  1  0  0  0
  6 33  1  0  0  0
  7 34  1  0  0  0
 11 35  1  0  0  0
 11 36  1  0  0  0
 11 37  1  0  0  0
 12 38  1  0  0  0
 13 39  1  0  0  0
 16 40  1  0  0  0
 17 41  1  0  0  0
 18 42  1  0  0  0
 21 43  1  0  0  0
 21 44  1  0  0  0
 21 45  1  0  0  0
 22 46  1  0  0  0
 23 47  1  0  0  0
 26 48  1  0  0  0
 29 49  1  0  0  0
M  END
$$$$
