### 
### Created by X-TOOL on Mon Sep 10 21:12:46 2018
### 

@<TRIPOS>MOLECULE
1bmb_ligand
  164   167     1     0     0
SMALL
GAST_HUCK


@<TRIPOS>ATOM
      1 N          31.2670   35.6230   22.6650 N.4       1 LYS         0.2379
      2 CA         30.9650   35.2840   21.2440 C.3       1 LYS         0.0652
      3 C          30.9820   33.7650   21.0340 C.2       1 LYS         0.2292
      4 O          31.4600   33.0170   21.8950 O.2       1 LYS        -0.3905
      5 CB         31.9680   35.9670   20.3100 C.3       1 LYS         0.0080
      6 CG         33.4050   35.5340   20.5000 C.3       1 LYS        -0.0410
      7 CD         34.3100   36.3090   19.5580 C.3       1 LYS        -0.0123
      8 CE         35.7680   35.9690   19.7850 C.3       1 LYS        -0.0354
      9 NZ         36.6800   36.9050   19.0740 N.4       1 LYS         0.2185
     10 N          30.3910   33.2880   19.9230 N.am      1 PRO        -0.2471
     11 CA         30.3560   31.8500   19.6340 C.3       1 PRO         0.1339
     12 C          31.7440   31.2290   19.4950 C.2       1 PRO         0.2042
     13 O          32.6560   31.8330   18.9430 O.2       1 PRO        -0.3944
     14 CB         29.5630   31.7810   18.3200 C.3       1 PRO        -0.0104
     15 CG         29.7820   33.1300   17.7050 C.3       1 PRO        -0.0281
     16 CD         29.6660   34.0430   18.8870 C.3       1 PRO         0.0371
     17 N          31.8900   30.0240   20.0290 N.am      1 PHE        -0.2619
     18 CA         33.1520   29.3060   19.9780 C.3       1 PHE         0.1404
     19 C          33.1040   28.2190   18.9070 C.2       1 PHE         0.2062
     20 O          32.0310   27.7480   18.5400 O.2       1 PHE        -0.3942
     21 CB         33.4650   28.6960   21.3550 C.3       1 PHE         0.0214
     22 CG         32.3780   27.7960   21.8880 C.ar      1 PHE        -0.0386
     23 CD1        31.3130   28.3320   22.6080 C.ar      1 PHE        -0.0601
     24 CD2        32.3900   26.4270   21.6210 C.ar      1 PHE        -0.0601
     25 CE1        30.2730   27.5220   23.0460 C.ar      1 PHE        -0.0686
     26 CE2        31.3550   25.6070   22.0540 C.ar      1 PHE        -0.0686
     27 CZ         30.2910   26.1550   22.7680 C.ar      1 PHE        -0.0687
     28 N          34.2660   27.8590   18.3830 N.am      1 PTR        -0.2606
     29 CA         34.3660   26.8130   17.3770 C.3       1 PTR         0.1468
     30 C          35.5640   25.9710   17.7690 C.2       1 PTR         0.2074
     31 O          36.6000   26.4970   18.1700 O.2       1 PTR        -0.3941
     32 CB         34.5500   27.3970   15.9730 C.3       1 PTR         0.0400
     33 CG         33.4070   28.2930   15.5420 C.ar      1 PTR        -0.0004
     34 CD1        32.2620   27.7710   14.9320 C.ar      1 PTR        -0.0239
     35 CD2        33.4420   29.6560   15.8040 C.ar      1 PTR        -0.0239
     36 CE1        31.1670   28.6030   14.5950 C.ar      1 PTR         0.0115
     37 CE2        32.3790   30.4800   15.4820 C.ar      1 PTR         0.0115
     38 CZ         31.2380   29.9640   14.8820 C.ar      1 PTR         0.1728
     39 OH         30.2050   30.8690   14.5680 O.3       1 PTR        -0.2040
     40 P          28.7040   30.4420   14.3680 P.3       1 PTR         0.1348
     41 O1P        27.8520   31.6450   14.8410 O.co2     1 PTR        -0.6653
     42 O2P        28.3810   29.1850   15.2170 O.co2     1 PTR        -0.6653
     43 O3P        28.4750   30.1820   12.8630 O.co2     1 PTR        -0.6653
     44 N          35.4170   24.6600   17.6600 N.am      1 VAL        -0.2632
     45 CA         36.4690   23.7180   18.0300 C.3       1 VAL         0.1333
     46 C          37.8250   23.9800   17.3810 C.2       1 VAL         0.2043
     47 O          38.8630   23.7510   18.0010 O.2       1 VAL        -0.3944
     48 CB         36.0180   22.2590   17.7520 C.3       1 VAL        -0.0063
     49 CG1        37.1090   21.2520   18.1430 C.3       1 VAL        -0.0584
     50 CG2        34.7280   21.9700   18.5130 C.3       1 VAL        -0.0584
     51 N          37.8170   24.4850   16.1510 N.am      1 ASN        -0.2616
     52 CA         39.0580   24.7510   15.4310 C.3       1 ASN         0.1476
     53 C          39.5200   26.1990   15.4440 C.2       1 ASN         0.2063
     54 O          40.4030   26.5680   14.6730 O.2       1 ASN        -0.3942
     55 CB         38.9580   24.2690   13.9860 C.3       1 ASN         0.0773
     56 CG         37.8980   25.0040   13.2050 C.2       1 ASN         0.1780
     57 OD1        36.8670   25.3870   13.7530 O.2       1 ASN        -0.3970
     58 ND2        38.1360   25.1990   11.9170 N.am      1 ASN        -0.3007
     59 N          38.9440   27.0150   16.3200 N.am      1 VAL        -0.2633
     60 CA         39.3240   28.4230   16.4220 C.3       1 VAL         0.1333
     61 C          39.7420   28.7350   17.8550 C.2       1 VAL         0.2042
     62 O          38.9650   28.5700   18.7990 O.2       1 VAL        -0.3944
     63 CB         38.1690   29.3750   15.9980 C.3       1 VAL        -0.0063
     64 CG1        38.5740   30.8260   16.2030 C.3       1 VAL        -0.0584
     65 CG2        37.8070   29.1440   14.5400 C.3       1 VAL        -0.0584
     66 N          40.9860   29.1640   18.0210 N.am      1 GLU        -0.2636
     67 CA         41.4890   29.4880   19.3450 C.3       1 GLU         0.1324
     68 C          41.1940   30.9280   19.7470 C.2       1 GLU         0.2036
     69 O          41.3590   31.8510   18.9430 O.2       1 GLU        -0.3944
     70 CB         42.9930   29.2240   19.4200 C.3       1 GLU        -0.0008
     71 CG         43.5410   29.2700   20.8380 C.3       1 GLU         0.0044
     72 CD         45.0410   29.0920   20.8970 C.2       1 GLU         0.0350
     73 OE1        45.5690   28.1420   20.2750 O.co2     1 GLU        -0.5690
     74 OE2        45.6900   29.9120   21.5770 O.co2     1 GLU        -0.5690
     75 N          40.6870   31.1050   20.9640 N.am      1 PHE        -0.2677
     76 CA         40.4050   32.4360   21.4900 C.3       1 PHE         0.1039
     77 C          41.7000   33.0260   22.0670 C.2       1 PHE         0.0621
     78 O          42.4230   32.2920   22.7810 O.co2     1 PHE        -0.5664
     79 CB         39.3310   32.3810   22.5850 C.3       1 PHE         0.0159
     80 CG         37.9160   32.3910   22.0720 C.ar      1 PHE        -0.0392
     81 CD1        37.6310   32.0470   20.7600 C.ar      1 PHE        -0.0602
     82 CD2        36.8630   32.7230   22.9180 C.ar      1 PHE        -0.0602
     83 CE1        36.3410   32.0260   20.3100 C.ar      1 PHE        -0.0686
     84 CE2        35.5510   32.7030   22.4650 C.ar      1 PHE        -0.0686
     85 CZ         35.2920   32.3540   21.1600 C.ar      1 PHE        -0.0687
     86 OXT        41.9580   34.2250   21.8420 O.co2     1 PHE        -0.5664
     87 H1         31.2511   36.6240   22.7823 H         1 LYS         0.2015
     88 H2         32.1797   35.2708   22.9078 H         1 LYS         0.2015
     89 H3         30.5743   35.2034   23.2651 H         1 LYS         0.2015
     90 H4         29.9578   35.6557   21.0046 H         1 LYS         0.1098
     91 H5         31.9117   37.0521   20.4813 H         1 LYS         0.0346
     92 H6         31.6773   35.7439   19.2729 H         1 LYS         0.0346
     93 H7         33.4926   34.4585   20.2866 H         1 LYS         0.0270
     94 H8         33.7095   35.7277   21.5391 H         1 LYS         0.0270
     95 H9         34.1636   37.3860   19.7269 H         1 LYS         0.0317
     96 H10        34.0424   36.0609   18.5203 H         1 LYS         0.0317
     97 H11        35.9545   34.9478   19.4213 H         1 LYS         0.0813
     98 H12        35.9797   36.0186   20.8633 H         1 LYS         0.0813
     99 H13        37.6367   36.6423   19.2523 H         1 LYS         0.1994
    100 H14        36.5222   37.8440   19.4047 H         1 LYS         0.1994
    101 H15        36.4991   36.8628   18.0833 H         1 LYS         0.1994
    102 H16        29.8183   31.3182   20.4328 H         1 PRO         0.0802
    103 H17        28.4945   31.6070   18.5148 H         1 PRO         0.0313
    104 H18        29.9514   30.9846   17.6682 H         1 PRO         0.0313
    105 H19        29.0123   33.3540   16.9517 H         1 PRO         0.0287
    106 H20        30.7781   33.2004   17.2437 H         1 PRO         0.0287
    107 H21        30.1437   35.0143   18.6912 H         1 PRO         0.0524
    108 H22        28.6146   34.2016   19.1689 H         1 PRO         0.0524
    109 H23        31.1071   29.5962   20.4808 H         1 PHE         0.1885
    110 H24        33.9508   30.0166   19.7191 H         1 PHE         0.0823
    111 H25        33.6163   29.5172   22.0710 H         1 PHE         0.0474
    112 H26        34.3907   28.1079   21.2706 H         1 PHE         0.0474
    113 H27        31.2955   29.3931   22.8290 H         1 PHE         0.0557
    114 H28        33.2176   25.9971   21.0685 H         1 PHE         0.0557
    115 H29        29.4483   27.9516   23.6032 H         1 PHE         0.0599
    116 H30        31.3752   24.5451   21.8372 H         1 PHE         0.0599
    117 H31        29.4796   25.5208   23.1064 H         1 PHE         0.0559
    118 H32        35.0993   28.3200   18.6880 H         1 PTR         0.1886
    119 H33        33.4546   26.1972   17.3887 H         1 PTR         0.0840
    120 H34        34.6311   26.5659   15.2570 H         1 PTR         0.0584
    121 H35        35.4793   27.9854   15.9586 H         1 PTR         0.0584
    122 H36        32.2119   26.7105   14.7133 H         1 PTR         0.0703
    123 H37        34.3217   30.0837   16.2712 H         1 PTR         0.0703
    124 H38        30.2859   28.1866   14.1203 H         1 PTR         0.0736
    125 H39        32.4372   31.5402   15.7004 H         1 PTR         0.0736
    126 H40        34.5516   24.3009   17.3106 H         1 VAL         0.1883
    127 H41        36.6136   23.8193   19.1157 H         1 VAL         0.0802
    128 H42        35.8218   22.1542   16.6747 H         1 VAL         0.0343
    129 H43        36.7575   20.2309   17.9336 H         1 VAL         0.0234
    130 H44        37.3314   21.3504   19.2158 H         1 VAL         0.0234
    131 H45        38.0197   21.4531   17.5598 H         1 VAL         0.0234
    132 H46        33.9586   22.6999   18.2209 H         1 VAL         0.0234
    133 H47        34.9149   22.0472   19.5942 H         1 VAL         0.0234
    134 H48        34.3801   20.9546   18.2726 H         1 VAL         0.0234
    135 H49        36.9423   24.6867   15.7102 H         1 ASN         0.1885
    136 H50        39.8421   24.1613   15.9285 H         1 ASN         0.0826
    137 H51        38.7148   23.1962   13.9878 H         1 ASN         0.0551
    138 H52        39.9297   24.4239   13.4942 H         1 ASN         0.0551
    139 H53        37.4662   25.6810   11.3521 H         1 ASN         0.1814
    140 H54        38.9855   24.8643   11.5092 H         1 ASN         0.1814
    141 H55        38.2326   26.6571   16.9248 H         1 VAL         0.1883
    142 H56        40.1806   28.5997   15.7550 H         1 VAL         0.0802
    143 H57        37.2882   29.1611   16.6213 H         1 VAL         0.0343
    144 H58        37.7468   31.4841   15.8986 H         1 VAL         0.0234
    145 H59        39.4625   31.0483   15.5938 H         1 VAL         0.0234
    146 H60        38.8056   30.9955   17.2649 H         1 VAL         0.0234
    147 H61        37.5148   28.0932   14.3968 H         1 VAL         0.0234
    148 H62        38.6762   29.3725   13.9057 H         1 VAL         0.0234
    149 H63        36.9680   29.7989   14.2623 H         1 VAL         0.0234
    150 H64        41.5843   29.2656   17.2262 H         1 GLU         0.1883
    151 H65        40.9860   28.8270   20.0662 H         1 GLU         0.0801
    152 H66        43.5118   29.9862   18.8202 H         1 GLU         0.0330
    153 H67        43.1941   28.2274   19.0000 H         1 GLU         0.0330
    154 H68        43.0693   28.4663   21.4225 H         1 GLU         0.0433
    155 H69        43.2858   30.2439   21.2811 H         1 GLU         0.0433
    156 H70        40.4943   30.3053   21.5327 H         1 PHE         0.1877
    157 H71        40.0460   33.0768   20.6712 H         1 PHE         0.0749
    158 H72        39.4646   33.2534   23.2415 H         1 PHE         0.0467
    159 H73        39.4794   31.4587   23.1659 H         1 PHE         0.0467
    160 H74        38.4394   31.7921   20.0843 H         1 PHE         0.0557
    161 H75        37.0697   33.0012   23.9451 H         1 PHE         0.0557
    162 H76        36.1344   31.7513   19.2819 H         1 PHE         0.0599
    163 H77        34.7377   32.9602   23.1339 H         1 PHE         0.0599
    164 H78        34.2713   32.3349   20.7954 H         1 PHE         0.0559
@<TRIPOS>BOND
     1    1    2 1  
     2    2    3 1  
     3    2    5 1  
     4    3    4 2  
     5    3   10 am 
     6    5    6 1  
     7    6    7 1  
     8    7    8 1  
     9    8    9 1  
    10   10   11 1  
    11   10   16 1  
    12   11   12 1  
    13   11   14 1  
    14   12   13 2  
    15   12   17 am 
    16   14   15 1  
    17   15   16 1  
    18   17   18 1  
    19   18   19 1  
    20   18   21 1  
    21   19   20 2  
    22   19   28 am 
    23   21   22 1  
    24   22   23 ar 
    25   22   24 ar 
    26   23   25 ar 
    27   24   26 ar 
    28   25   27 ar 
    29   26   27 ar 
    30   28   29 1  
    31   29   30 1  
    32   29   32 1  
    33   30   31 2  
    34   30   44 am 
    35   32   33 1  
    36   33   34 ar 
    37   33   35 ar 
    38   34   36 ar 
    39   35   37 ar 
    40   36   38 ar 
    41   37   38 ar 
    42   38   39 1  
    43   39   40 1  
    44   40   41 ar 
    45   40   42 ar 
    46   40   43 ar 
    47   44   45 1  
    48   45   46 1  
    49   45   48 1  
    50   46   47 2  
    51   46   51 am 
    52   48   49 1  
    53   48   50 1  
    54   51   52 1  
    55   52   53 1  
    56   52   55 1  
    57   53   54 2  
    58   53   59 am 
    59   55   56 1  
    60   56   57 2  
    61   56   58 am 
    62   59   60 1  
    63   60   61 1  
    64   60   63 1  
    65   61   62 2  
    66   61   66 am 
    67   63   64 1  
    68   63   65 1  
    69   66   67 1  
    70   67   68 1  
    71   67   70 1  
    72   68   69 2  
    73   68   75 am 
    74   70   71 1  
    75   71   72 1  
    76   72   73 ar 
    77   72   74 ar 
    78   75   76 1  
    79   76   77 1  
    80   76   79 1  
    81   77   78 ar 
    82   77   86 ar 
    83   79   80 1  
    84   80   81 ar 
    85   80   82 ar 
    86   81   83 ar 
    87   82   84 ar 
    88   83   85 ar 
    89   84   85 ar 
    90    1   87 1  
    91    1   88 1  
    92    1   89 1  
    93    2   90 1  
    94    5   91 1  
    95    5   92 1  
    96    6   93 1  
    97    6   94 1  
    98    7   95 1  
    99    7   96 1  
   100    8   97 1  
   101    8   98 1  
   102    9   99 1  
   103    9  100 1  
   104    9  101 1  
   105   11  102 1  
   106   14  103 1  
   107   14  104 1  
   108   15  105 1  
   109   15  106 1  
   110   16  107 1  
   111   16  108 1  
   112   17  109 1  
   113   18  110 1  
   114   21  111 1  
   115   21  112 1  
   116   23  113 1  
   117   24  114 1  
   118   25  115 1  
   119   26  116 1  
   120   27  117 1  
   121   28  118 1  
   122   29  119 1  
   123   32  120 1  
   124   32  121 1  
   125   34  122 1  
   126   35  123 1  
   127   36  124 1  
   128   37  125 1  
   129   44  126 1  
   130   45  127 1  
   131   48  128 1  
   132   49  129 1  
   133   49  130 1  
   134   49  131 1  
   135   50  132 1  
   136   50  133 1  
   137   50  134 1  
   138   51  135 1  
   139   52  136 1  
   140   55  137 1  
   141   55  138 1  
   142   58  139 1  
   143   58  140 1  
   144   59  141 1  
   145   60  142 1  
   146   63  143 1  
   147   64  144 1  
   148   64  145 1  
   149   64  146 1  
   150   65  147 1  
   151   65  148 1  
   152   65  149 1  
   153   66  150 1  
   154   67  151 1  
   155   70  152 1  
   156   70  153 1  
   157   71  154 1  
   158   71  155 1  
   159   75  156 1  
   160   76  157 1  
   161   79  158 1  
   162   79  159 1  
   163   81  160 1  
   164   82  161 1  
   165   83  162 1  
   166   84  163 1  
   167   85  164 1  
@<TRIPOS>SUBSTRUCTURE
     1 LYS         1

