1xon_ligand
  -I-interpret- 

 43 45  0  0  0  0  0  0  0  0999 V2000
    4.8180   -0.3840   53.4140 Cl  0  0  0  0  0
    6.3430   -0.6150   52.6290 C   0  0  0  0  0
    6.4520   -0.3840   51.2640 C   0  0  0  0  0
    7.6250   -0.5180   50.5890 N   0  0  0  0  0
    8.7070   -0.9220   51.3160 C   0  0  0  0  0
    8.6790   -1.1830   52.6810 C   0  0  0  0  0
   10.1090   -1.6900   53.4810 Cl  0  0  0  0  0
    7.4680   -1.0280   53.3640 C   0  0  0  0  0
    7.3310   -1.2610   54.7580 N   0  0  0  0  0
    6.5570   -2.3080   55.2220 C   0  0  0  0  0
    5.9700   -3.0850   54.4740 O   0  0  0  0  0
    6.4340   -2.4850   56.6950 C   0  0  0  0  0
    7.2010   -1.7690   57.6320 C   0  0  0  0  0
    7.0280   -2.0040   59.0040 C   0  0  0  0  0
    6.0940   -2.9460   59.4660 C   0  0  0  0  0
    5.9450   -3.1670   60.8120 O   0  0  0  0  0
    6.6950   -2.4190   61.7860 C   0  0  0  0  0
    5.3210   -3.6530   58.5410 C   0  0  0  0  0
    5.4960   -3.4260   57.1590 C   0  0  0  0  0
    4.4160   -4.5620   59.0510 O   0  0  0  0  0
    3.6970   -5.3490   58.0790 C   0  0  0  0  0
    2.7320   -4.4030   57.5740 C   0  0  0  0  0
    1.5180   -4.4480   58.4970 C   0  0  0  0  0
    1.7050   -5.6610   59.3800 C   0  0  0  0  0
    2.8790   -6.4240   58.7900 C   0  0  0  0  0
    5.5618   -0.0833   50.7115 H   0  0  0  0  0
    9.6546   -1.0482   50.7923 H   0  0  0  0  0
    7.8075   -0.6509   55.4222 H   0  0  0  0  0
    7.9290   -1.0323   57.2922 H   0  0  0  0  0
    7.6280   -1.4466   59.7233 H   0  0  0  0  0
    7.7608   -2.5805   61.6243 H   0  0  0  0  0
    6.4671   -1.3582   61.6818 H   0  0  0  0  0
    6.4233   -2.7537   62.7871 H   0  0  0  0  0
    4.8968   -3.9868   56.4417 H   0  0  0  0  0
    4.3550   -5.8120   57.3436 H   0  0  0  0  0
    2.4449   -4.6594   56.5543 H   0  0  0  0  0
    3.1573   -3.3996   57.5528 H   0  0  0  0  0
    0.5921   -4.5164   57.9258 H   0  0  0  0  0
    1.4417   -3.5373   59.0910 H   0  0  0  0  0
    0.8051   -6.2755   59.4062 H   0  0  0  0  0
    1.8975   -5.3736   60.4137 H   0  0  0  0  0
    3.4570   -6.9472   59.5518 H   0  0  0  0  0
    2.5591   -7.2158   58.1126 H   0  0  0  0  0
  1  2  1  0  0  0
  2  3  4  0  0  0
  2  8  4  0  0  0
  3  4  4  0  0  0
  4  5  4  0  0  0
  5  6  4  0  0  0
  6  7  1  0  0  0
  6  8  4  0  0  0
  8  9  1  0  0  0
  9 10  1  0  0  0
 10 11  2  0  0  0
 10 12  1  0  0  0
 12 13  4  0  0  0
 12 19  4  0  0  0
 13 14  4  0  0  0
 14 15  4  0  0  0
 15 16  1  0  0  0
 15 18  4  0  0  0
 16 17  1  0  0  0
 18 19  4  0  0  0
 18 20  1  0  0  0
 20 21  1  0  0  0
 21 22  1  0  0  0
 21 25  1  0  0  0
 22 23  1  0  0  0
 23 24  1  0  0  0
 24 25  1  0  0  0
  3 26  1  0  0  0
  5 27  1  0  0  0
  9 28  1  0  0  0
 13 29  1  0  0  0
 14 30  1  0  0  0
 17 31  1  0  0  0
 17 32  1  0  0  0
 17 33  1  0  0  0
 19 34  1  0  0  0
 21 35  1  0  0  0
 22 36  1  0  0  0
 22 37  1  0  0  0
 23 38  1  0  0  0
 23 39  1  0  0  0
 24 40  1  0  0  0
 24 41  1  0  0  0
 25 42  1  0  0  0
 25 43  1  0  0  0
M  END
$$$$
