4q6d_ligand
  -I-interpret- 

 37 38  0  0  0  0  0  0  0  0999 V2000
   -7.3840    0.8530   16.6770 O   0  0  0  0  0
   -5.9560    0.8100   16.7890 S   0  0  0  0  0
   -5.3930    0.8940   18.1220 O   0  0  0  0  0
   -5.3840   -0.4970   16.0340 N   0  0  0  0  0
   -5.4080    2.2380   15.9480 C   0  0  0  0  0
   -6.2840    3.2410   15.5430 C   0  0  0  0  0
   -4.0160    2.3900   15.6600 C   0  0  0  0  0
   -3.5800    3.5380   14.9560 C   0  0  0  0  0
   -4.5060    4.4950   14.5600 C   0  0  0  0  0
   -5.8320    4.3490   14.8510 C   0  0  0  0  0
   -4.1190    5.6210   13.8120 N   0  0  0  0  0
   -2.8920    5.8960   13.8480 N   0  0  0  0  0
   -2.3920    7.0110   13.2950 N   0  0  0  0  0
   -1.3260    7.4550   14.1650 C   0  0  0  0  0
   -0.3130    8.5280   13.8420 C   0  0  0  0  0
   -1.0930    9.7850   14.1500 C   0  0  0  0  0
   -2.1350   10.0250   13.0600 C   0  0  0  0  0
   -2.3820    9.0030   11.9310 C   0  0  0  0  0
   -3.1360    7.7530   12.3340 C   0  0  0  0  0
   -6.0261   -1.1411   15.5722 H   0  0  0  0  0
   -4.3805   -0.6788   16.0187 H   0  0  0  0  0
   -7.3451    3.1512   15.7756 H   0  0  0  0  0
   -3.3001    1.6322   15.9782 H   0  0  0  0  0
   -2.5229    3.6705   14.7257 H   0  0  0  0  0
   -6.5412    5.1138   14.5345 H   0  0  0  0  0
   -0.7005    6.5647   14.2298 H   0  0  0  0  0
   -1.8788    7.9058   14.9892 H   0  0  0  0  0
    0.0556    8.4845   12.8171 H   0  0  0  0  0
    0.6120    8.4391   14.4116 H   0  0  0  0  0
   -0.4097   10.6334   14.1894 H   0  0  0  0  0
   -1.5951    9.6721   15.1109 H   0  0  0  0  0
   -1.7604   10.9035   12.5347 H   0  0  0  0  0
   -3.0789   10.0399   13.6049 H   0  0  0  0  0
   -1.4001    8.6757   11.5892 H   0  0  0  0  0
   -2.9957    9.5079   11.1850 H   0  0  0  0  0
   -4.0919    8.0411   12.7713 H   0  0  0  0  0
   -3.2923    7.1331   11.4511 H   0  0  0  0  0
  1  2  2  0  0  0
  2  3  2  0  0  0
  2  4  1  0  0  0
  2  5  1  0  0  0
  5  6  4  0  0  0
  5  7  4  0  0  0
  6 10  4  0  0  0
  7  8  4  0  0  0
  8  9  4  0  0  0
  9 10  4  0  0  0
  9 11  1  0  0  0
 11 12  2  0  0  0
 12 13  1  0  0  0
 13 14  1  0  0  0
 13 19  1  0  0  0
 14 15  1  0  0  0
 15 16  1  0  0  0
 16 17  1  0  0  0
 17 18  1  0  0  0
 18 19  1  0  0  0
  4 20  1  0  0  0
  4 21  1  0  0  0
  6 22  1  0  0  0
  7 23  1  0  0  0
  8 24  1  0  0  0
 10 25  1  0  0  0
 14 26  1  0  0  0
 14 27  1  0  0  0
 15 28  1  0  0  0
 15 29  1  0  0  0
 16 30  1  0  0  0
 16 31  1  0  0  0
 17 32  1  0  0  0
 17 33  1  0  0  0
 18 34  1  0  0  0
 18 35  1  0  0  0
 19 36  1  0  0  0
 19 37  1  0  0  0
M  END
$$$$
