5ajx_ligand
  -I-interpret- 

 60 64  0  0  0  0  0  0  0  0999 V2000
  -45.4810  -41.6440  -12.6990 N   0  0  0  0  0
  -44.3470  -41.5630  -12.5230 C   0  0  0  0  0
  -42.9350  -41.4000  -12.3220 C   0  0  0  0  0
  -42.0590  -42.3350  -11.8130 C   0  0  0  0  0
  -42.1790  -40.2230  -12.6210 C   0  0  0  0  0
  -42.4680  -38.9770  -13.1330 C   0  0  0  0  0
  -41.4550  -38.0410  -13.3070 C   0  0  0  0  0
  -40.1450  -38.3300  -12.9500 C   0  0  0  0  0
  -39.8090  -39.5730  -12.4270 C   0  0  0  0  0
  -40.8300  -40.5170  -12.2660 C   0  0  0  0  0
  -40.7940  -41.8280  -11.7700 N   0  0  0  0  0
  -39.6210  -42.5490  -11.2860 C   0  0  0  0  0
  -38.5620  -42.7580  -12.3240 C   0  0  0  0  0
  -38.6910  -43.3260  -13.5410 C   0  0  0  0  0
  -39.8350  -43.9200  -14.2810 C   0  0  0  0  0
  -37.5340  -43.3650  -14.2370 O   0  0  0  0  0
  -36.5580  -42.7550  -13.3710 N   0  0  0  0  0
  -37.1700  -42.3780  -12.1980 C   0  0  0  0  0
  -36.5290  -41.7860  -11.1960 C   0  0  0  0  0
  -41.7950  -36.7980  -13.8070 O   0  0  0  0  0
  -41.4430  -36.4270  -15.1160 C   0  0  0  0  0
  -41.5560  -35.0700  -15.4370 C   0  0  0  0  0
  -41.2300  -34.6210  -16.7060 C   0  0  0  0  0
  -40.7850  -35.5160  -17.6700 C   0  0  0  0  0
  -40.6720  -36.8650  -17.3460 C   0  0  0  0  0
  -40.9940  -37.3410  -16.0860 C   0  0  0  0  0
  -40.4710  -34.9590  -18.9560 N   0  0  0  0  0
  -40.0190  -35.5850  -20.0780 C   0  0  0  0  0
  -39.8100  -36.7880  -20.1320 O   0  0  0  0  0
  -39.7710  -34.6930  -21.3150 C   0  0  0  0  0
  -38.9230  -35.3270  -22.3390 N   0  3  0  0  0
  -39.4200  -34.9210  -23.6610 C   0  0  0  0  0
  -40.9240  -34.8130  -23.4820 C   0  0  0  0  0
  -41.0850  -34.3710  -22.0410 C   0  0  0  0  0
  -42.3383  -43.3380  -11.4905 H   0  0  0  0  0
  -43.4936  -38.7245  -13.4023 H   0  0  0  0  0
  -39.3713  -37.5736  -13.0813 H   0  0  0  0  0
  -38.7808  -39.8060  -12.1503 H   0  0  0  0  0
  -39.9576  -43.5348  -10.9650 H   0  0  0  0  0
  -39.1792  -41.9496  -10.4900 H   0  0  0  0  0
  -40.2380  -44.7581  -13.7124 H   0  0  0  0  0
  -40.6097  -43.1652  -14.4165 H   0  0  0  0  0
  -39.4934  -44.2707  -15.2548 H   0  0  0  0  0
  -36.9773  -40.8109  -11.0052 H   0  0  0  0  0
  -36.6061  -42.4040  -10.3015 H   0  0  0  0  0
  -35.4796  -41.6591  -11.4622 H   0  0  0  0  0
  -41.9026  -34.3621  -14.6841 H   0  0  0  0  0
  -41.3230  -33.5624  -16.9486 H   0  0  0  0  0
  -40.3208  -37.5652  -18.1040 H   0  0  0  0  0
  -40.9014  -38.4014  -15.8511 H   0  0  0  0  0
  -40.6056  -33.9515  -19.0412 H   0  0  0  0  0
  -39.2823  -33.8080  -20.9075 H   0  0  0  0  0
  -38.9605  -36.3421  -22.2465 H   0  0  0  0  0
  -37.9533  -35.0327  -22.2230 H   0  0  0  0  0
  -39.1504  -35.6369  -24.4375 H   0  0  0  0  0
  -38.9787  -33.9815  -23.9936 H   0  0  0  0  0
  -41.4353  -35.7535  -23.6875 H   0  0  0  0  0
  -41.3766  -34.1128  -24.1842 H   0  0  0  0  0
  -41.2992  -33.3035  -21.9896 H   0  0  0  0  0
  -41.9194  -34.8921  -21.5716 H   0  0  0  0  0
  1  2  3  0  0  0
  2  3  1  0  0  0
  3  4  4  0  0  0
  3  5  4  0  0  0
  4 11  4  0  0  0
  5  6  4  0  0  0
  5 10  4  0  0  0
  6  7  4  0  0  0
  7  8  4  0  0  0
  7 20  1  0  0  0
  8  9  4  0  0  0
  9 10  4  0  0  0
 10 11  4  0  0  0
 11 12  1  0  0  0
 12 13  1  0  0  0
 13 14  4  0  0  0
 13 18  4  0  0  0
 14 15  1  0  0  0
 14 16  4  0  0  0
 16 17  4  0  0  0
 17 18  4  0  0  0
 18 19  1  0  0  0
 20 21  1  0  0  0
 21 22  4  0  0  0
 21 26  4  0  0  0
 22 23  4  0  0  0
 23 24  4  0  0  0
 24 25  4  0  0  0
 24 27  1  0  0  0
 25 26  4  0  0  0
 27 28  1  0  0  0
 28 29  2  0  0  0
 28 30  1  0  0  0
 30 31  1  0  0  0
 30 34  1  0  0  0
 31 32  1  0  0  0
 32 33  1  0  0  0
 33 34  1  0  0  0
  4 35  1  0  0  0
  6 36  1  0  0  0
  8 37  1  0  0  0
  9 38  1  0  0  0
 12 39  1  0  0  0
 12 40  1  0  0  0
 15 41  1  0  0  0
 15 42  1  0  0  0
 15 43  1  0  0  0
 19 44  1  0  0  0
 19 45  1  0  0  0
 19 46  1  0  0  0
 22 47  1  0  0  0
 23 48  1  0  0  0
 25 49  1  0  0  0
 26 50  1  0  0  0
 27 51  1  0  0  0
 30 52  1  0  0  0
 31 53  1  0  0  0
 31 54  1  0  0  0
 32 55  1  0  0  0
 32 56  1  0  0  0
 33 57  1  0  0  0
 33 58  1  0  0  0
 34 59  1  0  0  0
 34 60  1  0  0  0
M  END
$$$$
