### 
### Created by X-TOOL on Mon Sep 10 21:13:24 2018
### 

@<TRIPOS>MOLECULE
4tmf_ligand
   54    56     1     0     0
SMALL
GAST_HUCK


@<TRIPOS>ATOM
      1 C2          6.4510   -4.6980    2.9280 C.2       1 JS2         0.1256
      2 C4          4.7720   -3.2710    2.0240 C.2       1 JS2         0.2003
      3 C6          4.1260   -5.0760    3.3030 C.2       1 JS2         0.1376
      4 O3'         0.0230    4.0120   -0.6210 O.3       1 JS2        -0.3864
      5 C3'         0.7130    3.1060    0.3060 C.3       1 JS2         0.1144
      6 C2'         0.6140    1.6890   -0.1600 C.3       1 JS2         0.1339
      7 O2'        -0.3980    1.6060   -1.1430 O.3       1 JS2        -0.3841
      8 C1'         1.9710    1.4350   -0.8420 C.3       1 JS2         0.1854
      9 O1'         1.7430    1.4680   -2.1990 O.3       1 JS2        -0.3649
     10 O4'         2.8120    2.5710   -0.6600 O.3       1 JS2        -0.3403
     11 C4'         2.2580    3.3560    0.3910 C.3       1 JS2         0.1184
     12 C5'         2.7940    2.8610    1.7300 C.3       1 JS2         0.1128
     13 O5'         4.2420    2.9840    1.6590 O.3       1 JS2        -0.2476
     14 PBG         5.1510    4.0580    2.5290 P.3       1 JS2         0.2972
     15 OAI         4.9060    3.7880    4.1950 O.co2     1 JS2        -0.6127
     16 OAD         4.8910    5.4490    2.0360 O.co2     1 JS2        -0.6127
     17 OAV         6.6950    3.5430    2.3000 O.3       1 JS2        -0.1319
     18 PBF         7.2720    2.6310    3.5010 P.3       1 JS2         0.2971
     19 OAH         7.9160    3.6570    4.4540 O.co2     1 JS2        -0.6127
     20 OAC         8.2890    1.6830    2.9740 O.co2     1 JS2        -0.6127
     21 OAS         5.9120    1.9240    4.2810 O.3       1 JS2        -0.2503
     22 CAM         5.6610    0.5290    4.0530 C.3       1 JS2         0.0841
     23 CAK         4.9940    0.3570    2.6780 C.3       1 JS2        -0.0219
     24 CAL         5.9210   -0.4270    1.6850 C.3       1 JS2        -0.0232
     25 CAN         5.1340   -1.2910    0.6520 C.3       1 JS2         0.0625
     26 N9          4.2300   -2.2900    1.3440 N.pl3     1 JS2        -0.1931
     27 N3          6.0750   -3.5860    2.1750 N.pl3     1 JS2        -0.2126
     28 N1          5.4960   -5.4260    3.4760 N.2       1 JS2        -0.2602
     29 O6          3.2770   -5.7770    3.8280 O.2       1 JS2        -0.4254
     30 C5          3.7860   -4.0060    2.5770 C.2       1 JS2         0.0779
     31 N7          2.5970   -3.4730    2.2440 N.2       1 JS2        -0.3287
     32 C8          2.9060   -2.4080    1.4960 C.2       1 JS2         0.2030
     33 NAA         2.0180   -1.5790    0.9590 N.pl3     1 JS2        -0.2986
     34 H1          7.5003   -4.9577    3.0598 H         1 JS2         0.1558
     35 H2          0.4194    3.9446   -1.4817 H         1 JS2         0.2100
     36 H3          0.2603    3.2156    1.3025 H         1 JS2         0.0648
     37 H4          0.4253    0.9903    0.6684 H         1 JS2         0.0671
     38 H5         -1.2260    1.8817   -0.7676 H         1 JS2         0.2101
     39 H6          2.4352    0.4990   -0.4979 H         1 JS2         0.0935
     40 H7          1.3198    2.2872   -2.4281 H         1 JS2         0.2126
     41 H8          2.4943    4.4221    0.2586 H         1 JS2         0.0651
     42 H9          2.5081    1.8110    1.8904 H         1 JS2         0.0648
     43 H10         2.3989    3.4781    2.5504 H         1 JS2         0.0648
     44 H11         4.9940    0.1416    4.8372 H         1 JS2         0.0620
     45 H12         6.6113   -0.0246    4.0734 H         1 JS2         0.0620
     46 H13         4.7792    1.3506    2.2578 H         1 JS2         0.0292
     47 H14         4.0533   -0.1991    2.8038 H         1 JS2         0.0292
     48 H15         6.5743   -1.0917    2.2693 H         1 JS2         0.0292
     49 H16         6.5358    0.3002    1.1344 H         1 JS2         0.0292
     50 H17         5.8512   -1.8350    0.0198 H         1 JS2         0.0610
     51 H18         4.5207   -0.6281    0.0240 H         1 JS2         0.0610
     52 H19         6.7973   -3.0011    1.7310 H         1 JS2         0.2394
     53 H20         1.0114   -1.7295    1.1173 H         1 JS2         0.1797
     54 H21         2.3359   -0.7856    0.3842 H         1 JS2         0.1797
@<TRIPOS>BOND
     1   27    1 1  
     2    1   28 2  
     3   26    2 1  
     4    2   27 1  
     5    2   30 2  
     6    3   28 1  
     7    3   29 2  
     8   30    3 1  
     9    5    4 1  
    10    5    6 1  
    11   11    5 1  
    12    6    7 1  
    13    8    6 1  
    14    8    9 1  
    15   10    8 1  
    16   11   10 1  
    17   12   11 1  
    18   13   12 1  
    19   14   13 1  
    20   14   15 ar 
    21   14   16 ar 
    22   17   14 1  
    23   18   17 1  
    24   18   19 ar 
    25   18   20 ar 
    26   21   18 1  
    27   22   21 1  
    28   23   22 1  
    29   24   23 1  
    30   25   24 1  
    31   25   26 1  
    32   26   32 1  
    33   30   31 1  
    34   31   32 2  
    35   32   33 1  
    36    1   34 1  
    37    4   35 1  
    38    5   36 1  
    39    6   37 1  
    40    7   38 1  
    41    8   39 1  
    42    9   40 1  
    43   11   41 1  
    44   12   42 1  
    45   12   43 1  
    46   22   44 1  
    47   22   45 1  
    48   23   46 1  
    49   23   47 1  
    50   24   48 1  
    51   24   49 1  
    52   25   50 1  
    53   25   51 1  
    54   27   52 1  
    55   33   53 1  
    56   33   54 1  
@<TRIPOS>SUBSTRUCTURE
     1 JS2         1

