5alx_ligand
  -I-interpret- 

 30 31  0  0  0  0  0  0  0  0999 V2000
   20.0250    8.8350   13.0570 C   0  0  0  0  0
   20.0870   10.2410   12.6650 C   0  0  0  0  0
   18.5730   10.9590   13.1820 S   0  0  0  0  0
   17.2420   10.5020   11.9510 C   0  0  0  0  0
   15.7880   10.4010   12.1990 C   0  0  0  0  0
   14.8130   10.0430   11.1570 C   0  0  0  0  0
   15.2160    9.7070    9.8360 C   0  0  0  0  0
   16.6090    9.8460    9.5000 C   0  0  0  0  0
   17.5880   10.2150   10.5970 C   0  0  0  0  0
   17.2000    9.4630    8.2340 C   0  0  0  0  0
   18.4700    9.6720    8.0110 C   0  0  0  0  0
   18.9530    9.2330    6.9430 C   0  0  0  0  0
   18.1220    8.5930    6.1640 C   0  0  0  0  0
   16.5160    8.5250    6.9470 S   0  0  0  0  0
   18.7380    8.1130    4.8980 C   0  0  0  0  0
   19.4910    8.7660    4.2010 O   0  0  0  0  0
   18.4550    6.8860    4.4620 N   0  0  0  0  0
   19.9061    8.7655   14.1383 H   0  0  0  0  0
   19.1764    8.3592   12.5655 H   0  0  0  0  0
   20.9464    8.3350   12.7586 H   0  0  0  0  0
   20.2236   10.3435   11.5885 H   0  0  0  0  0
   20.9378   10.7412   13.1277 H   0  0  0  0  0
   15.4196   10.6020   13.2050 H   0  0  0  0  0
   13.7516   10.0352   11.4050 H   0  0  0  0  0
   14.4929    9.3550    9.1003 H   0  0  0  0  0
   18.6434   10.2652   10.3292 H   0  0  0  0  0
   19.0877   10.2100    8.7301 H   0  0  0  0  0
   20.0010    9.3757    6.6794 H   0  0  0  0  0
   18.8637    6.5474    3.5910 H   0  0  0  0  0
   17.8297    6.2854    4.9993 H   0  0  0  0  0
  1  2  1  0  0  0
  2  3  1  0  0  0
  3  4  1  0  0  0
  4  5  4  0  0  0
  4  9  4  0  0  0
  5  6  4  0  0  0
  6  7  4  0  0  0
  7  8  4  0  0  0
  8  9  4  0  0  0
  8 10  1  0  0  0
 10 11  4  0  0  0
 10 14  4  0  0  0
 11 12  4  0  0  0
 12 13  4  0  0  0
 13 14  4  0  0  0
 13 15  1  0  0  0
 15 16  2  0  0  0
 15 17  1  0  0  0
  1 18  1  0  0  0
  1 19  1  0  0  0
  1 20  1  0  0  0
  2 21  1  0  0  0
  2 22  1  0  0  0
  5 23  1  0  0  0
  6 24  1  0  0  0
  7 25  1  0  0  0
  9 26  1  0  0  0
 11 27  1  0  0  0
 12 28  1  0  0  0
 17 29  1  0  0  0
 17 30  1  0  0  0
M  END
$$$$
