4hlf_ligand
  -I-interpret- 

 30 32  0  0  0  0  0  0  0  0999 V2000
   -6.9070  -38.8830    9.8070 C   0  0  0  0  0
   -6.7300  -39.0590    8.4340 C   0  0  0  0  0
   -7.1710  -40.1360    7.7560 O   0  0  0  0  0
   -6.1090  -38.1010    7.6750 C   0  0  0  0  0
   -6.0220  -38.3290    6.3400 O   0  0  0  0  0
   -5.6250  -36.9470    8.2690 C   0  0  0  0  0
   -5.7870  -36.7540    9.6320 C   0  0  0  0  0
   -6.4360  -37.7130   10.4300 C   0  0  0  0  0
   -6.5570  -37.4520   11.8150 C   0  0  0  0  0
   -5.8080  -36.3960   12.2310 O   0  0  0  0  0
   -5.7490  -36.0410   13.5310 C   0  0  0  0  0
   -4.8800  -35.0180   13.8610 C   0  0  0  0  0
   -4.7670  -34.6110   15.1820 C   0  0  0  0  0
   -3.8990  -33.5680   15.4850 O   0  0  0  0  0
   -5.5150  -35.2960   16.1480 C   0  0  0  0  0
   -6.3960  -36.3550   15.8040 C   0  0  0  0  0
   -6.5310  -36.7260   14.4620 C   0  0  0  0  0
   -7.3910  -37.7810   14.0410 C   0  0  0  0  0
   -8.2180  -38.3160   14.8100 O   0  0  0  0  0
   -7.4140  -38.1120   12.6970 C   0  0  0  0  0
   -7.4093  -39.6507   10.3956 H   0  0  0  0  0
   -6.9398  -40.0457    6.8286 H   0  0  0  0  0
   -5.5704  -37.5935    5.9197 H   0  0  0  0  0
   -5.1184  -36.1931    7.6665 H   0  0  0  0  0
   -5.4048  -35.8433   10.0932 H   0  0  0  0  0
   -4.2860  -34.5332   13.0862 H   0  0  0  0  0
   -3.9240  -33.3964   16.4292 H   0  0  0  0  0
   -5.4179  -35.0076   17.1947 H   0  0  0  0  0
   -6.9616  -36.8738   16.5780 H   0  0  0  0  0
   -8.0948  -38.8806   12.3311 H   0  0  0  0  0
  1  2  4  0  0  0
  1  8  4  0  0  0
  2  3  1  0  0  0
  2  4  4  0  0  0
  4  5  1  0  0  0
  4  6  4  0  0  0
  6  7  4  0  0  0
  7  8  4  0  0  0
  8  9  1  0  0  0
  9 10  1  0  0  0
  9 20  2  0  0  0
 10 11  1  0  0  0
 11 12  4  0  0  0
 11 17  4  0  0  0
 12 13  4  0  0  0
 13 14  1  0  0  0
 13 15  4  0  0  0
 15 16  4  0  0  0
 16 17  4  0  0  0
 17 18  1  0  0  0
 18 19  2  0  0  0
 18 20  1  0  0  0
  1 21  1  0  0  0
  3 22  1  0  0  0
  5 23  1  0  0  0
  6 24  1  0  0  0
  7 25  1  0  0  0
 12 26  1  0  0  0
 14 27  1  0  0  0
 15 28  1  0  0  0
 16 29  1  0  0  0
 20 30  1  0  0  0
M  END
$$$$
