4lxa_ligand
  -I-interpret- 

 72 74  0  0  0  0  0  0  0  0999 V2000
   27.8630    9.2250   18.6900 F   0  0  0  0  0
   28.4790    9.2130   19.9050 C   0  0  0  0  0
   28.3380   10.4390   20.4650 F   0  0  0  0  0
   27.8300    8.2970   20.6690 F   0  0  0  0  0
   29.9840    8.8470   19.7250 C   0  0  0  0  0
   30.6190    9.8800   18.9450 O   0  0  0  0  0
   30.9180    9.6780   17.5980 C   0  0  0  0  0
   30.5380   10.6680   16.6570 C   0  0  0  0  0
   30.8240   10.4630   15.2800 C   0  0  0  0  0
   31.4810    9.2900   14.8540 C   0  0  0  0  0
   31.8560    8.3020   15.7970 C   0  0  0  0  0
   31.5770    8.5040   17.1660 C   0  0  0  0  0
   32.5420    6.9950   15.3660 C   0  0  0  0  0
   31.4750    6.0780   14.6590 C   0  0  0  0  0
   32.0500    4.6750   14.2880 C   0  0  0  0  0
   31.0760    3.8250   13.4110 C   0  0  0  0  0
   29.6510    3.6340   14.0210 C   0  0  0  0  0
   28.8500    5.1960   14.4150 S   0  0  0  0  0
   30.1260    5.9160   15.4450 C   0  0  0  0  0
   28.8150    6.0360   13.1660 O   0  0  0  0  0
   31.7170    2.5270   13.0340 N   0  3  0  0  0
   31.1730    1.6580   11.9410 C   0  0  0  0  0
   31.0220    2.4820   10.6450 C   0  0  0  0  0
   32.1710    2.9440    9.9630 C   0  0  0  0  0
   32.0950    3.7170    8.7650 C   0  0  0  0  0
   30.7830    4.0080    8.2820 C   0  0  0  0  0
   29.6170    3.5520    8.9480 C   0  0  0  0  0
   29.7330    2.7880   10.1300 C   0  0  0  0  0
   33.4180    4.1930    8.0650 C   0  0  0  0  0
   34.3730    2.9820    7.8190 C   0  0  0  0  0
   33.2530    4.8860    6.6710 C   0  0  0  0  0
   34.1470    5.2380    8.9640 C   0  0  0  0  0
   33.2770    4.8500   13.5560 O   0  0  0  0  0
   30.4750   11.3660   14.3710 F   0  0  0  0  0
   29.9050   11.7950   17.0740 N   0  0  0  0  0
   30.8150    8.6840   21.0270 C   0  0  0  0  0
   30.2270    7.8520   21.9210 F   0  0  0  0  0
   32.0320    8.1730   20.7170 F   0  0  0  0  0
   31.0090    9.9060   21.5770 F   0  0  0  0  0
   29.9721    7.8674   19.2472 H   0  0  0  0  0
   31.7007    9.1434   13.7965 H   0  0  0  0  0
   31.8717    7.7495   17.8953 H   0  0  0  0  0
   32.9505    6.4848   16.2383 H   0  0  0  0  0
   33.3584    7.2135   14.6776 H   0  0  0  0  0
   31.2350    6.6178   13.7430 H   0  0  0  0  0
   32.2069    4.1393   15.2242 H   0  0  0  0  0
   30.8952    4.4025   12.5044 H   0  0  0  0  0
   29.7562    3.0687   14.9470 H   0  0  0  0  0
   29.0366    3.1197   13.2820 H   0  0  0  0  0
   29.7936    6.9025   15.7681 H   0  0  0  0  0
   30.2982    5.2552   16.2946 H   0  0  0  0  0
   28.3900    6.8752   13.3579 H   0  0  0  0  0
   31.6078    1.9545   13.8711 H   0  0  0  0  0
   32.6335    2.8059   12.6838 H   0  0  0  0  0
   30.1980    1.2722   12.2386 H   0  0  0  0  0
   31.8590    0.8297   11.7638 H   0  0  0  0  0
   33.1534    2.7005   10.3676 H   0  0  0  0  0
   30.6744    4.5993    7.3728 H   0  0  0  0  0
   28.6317    3.7911    8.5478 H   0  0  0  0  0
   28.8392    2.4350   10.6444 H   0  0  0  0  0
   34.6235    2.5188    8.7733 H   0  0  0  0  0
   33.8758    2.2529    7.1792 H   0  0  0  0  0
   35.2839    3.3321    7.3333 H   0  0  0  0  0
   32.7774    4.1935    5.9765 H   0  0  0  0  0
   32.6333    5.7760    6.7802 H   0  0  0  0  0
   34.2338    5.1693    6.2891 H   0  0  0  0  0
   33.4945    6.0965    9.1232 H   0  0  0  0  0
   34.3909    4.7825    9.9238 H   0  0  0  0  0
   35.0634    5.5629    8.4713 H   0  0  0  0  0
   33.6358    3.9901   13.3248 H   0  0  0  0  0
   29.7028   11.9295   18.0647 H   0  0  0  0  0
   29.6319   12.5069   16.3965 H   0  0  0  0  0
  1  2  1  0  0  0
  2  3  1  0  0  0
  2  4  1  0  0  0
  2  5  1  0  0  0
  5  6  1  0  0  0
  5 36  1  0  0  0
  6  7  1  0  0  0
  7  8  4  0  0  0
  7 12  4  0  0  0
  8  9  4  0  0  0
  8 35  1  0  0  0
  9 10  4  0  0  0
  9 34  1  0  0  0
 10 11  4  0  0  0
 11 12  4  0  0  0
 11 13  1  0  0  0
 13 14  1  0  0  0
 14 15  1  0  0  0
 14 19  1  0  0  0
 15 16  1  0  0  0
 15 33  1  0  0  0
 16 17  1  0  0  0
 16 21  1  0  0  0
 17 18  1  0  0  0
 18 19  1  0  0  0
 18 20  1  0  0  0
 21 22  1  0  0  0
 22 23  1  0  0  0
 23 24  4  0  0  0
 23 28  4  0  0  0
 24 25  4  0  0  0
 25 26  4  0  0  0
 25 29  1  0  0  0
 26 27  4  0  0  0
 27 28  4  0  0  0
 29 30  1  0  0  0
 29 31  1  0  0  0
 29 32  1  0  0  0
 36 37  1  0  0  0
 36 38  1  0  0  0
 36 39  1  0  0  0
  5 40  1  0  0  0
 10 41  1  0  0  0
 12 42  1  0  0  0
 13 43  1  0  0  0
 13 44  1  0  0  0
 14 45  1  0  0  0
 15 46  1  0  0  0
 16 47  1  0  0  0
 17 48  1  0  0  0
 17 49  1  0  0  0
 19 50  1  0  0  0
 19 51  1  0  0  0
 20 52  1  0  0  0
 21 53  1  0  0  0
 21 54  1  0  0  0
 22 55  1  0  0  0
 22 56  1  0  0  0
 24 57  1  0  0  0
 26 58  1  0  0  0
 27 59  1  0  0  0
 28 60  1  0  0  0
 30 61  1  0  0  0
 30 62  1  0  0  0
 30 63  1  0  0  0
 31 64  1  0  0  0
 31 65  1  0  0  0
 31 66  1  0  0  0
 32 67  1  0  0  0
 32 68  1  0  0  0
 32 69  1  0  0  0
 33 70  1  0  0  0
 35 71  1  0  0  0
 35 72  1  0  0  0
M  END
$$$$
