4jgv_ligand
  -I-interpret- 

 41 41  0  0  0  0  0  0  0  0999 V2000
  -16.2890   20.2170   -4.9680 C   0  0  0  0  0
  -17.2470   19.5270   -4.2280 C   0  0  0  0  0
  -16.9250   18.3430   -3.5930 C   0  0  0  0  0
  -15.6190   17.8570   -3.7240 C   0  0  0  0  0
  -14.6960   18.5720   -4.4530 C   0  0  0  0  0
  -15.0250   19.7290   -5.0790 C   0  0  0  0  0
  -17.8700   17.6690   -2.8570 O   0  0  0  0  0
  -18.5170   19.9930   -4.0940 O   0  0  0  0  0
  -16.5390   21.3790   -5.6090 O   0  0  0  0  0
  -13.3360   18.0940   -4.6610 C   0  0  0  0  0
  -12.1620   18.7890   -4.0490 C   0  0  0  0  0
  -10.9590   18.6150   -4.9760 C   0  0  0  0  0
  -10.2690   17.2610   -4.8160 C   0  0  0  0  0
   -8.7890   17.3840   -5.1820 C   0  0  0  0  0
   -7.8920   17.1700   -3.9720 C   0  0  0  0  0
   -7.9700   15.7220   -3.4850 C   0  0  0  0  0
   -6.6110   15.2000   -3.0540 C   0  0  0  0  0
   -5.6430   15.2040   -4.2160 C   0  0  0  0  0
  -13.2150   17.1500   -5.4040 O   0  0  0  0  0
  -15.3343   16.9171   -3.2511 H   0  0  0  0  0
  -14.2803   20.2646   -5.6678 H   0  0  0  0  0
  -17.4792   16.8735   -2.4883 H   0  0  0  0  0
  -19.0246   19.3841   -3.5526 H   0  0  0  0  0
  -15.7414   21.6763   -6.0529 H   0  0  0  0  0
  -11.9436   18.3600   -3.0710 H   0  0  0  0  0
  -12.3824   19.8486   -3.9198 H   0  0  0  0  0
  -10.2330   19.3882   -4.7247 H   0  0  0  0  0
  -11.3194   18.6836   -6.0024 H   0  0  0  0  0
  -10.7435   16.5355   -5.4768 H   0  0  0  0  0
  -10.3570   16.9330   -3.7803 H   0  0  0  0  0
   -8.6124   18.3880   -5.5678 H   0  0  0  0  0
   -8.5536   16.6210   -5.9239 H   0  0  0  0  0
   -8.2231   17.8285   -3.1690 H   0  0  0  0  0
   -6.8626   17.3899   -4.2551 H   0  0  0  0  0
   -8.3309   15.1027   -4.3061 H   0  0  0  0  0
   -8.6403   15.6843   -2.6263 H   0  0  0  0  0
   -6.7246   14.1775   -2.6938 H   0  0  0  0  0
   -6.2194   15.8448   -2.2673 H   0  0  0  0  0
   -6.0295   14.5668   -5.0114 H   0  0  0  0  0
   -5.5280   16.2221   -4.5879 H   0  0  0  0  0
   -4.6763   14.8260   -3.8832 H   0  0  0  0  0
  1  2  4  0  0  0
  1  6  4  0  0  0
  1  9  1  0  0  0
  2  3  4  0  0  0
  2  8  1  0  0  0
  3  4  4  0  0  0
  3  7  1  0  0  0
  4  5  4  0  0  0
  5  6  4  0  0  0
  5 10  1  0  0  0
 10 11  1  0  0  0
 10 19  2  0  0  0
 11 12  1  0  0  0
 12 13  1  0  0  0
 13 14  1  0  0  0
 14 15  1  0  0  0
 15 16  1  0  0  0
 16 17  1  0  0  0
 17 18  1  0  0  0
  4 20  1  0  0  0
  6 21  1  0  0  0
  7 22  1  0  0  0
  8 23  1  0  0  0
  9 24  1  0  0  0
 11 25  1  0  0  0
 11 26  1  0  0  0
 12 27  1  0  0  0
 12 28  1  0  0  0
 13 29  1  0  0  0
 13 30  1  0  0  0
 14 31  1  0  0  0
 14 32  1  0  0  0
 15 33  1  0  0  0
 15 34  1  0  0  0
 16 35  1  0  0  0
 16 36  1  0  0  0
 17 37  1  0  0  0
 17 38  1  0  0  0
 18 39  1  0  0  0
 18 40  1  0  0  0
 18 41  1  0  0  0
M  END
$$$$
