5ets_ligand
  -I-interpret- 

 28 30  0  0  0  0  0  0  0  0999 V2000
   31.9580    5.4310  -21.2920 C   0  0  0  0  0
   33.1580    3.7010  -22.3640 C   0  0  0  0  0
   32.3370    6.3250  -22.2790 C   0  0  0  0  0
   33.5490    4.5910  -23.3520 C   0  0  0  0  0
   32.3480    4.0990  -21.3130 C   0  0  0  0  0
   27.5070    3.9220  -22.1220 C   0  0  0  0  0
   33.1380    5.9070  -23.3200 C   0  0  0  0  0
   27.8480    4.7650  -21.1080 C   0  0  0  0  0
   26.4020    4.2740  -22.9700 C   0  0  0  0  0
   26.2980    6.2610  -21.5090 C   0  0  0  0  0
   29.1710    3.0000  -21.1530 C   0  0  0  0  0
   31.9140    3.1030  -20.2500 C   0  0  0  0  0
   27.3020    5.9380  -20.7510 N   0  0  0  0  0
   28.9110    4.1730  -20.4980 N   0  0  0  0  0
   25.8480    5.4790  -22.5760 N   0  0  0  0  0
   28.3250    2.8160  -22.1510 N   0  0  0  0  0
   25.5830    7.4160  -21.3300 N   0  0  0  0  0
   25.9820    3.5990  -23.9050 O   0  0  0  0  0
   30.4880    1.9490  -20.6490 S   0  0  0  0  0
   33.6280    7.0070  -24.5860 Cl  0  0  0  0  0
   31.3331    5.7846  -20.4719 H   0  0  0  0  0
   33.4951    2.6657  -22.4151 H   0  0  0  0  0
   32.0014    7.3610  -22.2327 H   0  0  0  0  0
   34.1892    4.2465  -24.1642 H   0  0  0  0  0
   31.5692    3.7082  -19.4116 H   0  0  0  0  0
   32.7755    2.4536  -20.0945 H   0  0  0  0  0
   27.6365    6.5091  -19.9749 H   0  0  0  0  0
   24.8027    7.6340  -21.9497 H   0  0  0  0  0
  1  3  4  0  0  0
  5  1  4  0  0  0
  2  4  4  0  0  0
  5  2  4  0  0  0
  3  7  4  0  0  0
  4  7  4  0  0  0
 12  5  1  0  0  0
  6  8  4  0  0  0
  6  9  1  0  0  0
 16  6  4  0  0  0
  7 20  1  0  0  0
  8 13  1  0  0  0
 14  8  4  0  0  0
  9 15  1  0  0  0
  9 18  2  0  0  0
 13 10  1  0  0  0
 15 10  4  0  0  0
 10 17  2  0  0  0
 11 14  4  0  0  0
 11 16  4  0  0  0
 19 11  1  0  0  0
 12 19  1  0  0  0
  1 21  1  0  0  0
  2 22  1  0  0  0
  3 23  1  0  0  0
  4 24  1  0  0  0
 12 25  1  0  0  0
 12 26  1  0  0  0
 13 27  1  0  0  0
 17 28  1  0  0  0
M  END
$$$$
