3gfe_ligand
  -I-interpret- 

 54 58  0  0  0  0  0  0  0  0999 V2000
    6.4920   28.1260   27.7220 N   0  0  0  0  0
    0.5130   35.5450   30.4480 N   0  0  0  0  0
    6.9060   27.6620   25.2640 C   0  0  0  0  0
    5.6570   30.0530   28.9690 C   0  0  0  0  0
   -2.4610   34.5920   30.4380 C   0  0  0  0  0
   -3.8100   34.8050   30.6760 C   0  0  0  0  0
   -4.2020   35.4450   31.8440 C   0  0  0  0  0
   -1.8860   35.6530   32.5400 C   0  0  0  0  0
    1.6630   33.7420   30.7530 C   0  0  0  0  0
    0.9630   31.3180   31.9650 C   0  0  0  0  0
    2.5960   32.7020   30.8220 C   0  0  0  0  0
    4.6880   31.0440   29.1200 C   0  0  0  0  0
    6.7110   29.9790   29.8880 C   0  0  0  0  0
    6.7840   30.8860   30.9500 C   0  0  0  0  0
    5.8910   32.8600   32.2680 C   0  0  0  0  0
    7.9510   26.8820   26.0600 C   0  0  0  0  0
    6.5590   27.1170   26.6520 C   0  0  0  0  0
    5.5550   29.0750   27.7750 C   0  0  0  0  0
    4.6630   29.2070   26.9340 O   0  0  0  0  0
    5.8010   31.8700   31.1010 C   0  0  0  0  0
    4.7510   31.9510   30.1820 C   0  0  0  0  0
    3.8140   32.8980   30.3040 N   0  0  0  0  0
    2.2430   31.4920   31.4330 C   0  0  0  0  0
    0.6590   30.2500   32.4970 O   0  0  0  0  0
    0.0180   32.3640   31.8920 N   0  0  0  0  0
   -1.3370   32.1420   32.4700 C   0  0  0  0  0
    0.3850   33.5870   31.2750 C   0  0  0  0  0
    1.7030   34.9740   30.2450 C   0  0  0  0  0
   -0.2240   34.7550   31.0490 N   0  0  0  0  0
   -1.4960   35.0110   31.3600 C   0  0  0  0  0
   -3.2470   35.8670   32.7750 C   0  0  0  0  0
   -5.5190   35.6400   32.0530 F   0  0  0  0  0
   -2.0930   33.9660   29.3010 F   0  0  0  0  0
    7.1964   28.0985   28.4592 H   0  0  0  0  0
    6.4821   27.6696   24.2598 H   0  0  0  0  0
    6.8314   28.5990   24.7121 H   0  0  0  0  0
   -4.5555   34.4733   29.9533 H   0  0  0  0  0
   -1.1406   35.9810   33.2645 H   0  0  0  0  0
    3.8714   31.1124   28.4013 H   0  0  0  0  0
    7.4771   29.2119   29.7752 H   0  0  0  0  0
    7.6079   30.8262   31.6611 H   0  0  0  0  0
    5.8679   32.3122   33.2101 H   0  0  0  0  0
    6.8224   33.4215   32.1954 H   0  0  0  0  0
    5.0464   33.5477   32.2253 H   0  0  0  0  0
    8.9940   26.9849   26.3594 H   0  0  0  0  0
    8.6447   26.0553   25.9070 H   0  0  0  0  0
    5.7750   26.4787   27.0593 H   0  0  0  0  0
    2.3043   30.7565   30.6309 H   0  0  0  0  0
    2.9057   31.4216   32.2955 H   0  0  0  0  0
   -1.8128   31.3015   31.9649 H   0  0  0  0  0
   -1.2454   31.9236   33.5340 H   0  0  0  0  0
   -1.9407   33.0391   32.3326 H   0  0  0  0  0
    2.5580   35.4348   29.7502 H   0  0  0  0  0
   -3.5665   36.3661   33.6899 H   0  0  0  0  0
  1 17  1  0  0  0
 18  1  1  0  0  0
  2 28  4  0  0  0
 29  2  4  0  0  0
 16  3  1  0  0  0
 17  3  1  0  0  0
 12  4  4  0  0  0
  4 13  4  0  0  0
  4 18  1  0  0  0
  5  6  4  0  0  0
 30  5  4  0  0  0
  5 33  1  0  0  0
  6  7  4  0  0  0
 31  7  4  0  0  0
  7 32  1  0  0  0
 30  8  4  0  0  0
  8 31  4  0  0  0
  9 11  1  0  0  0
 27  9  4  0  0  0
  9 28  4  0  0  0
 10 23  1  0  0  0
 10 24  2  0  0  0
 25 10  1  0  0  0
 11 22  2  0  0  0
 11 23  1  0  0  0
 21 12  4  0  0  0
 14 13  4  0  0  0
 20 14  4  0  0  0
 20 15  1  0  0  0
 17 16  1  0  0  0
 18 19  2  0  0  0
 21 20  4  0  0  0
 22 21  1  0  0  0
 25 26  1  0  0  0
 27 25  1  0  0  0
 29 27  4  0  0  0
 29 30  1  0  0  0
  1 34  1  0  0  0
  3 35  1  0  0  0
  3 36  1  0  0  0
  6 37  1  0  0  0
  8 38  1  0  0  0
 12 39  1  0  0  0
 13 40  1  0  0  0
 14 41  1  0  0  0
 15 42  1  0  0  0
 15 43  1  0  0  0
 15 44  1  0  0  0
 16 45  1  0  0  0
 16 46  1  0  0  0
 17 47  1  0  0  0
 23 48  1  0  0  0
 23 49  1  0  0  0
 26 50  1  0  0  0
 26 51  1  0  0  0
 26 52  1  0  0  0
 28 53  1  0  0  0
 31 54  1  0  0  0
M  END
$$$$
