6pgo_ligand
  -I-interpret- 

 59 63  0  0  0  0  0  0  0  0999 V2000
    5.7280   -3.7740   40.0010 C   0  0  0  0  0
    6.9070   -4.6230   40.4260 C   0  0  0  0  0
    8.2370   -3.8780   40.3540 C   0  0  0  0  0
    8.6450   -3.4520   39.3190 O   0  0  0  0  0
    9.0080   -3.6940   41.5630 N   0  0  0  0  0
   10.2450   -3.0270   41.5230 C   0  0  0  0  0
   10.2570   -1.9420   42.5700 C   0  0  0  0  0
   10.1410   -2.5770   43.9220 N   0  0  0  0  0
    8.7650   -3.1410   43.9690 C   0  0  0  0  0
    8.6130   -4.1650   42.8480 C   0  0  0  0  0
   10.6610   -1.7300   44.9520 C   0  0  0  0  0
    9.8380   -0.9740   45.6610 N   0  0  0  0  0
   10.3140   -0.1210   46.6180 N   0  0  0  0  0
   11.6160   -0.0240   46.8420 C   0  0  0  0  0
   12.0240    0.8620   47.8150 C   0  0  0  0  0
   11.8540    0.5540   49.1600 C   0  0  0  0  0
   12.2660    1.4650   50.1270 C   0  0  0  0  0
   12.8330    2.6770   49.7460 C   0  0  0  0  0
   12.9990    2.9800   48.4010 C   0  0  0  0  0
   12.5870    2.0750   47.4320 C   0  0  0  0  0
   12.5600   -0.8020   46.0970 C   0  0  0  0  0
   13.9720   -0.7250   46.3100 C   0  0  0  0  0
   14.8570   -1.5060   45.5650 C   0  0  0  0  0
   14.3490   -2.3700   44.5880 C   0  0  0  0  0
   15.4590   -3.3740   43.6220 Cl  0  0  0  0  0
   12.9740   -2.4520   44.3730 C   0  0  0  0  0
   12.0730   -1.6500   45.1440 C   0  0  0  0  0
   16.2240   -1.3890   45.8010 C   0  0  0  0  0
   16.8010   -1.8960   46.9630 C   0  0  0  0  0
   16.0050   -2.5570   47.9060 O   0  0  0  0  0
   18.1680   -1.7520   47.1860 C   0  0  0  0  0
   18.9640   -1.0940   46.2570 C   0  0  0  0  0
   18.3950   -0.5840   45.0970 C   0  0  0  0  0
   17.0300   -0.7270   44.8740 C   0  0  0  0  0
   16.4810   -0.2240   43.7330 F   0  0  0  0  0
    5.6554   -2.9031   40.6525 H   0  0  0  0  0
    5.8695   -3.4478   38.9706 H   0  0  0  0  0
    4.8131   -4.3619   40.0750 H   0  0  0  0  0
    6.9658   -5.4728   39.7460 H   0  0  0  0  0
    6.7472   -4.9166   41.4635 H   0  0  0  0  0
   10.3910   -2.5857   40.5371 H   0  0  0  0  0
   11.0493   -3.7355   41.7210 H   0  0  0  0  0
    9.4209   -1.2618   42.4077 H   0  0  0  0  0
   11.1862   -1.3758   42.5056 H   0  0  0  0  0
    8.0345   -2.3423   43.8405 H   0  0  0  0  0
    8.5961   -3.6214   44.9327 H   0  0  0  0  0
    9.2611   -5.0063   43.0934 H   0  0  0  0  0
    7.5541   -4.4156   42.7852 H   0  0  0  0  0
   11.4018   -0.3931   49.4542 H   0  0  0  0  0
   12.1445    1.2291   51.1842 H   0  0  0  0  0
   13.1482    3.3916   50.5063 H   0  0  0  0  0
   13.4520    3.9267   48.1065 H   0  0  0  0  0
   12.7043    2.3141   46.3750 H   0  0  0  0  0
   14.3636   -0.0452   47.0667 H   0  0  0  0  0
   12.5831   -3.1300   43.6143 H   0  0  0  0  0
   16.5522   -2.8420   48.6415 H   0  0  0  0  0
   18.6154   -2.1574   48.0935 H   0  0  0  0  0
   20.0326   -0.9782   46.4379 H   0  0  0  0  0
   19.0175   -0.0726   44.3628 H   0  0  0  0  0
  1  2  1  0  0  0
  2  3  1  0  0  0
  3  4  2  0  0  0
  3  5  1  0  0  0
  5  6  1  0  0  0
  5 10  1  0  0  0
  6  7  1  0  0  0
  7  8  1  0  0  0
  8  9  1  0  0  0
  8 11  1  0  0  0
  9 10  1  0  0  0
 11 12  4  0  0  0
 11 27  4  0  0  0
 12 13  4  0  0  0
 13 14  4  0  0  0
 14 15  1  0  0  0
 14 21  4  0  0  0
 15 16  4  0  0  0
 15 20  4  0  0  0
 16 17  4  0  0  0
 17 18  4  0  0  0
 18 19  4  0  0  0
 19 20  4  0  0  0
 21 22  4  0  0  0
 21 27  4  0  0  0
 22 23  4  0  0  0
 23 24  4  0  0  0
 23 28  1  0  0  0
 24 25  1  0  0  0
 24 26  4  0  0  0
 26 27  4  0  0  0
 28 29  4  0  0  0
 28 34  4  0  0  0
 29 30  1  0  0  0
 29 31  4  0  0  0
 31 32  4  0  0  0
 32 33  4  0  0  0
 33 34  4  0  0  0
 34 35  1  0  0  0
  1 36  1  0  0  0
  1 37  1  0  0  0
  1 38  1  0  0  0
  2 39  1  0  0  0
  2 40  1  0  0  0
  6 41  1  0  0  0
  6 42  1  0  0  0
  7 43  1  0  0  0
  7 44  1  0  0  0
  9 45  1  0  0  0
  9 46  1  0  0  0
 10 47  1  0  0  0
 10 48  1  0  0  0
 16 49  1  0  0  0
 17 50  1  0  0  0
 18 51  1  0  0  0
 19 52  1  0  0  0
 20 53  1  0  0  0
 22 54  1  0  0  0
 26 55  1  0  0  0
 30 56  1  0  0  0
 31 57  1  0  0  0
 32 58  1  0  0  0
 33 59  1  0  0  0
M  END
$$$$
