### 
### Created by X-TOOL on Mon Sep 10 21:13:27 2018
### 

@<TRIPOS>MOLECULE
5euk_ligand
  202   203     1     0     0
SMALL
GAST_HUCK


@<TRIPOS>ATOM
      1 N         -15.1230  -32.6870   26.7010 N.4       1 CYS         0.2385
      2 CA        -15.9020  -32.7970   27.9350 C.3       1 CYS         0.0749
      3 C         -16.3700  -34.2280   28.2060 C.2       1 CYS         0.2275
      4 O         -15.8360  -35.1950   27.6510 O.2       1 CYS        -0.3907
      5 CB        -17.1210  -31.8640   27.8890 C.3       1 CYS         0.0643
      6 SG        -16.8920  -30.1890   28.5970 S.3       1 CYS        -0.0848
      7 N         -17.3730  -34.3490   29.0720 N.am      1 GLN        -0.2608
      8 CA        -17.9780  -35.6350   29.4030 C.3       1 GLN         0.1331
      9 C         -19.4950  -35.5310   29.3560 C.2       1 GLN         0.2041
     10 O         -20.0660  -34.5300   29.7730 O.2       1 GLN        -0.3944
     11 CB        -17.5200  -36.0890   30.7830 C.3       1 GLN         0.0045
     12 CG        -16.1220  -36.6730   30.7860 C.3       1 GLN         0.0412
     13 CD        -16.0670  -38.0450   30.1260 C.2       1 GLN         0.1737
     14 OE1       -16.7600  -38.9770   30.5510 O.2       1 GLN        -0.3973
     15 NE2       -15.2460  -38.1740   29.0770 N.am      1 GLN        -0.3009
     16 N         -20.1490  -36.5620   28.8380 N.am      1 HIS        -0.2625
     17 CA        -21.6030  -36.5380   28.7030 C.3       1 HIS         0.1369
     18 C         -22.2750  -37.2750   29.8610 C.2       1 HIS         0.2054
     19 O         -22.1280  -38.4880   30.0020 O.2       1 HIS        -0.3942
     20 CB        -22.0250  -37.1120   27.3480 C.3       1 HIS         0.0145
     21 CG        -21.2690  -36.5340   26.1920 C.2       1 HIS        -0.0027
     22 ND1       -19.9670  -36.8820   25.9050 N.2       1 HIS        -0.3252
     23 CD2       -21.6280  -35.6220   25.2590 C.2       1 HIS         0.0291
     24 CE1       -19.5580  -36.2130   24.8430 C.2       1 HIS         0.0907
     25 NE2       -20.5470  -35.4410   24.4310 N.pl3     1 HIS        -0.2752
     26 N         -23.0030  -36.5210   30.6850 N.am      1 ASP        -0.2621
     27 CA        -23.6110  -37.0180   31.9180 C.3       1 ASP         0.1423
     28 C         -25.0020  -37.5790   31.6280 C.2       1 ASP         0.2056
     29 O         -25.8860  -36.8450   31.1980 O.2       1 ASP        -0.3943
     30 CB        -23.6800  -35.8670   32.9320 C.3       1 ASP         0.0406
     31 CG        -24.2020  -36.2900   34.2980 C.2       1 ASP         0.0393
     32 OD1       -24.4620  -37.4870   34.5140 O.co2     1 ASP        -0.5688
     33 OD2       -24.3430  -35.4010   35.1640 O.co2     1 ASP        -0.5688
     34 N         -25.1900  -38.8770   31.8670 N.am      1 LEU        -0.2636
     35 CA        -26.4290  -39.5630   31.5080 C.3       1 LEU         0.1312
     36 C         -27.5790  -39.2470   32.4480 C.2       1 LEU         0.2040
     37 O         -28.7380  -39.5020   32.1120 O.2       1 LEU        -0.3944
     38 CB        -26.2310  -41.0740   31.4560 C.3       1 LEU        -0.0101
     39 CG        -25.1480  -41.5970   30.5240 C.3       1 LEU        -0.0425
     40 CD1       -25.2250  -43.1050   30.4500 C.3       1 LEU        -0.0625
     41 CD2       -25.2700  -40.9820   29.1430 C.3       1 LEU        -0.0625
     42 N         -27.2630  -38.7100   33.6260 N.am      1 SER        -0.2616
     43 CA        -28.2920  -38.2960   34.5770 C.3       1 SER         0.1539
     44 C         -28.9760  -37.0090   34.1210 C.2       1 SER         0.2063
     45 O         -30.1980  -36.9370   34.0780 O.2       1 SER        -0.3943
     46 CB        -27.6960  -38.0850   35.9780 C.3       1 SER         0.0843
     47 OG        -27.2590  -39.2980   36.5510 O.3       1 SER        -0.3903
     48 N         -28.1820  -35.9920   33.7980 N.am      1 THR        -0.2613
     49 CA        -28.7270  -34.6820   33.4390 C.3       1 THR         0.1565
     50 C         -28.8600  -34.4990   31.9340 C.2       1 THR         0.2065
     51 O         -29.5320  -33.5710   31.4770 O.2       1 THR        -0.3943
     52 CB        -27.8650  -33.5200   33.9910 C.3       1 THR         0.0924
     53 OG1       -26.5950  -33.4810   33.3150 O.3       1 THR        -0.3874
     54 CG2       -27.6600  -33.6740   35.5000 C.3       1 THR        -0.0346
     55 N         -28.2270  -35.3870   31.1750 N.am      1 ARG        -0.2636
     56 CA        -28.1600  -35.2510   29.7280 C.3       1 ARG         0.1311
     57 C         -27.4690  -33.9530   29.3390 C.2       1 ARG         0.2039
     58 O         -27.7770  -33.3580   28.3190 O.2       1 ARG        -0.3944
     59 CB        -29.5540  -35.3360   29.0920 C.3       1 ARG        -0.0092
     60 CG        -30.2780  -36.6160   29.4000 C.3       1 ARG        -0.0156
     61 CD        -31.4170  -36.7840   28.4600 C.3       1 ARG         0.0627
     62 NE        -32.2230  -37.9500   28.7910 N.pl3     1 ARG        -0.2723
     63 CZ        -33.2560  -38.3770   28.0710 C.cat     1 ARG         0.2882
     64 NH1       -33.6020  -37.7370   26.9570 N.pl3     1 ARG        -0.2849
     65 NH2       -33.9290  -39.4530   28.4640 N.pl3     1 ARG        -0.2849
     66 N         -26.5300  -33.5180   30.1640 N.am      1 ARG        -0.2637
     67 CA        -25.8030  -32.3000   29.8950 C.3       1 ARG         0.1311
     68 C         -24.3110  -32.5630   29.9270 C.2       1 ARG         0.2039
     69 O         -23.8500  -33.5140   30.5630 O.2       1 ARG        -0.3944
     70 CB        -26.1660  -31.2410   30.9290 C.3       1 ARG        -0.0092
     71 CG        -27.5800  -30.7440   30.8220 C.3       1 ARG        -0.0156
     72 CD        -27.8050  -29.9780   29.5340 C.3       1 ARG         0.0627
     73 NE        -26.8240  -28.9130   29.3230 N.pl3     1 ARG        -0.2723
     74 CZ        -26.7830  -27.7760   30.0160 C.cat     1 ARG         0.2882
     75 NH1       -27.6510  -27.5380   31.0050 N.pl3     1 ARG        -0.2849
     76 NH2       -25.8590  -26.8740   29.7260 N.pl3     1 ARG        -0.2849
     77 N         -23.5550  -31.7250   29.2320 N.am      1 LEU        -0.2637
     78 CA        -22.1090  -31.8110   29.2900 C.3       1 LEU         0.1312
     79 C         -21.6530  -31.4580   30.6870 C.2       1 LEU         0.2039
     80 O         -22.2360  -30.6060   31.3540 O.2       1 LEU        -0.3944
     81 CB        -21.4520  -30.8740   28.2780 C.3       1 LEU        -0.0101
     82 CG        -21.5550  -31.1780   26.7850 C.3       1 LEU        -0.0425
     83 CD1       -20.7920  -30.1210   26.0130 C.3       1 LEU        -0.0625
     84 CD2       -21.0210  -32.5570   26.4750 C.3       1 LEU        -0.0625
     85 N         -20.6030  -32.1270   31.1240 N.am      1 LYS        -0.2637
     86 CA        -20.0570  -31.9210   32.4470 C.3       1 LYS         0.1309
     87 C         -18.5520  -31.7810   32.2930 C.2       1 LYS         0.2034
     88 O         -17.9010  -32.6240   31.6740 O.2       1 LYS        -0.3944
     89 CB        -20.3930  -33.1230   33.3270 C.3       1 LYS        -0.0122
     90 CG        -20.1440  -32.9520   34.8160 C.3       1 LYS        -0.0440
     91 CD        -20.5580  -34.2260   35.5480 C.3       1 LYS        -0.0124
     92 CE        -20.5820  -34.0430   37.0580 C.3       1 LYS        -0.0354
     93 NZ        -21.6370  -33.0880   37.4930 N.4       1 LYS         0.2185
     94 N         -18.0020  -30.7000   32.8320 N.am      1 CYS        -0.2687
     95 CA        -16.5680  -30.4570   32.7340 C.3       1 CYS         0.1041
     96 C         -15.9300  -30.4240   34.1240 C.2       1 CYS         0.0609
     97 O         -16.6150  -30.2710   35.1430 O.co2     1 CYS        -0.5666
     98 CB        -16.2900  -29.1620   31.9550 C.3       1 CYS         0.0388
     99 SG        -17.0820  -29.0690   30.2800 S.3       1 CYS        -0.0887
    100 OXT       -14.7130  -30.5710   34.2610 O.co2     1 CYS        -0.5666
    101 H1        -14.8389  -31.7291   26.5673 H         1 CYS         0.2015
    102 H2        -15.6875  -32.9822   25.9198 H         1 CYS         0.2015
    103 H3        -14.3060  -33.2738   26.7659 H         1 CYS         0.2015
    104 H4        -15.2565  -32.4854   28.7694 H         1 CYS         0.1107
    105 H5        -17.9372  -32.3522   28.4416 H         1 CYS         0.0466
    106 H6        -17.4118  -31.7449   26.8348 H         1 CYS         0.0466
    107 H7        -17.7267  -33.5248   29.5142 H         1 GLN         0.1885
    108 H8        -17.6531  -36.3794   28.6612 H         1 GLN         0.0801
    109 H9        -18.2195  -36.8549   31.1490 H         1 GLN         0.0337
    110 H10       -17.5381  -35.2222   31.4600 H         1 GLN         0.0337
    111 H11       -15.7803  -36.7675   31.8273 H         1 GLN         0.0504
    112 H12       -15.4527  -35.9912   30.2409 H         1 GLN         0.0504
    113 H13       -15.1709  -39.0529   28.6060 H         1 GLN         0.1814
    114 H14       -14.7076  -37.3915   28.7642 H         1 GLN         0.1814
    115 H15       -19.6392  -37.3674   28.5355 H         1 HIS         0.1885
    116 H16       -21.9293  -35.4882   28.7402 H         1 HIS         0.0817
    117 H17       -23.0956  -36.9066   27.2012 H         1 HIS         0.0420
    118 H18       -21.8590  -38.1993   27.3637 H         1 HIS         0.0420
    119 H19       -22.5935  -35.1245   25.1794 H         1 HIS         0.0729
    120 H20       -18.5728  -36.2854   24.3847 H         1 HIS         0.1199
    121 H21       -20.5133  -34.8063   23.6205 H         1 HIS         0.2361
    122 H22       -23.1411  -35.5599   30.4458 H         1 ASP         0.1884
    123 H23       -22.9849  -37.8224   32.3315 H         1 ASP         0.0819
    124 H24       -24.3462  -35.0891   32.5306 H         1 ASP         0.0478
    125 H25       -22.6685  -35.4539   33.0588 H         1 ASP         0.0478
    126 H26       -24.4587  -39.3984   32.3066 H         1 LEU         0.1883
    127 H27       -26.7136  -39.2203   30.5022 H         1 LEU         0.0800
    128 H28       -27.1846  -41.5230   31.1415 H         1 LEU         0.0315
    129 H29       -25.9846  -41.4116   32.4735 H         1 LEU         0.0315
    130 H30       -24.1681  -41.3178   30.9387 H         1 LEU         0.0298
    131 H31       -24.4409  -43.4795   29.7756 H         1 LEU         0.0232
    132 H32       -26.2118  -43.4034   30.0663 H         1 LEU         0.0232
    133 H33       -25.0783  -43.5294   31.4542 H         1 LEU         0.0232
    134 H34       -25.2112  -39.8865   29.2230 H         1 LEU         0.0232
    135 H35       -26.2356  -41.2659   28.6992 H         1 LEU         0.0232
    136 H36       -24.4517  -41.3475   28.5052 H         1 LEU         0.0232
    137 H37       -26.2996  -38.5876   33.8645 H         1 SER         0.1884
    138 H38       -29.0479  -39.0930   34.6343 H         1 SER         0.0823
    139 H39       -28.4640  -37.6408   36.6282 H         1 SER         0.0606
    140 H40       -26.8395  -37.3991   35.9007 H         1 SER         0.0606
    141 H41       -27.9946  -39.8944   36.6264 H         1 SER         0.2097
    142 H42       -27.1909  -36.1254   33.8005 H         1 THR         0.1884
    143 H43       -29.7302  -34.6092   33.8842 H         1 THR         0.0826
    144 H44       -28.3919  -32.5727   33.8042 H         1 THR         0.0639
    145 H45       -26.0751  -32.7652   33.6612 H         1 THR         0.2101
    146 H46       -27.0465  -32.8409   35.8736 H         1 THR         0.0257
    147 H47       -27.1492  -34.6263   35.7054 H         1 THR         0.0257
    148 H48       -28.6369  -33.6653   36.0055 H         1 THR         0.0257
    149 H49       -27.7842  -36.1708   31.6105 H         1 ARG         0.1883
    150 H50       -27.5594  -36.0860   29.3380 H         1 ARG         0.0800
    151 H51       -29.4442  -35.2524   28.0007 H         1 ARG         0.0313
    152 H52       -30.1584  -34.4961   29.4651 H         1 ARG         0.0313
    153 H53       -30.6571  -36.5828   30.4320 H         1 ARG         0.0301
    154 H54       -29.5854  -37.4636   29.2909 H         1 ARG         0.0301
    155 H55       -31.0226  -36.9017   27.4399 H         1 ARG         0.0689
    156 H56       -32.0523  -35.8872   28.5063 H         1 ARG         0.0689
    157 H57       -31.9767  -38.4795   29.6394 H         1 ARG         0.2642
    158 H58       -34.4024  -38.0686   26.4000 H         1 ARG         0.2615
    159 H59       -33.0694  -36.9099   26.6516 H         1 ARG         0.2615
    160 H60       -33.6563  -39.9441   29.3273 H         1 ARG         0.2615
    161 H61       -34.7234  -39.7961   27.9053 H         1 ARG         0.2615
    162 H62       -26.3202  -34.0427   30.9890 H         1 ARG         0.1883
    163 H63       -26.0790  -31.9332   28.8954 H         1 ARG         0.0800
    164 H64       -25.4875  -30.3848   30.8006 H         1 ARG         0.0313
    165 H65       -26.0258  -31.6729   31.9309 H         1 ARG         0.0313
    166 H66       -27.7908  -30.0804   31.6736 H         1 ARG         0.0301
    167 H67       -28.2642  -31.6048   30.8497 H         1 ARG         0.0301
    168 H68       -28.8087  -29.5290   29.5640 H         1 ARG         0.0689
    169 H69       -27.7436  -30.6828   28.6917 H         1 ARG         0.0689
    170 H70       -26.1162  -29.0521   28.5878 H         1 ARG         0.2642
    171 H71       -27.6038  -26.6529   31.5297 H         1 ARG         0.2615
    172 H72       -28.3667  -28.2397   31.2420 H         1 ARG         0.2615
    173 H73       -25.1873  -27.0510   28.9654 H         1 ARG         0.2615
    174 H74       -25.8115  -25.9950   30.2609 H         1 ARG         0.2615
    175 H75       -23.9866  -31.0261   28.6617 H         1 LEU         0.1883
    176 H76       -21.8056  -32.8433   29.0616 H         1 LEU         0.0800
    177 H77       -20.3802  -30.8411   28.5232 H         1 LEU         0.0315
    178 H78       -21.8940  -29.8785   28.4317 H         1 LEU         0.0315
    179 H79       -22.6134  -31.1400   26.4880 H         1 LEU         0.0298
    180 H80       -20.8610  -30.3325   24.9357 H         1 LEU         0.0232
    181 H81       -19.7363  -30.1319   26.3219 H         1 LEU         0.0232
    182 H82       -21.2247  -29.1313   26.2208 H         1 LEU         0.0232
    183 H83       -21.5888  -33.3068   27.0455 H         1 LEU         0.0232
    184 H84       -19.9586  -32.6104   26.7552 H         1 LEU         0.0232
    185 H85       -21.1269  -32.7578   25.3987 H         1 LEU         0.0232
    186 H86       -20.1711  -32.7978   30.5211 H         1 LYS         0.1883
    187 H87       -20.4767  -31.0078   32.8942 H         1 LYS         0.0800
    188 H88       -19.7870  -33.9731   32.9805 H         1 LYS         0.0312
    189 H89       -21.4598  -33.3528   33.1890 H         1 LYS         0.0312
    190 H90       -20.7351  -32.1040   35.1921 H         1 LYS         0.0269
    191 H91       -19.0750  -32.7597   34.9898 H         1 LYS         0.0269
    192 H92       -19.8433  -35.0245   35.2999 H         1 LYS         0.0317
    193 H93       -21.5640  -34.5165   35.2110 H         1 LYS         0.0317
    194 H94       -19.6031  -33.6616   37.3840 H         1 LYS         0.0813
    195 H95       -20.7712  -35.0185   37.5299 H         1 LYS         0.0813
    196 H96       -21.6158  -32.9983   38.4968 H         1 LYS         0.1994
    197 H97       -22.5401  -33.4311   37.2053 H         1 LYS         0.1994
    198 H98       -21.4697  -32.1877   37.0717 H         1 LYS         0.1994
    199 H99       -18.5807  -30.0415   33.3131 H         1 CYS         0.1876
    200 H100      -16.1180  -31.2908   32.1752 H         1 CYS         0.0734
    201 H101      -15.2018  -29.0699   31.8234 H         1 CYS         0.0425
    202 H102      -16.6597  -28.3171   32.5545 H         1 CYS         0.0425
@<TRIPOS>BOND
     1    1    2 1  
     2    2    3 1  
     3    2    5 1  
     4    3    4 2  
     5    3    7 am 
     6    5    6 1  
     7    6   99 1  
     8    7    8 1  
     9    8    9 1  
    10    8   11 1  
    11    9   10 2  
    12    9   16 am 
    13   11   12 1  
    14   12   13 1  
    15   13   14 2  
    16   13   15 am 
    17   16   17 1  
    18   17   18 1  
    19   17   20 1  
    20   18   19 2  
    21   18   26 am 
    22   20   21 1  
    23   21   22 1  
    24   21   23 2  
    25   22   24 2  
    26   23   25 1  
    27   24   25 1  
    28   26   27 1  
    29   27   28 1  
    30   27   30 1  
    31   28   29 2  
    32   28   34 am 
    33   30   31 1  
    34   31   32 ar 
    35   31   33 ar 
    36   34   35 1  
    37   35   36 1  
    38   35   38 1  
    39   36   37 2  
    40   36   42 am 
    41   38   39 1  
    42   39   40 1  
    43   39   41 1  
    44   42   43 1  
    45   43   44 1  
    46   43   46 1  
    47   44   45 2  
    48   44   48 am 
    49   46   47 1  
    50   48   49 1  
    51   49   50 1  
    52   49   52 1  
    53   50   51 2  
    54   50   55 am 
    55   52   53 1  
    56   52   54 1  
    57   55   56 1  
    58   56   57 1  
    59   56   59 1  
    60   57   58 2  
    61   57   66 am 
    62   59   60 1  
    63   60   61 1  
    64   61   62 1  
    65   62   63 ar 
    66   63   64 ar 
    67   63   65 ar 
    68   66   67 1  
    69   67   68 1  
    70   67   70 1  
    71   68   69 2  
    72   68   77 am 
    73   70   71 1  
    74   71   72 1  
    75   72   73 1  
    76   73   74 ar 
    77   74   75 ar 
    78   74   76 ar 
    79   77   78 1  
    80   78   79 1  
    81   78   81 1  
    82   79   80 2  
    83   79   85 am 
    84   81   82 1  
    85   82   83 1  
    86   82   84 1  
    87   85   86 1  
    88   86   87 1  
    89   86   89 1  
    90   87   88 2  
    91   87   94 am 
    92   89   90 1  
    93   90   91 1  
    94   91   92 1  
    95   92   93 1  
    96   94   95 1  
    97   95   96 1  
    98   95   98 1  
    99   96   97 ar 
   100   96  100 ar 
   101   98   99 1  
   102    1  101 1  
   103    1  102 1  
   104    1  103 1  
   105    2  104 1  
   106    5  105 1  
   107    5  106 1  
   108    7  107 1  
   109    8  108 1  
   110   11  109 1  
   111   11  110 1  
   112   12  111 1  
   113   12  112 1  
   114   15  113 1  
   115   15  114 1  
   116   16  115 1  
   117   17  116 1  
   118   20  117 1  
   119   20  118 1  
   120   23  119 1  
   121   24  120 1  
   122   25  121 1  
   123   26  122 1  
   124   27  123 1  
   125   30  124 1  
   126   30  125 1  
   127   34  126 1  
   128   35  127 1  
   129   38  128 1  
   130   38  129 1  
   131   39  130 1  
   132   40  131 1  
   133   40  132 1  
   134   40  133 1  
   135   41  134 1  
   136   41  135 1  
   137   41  136 1  
   138   42  137 1  
   139   43  138 1  
   140   46  139 1  
   141   46  140 1  
   142   47  141 1  
   143   48  142 1  
   144   49  143 1  
   145   52  144 1  
   146   53  145 1  
   147   54  146 1  
   148   54  147 1  
   149   54  148 1  
   150   55  149 1  
   151   56  150 1  
   152   59  151 1  
   153   59  152 1  
   154   60  153 1  
   155   60  154 1  
   156   61  155 1  
   157   61  156 1  
   158   62  157 1  
   159   64  158 1  
   160   64  159 1  
   161   65  160 1  
   162   65  161 1  
   163   66  162 1  
   164   67  163 1  
   165   70  164 1  
   166   70  165 1  
   167   71  166 1  
   168   71  167 1  
   169   72  168 1  
   170   72  169 1  
   171   73  170 1  
   172   75  171 1  
   173   75  172 1  
   174   76  173 1  
   175   76  174 1  
   176   77  175 1  
   177   78  176 1  
   178   81  177 1  
   179   81  178 1  
   180   82  179 1  
   181   83  180 1  
   182   83  181 1  
   183   83  182 1  
   184   84  183 1  
   185   84  184 1  
   186   84  185 1  
   187   85  186 1  
   188   86  187 1  
   189   89  188 1  
   190   89  189 1  
   191   90  190 1  
   192   90  191 1  
   193   91  192 1  
   194   91  193 1  
   195   92  194 1  
   196   92  195 1  
   197   93  196 1  
   198   93  197 1  
   199   93  198 1  
   200   94  199 1  
   201   95  200 1  
   202   98  201 1  
   203   98  202 1  
@<TRIPOS>SUBSTRUCTURE
     1 CYS         1

