5euk_ligand
  -I-interpret- 

201202  0  0  0  0  0  0  0  0999 V2000
  -15.1230  -32.6870   26.7010 N   0  3  0  0  0
  -15.9020  -32.7970   27.9350 C   0  0  0  0  0
  -16.3700  -34.2280   28.2060 C   0  0  0  0  0
  -15.8360  -35.1950   27.6510 O   0  0  0  0  0
  -17.1210  -31.8640   27.8890 C   0  0  0  0  0
  -16.8920  -30.1890   28.5970 S   0  0  0  0  0
  -17.3730  -34.3490   29.0720 N   0  0  0  0  0
  -17.9780  -35.6350   29.4030 C   0  0  0  0  0
  -19.4950  -35.5310   29.3560 C   0  0  0  0  0
  -20.0660  -34.5300   29.7730 O   0  0  0  0  0
  -17.5200  -36.0890   30.7830 C   0  0  0  0  0
  -16.1220  -36.6730   30.7860 C   0  0  0  0  0
  -16.0670  -38.0450   30.1260 C   0  0  0  0  0
  -16.7600  -38.9770   30.5510 O   0  0  0  0  0
  -15.2460  -38.1740   29.0770 N   0  0  0  0  0
  -20.1490  -36.5620   28.8380 N   0  0  0  0  0
  -21.6030  -36.5380   28.7030 C   0  0  0  0  0
  -22.2750  -37.2750   29.8610 C   0  0  0  0  0
  -22.1280  -38.4880   30.0020 O   0  0  0  0  0
  -22.0250  -37.1120   27.3480 C   0  0  0  0  0
  -21.2690  -36.5340   26.1920 C   0  0  0  0  0
  -19.9670  -36.8820   25.9050 N   0  0  0  0  0
  -21.6280  -35.6220   25.2590 C   0  0  0  0  0
  -19.5580  -36.2130   24.8430 C   0  0  0  0  0
  -20.5470  -35.4410   24.4310 N   0  0  0  0  0
  -23.0030  -36.5210   30.6850 N   0  0  0  0  0
  -23.6110  -37.0180   31.9180 C   0  0  0  0  0
  -25.0020  -37.5790   31.6280 C   0  0  0  0  0
  -25.8860  -36.8450   31.1980 O   0  0  0  0  0
  -23.6800  -35.8670   32.9320 C   0  0  0  0  0
  -24.2020  -36.2900   34.2980 C   0  0  0  0  0
  -24.4620  -37.4870   34.5140 O   0  0  0  0  0
  -24.3430  -35.4010   35.1640 O   0  0  0  0  0
  -25.1900  -38.8770   31.8670 N   0  0  0  0  0
  -26.4290  -39.5630   31.5080 C   0  0  0  0  0
  -27.5790  -39.2470   32.4480 C   0  0  0  0  0
  -28.7380  -39.5020   32.1120 O   0  0  0  0  0
  -26.2310  -41.0740   31.4560 C   0  0  0  0  0
  -25.1480  -41.5970   30.5240 C   0  0  0  0  0
  -25.2250  -43.1050   30.4500 C   0  0  0  0  0
  -25.2700  -40.9820   29.1430 C   0  0  0  0  0
  -27.2630  -38.7100   33.6260 N   0  0  0  0  0
  -28.2920  -38.2960   34.5770 C   0  0  0  0  0
  -28.9760  -37.0090   34.1210 C   0  0  0  0  0
  -30.1980  -36.9370   34.0780 O   0  0  0  0  0
  -27.6960  -38.0850   35.9780 C   0  0  0  0  0
  -27.2590  -39.2980   36.5510 O   0  0  0  0  0
  -28.1820  -35.9920   33.7980 N   0  0  0  0  0
  -28.7270  -34.6820   33.4390 C   0  0  0  0  0
  -28.8600  -34.4990   31.9340 C   0  0  0  0  0
  -29.5320  -33.5710   31.4770 O   0  0  0  0  0
  -27.8650  -33.5200   33.9910 C   0  0  0  0  0
  -26.5950  -33.4810   33.3150 O   0  0  0  0  0
  -27.6600  -33.6740   35.5000 C   0  0  0  0  0
  -28.2270  -35.3870   31.1750 N   0  0  0  0  0
  -28.1600  -35.2510   29.7280 C   0  0  0  0  0
  -27.4690  -33.9530   29.3390 C   0  0  0  0  0
  -27.7770  -33.3580   28.3190 O   0  0  0  0  0
  -29.5540  -35.3360   29.0920 C   0  0  0  0  0
  -30.2780  -36.6160   29.4000 C   0  0  0  0  0
  -31.4170  -36.7840   28.4600 C   0  0  0  0  0
  -32.2230  -37.9500   28.7910 N   0  0  0  0  0
  -33.2560  -38.3770   28.0710 C   0  0  0  0  0
  -33.6020  -37.7370   26.9570 N   0  0  0  0  0
  -33.9290  -39.4530   28.4640 N   0  0  0  0  0
  -26.5300  -33.5180   30.1640 N   0  0  0  0  0
  -25.8030  -32.3000   29.8950 C   0  0  0  0  0
  -24.3110  -32.5630   29.9270 C   0  0  0  0  0
  -23.8500  -33.5140   30.5630 O   0  0  0  0  0
  -26.1660  -31.2410   30.9290 C   0  0  0  0  0
  -27.5800  -30.7440   30.8220 C   0  0  0  0  0
  -27.8050  -29.9780   29.5340 C   0  0  0  0  0
  -26.8240  -28.9130   29.3230 N   0  0  0  0  0
  -26.7830  -27.7760   30.0160 C   0  0  0  0  0
  -27.6510  -27.5380   31.0050 N   0  0  0  0  0
  -25.8590  -26.8740   29.7260 N   0  0  0  0  0
  -23.5550  -31.7250   29.2320 N   0  0  0  0  0
  -22.1090  -31.8110   29.2900 C   0  0  0  0  0
  -21.6530  -31.4580   30.6870 C   0  0  0  0  0
  -22.2360  -30.6060   31.3540 O   0  0  0  0  0
  -21.4520  -30.8740   28.2780 C   0  0  0  0  0
  -21.5550  -31.1780   26.7850 C   0  0  0  0  0
  -20.7920  -30.1210   26.0130 C   0  0  0  0  0
  -21.0210  -32.5570   26.4750 C   0  0  0  0  0
  -20.6030  -32.1270   31.1240 N   0  0  0  0  0
  -20.0570  -31.9210   32.4470 C   0  0  0  0  0
  -18.5520  -31.7810   32.2930 C   0  0  0  0  0
  -17.9010  -32.6240   31.6740 O   0  0  0  0  0
  -20.3930  -33.1230   33.3270 C   0  0  0  0  0
  -20.1440  -32.9520   34.8160 C   0  0  0  0  0
  -20.5580  -34.2260   35.5480 C   0  0  0  0  0
  -20.5820  -34.0430   37.0580 C   0  0  0  0  0
  -21.6370  -33.0880   37.4930 N   0  3  0  0  0
  -18.0020  -30.7000   32.8320 N   0  0  0  0  0
  -16.5680  -30.4570   32.7340 C   0  0  0  0  0
  -15.9300  -30.4240   34.1240 C   0  0  0  0  0
  -16.6150  -30.2710   35.1430 O   0  0  0  0  0
  -16.2900  -29.1620   31.9550 C   0  0  0  0  0
  -17.0820  -29.0690   30.2800 S   0  0  0  0  0
  -14.7130  -30.5710   34.2610 O   0  0  0  0  0
  -14.3193  -33.3130   26.7508 H   0  0  0  0  0
  -15.7083  -32.9457   25.9067 H   0  0  0  0  0
  -14.8004  -31.7259   26.5885 H   0  0  0  0  0
  -15.2391  -32.5017   28.7483 H   0  0  0  0  0
  -17.8927  -32.3442   28.4907 H   0  0  0  0  0
  -17.3507  -31.7178   26.8336 H   0  0  0  0  0
  -17.7338  -33.5083   29.5230 H   0  0  0  0  0
  -17.6584  -36.3738   28.6680 H   0  0  0  0  0
  -18.2042  -36.8685   31.1181 H   0  0  0  0  0
  -17.5138  -35.2142   31.4332 H   0  0  0  0  0
  -15.8039  -36.7835   31.8227 H   0  0  0  0  0
  -15.4736  -36.0010   30.2237 H   0  0  0  0  0
  -15.1733  -39.0691   28.5933 H   0  0  0  0  0
  -14.6929  -37.3773   28.7612 H   0  0  0  0  0
  -19.6290  -37.3835   28.5295 H   0  0  0  0  0
  -21.9357  -35.5008   28.7445 H   0  0  0  0  0
  -23.0781  -36.8706   27.2039 H   0  0  0  0  0
  -21.8227  -38.1829   27.3688 H   0  0  0  0  0
  -22.5943  -35.1241   25.1794 H   0  0  0  0  0
  -18.5719  -36.2855   24.3843 H   0  0  0  0  0
  -23.1439  -35.5407   30.4410 H   0  0  0  0  0
  -23.0082  -37.8250   32.3346 H   0  0  0  0  0
  -24.3693  -35.1219   32.5347 H   0  0  0  0  0
  -22.6660  -35.4922   33.0710 H   0  0  0  0  0
  -24.0882  -34.5525   34.7943 H   0  0  0  0  0
  -24.4440  -39.4089   32.3154 H   0  0  0  0  0
  -26.6918  -39.1897   30.5182 H   0  0  0  0  0
  -27.1690  -41.4844   31.0821 H   0  0  0  0  0
  -25.9273  -41.3691   32.4604 H   0  0  0  0  0
  -24.1754  -41.3106   30.9242 H   0  0  0  0  0
  -25.0795  -43.5242   31.4456 H   0  0  0  0  0
  -26.2032  -43.3994   30.0698 H   0  0  0  0  0
  -24.4476  -43.4749   29.7815 H   0  0  0  0  0
  -26.2435  -41.2309   28.7206 H   0  0  0  0  0
  -25.1715  -39.8991   29.2189 H   0  0  0  0  0
  -24.4823  -41.3756   28.5005 H   0  0  0  0  0
  -26.2803  -38.5852   33.8693 H   0  0  0  0  0
  -29.0314  -39.0957   34.6206 H   0  0  0  0  0
  -28.4700  -37.6631   36.6191 H   0  0  0  0  0
  -26.8369  -37.4202   35.8878 H   0  0  0  0  0
  -26.8944  -39.1260   37.4223 H   0  0  0  0  0
  -27.1711  -36.1280   33.8006 H   0  0  0  0  0
  -29.7169  -34.6532   33.8943 H   0  0  0  0  0
  -28.3886  -32.5815   33.8091 H   0  0  0  0  0
  -26.0696  -32.7577   33.6649 H   0  0  0  0  0
  -28.6287  -33.6653   35.9997 H   0  0  0  0  0
  -27.1539  -34.6180   35.7022 H   0  0  0  0  0
  -27.0520  -32.8480   35.8689 H   0  0  0  0  0
  -27.7754  -36.1864   31.6192 H   0  0  0  0  0
  -27.5693  -36.0831   29.3449 H   0  0  0  0  0
  -29.4238  -35.2859   28.0110 H   0  0  0  0  0
  -30.1491  -34.5179   29.4979 H   0  0  0  0  0
  -30.6545  -36.5819   30.4224 H   0  0  0  0  0
  -29.5915  -37.4555   29.2904 H   0  0  0  0  0
  -31.0155  -36.9187   27.4556 H   0  0  0  0  0
  -32.0502  -35.8993   28.5272 H   0  0  0  0  0
  -31.9791  -38.4744   29.6312 H   0  0  0  0  0
  -34.3878  -38.0719   26.3995 H   0  0  0  0  0
  -33.0814  -36.9115   26.6605 H   0  0  0  0  0
  -33.6521  -39.9458   29.3131 H   0  0  0  0  0
  -26.3160  -34.0532   31.0055 H   0  0  0  0  0
  -26.0749  -31.9392   28.9031 H   0  0  0  0  0
  -25.5091  -30.3872   30.7626 H   0  0  0  0  0
  -26.0568  -31.6978   31.9126 H   0  0  0  0  0
  -27.7744  -30.0744   31.6598 H   0  0  0  0  0
  -28.2495  -31.6041   30.8330 H   0  0  0  0  0
  -28.7903  -29.5153   29.5908 H   0  0  0  0  0
  -27.7123  -30.6831   28.7079 H   0  0  0  0  0
  -26.1230  -29.0507   28.5949 H   0  0  0  0  0
  -27.5985  -26.6655   31.5307 H   0  0  0  0  0
  -28.3656  -28.2290   31.2337 H   0  0  0  0  0
  -25.1882  -27.0531   28.9788 H   0  0  0  0  0
  -23.9952  -31.0121   28.6503 H   0  0  0  0  0
  -21.8105  -32.8293   29.0407 H   0  0  0  0  0
  -20.3862  -30.9365   28.4979 H   0  0  0  0  0
  -21.9755  -29.9260   28.4017 H   0  0  0  0  0
  -22.6033  -31.1599   26.4869 H   0  0  0  0  0
  -21.2217  -29.1408   26.2198 H   0  0  0  0  0
  -19.7462  -30.1328   26.3200 H   0  0  0  0  0
  -20.8611  -30.3316   24.9458 H   0  0  0  0  0
  -19.9741  -32.6152   26.7728 H   0  0  0  0  0
  -21.5982  -33.3007   27.0244 H   0  0  0  0  0
  -21.1068  -32.7464   25.4050 H   0  0  0  0  0
  -20.1625  -32.8112   30.5090 H   0  0  0  0  0
  -20.4751  -31.0299   32.9153 H   0  0  0  0  0
  -19.7409  -33.9327   32.9996 H   0  0  0  0  0
  -21.4636  -33.2939   33.2143 H   0  0  0  0  0
  -20.7288  -32.1112   35.1889 H   0  0  0  0  0
  -19.0849  -32.7605   34.9886 H   0  0  0  0  0
  -19.8300  -35.0025   35.3132 H   0  0  0  0  0
  -21.5645  -34.4903   35.2235 H   0  0  0  0  0
  -19.6157  -33.6437   37.3662 H   0  0  0  0  0
  -20.7927  -35.0108   37.5131 H   0  0  0  0  0
  -21.6146  -32.9981   38.5088 H   0  0  0  0  0
  -21.4667  -32.1775   37.0660 H   0  0  0  0  0
  -22.5503  -33.4362   37.2013 H   0  0  0  0  0
  -18.5923  -30.0284   33.3228 H   0  0  0  0  0
  -16.1134  -31.2792   32.1814 H   0  0  0  0  0
  -17.5368  -30.1689   34.8952 H   0  0  0  0  0
  -15.2126  -29.1153   31.7966 H   0  0  0  0  0
  -16.7049  -28.3447   32.5450 H   0  0  0  0  0
  1  2  1  0  0  0
  2  3  1  0  0  0
  2  5  1  0  0  0
  3  4  2  0  0  0
  3  7  1  0  0  0
  5  6  1  0  0  0
  6 99  1  0  0  0
  7  8  1  0  0  0
  8  9  1  0  0  0
  8 11  1  0  0  0
  9 10  2  0  0  0
  9 16  1  0  0  0
 11 12  1  0  0  0
 12 13  1  0  0  0
 13 14  2  0  0  0
 13 15  1  0  0  0
 16 17  1  0  0  0
 17 18  1  0  0  0
 17 20  1  0  0  0
 18 19  2  0  0  0
 18 26  1  0  0  0
 20 21  1  0  0  0
 21 22  4  0  0  0
 21 23  4  0  0  0
 22 24  4  0  0  0
 23 25  4  0  0  0
 24 25  4  0  0  0
 26 27  1  0  0  0
 27 28  1  0  0  0
 27 30  1  0  0  0
 28 29  2  0  0  0
 28 34  1  0  0  0
 30 31  1  0  0  0
 31 32  2  0  0  0
 31 33  1  0  0  0
 34 35  1  0  0  0
 35 36  1  0  0  0
 35 38  1  0  0  0
 36 37  2  0  0  0
 36 42  1  0  0  0
 38 39  1  0  0  0
 39 40  1  0  0  0
 39 41  1  0  0  0
 42 43  1  0  0  0
 43 44  1  0  0  0
 43 46  1  0  0  0
 44 45  2  0  0  0
 44 48  1  0  0  0
 46 47  1  0  0  0
 48 49  1  0  0  0
 49 50  1  0  0  0
 49 52  1  0  0  0
 50 51  2  0  0  0
 50 55  1  0  0  0
 52 53  1  0  0  0
 52 54  1  0  0  0
 55 56  1  0  0  0
 56 57  1  0  0  0
 56 59  1  0  0  0
 57 58  2  0  0  0
 57 66  1  0  0  0
 59 60  1  0  0  0
 60 61  1  0  0  0
 61 62  1  0  0  0
 62 63  1  0  0  0
 63 64  1  0  0  0
 63 65  2  0  0  0
 66 67  1  0  0  0
 67 68  1  0  0  0
 67 70  1  0  0  0
 68 69  2  0  0  0
 68 77  1  0  0  0
 70 71  1  0  0  0
 71 72  1  0  0  0
 72 73  1  0  0  0
 73 74  1  0  0  0
 74 75  1  0  0  0
 74 76  2  0  0  0
 77 78  1  0  0  0
 78 79  1  0  0  0
 78 81  1  0  0  0
 79 80  2  0  0  0
 79 85  1  0  0  0
 81 82  1  0  0  0
 82 83  1  0  0  0
 82 84  1  0  0  0
 85 86  1  0  0  0
 86 87  1  0  0  0
 86 89  1  0  0  0
 87 88  2  0  0  0
 87 94  1  0  0  0
 89 90  1  0  0  0
 90 91  1  0  0  0
 91 92  1  0  0  0
 92 93  1  0  0  0
 94 95  1  0  0  0
 95 96  1  0  0  0
 95 98  1  0  0  0
 96 97  1  0  0  0
 96100  2  0  0  0
 98 99  1  0  0  0
  1101  1  0  0  0
  1102  1  0  0  0
  1103  1  0  0  0
  2104  1  0  0  0
  5105  1  0  0  0
  5106  1  0  0  0
  7107  1  0  0  0
  8108  1  0  0  0
 11109  1  0  0  0
 11110  1  0  0  0
 12111  1  0  0  0
 12112  1  0  0  0
 15113  1  0  0  0
 15114  1  0  0  0
 16115  1  0  0  0
 17116  1  0  0  0
 20117  1  0  0  0
 20118  1  0  0  0
 23119  1  0  0  0
 24120  1  0  0  0
 26121  1  0  0  0
 27122  1  0  0  0
 30123  1  0  0  0
 30124  1  0  0  0
 33125  1  0  0  0
 34126  1  0  0  0
 35127  1  0  0  0
 38128  1  0  0  0
 38129  1  0  0  0
 39130  1  0  0  0
 40131  1  0  0  0
 40132  1  0  0  0
 40133  1  0  0  0
 41134  1  0  0  0
 41135  1  0  0  0
 41136  1  0  0  0
 42137  1  0  0  0
 43138  1  0  0  0
 46139  1  0  0  0
 46140  1  0  0  0
 47141  1  0  0  0
 48142  1  0  0  0
 49143  1  0  0  0
 52144  1  0  0  0
 53145  1  0  0  0
 54146  1  0  0  0
 54147  1  0  0  0
 54148  1  0  0  0
 55149  1  0  0  0
 56150  1  0  0  0
 59151  1  0  0  0
 59152  1  0  0  0
 60153  1  0  0  0
 60154  1  0  0  0
 61155  1  0  0  0
 61156  1  0  0  0
 62157  1  0  0  0
 64158  1  0  0  0
 64159  1  0  0  0
 65160  1  0  0  0
 66161  1  0  0  0
 67162  1  0  0  0
 70163  1  0  0  0
 70164  1  0  0  0
 71165  1  0  0  0
 71166  1  0  0  0
 72167  1  0  0  0
 72168  1  0  0  0
 73169  1  0  0  0
 75170  1  0  0  0
 75171  1  0  0  0
 76172  1  0  0  0
 77173  1  0  0  0
 78174  1  0  0  0
 81175  1  0  0  0
 81176  1  0  0  0
 82177  1  0  0  0
 83178  1  0  0  0
 83179  1  0  0  0
 83180  1  0  0  0
 84181  1  0  0  0
 84182  1  0  0  0
 84183  1  0  0  0
 85184  1  0  0  0
 86185  1  0  0  0
 89186  1  0  0  0
 89187  1  0  0  0
 90188  1  0  0  0
 90189  1  0  0  0
 91190  1  0  0  0
 91191  1  0  0  0
 92192  1  0  0  0
 92193  1  0  0  0
 93194  1  0  0  0
 93195  1  0  0  0
 93196  1  0  0  0
 94197  1  0  0  0
 95198  1  0  0  0
 97199  1  0  0  0
 98200  1  0  0  0
 98201  1  0  0  0
M  END
$$$$
