4iu1_ligand
  -I-interpret- 

 23 22  0  0  0  0  0  0  0  0999 V2000
   12.2700  -22.2170   31.1380 N   0  3  0  0  0
   12.6090  -22.2880   29.7000 C   0  0  0  0  0
   13.8210  -23.2120   29.5080 C   0  0  0  0  0
   14.4350  -22.9860   28.3200 O   0  0  0  0  0
   12.7680  -20.8570   29.1330 C   0  0  0  0  0
   13.8440  -19.9700   29.7970 C   0  0  0  0  0
   13.8510  -18.6540   29.1140 N   0  0  0  0  0
   14.5890  -17.6420   29.3650 C   0  0  0  0  0
   15.0400  -17.4570   30.5330 N   0  0  0  0  0
   14.8610  -16.8080   28.4350 N   0  0  0  0  0
   15.7890  -16.4180   30.8120 O   0  0  0  0  0
   14.1940  -24.0530   30.3020 O   0  0  0  0  0
   12.1659  -23.1616   31.5086 H   0  0  0  0  0
   13.0163  -21.7344   31.6386 H   0  0  0  0  0
   11.3949  -21.7062   31.2550 H   0  0  0  0  0
   11.8055  -22.7382   29.1170 H   0  0  0  0  0
   13.9779  -22.2824   27.8536 H   0  0  0  0  0
   11.8152  -20.3562   29.3046 H   0  0  0  0  0
   13.0734  -20.9758   28.0934 H   0  0  0  0  0
   14.8228  -20.4415   29.7091 H   0  0  0  0  0
   13.6194  -19.8400   30.8557 H   0  0  0  0  0
   13.1846  -18.5431   28.3498 H   0  0  0  0  0
   15.4416  -15.9934   28.6343 H   0  0  0  0  0
  1  2  1  0  0  0
  2  3  1  0  0  0
  2  5  1  0  0  0
  3  4  1  0  0  0
  3 12  2  0  0  0
  5  6  1  0  0  0
  6  7  1  0  0  0
  7  8  1  0  0  0
  8  9  4  0  0  0
  8 10  2  0  0  0
  9 11  2  0  0  0
  1 13  1  0  0  0
  1 14  1  0  0  0
  1 15  1  0  0  0
  2 16  1  0  0  0
  4 17  1  0  0  0
  5 18  1  0  0  0
  5 19  1  0  0  0
  6 20  1  0  0  0
  6 21  1  0  0  0
  7 22  1  0  0  0
 10 23  1  0  0  0
M  END
$$$$
