3ttz_ligand
  -I-interpret- 

 40 42  0  0  0  0  0  0  0  0999 V2000
    5.7890    8.4620   23.5650 C   0  0  0  0  0
    1.1250    6.7100   21.7690 Cl  0  0  0  0  0
    4.4900    7.7050   23.4750 C   0  0  0  0  0
    3.6540    8.7680   21.0530 Cl  0  0  0  0  0
    3.5760    7.7840   22.4780 C   0  0  0  0  0
    2.5240    6.9190   22.7780 C   0  0  0  0  0
    2.8340    6.3210   23.9900 C   0  0  0  0  0
    4.0470    6.8220   24.4000 N   0  0  0  0  0
    2.0780    5.3350   24.7600 C   0  0  0  0  0
    2.5340    4.9900   25.8350 O   0  0  0  0  0
    0.9220    4.8220   24.2850 N   0  0  0  0  0
    0.1330    3.8280   25.0260 C   0  0  0  0  0
    0.8580    2.4680   25.0340 C   0  0  0  0  0
   -0.0310    1.4200   25.7140 C   0  0  0  0  0
   -1.3090    1.3830   24.9890 N   0  0  0  0  0
   -2.0990    2.6190   24.9790 C   0  0  0  0  0
   -1.2340    3.7110   24.3300 C   0  0  0  0  0
   -1.0060    3.3840   22.9900 F   0  0  0  0  0
   -1.9080    0.1570   24.7740 C   0  0  0  0  0
   -2.9950   -0.0470   24.0770 N   0  0  0  0  0
   -3.4100   -1.2860   23.9640 C   0  0  0  0  0
   -2.6140   -2.1980   24.6070 C   0  0  0  0  0
   -1.2940   -1.3230   25.3690 S   0  0  0  0  0
   -2.7850   -3.6030   24.6680 C   0  0  0  0  0
   -3.7150   -4.1450   24.1010 O   0  0  0  0  0
   -1.8880   -4.3430   25.3500 O   0  0  0  0  0
    6.4128    8.2140   22.7063 H   0  0  0  0  0
    5.5845    9.5326   23.5701 H   0  0  0  0  0
    6.3064    8.1853   24.4836 H   0  0  0  0  0
    0.5834    5.1371   23.3759 H   0  0  0  0  0
    0.0035    4.1356   26.0636 H   0  0  0  0  0
    1.7963    2.5593   25.5812 H   0  0  0  0  0
    1.0645    2.1599   24.0090 H   0  0  0  0  0
   -0.1946    1.6811   26.7596 H   0  0  0  0  0
    0.4484    0.4414   25.6895 H   0  0  0  0  0
   -2.3763    2.9038   25.9939 H   0  0  0  0  0
   -3.0222    2.4781   24.4169 H   0  0  0  0  0
   -1.7668    4.6575   24.4213 H   0  0  0  0  0
   -4.3060   -1.5650   23.4095 H   0  0  0  0  0
   -1.2244   -3.7654   25.7342 H   0  0  0  0  0
  3  1  1  0  0  0
  6  2  1  0  0  0
  5  3  4  0  0  0
  3  8  4  0  0  0
  5  4  1  0  0  0
  5  6  4  0  0  0
  6  7  4  0  0  0
  7  8  4  0  0  0
  7  9  1  0  0  0
  9 10  2  0  0  0
  9 11  1  0  0  0
 11 12  1  0  0  0
 12 13  1  0  0  0
 12 17  1  0  0  0
 13 14  1  0  0  0
 14 15  1  0  0  0
 15 16  1  0  0  0
 15 19  1  0  0  0
 16 17  1  0  0  0
 17 18  1  0  0  0
 19 20  4  0  0  0
 19 23  4  0  0  0
 20 21  4  0  0  0
 21 22  4  0  0  0
 22 23  4  0  0  0
 22 24  1  0  0  0
 24 25  2  0  0  0
 24 26  1  0  0  0
  1 27  1  0  0  0
  1 28  1  0  0  0
  1 29  1  0  0  0
 11 30  1  0  0  0
 12 31  1  0  0  0
 13 32  1  0  0  0
 13 33  1  0  0  0
 14 34  1  0  0  0
 14 35  1  0  0  0
 16 36  1  0  0  0
 16 37  1  0  0  0
 17 38  1  0  0  0
 21 39  1  0  0  0
 26 40  1  0  0  0
M  END
$$$$
