6dy7_ligand
  -I-interpret- 

 30 31  0  0  0  0  0  0  0  0999 V2000
  -11.1640   25.6430   -1.9890 N   0  0  0  0  0
   -6.9230   25.1850    6.7140 Cl  0  0  0  0  0
   -7.5780   25.5100    5.0880 C   0  0  0  0  0
   -6.6520   26.0080    3.9950 C   0  0  0  0  0
   -7.1950   26.2910    2.6050 C   0  0  0  0  0
   -6.0990   26.8760    1.3290 Cl  0  0  0  0  0
   -8.6740   26.0810    2.2890 C   0  0  0  0  0
   -9.1350   26.3550    0.9900 O   0  0  0  0  0
  -10.5170   26.2310    0.7960 C   0  0  0  0  0
  -10.8230   24.8190    0.3010 C   0  0  0  0  0
  -10.4380   24.6870   -1.1710 C   0  0  0  0  0
  -12.3960   25.2450   -2.6380 C   0  0  0  0  0
  -13.0200   23.9210   -2.5440 N   0  0  0  0  0
  -14.2250   23.9370   -3.3350 C   0  0  0  0  0
  -14.3640   25.3160   -3.9370 C   0  0  0  0  0
  -13.2230   26.0950   -3.4970 N   0  0  0  0  0
   -9.6180   25.5760    3.3900 C   0  0  0  0  0
   -9.0620   25.2920    4.7920 C   0  0  0  0  0
  -10.8073   26.5914   -2.1059 H   0  0  0  0  0
   -5.5942   26.1632    4.2075 H   0  0  0  0  0
  -10.8522   26.9604    0.0587 H   0  0  0  0  0
  -11.0385   26.4129    1.7357 H   0  0  0  0  0
  -11.8896   24.6233    0.4118 H   0  0  0  0  0
  -10.2496   24.1011    0.8875 H   0  0  0  0  0
   -9.3703   24.8820   -1.2712 H   0  0  0  0  0
  -10.6862   23.6804   -1.5076 H   0  0  0  0  0
  -14.9131   23.1032   -3.4741 H   0  0  0  0  0
  -15.1720   25.6610   -4.5822 H   0  0  0  0  0
  -10.6756   25.4203    3.1772 H   0  0  0  0  0
   -9.7266   24.9341    5.5784 H   0  0  0  0  0
 11  1  1  0  0  0
  1 12  1  0  0  0
  3  2  1  0  0  0
  4  3  4  0  0  0
  3 18  4  0  0  0
  5  4  4  0  0  0
  5  6  1  0  0  0
  7  5  4  0  0  0
  8  7  1  0  0  0
  7 17  4  0  0  0
  9  8  1  0  0  0
 10  9  1  0  0  0
 10 11  1  0  0  0
 12 13  4  0  0  0
 12 16  4  0  0  0
 13 14  4  0  0  0
 14 15  4  0  0  0
 15 16  4  0  0  0
 17 18  4  0  0  0
  1 19  1  0  0  0
  4 20  1  0  0  0
  9 21  1  0  0  0
  9 22  1  0  0  0
 10 23  1  0  0  0
 10 24  1  0  0  0
 11 25  1  0  0  0
 11 26  1  0  0  0
 14 27  1  0  0  0
 15 28  1  0  0  0
 17 29  1  0  0  0
 18 30  1  0  0  0
M  END
$$$$
