### 
### Created by X-TOOL on Mon Sep 10 21:12:53 2018
### 

@<TRIPOS>MOLECULE
2ate_ligand
   33    34     1     0     0
SMALL
GAST_HUCK


@<TRIPOS>ATOM
      1 O8         16.2770  -12.9410   -9.1810 O.co2     1 NIA        -0.5537
      2 P          15.6010  -11.6670   -9.5890 P.3       1 NIA         0.2008
      3 O6         14.5900  -11.1600   -8.6160 O.co2     1 NIA        -0.5537
      4 O7         16.5360  -10.5850  -10.0750 O.co2     1 NIA        -0.5537
      5 O5'        14.7810  -12.1400  -10.9050 O.3       1 NIA        -0.2734
      6 C5'        14.0440  -11.1490  -11.5930 C.3       1 NIA         0.1072
      7 C4'        13.3480  -11.7800  -12.7670 C.3       1 NIA         0.1183
      8 C3'        12.5380  -13.0770  -12.5060 C.3       1 NIA         0.1151
      9 O3'        11.1500  -12.8610  -12.8190 O.3       1 NIA        -0.3864
     10 C2'        13.2140  -14.0920  -13.4400 C.3       1 NIA         0.1424
     11 O2'        12.3060  -15.0670  -14.0600 O.3       1 NIA        -0.3834
     12 O4'        14.4050  -12.0710  -13.7150 O.3       1 NIA        -0.3336
     13 C1'        13.9730  -13.1750  -14.4620 C.3       1 NIA         0.2410
     14 N1         14.8740  -14.0730  -15.1540 N.pl3     1 NIA        -0.0130
     15 C5         14.7770  -14.2880  -16.4840 C.2       1 NIA         0.4544
     16 N6         13.9150  -13.6410  -17.3160 N.pl3     1 NIA        -0.1767
     17 C4         15.5890  -15.3600  -16.7720 C.2       1 NIA         0.4224
     18 N7         15.7740  -15.9710  -17.9580 N.2       1 NIA        -0.0755
     19 O72        14.9890  -15.7490  -18.9130 O.2       1 NIA        -0.4335
     20 O71        16.4850  -17.0040  -17.9670 O.2       1 NIA        -0.4335
     21 N3         16.2440  -15.7410  -15.6520 N.2       1 NIA        -0.0611
     22 C2         15.7600  -14.9580  -14.6630 C.2       1 NIA         0.2666
     23 H1         14.7263  -10.3628  -11.9484 H         1 NIA         0.0639
     24 H2         13.2977  -10.7083  -10.9157 H         1 NIA         0.0639
     25 H3         12.6553  -11.0395  -13.1934 H         1 NIA         0.0650
     26 H4         12.6264  -13.3977  -11.4575 H         1 NIA         0.0648
     27 H5         10.6619  -13.6596  -12.6564 H         1 NIA         0.2100
     28 H6         13.9504  -14.6703  -12.8627 H         1 NIA         0.0678
     29 H7         11.8710  -15.5691  -13.3811 H         1 NIA         0.2101
     30 H8         13.2756  -12.7857  -15.2183 H         1 NIA         0.1038
     31 H9         13.9042  -13.8645  -18.3214 H         1 NIA         0.2836
     32 H10        13.2737  -12.9281  -16.9400 H         1 NIA         0.2836
     33 H11        16.0470  -15.0329  -13.6152 H         1 NIA         0.2465
@<TRIPOS>BOND
     1    1    2 ar 
     2    2    3 ar 
     3    2    4 ar 
     4    2    5 1  
     5    5    6 1  
     6    6    7 1  
     7    7    8 1  
     8    7   12 1  
     9    8    9 1  
    10    8   10 1  
    11   10   11 1  
    12   10   13 1  
    13   12   13 1  
    14   13   14 1  
    15   14   15 1  
    16   14   22 1  
    17   15   16 1  
    18   15   17 2  
    19   17   18 1  
    20   17   21 1  
    21   18   19 2  
    22   18   20 2  
    23   21   22 2  
    24    6   23 1  
    25    6   24 1  
    26    7   25 1  
    27    8   26 1  
    28    9   27 1  
    29   10   28 1  
    30   11   29 1  
    31   13   30 1  
    32   16   31 1  
    33   16   32 1  
    34   22   33 1  
@<TRIPOS>SUBSTRUCTURE
     1 NIA         1

