2ate_ligand
  -I-interpret- 

 35 36  0  0  0  0  0  0  0  0999 V2000
   16.2770  -12.9410   -9.1810 O   0  0  0  0  0
   15.6010  -11.6670   -9.5890 P   0  0  0  0  0
   14.5900  -11.1600   -8.6160 O   0  0  0  0  0
   16.5360  -10.5850  -10.0750 O   0  0  0  0  0
   14.7810  -12.1400  -10.9050 O   0  0  0  0  0
   14.0440  -11.1490  -11.5930 C   0  0  0  0  0
   13.3480  -11.7800  -12.7670 C   0  0  0  0  0
   12.5380  -13.0770  -12.5060 C   0  0  0  0  0
   11.1500  -12.8610  -12.8190 O   0  0  0  0  0
   13.2140  -14.0920  -13.4400 C   0  0  0  0  0
   12.3060  -15.0670  -14.0600 O   0  0  0  0  0
   14.4050  -12.0710  -13.7150 O   0  0  0  0  0
   13.9730  -13.1750  -14.4620 C   0  0  0  0  0
   14.8740  -14.0730  -15.1540 N   0  0  0  0  0
   14.7770  -14.2880  -16.4840 C   0  0  0  0  0
   13.9150  -13.6410  -17.3160 N   0  0  0  0  0
   15.5890  -15.3600  -16.7720 C   0  0  0  0  0
   15.7740  -15.9710  -17.9580 N   0  0  0  0  0
   14.9890  -15.7490  -18.9130 O   0  0  0  0  0
   16.4850  -17.0040  -17.9670 O   0  0  0  0  0
   16.2440  -15.7410  -15.6520 N   0  0  0  0  0
   15.7600  -14.9580  -14.6630 C   0  0  0  0  0
   16.9086  -13.1975   -9.8570 H   0  0  0  0  0
   17.1640  -10.9615  -10.6958 H   0  0  0  0  0
   14.7183  -10.3675  -11.9431 H   0  0  0  0  0
   13.3060  -10.7090  -10.9223 H   0  0  0  0  0
   12.5853  -11.0774  -13.1028 H   0  0  0  0  0
   12.5403  -13.4162  -11.4701 H   0  0  0  0  0
   10.6567  -13.6680  -12.6547 H   0  0  0  0  0
   13.8794  -14.7662  -12.9008 H   0  0  0  0  0
   12.8099  -15.6584  -14.6238 H   0  0  0  0  0
   13.4517  -12.6887  -15.2866 H   0  0  0  0  0
   13.2800  -12.9350  -16.9436 H   0  0  0  0  0
   13.9043  -13.8623  -18.3116 H   0  0  0  0  0
   16.0472  -15.0330  -13.6142 H   0  0  0  0  0
  1  2  1  0  0  0
  2  3  2  0  0  0
  2  4  1  0  0  0
  2  5  1  0  0  0
  5  6  1  0  0  0
  6  7  1  0  0  0
  7  8  1  0  0  0
  7 12  1  0  0  0
  8  9  1  0  0  0
  8 10  1  0  0  0
 10 11  1  0  0  0
 10 13  1  0  0  0
 12 13  1  0  0  0
 13 14  1  0  0  0
 14 15  4  0  0  0
 14 22  4  0  0  0
 15 16  1  0  0  0
 15 17  4  0  0  0
 17 18  1  0  0  0
 17 21  4  0  0  0
 18 19  2  0  0  0
 18 20  2  0  0  0
 21 22  4  0  0  0
  1 23  1  0  0  0
  4 24  1  0  0  0
  6 25  1  0  0  0
  6 26  1  0  0  0
  7 27  1  0  0  0
  8 28  1  0  0  0
  9 29  1  0  0  0
 10 30  1  0  0  0
 11 31  1  0  0  0
 13 32  1  0  0  0
 16 33  1  0  0  0
 16 34  1  0  0  0
 22 35  1  0  0  0
M  END
$$$$
