3kxz_ligand
  -I-interpret- 

 70 74  0  0  0  0  0  0  0  0999 V2000
  -13.5280    3.2090   -7.3630 C   0  0  0  0  0
  -13.2620    1.8400   -9.4030 N   0  3  0  0  0
  -14.4060    2.4420   -9.9910 O   0  0  0  0  0
  -13.3620    1.7760   -7.9400 C   0  0  0  0  0
  -10.3100   -0.5100   -7.8000 N   0  0  0  0  0
  -11.1590   -1.6510   -6.0920 O   0  0  0  0  0
  -12.0170    1.1790   -7.5110 C   0  0  0  0  0
   -3.5500    1.9990   -8.5650 N   0  0  0  0  0
    2.3270   -2.9120   -5.2890 O   0  0  0  0  0
  -11.6370   -0.1200   -8.2120 C   0  0  0  0  0
   -3.4370    0.3580   -6.8770 N   0  0  0  0  0
  -11.7160    0.0480   -9.7220 C   0  0  0  0  0
   -4.1860   -0.4990   -6.2470 N   0  0  0  0  0
  -13.0930    0.5980  -10.1130 C   0  0  0  0  0
   -1.6020   -0.2040   -5.6460 N   0  0  0  0  0
  -14.1690   -0.4430   -9.8000 C   0  0  0  0  0
  -13.1680    0.8620  -11.6310 C   0  0  0  0  0
  -10.1840   -1.3060   -6.7160 C   0  0  0  0  0
   -8.8210   -1.6550   -6.2860 C   0  0  0  0  0
   -8.6130   -2.6880   -5.3840 C   0  0  0  0  0
   -7.3530   -3.0130   -4.9390 C   0  0  0  0  0
   -6.2900   -2.2640   -5.3960 C   0  0  0  0  0
   -6.4800   -1.2180   -6.3000 C   0  0  0  0  0
   -7.7550   -0.9240   -6.7270 C   0  0  0  0  0
   -5.3740   -0.3990   -6.7820 C   0  0  0  0  0
   -5.3810    0.5870   -7.7730 C   0  0  0  0  0
   -4.1270    1.0580   -7.8170 C   0  0  0  0  0
   -2.3170    2.1920   -8.3200 C   0  0  0  0  0
   -1.4820    1.5030   -7.3380 C   0  0  0  0  0
   -2.1090    0.5850   -6.6150 C   0  0  0  0  0
   -0.2780   -0.3610   -5.3440 C   0  0  0  0  0
    0.4940    0.7010   -4.9260 C   0  0  0  0  0
    1.8360    0.5290   -4.6520 C   0  0  0  0  0
    2.4430   -0.7000   -4.7770 C   0  0  0  0  0
    1.6930   -1.7490   -5.1860 C   0  0  0  0  0
    0.3410   -1.5960   -5.4770 C   0  0  0  0  0
  -14.4640    0.9360   -7.2840 C   0  0  0  0  0
  -13.4885    3.1678   -6.2745 H   0  0  0  0  0
  -12.7231    3.8439   -7.7333 H   0  0  0  0  0
  -14.4885    3.6170   -7.6778 H   0  0  0  0  0
  -12.4060    2.3853   -9.5047 H   0  0  0  0  0
  -14.5797    3.2831   -9.5621 H   0  0  0  0  0
   -9.4883   -0.1927   -8.3142 H   0  0  0  0  0
  -12.0981    0.9513   -6.4481 H   0  0  0  0  0
  -11.2512    1.9111   -7.7675 H   0  0  0  0  0
    1.7105   -3.5862   -5.5840 H   0  0  0  0  0
  -12.3385   -0.9057   -7.9316 H   0  0  0  0  0
  -11.5658   -0.9198  -10.2003 H   0  0  0  0  0
  -10.9441    0.7453  -10.0476 H   0  0  0  0  0
   -2.2695   -0.7337   -5.0854 H   0  0  0  0  0
  -13.9678   -1.3529  -10.3654 H   0  0  0  0  0
  -14.1571   -0.6665   -8.7332 H   0  0  0  0  0
  -15.1462   -0.0489  -10.0791 H   0  0  0  0  0
  -12.4065    1.5903  -11.9099 H   0  0  0  0  0
  -12.9959   -0.0699  -12.1695 H   0  0  0  0  0
  -14.1545    1.2515  -11.8824 H   0  0  0  0  0
   -9.4688   -3.2559   -5.0191 H   0  0  0  0  0
   -7.1994   -3.8392   -4.2448 H   0  0  0  0  0
   -5.2836   -2.4926   -5.0453 H   0  0  0  0  0
   -7.9153   -0.1007   -7.4231 H   0  0  0  0  0
   -6.2275    0.9055   -8.3814 H   0  0  0  0  0
   -1.8245    2.9628   -8.9128 H   0  0  0  0  0
   -0.4230    1.7270   -7.2095 H   0  0  0  0  0
    0.0410    1.6857   -4.8107 H   0  0  0  0  0
    2.4281    1.3855   -4.3295 H   0  0  0  0  0
    3.5022   -0.8250   -4.5519 H   0  0  0  0  0
   -0.2385   -2.4558   -5.8132 H   0  0  0  0  0
  -14.3794   -0.0977   -7.6193 H   0  0  0  0  0
  -14.3545    0.9779   -6.2003 H   0  0  0  0  0
  -15.4389    1.3326   -7.5676 H   0  0  0  0  0
  4  1  1  0  0  0
  2  3  1  0  0  0
  4  2  1  0  0  0
 14  2  1  0  0  0
  7  4  1  0  0  0
  4 37  1  0  0  0
  5 10  1  0  0  0
 18  5  1  0  0  0
 18  6  2  0  0  0
 10  7  1  0  0  0
 27  8  4  0  0  0
 28  8  4  0  0  0
 35  9  1  0  0  0
 10 12  1  0  0  0
 11 13  4  0  0  0
 11 27  4  0  0  0
 30 11  4  0  0  0
 12 14  1  0  0  0
 13 25  4  0  0  0
 14 16  1  0  0  0
 14 17  1  0  0  0
 15 30  1  0  0  0
 31 15  1  0  0  0
 19 18  1  0  0  0
 19 20  4  0  0  0
 24 19  4  0  0  0
 21 20  4  0  0  0
 22 21  4  0  0  0
 23 22  4  0  0  0
 23 24  4  0  0  0
 25 23  1  0  0  0
 26 25  4  0  0  0
 27 26  4  0  0  0
 29 28  4  0  0  0
 30 29  4  0  0  0
 32 31  4  0  0  0
 31 36  4  0  0  0
 33 32  4  0  0  0
 34 33  4  0  0  0
 34 35  4  0  0  0
 35 36  4  0  0  0
  1 38  1  0  0  0
  1 39  1  0  0  0
  1 40  1  0  0  0
  2 41  1  0  0  0
  3 42  1  0  0  0
  5 43  1  0  0  0
  7 44  1  0  0  0
  7 45  1  0  0  0
  9 46  1  0  0  0
 10 47  1  0  0  0
 12 48  1  0  0  0
 12 49  1  0  0  0
 15 50  1  0  0  0
 16 51  1  0  0  0
 16 52  1  0  0  0
 16 53  1  0  0  0
 17 54  1  0  0  0
 17 55  1  0  0  0
 17 56  1  0  0  0
 20 57  1  0  0  0
 21 58  1  0  0  0
 22 59  1  0  0  0
 24 60  1  0  0  0
 26 61  1  0  0  0
 28 62  1  0  0  0
 29 63  1  0  0  0
 32 64  1  0  0  0
 33 65  1  0  0  0
 34 66  1  0  0  0
 36 67  1  0  0  0
 37 68  1  0  0  0
 37 69  1  0  0  0
 37 70  1  0  0  0
M  END
$$$$
