4gja_ligand
  -I-interpret- 

 66 69  0  0  0  0  0  0  0  0999 V2000
   34.7300  104.7370   12.5640 C   0  0  0  0  0
   35.3840  105.6830   11.5570 C   0  0  0  0  0
   35.5120  107.0540   11.8570 C   0  0  0  0  0
   36.1280  107.9190   10.9210 C   0  0  0  0  0
   36.6280  107.3860    9.7070 C   0  0  0  0  0
   36.4230  106.0560    9.3700 C   0  0  0  0  0
   35.7900  105.2200   10.2920 C   0  0  0  0  0
   37.3540  108.3720    8.4270 S   0  0  0  0  0
   37.7880  107.4810    7.3450 O   0  0  0  0  0
   36.4240  109.4520    8.1170 O   0  0  0  0  0
   38.6350  109.0120    9.2260 N   0  0  0  0  0
   40.0220  108.6900    8.9140 C   0  0  0  0  0
   40.8810  109.9810    8.9260 C   0  0  0  0  0
   42.2920  109.6060    8.6870 N   0  3  0  0  0
   42.8670  108.6870    9.7000 C   0  0  0  0  0
   42.0720  107.3410    9.7220 C   0  0  0  0  0
   40.5550  107.6410    9.9330 C   0  0  0  0  0
   42.6830  106.4140   10.7580 C   0  0  0  0  0
   42.0540  106.1440   11.7700 O   0  0  0  0  0
   43.9270  105.9210   10.5060 N   0  0  0  0  0
   44.6660  105.0450   11.4260 C   0  0  0  0  0
   45.8450  105.8360   12.0690 C   0  0  0  0  0
   45.4700  107.2540   12.5160 C   0  0  0  0  0
   46.0100  108.3550   11.8040 C   0  0  0  0  0
   45.6340  109.6670   12.1260 C   0  0  0  0  0
   44.6770  109.8640   13.1390 C   0  0  0  0  0
   44.1450  108.7710   13.8720 C   0  0  0  0  0
   44.5190  107.4630   13.5390 C   0  0  0  0  0
   46.7530  105.0630   13.0390 C   0  0  0  0  0
   47.8680  104.3430   12.5540 C   0  0  0  0  0
   48.6960  103.6210   13.4370 C   0  0  0  0  0
   48.4160  103.6130   14.8180 C   0  0  0  0  0
   47.3220  104.3420   15.3170 C   0  0  0  0  0
   46.4850  105.0490   14.4250 C   0  0  0  0  0
   35.2965  104.7514   13.4951 H   0  0  0  0  0
   33.7071  105.0619   12.7545 H   0  0  0  0  0
   34.7216  103.7255   12.1579 H   0  0  0  0  0
   35.1392  107.4457   12.8034 H   0  0  0  0  0
   36.2168  108.9847   11.1321 H   0  0  0  0  0
   36.7498  105.6710    8.4040 H   0  0  0  0  0
   35.6053  104.1797   10.0242 H   0  0  0  0  0
   38.4513  109.6712    9.9824 H   0  0  0  0  0
   40.0848  108.2576    7.9154 H   0  0  0  0  0
   40.7866  110.4826    9.8891 H   0  0  0  0  0
   40.5396  110.6631    8.1474 H   0  0  0  0  0
   42.8386  110.4665    8.7214 H   0  0  0  0  0
   42.3229  109.1188    7.7914 H   0  0  0  0  0
   42.8035  109.1547   10.6825 H   0  0  0  0  0
   43.9072  108.4826    9.4463 H   0  0  0  0  0
   42.1445  106.8161    8.7695 H   0  0  0  0  0
   40.0006  106.7136    9.7895 H   0  0  0  0  0
   40.4232  108.0434   10.9374 H   0  0  0  0  0
   44.3733  106.1752    9.6248 H   0  0  0  0  0
   45.0609  104.1918   10.8744 H   0  0  0  0  0
   43.9946  104.6953   12.2103 H   0  0  0  0  0
   46.5225  105.9774   11.2269 H   0  0  0  0  0
   46.7238  108.1799   10.9991 H   0  0  0  0  0
   46.0736  110.5162   11.6029 H   0  0  0  0  0
   44.3379  110.8750   13.3650 H   0  0  0  0  0
   43.4480  108.9490   14.6909 H   0  0  0  0  0
   44.0804  106.6146   14.0643 H   0  0  0  0  0
   48.0898  104.3460   11.4868 H   0  0  0  0  0
   49.5531  103.0687   13.0516 H   0  0  0  0  0
   49.0471  103.0420   15.4991 H   0  0  0  0  0
   47.1205  104.3616   16.3880 H   0  0  0  0  0
   45.6216  105.5904   14.8117 H   0  0  0  0  0
  1  2  1  0  0  0
  2  3  4  0  0  0
  2  7  4  0  0  0
  3  4  4  0  0  0
  4  5  4  0  0  0
  5  6  4  0  0  0
  5  8  1  0  0  0
  6  7  4  0  0  0
  8  9  2  0  0  0
  8 10  2  0  0  0
  8 11  1  0  0  0
 11 12  1  0  0  0
 12 13  1  0  0  0
 12 17  1  0  0  0
 13 14  1  0  0  0
 14 15  1  0  0  0
 15 16  1  0  0  0
 16 17  1  0  0  0
 16 18  1  0  0  0
 18 19  2  0  0  0
 18 20  1  0  0  0
 20 21  1  0  0  0
 21 22  1  0  0  0
 22 23  1  0  0  0
 22 29  1  0  0  0
 23 24  4  0  0  0
 23 28  4  0  0  0
 24 25  4  0  0  0
 25 26  4  0  0  0
 26 27  4  0  0  0
 27 28  4  0  0  0
 29 30  4  0  0  0
 29 34  4  0  0  0
 30 31  4  0  0  0
 31 32  4  0  0  0
 32 33  4  0  0  0
 33 34  4  0  0  0
  1 35  1  0  0  0
  1 36  1  0  0  0
  1 37  1  0  0  0
  3 38  1  0  0  0
  4 39  1  0  0  0
  6 40  1  0  0  0
  7 41  1  0  0  0
 11 42  1  0  0  0
 12 43  1  0  0  0
 13 44  1  0  0  0
 13 45  1  0  0  0
 14 46  1  0  0  0
 14 47  1  0  0  0
 15 48  1  0  0  0
 15 49  1  0  0  0
 16 50  1  0  0  0
 17 51  1  0  0  0
 17 52  1  0  0  0
 20 53  1  0  0  0
 21 54  1  0  0  0
 21 55  1  0  0  0
 22 56  1  0  0  0
 24 57  1  0  0  0
 25 58  1  0  0  0
 26 59  1  0  0  0
 27 60  1  0  0  0
 28 61  1  0  0  0
 30 62  1  0  0  0
 31 63  1  0  0  0
 32 64  1  0  0  0
 33 65  1  0  0  0
 34 66  1  0  0  0
M  END
$$$$
