### 
### Created by X-TOOL on Mon Sep 10 21:12:58 2018
### 

@<TRIPOS>MOLECULE
3bim_ligand
  251   255     1     0     0
SMALL
GAST_HUCK


@<TRIPOS>ATOM
      1 N         -73.9560  -31.6160  -50.4850 N.4       1 ARG         0.2379
      2 CA        -74.0790  -31.0080  -49.1230 C.3       1 ARG         0.0651
      3 C         -73.8900  -32.0490  -48.0210 C.2       1 ARG         0.2268
      4 O         -74.4650  -33.1400  -48.0890 O.2       1 ARG        -0.3907
      5 CB        -75.4340  -30.2940  -48.9860 C.3       1 ARG         0.0110
      6 CG        -75.6340  -29.4670  -47.7070 C.3       1 ARG        -0.0125
      7 CD        -77.0950  -29.0440  -47.5710 C.3       1 ARG         0.0629
      8 NE        -77.9670  -30.1730  -47.2170 N.pl3     1 ARG        -0.2723
      9 CZ        -78.6540  -30.9250  -48.0830 C.cat     1 ARG         0.2882
     10 NH1       -79.4040  -31.9250  -47.6380 N.pl3     1 ARG        -0.2849
     11 NH2       -78.5960  -30.6890  -49.3900 N.pl3     1 ARG        -0.2849
     12 N         -73.0800  -31.7080  -47.0160 N.am      1 SER        -0.2589
     13 CA        -72.8560  -32.5890  -45.8560 C.3       1 SER         0.1540
     14 C         -72.1320  -31.8740  -44.7000 C.2       1 SER         0.2062
     15 O         -71.1680  -31.1260  -44.9280 O.2       1 SER        -0.3943
     16 CB        -72.0900  -33.8650  -46.2710 C.3       1 SER         0.0843
     17 OG        -72.3510  -34.9420  -45.3510 O.3       1 SER        -0.3903
     18 N         -72.6020  -32.1230  -43.4710 N.am      1 GLU        -0.2636
     19 CA        -72.0420  -31.5010  -42.2490 C.3       1 GLU         0.1325
     20 C         -70.7320  -32.1500  -41.7540 C.2       1 GLU         0.2040
     21 O         -70.7420  -33.2590  -41.2160 O.2       1 GLU        -0.3944
     22 CB        -73.1050  -31.3930  -41.1210 C.3       1 GLU        -0.0008
     23 CG        -74.3690  -32.2870  -41.2710 C.3       1 GLU         0.0044
     24 CD        -74.3140  -33.6120  -40.4810 C.2       1 GLU         0.0350
     25 OE1       -75.3460  -34.3210  -40.4360 O.co2     1 GLU        -0.5690
     26 OE2       -73.2550  -33.9530  -39.9040 O.co2     1 GLU        -0.5690
     27 N         -69.6100  -31.4580  -41.9490 N.am      1 ILE        -0.2635
     28 CA        -68.2980  -31.9560  -41.5090 C.3       1 ILE         0.1335
     29 C         -67.7200  -31.1590  -40.3140 C.2       1 ILE         0.2042
     30 O         -68.0640  -29.9890  -40.1030 O.2       1 ILE        -0.3944
     31 CB        -67.2780  -32.0530  -42.7020 C.3       1 ILE        -0.0037
     32 CG1       -65.8460  -32.3930  -42.2280 C.3       1 ILE        -0.0491
     33 CG2       -67.2800  -30.7730  -43.5410 C.3       1 ILE        -0.0582
     34 CD1       -65.6140  -33.8620  -41.8060 C.3       1 ILE        -0.0648
     35 N         -66.8370  -31.8100  -39.5530 N.am      1 ILE        -0.2635
     36 CA        -66.2920  -31.2770  -38.3100 C.3       1 ILE         0.1335
     37 C         -64.8430  -30.8040  -38.4590 C.2       1 ILE         0.2042
     38 O         -64.0110  -31.5360  -38.9910 O.2       1 ILE        -0.3944
     39 CB        -66.4020  -32.3550  -37.2010 C.3       1 ILE        -0.0037
     40 CG1       -67.8340  -32.3740  -36.6250 C.3       1 ILE        -0.0491
     41 CG2       -65.3240  -32.1520  -36.1280 C.3       1 ILE        -0.0582
     42 CD1       -68.1810  -33.5740  -35.7540 C.3       1 ILE        -0.0648
     43 N         -64.5560  -29.5790  -37.9940 N.am      1 SER        -0.2616
     44 CA        -63.1800  -29.0390  -37.9240 C.3       1 SER         0.1539
     45 C         -62.7020  -28.7090  -36.5010 C.2       1 SER         0.2063
     46 O         -63.4200  -28.0970  -35.7080 O.2       1 SER        -0.3943
     47 CB        -63.0180  -27.8010  -38.7890 C.3       1 SER         0.0843
     48 OG        -61.7980  -27.1640  -38.4740 O.3       1 SER        -0.3903
     49 N         -61.4620  -29.1030  -36.2170 N.am      1 THR        -0.2613
     50 CA        -60.8600  -29.0320  -34.8910 C.3       1 THR         0.1565
     51 C         -59.9300  -27.8460  -34.8710 C.2       1 THR         0.2065
     52 O         -59.1600  -27.6550  -33.9200 O.2       1 THR        -0.3943
     53 CB        -60.0500  -30.3200  -34.6040 C.3       1 THR         0.0924
     54 OG1       -60.9460  -31.4320  -34.5560 O.3       1 THR        -0.3874
     55 CG2       -59.2920  -30.2460  -33.2680 C.3       1 THR        -0.0346
     56 N         -59.9980  -27.0540  -35.9320 N.am      1 ALA        -0.2639
     57 CA        -59.1350  -25.9010  -36.0720 C.3       1 ALA         0.1287
     58 C         -59.3470  -24.8520  -34.9350 C.2       1 ALA         0.2093
     59 O         -60.4840  -24.4220  -34.6680 O.2       1 ALA        -0.3939
     60 CB        -59.3410  -25.2890  -37.4410 C.3       1 ALA        -0.0244
     61 N         -58.2590  -24.4780  -34.2270 N.am      1 PRO        -0.2340
     62 CA        -58.3410  -23.3390  -33.3010 C.3       1 PRO         0.1522
     63 C         -58.3650  -22.0120  -34.0620 C.2       1 PRO         0.2124
     64 O         -57.8700  -21.9370  -35.1910 O.2       1 PRO        -0.3919
     65 CB        -57.0570  -23.4300  -32.4760 C.2       1 PRO        -0.0526
     66 CG        -56.2340  -24.5080  -33.0810 C.2       1 PRO        -0.0712
     67 CD        -56.9230  -25.0960  -34.2560 C.3       1 PRO         0.0563
     68 N         -58.9500  -20.9890  -33.4380 N.am      1 SER        -0.2602
     69 CA        -58.9930  -19.6370  -33.9850 C.3       1 SER         0.1540
     70 C         -57.5950  -19.0280  -33.9840 C.2       1 SER         0.2063
     71 O         -56.8580  -19.1740  -33.0070 O.2       1 SER        -0.3943
     72 CB        -59.9430  -18.7790  -33.1250 C.3       1 SER         0.0843
     73 OG        -59.6790  -17.3860  -33.2310 O.3       1 SER        -0.3903
     74 N         -57.2250  -18.3510  -35.0680 N.am      1 SER        -0.2615
     75 CA        -55.9540  -17.6180  -35.1330 C.3       1 SER         0.1539
     76 C         -56.0110  -16.3330  -34.3160 C.2       1 SER         0.2063
     77 O         -54.9720  -15.7400  -33.9650 O.2       1 SER        -0.3943
     78 CB        -55.6270  -17.2720  -36.5840 C.3       1 SER         0.0843
     79 OG        -56.7500  -16.6650  -37.2510 O.3       1 SER        -0.3903
     80 N         -57.2300  -15.8940  -34.0100 N.am      1 TRP        -0.2626
     81 CA        -57.4120  -14.6520  -33.2670 C.3       1 TRP         0.1352
     82 C         -57.4830  -14.8390  -31.7610 C.2       1 TRP         0.2052
     83 O         -58.4480  -15.4300  -31.2560 O.2       1 TRP        -0.3942
     84 CB        -58.6530  -13.8870  -33.7450 C.3       1 TRP         0.0042
     85 CG        -58.8340  -12.6670  -32.9440 C.2       1 TRP        -0.0418
     86 CD1       -59.9630  -12.2880  -32.2980 C.2       1 TRP         0.0167
     87 CD2       -57.8280  -11.6750  -32.6260 C.ar      1 TRP        -0.0214
     88 NE1       -59.7430  -11.1080  -31.6210 N.pl3     1 TRP        -0.2890
     89 CE2       -58.4440  -10.7120  -31.7920 C.ar      1 TRP         0.0603
     90 CE3       -56.4790  -11.5080  -32.9700 C.ar      1 TRP        -0.0747
     91 CZ2       -57.7680   -9.5880  -31.2980 C.ar      1 TRP        -0.0443
     92 CZ3       -55.7980  -10.3840  -32.4870 C.ar      1 TRP        -0.0792
     93 CH2       -56.4560   -9.4280  -31.6670 C.ar      1 TRP        -0.0768
     94 N         -56.4830  -14.3140  -31.0510 N.am      1 VAL        -0.2634
     95 CA        -56.4570  -14.3690  -29.5900 C.3       1 VAL         0.1333
     96 C         -56.2210  -12.9460  -29.0680 C.2       1 VAL         0.2042
     97 O         -55.2740  -12.2660  -29.4680 O.2       1 VAL        -0.3944
     98 CB        -55.3830  -15.3860  -29.0190 C.3       1 VAL        -0.0063
     99 CG1       -55.4120  -15.4150  -27.4970 C.3       1 VAL        -0.0584
    100 CG2       -55.5620  -16.8300  -29.5660 C.3       1 VAL        -0.0584
    101 N         -57.1210  -12.4800  -28.2090 N.am      1 VAL        -0.2635
    102 CA        -57.0390  -11.1240  -27.6880 C.3       1 VAL         0.1334
    103 C         -55.8330  -11.0800  -26.7690 C.2       1 VAL         0.2066
    104 O         -55.7000  -11.9220  -25.8600 O.2       1 VAL        -0.3942
    105 CB        -58.3440  -10.6960  -26.9180 C.3       1 VAL        -0.0062
    106 CG1       -58.1770   -9.3680  -26.2380 C.3       1 VAL        -0.0584
    107 CG2       -59.5180  -10.6400  -27.8530 C.3       1 VAL        -0.0584
    108 N         -54.9330  -10.1270  -27.0120 N.am      1 PRO        -0.2498
    109 CA        -53.7530   -9.9340  -26.1850 C.3       1 PRO         0.1338
    110 C         -54.0720   -9.7030  -24.6770 C.2       1 PRO         0.2039
    111 O         -55.2390   -9.4920  -24.2930 O.2       1 PRO        -0.3944
    112 CB        -53.1220   -8.6850  -26.8010 C.3       1 PRO        -0.0104
    113 CG        -53.6010   -8.6690  -28.2220 C.3       1 PRO        -0.0281
    114 CD        -54.9920   -9.1750  -28.1340 C.3       1 PRO         0.0369
    115 N         -53.0410   -9.7480  -23.8230 N.am      1 GLY        -0.2664
    116 CA        -53.1780   -9.3160  -22.4090 C.3       1 GLY         0.1203
    117 C         -52.2810   -8.1420  -21.9360 C.2       1 GLY         0.2027
    118 O         -52.3000   -7.8080  -20.7170 O.2       1 GLY        -0.3945
    119 N         -51.5390   -7.4680  -22.8830 N.am      1 PRO        -0.2558
    120 CA        -50.3310   -6.6630  -22.5560 C.3       1 PRO         0.0972
    121 C         -50.5760   -5.3840  -21.7350 C.2       1 PRO         0.0603
    122 O         -51.6930   -4.8600  -21.5730 O.co2     1 PRO        -0.5666
    123 CB        -49.7420   -6.3050  -23.9480 C.3       1 PRO        -0.0159
    124 CG        -50.9310   -6.2470  -24.8640 C.3       1 PRO        -0.0288
    125 CD        -51.8490   -7.3680  -24.3330 C.3       1 PRO         0.0362
    126 OXT       -49.5960   -4.8450  -21.2090 O.co2     1 PRO        -0.5666
    127 H         -73.0547  -32.0867  -50.5658 H         1 ARG         0.2015
    128 H         -74.7075  -32.2917  -50.6235 H         1 ARG         0.2015
    129 H         -74.0223  -30.8825  -51.1907 H         1 ARG         0.2015
    130 H         -73.2827  -30.2730  -49.0055 H         1 ARG         0.1098
    131 H         -76.1917  -31.0773  -48.9653 H         1 ARG         0.0347
    132 H         -75.4949  -29.5914  -49.8171 H         1 ARG         0.0347
    133 H         -75.0092  -28.5754  -47.7589 H         1 ARG         0.0302
    134 H         -75.3579  -30.0738  -46.8446 H         1 ARG         0.0302
    135 H         -77.4250  -28.6477  -48.5313 H         1 ARG         0.0689
    136 H         -77.1612  -28.3011  -46.7761 H         1 ARG         0.0689
    137 H         -78.0555  -30.4021  -46.2270 H         1 ARG         0.2642
    138 H         -79.4552  -32.1182  -46.6378 H         1 ARG         0.2615
    139 H         -79.9293  -32.5006  -48.2961 H         1 ARG         0.2615
    140 H         -78.0212  -29.9249  -49.7453 H         1 ARG         0.2615
    141 H         -79.1262  -31.2720  -50.0375 H         1 ARG         0.2615
    142 H         -72.6006  -30.8084  -47.0522 H         1 SER         0.1885
    143 H         -73.8409  -32.8748  -45.4868 H         1 SER         0.0823
    144 H         -71.0214  -33.6501  -46.2657 H         1 SER         0.0606
    145 H         -72.4207  -34.1650  -47.2654 H         1 SER         0.0606
    146 H         -71.8658  -35.7227  -45.6280 H         1 SER         0.2097
    147 H         -73.3827  -32.7718  -43.3717 H         1 GLU         0.1883
    148 H         -71.7616  -30.4887  -42.5401 H         1 GLU         0.0801
    149 H         -73.4601  -30.3626  -41.1385 H         1 GLU         0.0330
    150 H         -72.6098  -31.7211  -40.2071 H         1 GLU         0.0330
    151 H         -74.4515  -32.5481  -42.3261 H         1 GLU         0.0433
    152 H         -75.2111  -31.7168  -40.8789 H         1 GLU         0.0433
    153 H         -69.6628  -30.5540  -42.4184 H         1 ILE         0.1883
    154 H         -68.4641  -32.9692  -41.1430 H         1 ILE         0.0803
    155 H         -67.6139  -32.8777  -43.3307 H         1 ILE         0.0345
    156 H         -65.6595  -31.7835  -41.3438 H         1 ILE         0.0267
    157 H         -65.1866  -32.2064  -43.0756 H         1 ILE         0.0267
    158 H         -68.2773  -30.6092  -43.9492 H         1 ILE         0.0235
    159 H         -66.9999  -29.9277  -42.9125 H         1 ILE         0.0235
    160 H         -66.5642  -30.8737  -44.3568 H         1 ILE         0.0235
    161 H         -66.2788  -34.1103  -40.9787 H         1 ILE         0.0230
    162 H         -65.8222  -34.5186  -42.6508 H         1 ILE         0.0230
    163 H         -64.5780  -33.9892  -41.4921 H         1 ILE         0.0230
    164 H         -66.5261  -32.7322  -39.8584 H         1 ILE         0.1883
    165 H         -66.8773  -30.3992  -38.0363 H         1 ILE         0.0803
    166 H         -66.2159  -33.3387  -37.6320 H         1 ILE         0.0345
    167 H         -68.5096  -32.4079  -37.4797 H         1 ILE         0.0267
    168 H         -67.9212  -31.4946  -35.9870 H         1 ILE         0.0267
    169 H         -64.3381  -32.2217  -36.5876 H         1 ILE         0.0235
    170 H         -65.4459  -31.1687  -35.6738 H         1 ILE         0.0235
    171 H         -65.4250  -32.9220  -35.3631 H         1 ILE         0.0235
    172 H         -68.0742  -34.4882  -36.3379 H         1 ILE         0.0230
    173 H         -67.5068  -33.6072  -34.8982 H         1 ILE         0.0230
    174 H         -69.2094  -33.4825  -35.4047 H         1 ILE         0.0230
    175 H         -65.3245  -28.9903  -37.6726 H         1 SER         0.1884
    176 H         -62.5558  -29.8493  -38.3007 H         1 SER         0.0823
    177 H         -63.8448  -27.1159  -38.6018 H         1 SER         0.0606
    178 H         -63.0168  -28.0895  -39.8401 H         1 SER         0.0606
    179 H         -61.6962  -26.3817  -39.0210 H         1 SER         0.2097
    180 H         -60.8959  -29.4794  -36.9775 H         1 THR         0.1884
    181 H         -61.6362  -28.9320  -34.1323 H         1 THR         0.0826
    182 H         -59.3174  -30.4334  -35.4031 H         1 THR         0.0639
    183 H         -60.4495  -32.2342  -34.3783 H         1 THR         0.2101
    184 H         -58.5965  -29.4070  -33.2923 H         1 THR         0.0257
    185 H         -60.0043  -30.1057  -32.4549 H         1 THR         0.0257
    186 H         -58.7398  -31.1730  -33.1132 H         1 THR         0.0257
    187 H         -60.6743  -27.2622  -36.6666 H         1 ALA         0.1883
    188 H         -58.1013  -26.2335  -35.9773 H         1 ALA         0.0797
    189 H         -59.0967  -26.0249  -38.2071 H         1 ALA         0.0277
    190 H         -60.3817  -24.9831  -37.5480 H         1 ALA         0.0277
    191 H         -58.6924  -24.4198  -37.5504 H         1 ALA         0.0277
    192 H         -59.2470  -23.3731  -32.6959 H         1 PRO         0.0924
    193 H         -56.7960  -22.8210  -31.6105 H         1 PRO         0.0494
    194 H         -55.2580  -24.8238  -32.7125 H         1 PRO         0.0482
    195 H         -56.3946  -24.8975  -35.1885 H         1 PRO         0.0653
    196 H         -56.9685  -26.1840  -34.2082 H         1 PRO         0.0653
    197 H         -59.3892  -21.1601  -32.5334 H         1 SER         0.1885
    198 H         -59.3565  -19.6691  -35.0121 H         1 SER         0.0823
    199 H         -59.8002  -19.0666  -32.0834 H         1 SER         0.0606
    200 H         -60.9596  -18.9529  -33.4775 H         1 SER         0.0606
    201 H         -58.7811  -17.2087  -32.9414 H         1 SER         0.2097
    202 H         -57.8433  -18.3408  -35.8791 H         1 SER         0.1884
    203 H         -55.1784  -18.2608  -34.7166 H         1 SER         0.0823
    204 H         -55.3720  -18.1930  -37.1083 H         1 SER         0.0606
    205 H         -54.7987  -16.5635  -36.5906 H         1 SER         0.0606
    206 H         -57.4921  -17.2739  -37.2442 H         1 SER         0.2097
    207 H         -58.0466  -16.4327  -34.2986 H         1 TRP         0.1884
    208 H         -56.5155  -14.0682  -33.4760 H         1 TRP         0.0815
    209 H         -59.5310  -14.5229  -33.6317 H         1 TRP         0.0397
    210 H         -58.5226  -13.6118  -34.7916 H         1 TRP         0.0397
    211 H         -60.9056  -12.8353  -32.3117 H         1 TRP         0.0795
    212 H         -60.4427  -10.6055  -31.0748 H         1 TRP         0.2216
    213 H         -55.9711  -12.2380  -33.6003 H         1 TRP         0.0540
    214 H         -58.2649   -8.8692  -30.6464 H         1 TRP         0.0541
    215 H         -54.7484  -10.2403  -32.7436 H         1 TRP         0.0510
    216 H         -55.9078   -8.5504  -31.3244 H         1 TRP         0.0530
    217 H         -55.7129  -13.8603  -31.5424 H         1 VAL         0.1883
    218 H         -57.4155  -14.7505  -29.2380 H         1 VAL         0.0802
    219 H         -54.4151  -15.0204  -29.3620 H         1 VAL         0.0343
    220 H         -55.1906  -14.4197  -27.1116 H         1 VAL         0.0234
    221 H         -56.4010  -15.7249  -27.1596 H         1 VAL         0.0234
    222 H         -54.6651  -16.1210  -27.1340 H         1 VAL         0.0234
    223 H         -56.5492  -17.2015  -29.2912 H         1 VAL         0.0234
    224 H         -55.4652  -16.8205  -30.6517 H         1 VAL         0.0234
    225 H         -54.7967  -17.4770  -29.1373 H         1 VAL         0.0234
    226 H         -57.8851  -13.0852  -27.9086 H         1 VAL         0.1883
    227 H         -56.9382  -10.4179  -28.5123 H         1 VAL         0.0803
    228 H         -58.5279  -11.4507  -26.1533 H         1 VAL         0.0343
    229 H         -57.3588   -9.4290  -25.5204 H         1 VAL         0.0234
    230 H         -57.9520   -8.6053  -26.9835 H         1 VAL         0.0234
    231 H         -59.0994   -9.1089  -25.7182 H         1 VAL         0.0234
    232 H         -59.3190   -9.9136  -28.6410 H         1 VAL         0.0234
    233 H         -59.6759  -11.6237  -28.2953 H         1 VAL         0.0234
    234 H         -60.4082  -10.3422  -27.2990 H         1 VAL         0.0234
    235 H         -53.1131  -10.8164  -26.1805 H         1 PRO         0.0802
    236 H         -52.0339   -8.7109  -26.7417 H         1 PRO         0.0313
    237 H         -53.4121   -7.7803  -26.2666 H         1 PRO         0.0313
    238 H         -52.9785   -9.2797  -28.8760 H         1 PRO         0.0287
    239 H         -53.5491   -7.6747  -28.6656 H         1 PRO         0.0287
    240 H         -55.7195   -8.3795  -27.9728 H         1 PRO         0.0524
    241 H         -55.3307   -9.6378  -29.0609 H         1 PRO         0.0524
    242 H         -52.1377  -10.0881  -24.1528 H         1 GLY         0.1881
    243 H         -52.8823  -10.1753  -21.8071 H         1 GLY         0.0763
    244 H         -54.2045   -8.9644  -22.3052 H         1 GLY         0.0763
    245 H         -49.6728   -7.2417  -21.9080 H         1 PRO         0.0728
    246 H         -49.0093   -7.0405  -24.2801 H         1 PRO         0.0306
    247 H         -49.1985   -5.3604  -23.9280 H         1 PRO         0.0306
    248 H         -50.6600   -6.3890  -25.9102 H         1 PRO         0.0286
    249 H         -51.4164   -5.2711  -24.8576 H         1 PRO         0.0286
    250 H         -52.9014   -7.1427  -24.5055 H         1 PRO         0.0524
    251 H         -51.6724   -8.3118  -24.8489 H         1 PRO         0.0524
@<TRIPOS>BOND
     1    1    2 1  
     2    2    3 1  
     3    2    5 1  
     4    3    4 2  
     5    3   12 am 
     6    5    6 1  
     7    6    7 1  
     8    7    8 1  
     9    8    9 ar 
    10    9   10 ar 
    11    9   11 ar 
    12   12   13 1  
    13   13   14 1  
    14   13   16 1  
    15   14   15 2  
    16   14   18 am 
    17   16   17 1  
    18   18   19 1  
    19   19   20 1  
    20   19   22 1  
    21   20   21 2  
    22   20   27 am 
    23   22   23 1  
    24   23   24 1  
    25   24   25 ar 
    26   24   26 ar 
    27   27   28 1  
    28   28   29 1  
    29   28   31 1  
    30   29   30 2  
    31   29   35 am 
    32   31   32 1  
    33   31   33 1  
    34   32   34 1  
    35   35   36 1  
    36   36   37 1  
    37   36   39 1  
    38   37   38 2  
    39   37   43 am 
    40   39   40 1  
    41   39   41 1  
    42   40   42 1  
    43   43   44 1  
    44   44   45 1  
    45   44   47 1  
    46   45   46 2  
    47   45   49 am 
    48   47   48 1  
    49   49   50 1  
    50   50   51 1  
    51   50   53 1  
    52   51   52 2  
    53   51   56 am 
    54   53   54 1  
    55   53   55 1  
    56   56   57 1  
    57   57   58 1  
    58   57   60 1  
    59   58   59 2  
    60   58   61 am 
    61   61   62 1  
    62   61   67 1  
    63   62   63 1  
    64   62   65 1  
    65   63   64 2  
    66   63   68 am 
    67   65   66 2  
    68   66   67 1  
    69   68   69 1  
    70   69   70 1  
    71   69   72 1  
    72   70   71 2  
    73   70   74 am 
    74   72   73 1  
    75   74   75 1  
    76   75   76 1  
    77   75   78 1  
    78   76   77 2  
    79   76   80 am 
    80   78   79 1  
    81   80   81 1  
    82   81   82 1  
    83   81   84 1  
    84   82   83 2  
    85   82   94 am 
    86   84   85 1  
    87   85   86 2  
    88   85   87 1  
    89   86   88 1  
    90   87   89 ar 
    91   87   90 ar 
    92   88   89 1  
    93   89   91 ar 
    94   90   92 ar 
    95   91   93 ar 
    96   92   93 ar 
    97   94   95 1  
    98   95   96 1  
    99   95   98 1  
   100   96   97 2  
   101   96  101 am 
   102   98   99 1  
   103   98  100 1  
   104  101  102 1  
   105  102  103 1  
   106  102  105 1  
   107  103  104 2  
   108  103  108 am 
   109  105  106 1  
   110  105  107 1  
   111  108  109 1  
   112  108  114 1  
   113  109  110 1  
   114  109  112 1  
   115  110  111 2  
   116  110  115 am 
   117  112  113 1  
   118  113  114 1  
   119  115  116 1  
   120  116  117 1  
   121  117  118 2  
   122  117  119 am 
   123  119  120 1  
   124  119  125 1  
   125  120  121 1  
   126  120  123 1  
   127  121  122 ar 
   128  121  126 ar 
   129  123  124 1  
   130  124  125 1  
   131    1  127 1  
   132    1  128 1  
   133    1  129 1  
   134    2  130 1  
   135    5  131 1  
   136    5  132 1  
   137    6  133 1  
   138    6  134 1  
   139    7  135 1  
   140    7  136 1  
   141    8  137 1  
   142   10  138 1  
   143   10  139 1  
   144   11  140 1  
   145   11  141 1  
   146   12  142 1  
   147   13  143 1  
   148   16  144 1  
   149   16  145 1  
   150   17  146 1  
   151   18  147 1  
   152   19  148 1  
   153   22  149 1  
   154   22  150 1  
   155   23  151 1  
   156   23  152 1  
   157   27  153 1  
   158   28  154 1  
   159   31  155 1  
   160   32  156 1  
   161   32  157 1  
   162   33  158 1  
   163   33  159 1  
   164   33  160 1  
   165   34  161 1  
   166   34  162 1  
   167   34  163 1  
   168   35  164 1  
   169   36  165 1  
   170   39  166 1  
   171   40  167 1  
   172   40  168 1  
   173   41  169 1  
   174   41  170 1  
   175   41  171 1  
   176   42  172 1  
   177   42  173 1  
   178   42  174 1  
   179   43  175 1  
   180   44  176 1  
   181   47  177 1  
   182   47  178 1  
   183   48  179 1  
   184   49  180 1  
   185   50  181 1  
   186   53  182 1  
   187   54  183 1  
   188   55  184 1  
   189   55  185 1  
   190   55  186 1  
   191   56  187 1  
   192   57  188 1  
   193   60  189 1  
   194   60  190 1  
   195   60  191 1  
   196   62  192 1  
   197   65  193 1  
   198   66  194 1  
   199   67  195 1  
   200   67  196 1  
   201   68  197 1  
   202   69  198 1  
   203   72  199 1  
   204   72  200 1  
   205   73  201 1  
   206   74  202 1  
   207   75  203 1  
   208   78  204 1  
   209   78  205 1  
   210   79  206 1  
   211   80  207 1  
   212   81  208 1  
   213   84  209 1  
   214   84  210 1  
   215   86  211 1  
   216   88  212 1  
   217   90  213 1  
   218   91  214 1  
   219   92  215 1  
   220   93  216 1  
   221   94  217 1  
   222   95  218 1  
   223   98  219 1  
   224   99  220 1  
   225   99  221 1  
   226   99  222 1  
   227  100  223 1  
   228  100  224 1  
   229  100  225 1  
   230  101  226 1  
   231  102  227 1  
   232  105  228 1  
   233  106  229 1  
   234  106  230 1  
   235  106  231 1  
   236  107  232 1  
   237  107  233 1  
   238  107  234 1  
   239  109  235 1  
   240  112  236 1  
   241  112  237 1  
   242  113  238 1  
   243  113  239 1  
   244  114  240 1  
   245  114  241 1  
   246  115  242 1  
   247  116  243 1  
   248  116  244 1  
   249  120  245 1  
   250  123  246 1  
   251  123  247 1  
   252  124  248 1  
   253  124  249 1  
   254  125  250 1  
   255  125  251 1  
@<TRIPOS>SUBSTRUCTURE
     1 ARG         1

