3bim_ligand
  -I-interpret- 

251255  0  0  0  0  0  0  0  0999 V2000
  -73.9560  -31.6160  -50.4850 N   0  3  0  0  0
  -74.0790  -31.0080  -49.1230 C   0  0  0  0  0
  -73.8900  -32.0490  -48.0210 C   0  0  0  0  0
  -74.4650  -33.1400  -48.0890 O   0  0  0  0  0
  -75.4340  -30.2940  -48.9860 C   0  0  0  0  0
  -75.6340  -29.4670  -47.7070 C   0  0  0  0  0
  -77.0950  -29.0440  -47.5710 C   0  0  0  0  0
  -77.9670  -30.1730  -47.2170 N   0  0  0  0  0
  -78.6540  -30.9250  -48.0830 C   0  0  0  0  0
  -79.4040  -31.9250  -47.6380 N   0  0  0  0  0
  -78.5960  -30.6890  -49.3900 N   0  0  0  0  0
  -73.0800  -31.7080  -47.0160 N   0  0  0  0  0
  -72.8560  -32.5890  -45.8560 C   0  0  0  0  0
  -72.1320  -31.8740  -44.7000 C   0  0  0  0  0
  -71.1680  -31.1260  -44.9280 O   0  0  0  0  0
  -72.0900  -33.8650  -46.2710 C   0  0  0  0  0
  -72.3510  -34.9420  -45.3510 O   0  0  0  0  0
  -72.6020  -32.1230  -43.4710 N   0  0  0  0  0
  -72.0420  -31.5010  -42.2490 C   0  0  0  0  0
  -70.7320  -32.1500  -41.7540 C   0  0  0  0  0
  -70.7420  -33.2590  -41.2160 O   0  0  0  0  0
  -73.1050  -31.3930  -41.1210 C   0  0  0  0  0
  -74.3690  -32.2870  -41.2710 C   0  0  0  0  0
  -74.3140  -33.6120  -40.4810 C   0  0  0  0  0
  -75.3460  -34.3210  -40.4360 O   0  0  0  0  0
  -73.2550  -33.9530  -39.9040 O   0  0  0  0  0
  -69.6100  -31.4580  -41.9490 N   0  0  0  0  0
  -68.2980  -31.9560  -41.5090 C   0  0  0  0  0
  -67.7200  -31.1590  -40.3140 C   0  0  0  0  0
  -68.0640  -29.9890  -40.1030 O   0  0  0  0  0
  -67.2780  -32.0530  -42.7020 C   0  0  0  0  0
  -65.8460  -32.3930  -42.2280 C   0  0  0  0  0
  -67.2800  -30.7730  -43.5410 C   0  0  0  0  0
  -65.6140  -33.8620  -41.8060 C   0  0  0  0  0
  -66.8370  -31.8100  -39.5530 N   0  0  0  0  0
  -66.2920  -31.2770  -38.3100 C   0  0  0  0  0
  -64.8430  -30.8040  -38.4590 C   0  0  0  0  0
  -64.0110  -31.5360  -38.9910 O   0  0  0  0  0
  -66.4020  -32.3550  -37.2010 C   0  0  0  0  0
  -67.8340  -32.3740  -36.6250 C   0  0  0  0  0
  -65.3240  -32.1520  -36.1280 C   0  0  0  0  0
  -68.1810  -33.5740  -35.7540 C   0  0  0  0  0
  -64.5560  -29.5790  -37.9940 N   0  0  0  0  0
  -63.1800  -29.0390  -37.9240 C   0  0  0  0  0
  -62.7020  -28.7090  -36.5010 C   0  0  0  0  0
  -63.4200  -28.0970  -35.7080 O   0  0  0  0  0
  -63.0180  -27.8010  -38.7890 C   0  0  0  0  0
  -61.7980  -27.1640  -38.4740 O   0  0  0  0  0
  -61.4620  -29.1030  -36.2170 N   0  0  0  0  0
  -60.8600  -29.0320  -34.8910 C   0  0  0  0  0
  -59.9300  -27.8460  -34.8710 C   0  0  0  0  0
  -59.1600  -27.6550  -33.9200 O   0  0  0  0  0
  -60.0500  -30.3200  -34.6040 C   0  0  0  0  0
  -60.9460  -31.4320  -34.5560 O   0  0  0  0  0
  -59.2920  -30.2460  -33.2680 C   0  0  0  0  0
  -59.9980  -27.0540  -35.9320 N   0  0  0  0  0
  -59.1350  -25.9010  -36.0720 C   0  0  0  0  0
  -59.3470  -24.8520  -34.9350 C   0  0  0  0  0
  -60.4840  -24.4220  -34.6680 O   0  0  0  0  0
  -59.3410  -25.2890  -37.4410 C   0  0  0  0  0
  -58.2590  -24.4780  -34.2270 N   0  0  0  0  0
  -58.3410  -23.3390  -33.3010 C   0  0  0  0  0
  -58.3650  -22.0120  -34.0620 C   0  0  0  0  0
  -57.8700  -21.9370  -35.1910 O   0  0  0  0  0
  -57.0570  -23.4300  -32.4760 C   0  0  0  0  0
  -56.2340  -24.5080  -33.0810 C   0  0  0  0  0
  -56.9230  -25.0960  -34.2560 C   0  0  0  0  0
  -58.9500  -20.9890  -33.4380 N   0  0  0  0  0
  -58.9930  -19.6370  -33.9850 C   0  0  0  0  0
  -57.5950  -19.0280  -33.9840 C   0  0  0  0  0
  -56.8580  -19.1740  -33.0070 O   0  0  0  0  0
  -59.9430  -18.7790  -33.1250 C   0  0  0  0  0
  -59.6790  -17.3860  -33.2310 O   0  0  0  0  0
  -57.2250  -18.3510  -35.0680 N   0  0  0  0  0
  -55.9540  -17.6180  -35.1330 C   0  0  0  0  0
  -56.0110  -16.3330  -34.3160 C   0  0  0  0  0
  -54.9720  -15.7400  -33.9650 O   0  0  0  0  0
  -55.6270  -17.2720  -36.5840 C   0  0  0  0  0
  -56.7500  -16.6650  -37.2510 O   0  0  0  0  0
  -57.2300  -15.8940  -34.0100 N   0  0  0  0  0
  -57.4120  -14.6520  -33.2670 C   0  0  0  0  0
  -57.4830  -14.8390  -31.7610 C   0  0  0  0  0
  -58.4480  -15.4300  -31.2560 O   0  0  0  0  0
  -58.6530  -13.8870  -33.7450 C   0  0  0  0  0
  -58.8340  -12.6670  -32.9440 C   0  0  0  0  0
  -59.9630  -12.2880  -32.2980 C   0  0  0  0  0
  -57.8280  -11.6750  -32.6260 C   0  0  0  0  0
  -59.7430  -11.1080  -31.6210 N   0  0  0  0  0
  -58.4440  -10.7120  -31.7920 C   0  0  0  0  0
  -56.4790  -11.5080  -32.9700 C   0  0  0  0  0
  -57.7680   -9.5880  -31.2980 C   0  0  0  0  0
  -55.7980  -10.3840  -32.4870 C   0  0  0  0  0
  -56.4560   -9.4280  -31.6670 C   0  0  0  0  0
  -56.4830  -14.3140  -31.0510 N   0  0  0  0  0
  -56.4570  -14.3690  -29.5900 C   0  0  0  0  0
  -56.2210  -12.9460  -29.0680 C   0  0  0  0  0
  -55.2740  -12.2660  -29.4680 O   0  0  0  0  0
  -55.3830  -15.3860  -29.0190 C   0  0  0  0  0
  -55.4120  -15.4150  -27.4970 C   0  0  0  0  0
  -55.5620  -16.8300  -29.5660 C   0  0  0  0  0
  -57.1210  -12.4800  -28.2090 N   0  0  0  0  0
  -57.0390  -11.1240  -27.6880 C   0  0  0  0  0
  -55.8330  -11.0800  -26.7690 C   0  0  0  0  0
  -55.7000  -11.9220  -25.8600 O   0  0  0  0  0
  -58.3440  -10.6960  -26.9180 C   0  0  0  0  0
  -58.1770   -9.3680  -26.2380 C   0  0  0  0  0
  -59.5180  -10.6400  -27.8530 C   0  0  0  0  0
  -54.9330  -10.1270  -27.0120 N   0  0  0  0  0
  -53.7530   -9.9340  -26.1850 C   0  0  0  0  0
  -54.0720   -9.7030  -24.6770 C   0  0  0  0  0
  -55.2390   -9.4920  -24.2930 O   0  0  0  0  0
  -53.1220   -8.6850  -26.8010 C   0  0  0  0  0
  -53.6010   -8.6690  -28.2220 C   0  0  0  0  0
  -54.9920   -9.1750  -28.1340 C   0  0  0  0  0
  -53.0410   -9.7480  -23.8230 N   0  0  0  0  0
  -53.1780   -9.3160  -22.4090 C   0  0  0  0  0
  -52.2810   -8.1420  -21.9360 C   0  0  0  0  0
  -52.3000   -7.8080  -20.7170 O   0  0  0  0  0
  -51.5390   -7.4680  -22.8830 N   0  0  0  0  0
  -50.3310   -6.6630  -22.5560 C   0  0  0  0  0
  -50.5760   -5.3840  -21.7350 C   0  0  0  0  0
  -51.6930   -4.8600  -21.5730 O   0  0  0  0  0
  -49.7420   -6.3050  -23.9480 C   0  0  0  0  0
  -50.9310   -6.2470  -24.8640 C   0  0  0  0  0
  -51.8490   -7.3680  -24.3330 C   0  0  0  0  0
  -49.5960   -4.8450  -21.2090 O   0  0  0  0  0
  -73.0547  -32.0867  -50.5658 H   0  0  0  0  0
  -74.7075  -32.2917  -50.6235 H   0  0  0  0  0
  -74.0223  -30.8825  -51.1907 H   0  0  0  0  0
  -73.2827  -30.2730  -49.0055 H   0  0  0  0  0
  -76.1917  -31.0773  -48.9653 H   0  0  0  0  0
  -75.4949  -29.5914  -49.8171 H   0  0  0  0  0
  -75.0092  -28.5754  -47.7589 H   0  0  0  0  0
  -75.3579  -30.0738  -46.8446 H   0  0  0  0  0
  -77.4250  -28.6477  -48.5313 H   0  0  0  0  0
  -77.1612  -28.3011  -46.7761 H   0  0  0  0  0
  -78.0555  -30.4021  -46.2270 H   0  0  0  0  0
  -79.4552  -32.1182  -46.6378 H   0  0  0  0  0
  -79.1243  -31.2736  -50.0377 H   0  0  0  0  0
  -78.0232  -29.9234  -49.7451 H   0  0  0  0  0
  -72.6006  -30.8084  -47.0522 H   0  0  0  0  0
  -73.8409  -32.8748  -45.4868 H   0  0  0  0  0
  -71.0214  -33.6501  -46.2657 H   0  0  0  0  0
  -72.4207  -34.1650  -47.2654 H   0  0  0  0  0
  -71.8658  -35.7227  -45.6280 H   0  0  0  0  0
  -73.3827  -32.7718  -43.3717 H   0  0  0  0  0
  -71.7616  -30.4887  -42.5401 H   0  0  0  0  0
  -73.4601  -30.3626  -41.1385 H   0  0  0  0  0
  -72.6098  -31.7211  -40.2071 H   0  0  0  0  0
  -74.4515  -32.5481  -42.3261 H   0  0  0  0  0
  -75.2111  -31.7168  -40.8789 H   0  0  0  0  0
  -72.5815  -33.2853  -40.0529 H   0  0  0  0  0
  -69.6628  -30.5540  -42.4184 H   0  0  0  0  0
  -68.4641  -32.9692  -41.1430 H   0  0  0  0  0
  -67.6139  -32.8777  -43.3307 H   0  0  0  0  0
  -65.6595  -31.7835  -41.3438 H   0  0  0  0  0
  -65.1866  -32.2064  -43.0756 H   0  0  0  0  0
  -68.2773  -30.6092  -43.9492 H   0  0  0  0  0
  -66.9999  -29.9277  -42.9125 H   0  0  0  0  0
  -66.5642  -30.8737  -44.3568 H   0  0  0  0  0
  -66.2788  -34.1103  -40.9787 H   0  0  0  0  0
  -65.8222  -34.5186  -42.6508 H   0  0  0  0  0
  -64.5780  -33.9892  -41.4921 H   0  0  0  0  0
  -66.5261  -32.7322  -39.8584 H   0  0  0  0  0
  -66.8773  -30.3992  -38.0363 H   0  0  0  0  0
  -66.2159  -33.3387  -37.6320 H   0  0  0  0  0
  -68.5096  -32.4079  -37.4797 H   0  0  0  0  0
  -67.9212  -31.4946  -35.9870 H   0  0  0  0  0
  -64.3381  -32.2217  -36.5876 H   0  0  0  0  0
  -65.4459  -31.1687  -35.6738 H   0  0  0  0  0
  -65.4250  -32.9220  -35.3631 H   0  0  0  0  0
  -68.0742  -34.4882  -36.3379 H   0  0  0  0  0
  -67.5068  -33.6072  -34.8982 H   0  0  0  0  0
  -69.2094  -33.4825  -35.4047 H   0  0  0  0  0
  -65.3245  -28.9903  -37.6726 H   0  0  0  0  0
  -62.5558  -29.8493  -38.3007 H   0  0  0  0  0
  -63.8448  -27.1159  -38.6018 H   0  0  0  0  0
  -63.0168  -28.0895  -39.8401 H   0  0  0  0  0
  -61.6962  -26.3817  -39.0210 H   0  0  0  0  0
  -60.8959  -29.4794  -36.9775 H   0  0  0  0  0
  -61.6362  -28.9320  -34.1323 H   0  0  0  0  0
  -59.3174  -30.4334  -35.4031 H   0  0  0  0  0
  -60.4495  -32.2342  -34.3783 H   0  0  0  0  0
  -58.5965  -29.4070  -33.2923 H   0  0  0  0  0
  -60.0043  -30.1057  -32.4549 H   0  0  0  0  0
  -58.7398  -31.1730  -33.1132 H   0  0  0  0  0
  -60.6743  -27.2622  -36.6666 H   0  0  0  0  0
  -58.1013  -26.2335  -35.9773 H   0  0  0  0  0
  -59.0967  -26.0249  -38.2071 H   0  0  0  0  0
  -60.3817  -24.9831  -37.5480 H   0  0  0  0  0
  -58.6924  -24.4198  -37.5504 H   0  0  0  0  0
  -59.2470  -23.3731  -32.6959 H   0  0  0  0  0
  -56.7960  -22.8210  -31.6105 H   0  0  0  0  0
  -55.2580  -24.8238  -32.7125 H   0  0  0  0  0
  -56.3946  -24.8975  -35.1885 H   0  0  0  0  0
  -56.9685  -26.1840  -34.2082 H   0  0  0  0  0
  -59.3892  -21.1601  -32.5334 H   0  0  0  0  0
  -59.3565  -19.6691  -35.0121 H   0  0  0  0  0
  -59.8002  -19.0666  -32.0834 H   0  0  0  0  0
  -60.9596  -18.9529  -33.4775 H   0  0  0  0  0
  -60.2963  -16.9015  -32.6781 H   0  0  0  0  0
  -57.8433  -18.3408  -35.8791 H   0  0  0  0  0
  -55.1784  -18.2608  -34.7166 H   0  0  0  0  0
  -55.3720  -18.1930  -37.1083 H   0  0  0  0  0
  -54.7987  -16.5635  -36.5906 H   0  0  0  0  0
  -56.5101  -16.4612  -38.1579 H   0  0  0  0  0
  -58.0466  -16.4327  -34.2986 H   0  0  0  0  0
  -56.5155  -14.0682  -33.4760 H   0  0  0  0  0
  -59.5310  -14.5229  -33.6317 H   0  0  0  0  0
  -58.5226  -13.6118  -34.7916 H   0  0  0  0  0
  -60.9056  -12.8353  -32.3117 H   0  0  0  0  0
  -55.9711  -12.2380  -33.6003 H   0  0  0  0  0
  -58.2649   -8.8692  -30.6464 H   0  0  0  0  0
  -54.7484  -10.2403  -32.7436 H   0  0  0  0  0
  -55.9078   -8.5504  -31.3244 H   0  0  0  0  0
  -55.7129  -13.8603  -31.5424 H   0  0  0  0  0
  -57.4155  -14.7505  -29.2380 H   0  0  0  0  0
  -54.4151  -15.0204  -29.3620 H   0  0  0  0  0
  -55.1906  -14.4197  -27.1116 H   0  0  0  0  0
  -56.4010  -15.7249  -27.1596 H   0  0  0  0  0
  -54.6651  -16.1210  -27.1340 H   0  0  0  0  0
  -56.5492  -17.2015  -29.2912 H   0  0  0  0  0
  -55.4652  -16.8205  -30.6517 H   0  0  0  0  0
  -54.7967  -17.4770  -29.1373 H   0  0  0  0  0
  -57.8851  -13.0852  -27.9086 H   0  0  0  0  0
  -56.9382  -10.4179  -28.5123 H   0  0  0  0  0
  -58.5279  -11.4507  -26.1533 H   0  0  0  0  0
  -57.3588   -9.4290  -25.5204 H   0  0  0  0  0
  -57.9520   -8.6053  -26.9835 H   0  0  0  0  0
  -59.0994   -9.1089  -25.7182 H   0  0  0  0  0
  -59.3190   -9.9136  -28.6410 H   0  0  0  0  0
  -59.6759  -11.6237  -28.2953 H   0  0  0  0  0
  -60.4082  -10.3422  -27.2990 H   0  0  0  0  0
  -53.1131  -10.8164  -26.1805 H   0  0  0  0  0
  -52.0339   -8.7109  -26.7417 H   0  0  0  0  0
  -53.4121   -7.7803  -26.2666 H   0  0  0  0  0
  -52.9785   -9.2797  -28.8760 H   0  0  0  0  0
  -53.5491   -7.6747  -28.6656 H   0  0  0  0  0
  -55.7195   -8.3795  -27.9728 H   0  0  0  0  0
  -55.3307   -9.6378  -29.0609 H   0  0  0  0  0
  -52.1377  -10.0881  -24.1528 H   0  0  0  0  0
  -52.8823  -10.1753  -21.8071 H   0  0  0  0  0
  -54.2045   -8.9644  -22.3052 H   0  0  0  0  0
  -49.6728   -7.2417  -21.9080 H   0  0  0  0  0
  -52.3580   -5.3784  -22.0320 H   0  0  0  0  0
  -49.0093   -7.0405  -24.2801 H   0  0  0  0  0
  -49.1985   -5.3604  -23.9280 H   0  0  0  0  0
  -50.6600   -6.3890  -25.9102 H   0  0  0  0  0
  -51.4164   -5.2711  -24.8576 H   0  0  0  0  0
  -52.9014   -7.1427  -24.5055 H   0  0  0  0  0
  -51.6724   -8.3118  -24.8489 H   0  0  0  0  0
  1  2  1  0  0  0
  2  3  1  0  0  0
  2  5  1  0  0  0
  3  4  2  0  0  0
  3 12  1  0  0  0
  5  6  1  0  0  0
  6  7  1  0  0  0
  7  8  1  0  0  0
  8  9  1  0  0  0
  9 10  2  0  0  0
  9 11  1  0  0  0
 12 13  1  0  0  0
 13 14  1  0  0  0
 13 16  1  0  0  0
 14 15  2  0  0  0
 14 18  1  0  0  0
 16 17  1  0  0  0
 18 19  1  0  0  0
 19 20  1  0  0  0
 19 22  1  0  0  0
 20 21  2  0  0  0
 20 27  1  0  0  0
 22 23  1  0  0  0
 23 24  1  0  0  0
 24 25  2  0  0  0
 24 26  1  0  0  0
 27 28  1  0  0  0
 28 29  1  0  0  0
 28 31  1  0  0  0
 29 30  2  0  0  0
 29 35  1  0  0  0
 31 32  1  0  0  0
 31 33  1  0  0  0
 32 34  1  0  0  0
 35 36  1  0  0  0
 36 37  1  0  0  0
 36 39  1  0  0  0
 37 38  2  0  0  0
 37 43  1  0  0  0
 39 40  1  0  0  0
 39 41  1  0  0  0
 40 42  1  0  0  0
 43 44  1  0  0  0
 44 45  1  0  0  0
 44 47  1  0  0  0
 45 46  2  0  0  0
 45 49  1  0  0  0
 47 48  1  0  0  0
 49 50  1  0  0  0
 50 51  1  0  0  0
 50 53  1  0  0  0
 51 52  2  0  0  0
 51 56  1  0  0  0
 53 54  1  0  0  0
 53 55  1  0  0  0
 56 57  1  0  0  0
 57 58  1  0  0  0
 57 60  1  0  0  0
 58 59  2  0  0  0
 58 61  1  0  0  0
 61 62  1  0  0  0
 61 67  1  0  0  0
 62 63  1  0  0  0
 62 65  1  0  0  0
 63 64  2  0  0  0
 63 68  1  0  0  0
 65 66  2  0  0  0
 66 67  1  0  0  0
 68 69  1  0  0  0
 69 70  1  0  0  0
 69 72  1  0  0  0
 70 71  2  0  0  0
 70 74  1  0  0  0
 72 73  1  0  0  0
 74 75  1  0  0  0
 75 76  1  0  0  0
 75 78  1  0  0  0
 76 77  2  0  0  0
 76 80  1  0  0  0
 78 79  1  0  0  0
 80 81  1  0  0  0
 81 82  1  0  0  0
 81 84  1  0  0  0
 82 83  2  0  0  0
 82 94  1  0  0  0
 84 85  1  0  0  0
 85 86  4  0  0  0
 85 87  4  0  0  0
 86 88  4  0  0  0
 87 89  4  0  0  0
 87 90  4  0  0  0
 88 89  4  0  0  0
 89 91  4  0  0  0
 90 92  4  0  0  0
 91 93  4  0  0  0
 92 93  4  0  0  0
 94 95  1  0  0  0
 95 96  1  0  0  0
 95 98  1  0  0  0
 96 97  2  0  0  0
 96101  1  0  0  0
 98 99  1  0  0  0
 98100  1  0  0  0
101102  1  0  0  0
102103  1  0  0  0
102105  1  0  0  0
103104  2  0  0  0
103108  1  0  0  0
105106  1  0  0  0
105107  1  0  0  0
108109  1  0  0  0
108114  1  0  0  0
109110  1  0  0  0
109112  1  0  0  0
110111  2  0  0  0
110115  1  0  0  0
112113  1  0  0  0
113114  1  0  0  0
115116  1  0  0  0
116117  1  0  0  0
117118  2  0  0  0
117119  1  0  0  0
119120  1  0  0  0
119125  1  0  0  0
120121  1  0  0  0
120123  1  0  0  0
121122  1  0  0  0
121126  2  0  0  0
123124  1  0  0  0
124125  1  0  0  0
  1127  1  0  0  0
  1128  1  0  0  0
  1129  1  0  0  0
  2130  1  0  0  0
  5131  1  0  0  0
  5132  1  0  0  0
  6133  1  0  0  0
  6134  1  0  0  0
  7135  1  0  0  0
  7136  1  0  0  0
  8137  1  0  0  0
 10138  1  0  0  0
 11139  1  0  0  0
 11140  1  0  0  0
 12141  1  0  0  0
 13142  1  0  0  0
 16143  1  0  0  0
 16144  1  0  0  0
 17145  1  0  0  0
 18146  1  0  0  0
 19147  1  0  0  0
 22148  1  0  0  0
 22149  1  0  0  0
 23150  1  0  0  0
 23151  1  0  0  0
 26152  1  0  0  0
 27153  1  0  0  0
 28154  1  0  0  0
 31155  1  0  0  0
 32156  1  0  0  0
 32157  1  0  0  0
 33158  1  0  0  0
 33159  1  0  0  0
 33160  1  0  0  0
 34161  1  0  0  0
 34162  1  0  0  0
 34163  1  0  0  0
 35164  1  0  0  0
 36165  1  0  0  0
 39166  1  0  0  0
 40167  1  0  0  0
 40168  1  0  0  0
 41169  1  0  0  0
 41170  1  0  0  0
 41171  1  0  0  0
 42172  1  0  0  0
 42173  1  0  0  0
 42174  1  0  0  0
 43175  1  0  0  0
 44176  1  0  0  0
 47177  1  0  0  0
 47178  1  0  0  0
 48179  1  0  0  0
 49180  1  0  0  0
 50181  1  0  0  0
 53182  1  0  0  0
 54183  1  0  0  0
 55184  1  0  0  0
 55185  1  0  0  0
 55186  1  0  0  0
 56187  1  0  0  0
 57188  1  0  0  0
 60189  1  0  0  0
 60190  1  0  0  0
 60191  1  0  0  0
 62192  1  0  0  0
 65193  1  0  0  0
 66194  1  0  0  0
 67195  1  0  0  0
 67196  1  0  0  0
 68197  1  0  0  0
 69198  1  0  0  0
 72199  1  0  0  0
 72200  1  0  0  0
 73201  1  0  0  0
 74202  1  0  0  0
 75203  1  0  0  0
 78204  1  0  0  0
 78205  1  0  0  0
 79206  1  0  0  0
 80207  1  0  0  0
 81208  1  0  0  0
 84209  1  0  0  0
 84210  1  0  0  0
 86211  1  0  0  0
 90212  1  0  0  0
 91213  1  0  0  0
 92214  1  0  0  0
 93215  1  0  0  0
 94216  1  0  0  0
 95217  1  0  0  0
 98218  1  0  0  0
 99219  1  0  0  0
 99220  1  0  0  0
 99221  1  0  0  0
100222  1  0  0  0
100223  1  0  0  0
100224  1  0  0  0
101225  1  0  0  0
102226  1  0  0  0
105227  1  0  0  0
106228  1  0  0  0
106229  1  0  0  0
106230  1  0  0  0
107231  1  0  0  0
107232  1  0  0  0
107233  1  0  0  0
109234  1  0  0  0
112235  1  0  0  0
112236  1  0  0  0
113237  1  0  0  0
113238  1  0  0  0
114239  1  0  0  0
114240  1  0  0  0
115241  1  0  0  0
116242  1  0  0  0
116243  1  0  0  0
120244  1  0  0  0
122245  1  0  0  0
123246  1  0  0  0
123247  1  0  0  0
124248  1  0  0  0
124249  1  0  0  0
125250  1  0  0  0
125251  1  0  0  0
M  END
$$$$
