4pn1_ligand
  -I-interpret- 

 89 91  0  0  0  0  0  0  0  0999 V2000
  106.0030   62.9390  180.7940 N   0  3  0  0  0
  106.0420   62.5760  179.3820 C   0  0  0  0  0
  106.6020   61.1700  179.1780 C   0  0  0  0  0
  107.3290   60.6480  180.0230 O   0  0  0  0  0
  106.8570   63.5960  178.5940 C   0  0  0  0  0
  106.2540   60.5610  178.0510 N   0  0  0  0  0
  106.7550   59.2360  177.7130 C   0  0  0  0  0
  106.9550   59.1140  176.2060 C   0  0  0  0  0
  106.1450   59.6170  175.4280 O   0  0  0  0  0
  105.8050   58.1220  178.2130 C   0  0  0  0  0
  106.2590   56.8490  177.7370 O   0  0  0  0  0
  104.3820   58.3630  177.7250 C   0  0  0  0  0
  108.0480   58.4580  175.7880 N   0  0  0  0  0
  108.2850   58.2210  174.3600 C   0  0  0  0  0
  107.1740   57.3670  173.7560 C   0  0  0  0  0
  106.4460   56.7000  174.4920 O   0  0  0  0  0
  109.6200   57.4660  174.3430 C   0  0  0  0  0
  109.7680   56.9060  175.7200 C   0  0  0  0  0
  109.1270   57.9060  176.6250 C   0  0  0  0  0
  107.0460   57.3950  172.4330 N   0  0  0  0  0
  105.9600   56.6960  171.7540 C   0  0  0  0  0
  106.0190   55.1830  171.9530 C   0  0  0  0  0
  104.9890   54.5300  172.1220 O   0  0  0  0  0
  105.9580   57.0360  170.2690 C   0  0  0  0  0
  107.2280   54.6330  171.9470 N   0  0  0  0  0
  107.4110   53.1850  171.9840 C   0  0  0  0  0
  107.2120   52.5560  173.3630 C   0  0  0  0  0
  107.2820   51.3360  173.5060 O   0  0  0  0  0
  108.7870   52.8070  171.4330 C   0  0  0  0  0
  109.9090   53.6620  171.9390 C   0  0  0  0  0
  110.4700   54.7340  171.3080 C   0  0  0  0  0
  110.6130   53.5150  173.1790 C   0  0  0  0  0
  111.4770   55.2650  172.0770 N   0  0  0  0  0
  111.5840   54.5350  173.2320 C   0  0  0  0  0
  110.5150   52.6210  174.2500 C   0  0  0  0  0
  112.4510   54.6870  174.3120 C   0  0  0  0  0
  111.3760   52.7730  175.3220 C   0  0  0  0  0
  112.3320   53.7980  175.3440 C   0  0  0  0  0
  106.9640   53.3820  174.3720 N   0  0  0  0  0
  106.7870   52.8710  175.7260 C   0  0  0  0  0
  105.4330   53.2400  176.3210 C   0  0  0  0  0
  104.8250   52.4470  177.0420 O   0  0  0  0  0
  107.9180   53.3560  176.6340 C   0  0  0  0  0
  107.9260   52.6550  177.9780 C   0  0  0  0  0
  108.2910   51.4830  178.0750 O   0  0  0  0  0
  107.5310   53.3710  179.0240 N   0  0  0  0  0
  104.9300   54.3683  176.0729 O   0  0  0  0  0
  105.4550   62.2480  181.3065 H   0  0  0  0  0
  106.9532   62.9634  181.1639 H   0  0  0  0  0
  105.5736   63.8586  180.8957 H   0  0  0  0  0
  105.0176   62.5794  179.0096 H   0  0  0  0  0
  107.8920   63.5738  178.9351 H   0  0  0  0  0
  106.8174   63.3493  177.5330 H   0  0  0  0  0
  106.4421   64.5914  178.7526 H   0  0  0  0  0
  105.6201   61.0327  177.4059 H   0  0  0  0  0
  107.7141   59.1087  178.2150 H   0  0  0  0  0
  105.8085   58.1333  179.3029 H   0  0  0  0  0
  105.6663   56.1617  178.0499 H   0  0  0  0  0
  104.3665   58.3533  176.6352 H   0  0  0  0  0
  103.7305   57.5765  178.1060 H   0  0  0  0  0
  104.0345   59.3310  178.0860 H   0  0  0  0  0
  108.3049   59.1404  173.7749 H   0  0  0  0  0
  110.4508   58.1221  174.0833 H   0  0  0  0  0
  109.6300   56.6819  173.5859 H   0  0  0  0  0
  110.8152   56.7464  175.9771 H   0  0  0  0  0
  109.2967   55.9270  175.8070 H   0  0  0  0  0
  108.7616   57.4660  177.5529 H   0  0  0  0  0
  109.8230   58.6674  176.9771 H   0  0  0  0  0
  107.7239   57.9182  171.8788 H   0  0  0  0  0
  105.0293   57.0395  172.2055 H   0  0  0  0  0
  105.8233   58.1104  170.1437 H   0  0  0  0  0
  106.9074   56.7336  169.8271 H   0  0  0  0  0
  105.1419   56.5064  169.7774 H   0  0  0  0  0
  108.0491   55.2374  171.9158 H   0  0  0  0  0
  106.6225   52.7770  171.3516 H   0  0  0  0  0
  108.7466   52.9372  170.3516 H   0  0  0  0  0
  108.9918   51.7856  171.7538 H   0  0  0  0  0
  110.1632   55.1144  170.3337 H   0  0  0  0  0
  109.7751   51.8206  174.2402 H   0  0  0  0  0
  113.1949   55.4834  174.3334 H   0  0  0  0  0
  111.3099   52.0840  176.1640 H   0  0  0  0  0
  112.9959   53.8884  176.2038 H   0  0  0  0  0
  106.8965   54.3848  174.1983 H   0  0  0  0  0
  106.8197   51.7835  175.6598 H   0  0  0  0  0
  107.7726   54.4215  176.8118 H   0  0  0  0  0
  108.8638   53.1402  176.1370 H   0  0  0  0  0
  107.5219   52.9527  179.9542 H   0  0  0  0  0
  107.2367   54.3394  178.8973 H   0  0  0  0  0
  105.5224   54.8630  175.5020 H   0  0  0  0  0
  1  2  1  0  0  0
  2  3  1  0  0  0
  2  5  1  0  0  0
  3  4  2  0  0  0
  3  6  1  0  0  0
  6  7  1  0  0  0
  7  8  1  0  0  0
  7 10  1  0  0  0
  8  9  2  0  0  0
  8 13  1  0  0  0
 10 11  1  0  0  0
 10 12  1  0  0  0
 13 14  1  0  0  0
 13 19  1  0  0  0
 14 15  1  0  0  0
 14 17  1  0  0  0
 15 16  2  0  0  0
 15 20  1  0  0  0
 17 18  1  0  0  0
 18 19  1  0  0  0
 20 21  1  0  0  0
 21 22  1  0  0  0
 21 24  1  0  0  0
 22 23  2  0  0  0
 22 25  1  0  0  0
 25 26  1  0  0  0
 26 27  1  0  0  0
 26 29  1  0  0  0
 27 28  2  0  0  0
 27 39  1  0  0  0
 29 30  1  0  0  0
 30 31  4  0  0  0
 30 32  4  0  0  0
 31 33  4  0  0  0
 32 34  4  0  0  0
 32 35  4  0  0  0
 33 34  4  0  0  0
 34 36  4  0  0  0
 35 37  4  0  0  0
 36 38  4  0  0  0
 37 38  4  0  0  0
 39 40  1  0  0  0
 40 41  1  0  0  0
 40 43  1  0  0  0
 41 42  2  0  0  0
 43 44  1  0  0  0
 44 45  2  0  0  0
 44 46  1  0  0  0
 41 47  1  0  0  0
  1 48  1  0  0  0
  1 49  1  0  0  0
  1 50  1  0  0  0
  2 51  1  0  0  0
  5 52  1  0  0  0
  5 53  1  0  0  0
  5 54  1  0  0  0
  6 55  1  0  0  0
  7 56  1  0  0  0
 10 57  1  0  0  0
 11 58  1  0  0  0
 12 59  1  0  0  0
 12 60  1  0  0  0
 12 61  1  0  0  0
 14 62  1  0  0  0
 17 63  1  0  0  0
 17 64  1  0  0  0
 18 65  1  0  0  0
 18 66  1  0  0  0
 19 67  1  0  0  0
 19 68  1  0  0  0
 20 69  1  0  0  0
 21 70  1  0  0  0
 24 71  1  0  0  0
 24 72  1  0  0  0
 24 73  1  0  0  0
 25 74  1  0  0  0
 26 75  1  0  0  0
 29 76  1  0  0  0
 29 77  1  0  0  0
 31 78  1  0  0  0
 35 79  1  0  0  0
 36 80  1  0  0  0
 37 81  1  0  0  0
 38 82  1  0  0  0
 39 83  1  0  0  0
 40 84  1  0  0  0
 43 85  1  0  0  0
 43 86  1  0  0  0
 46 87  1  0  0  0
 46 88  1  0  0  0
 47 89  1  0  0  0
M  END
$$$$
