### 
### Created by X-TOOL on Mon Sep 10 21:13:15 2018
### 

@<TRIPOS>MOLECULE
4bea_ligand
  243   244     1     0     0
SMALL
GAST_HUCK


@<TRIPOS>ATOM
      1 N         -32.5470   -3.8810   -2.1040 N.4       1 LYS         0.2379
      2 CA        -31.3100   -4.1430   -2.9120 C.3       1 LYS         0.0650
      3 C         -30.1800   -4.4550   -1.9570 C.2       1 LYS         0.2267
      4 O         -29.9870   -3.7270   -0.9740 O.2       1 LYS        -0.3907
      5 CB        -30.9180   -2.9360   -3.7670 C.3       1 LYS         0.0080
      6 CG        -31.9220   -2.5740   -4.8450 C.3       1 LYS        -0.0410
      7 CD        -31.3230   -1.5880   -5.8430 C.3       1 LYS        -0.0123
      8 CE        -32.3230   -1.1960   -6.9270 C.3       1 LYS        -0.0354
      9 NZ        -32.6770   -2.3540   -7.7940 N.4       1 LYS         0.2185
     10 N         -29.4480   -5.5330   -2.2430 N.am      1 LYS        -0.2610
     11 CA        -28.4100   -6.0060   -1.3520 C.3       1 LYS         0.1311
     12 C         -27.0670   -5.5320   -1.8450 C.2       1 LYS         0.2039
     13 O         -26.6810   -5.8340   -2.9850 O.2       1 LYS        -0.3944
     14 CB        -28.3910   -7.5320   -1.2830 C.3       1 LYS        -0.0122
     15 CG        -29.7150   -8.1870   -0.9410 C.3       1 LYS        -0.0440
     16 CD        -30.2650   -7.7510    0.4090 C.3       1 LYS        -0.0124
     17 CE        -29.3730   -8.1780    1.5530 C.3       1 LYS        -0.0354
     18 NZ        -30.1090   -8.0570    2.8440 N.4       1 LYS         0.2185
     19 N         -26.3630   -4.7940   -0.9820 N.am      1 ARG        -0.2637
     20 CA        -24.9780   -4.4170   -1.2270 C.3       1 ARG         0.1311
     21 C         -24.0850   -4.8720   -0.0420 C.2       1 ARG         0.2040
     22 O         -24.5140   -4.8140    1.1170 O.2       1 ARG        -0.3944
     23 CB        -24.9050   -2.9090   -1.4820 C.3       1 ARG        -0.0092
     24 CG        -23.5060   -2.3970   -1.7560 C.3       1 ARG        -0.0156
     25 CD        -23.4560   -0.9220   -2.1320 C.3       1 ARG         0.0627
     26 NE        -22.1150   -0.5730   -2.6140 N.pl3     1 ARG        -0.2723
     27 CZ        -21.6990    0.6550   -2.9180 C.cat     1 ARG         0.2882
     28 NH1       -22.5150    1.7090   -2.7940 N.pl3     1 ARG        -0.2849
     29 NH2       -20.4460    0.8300   -3.3480 N.pl3     1 ARG        -0.2849
     30 N         -22.8810   -5.3760   -0.3400 N.am      1 TYR        -0.2621
     31 CA        -21.8830   -5.7400    0.6930 C.3       1 TYR         0.1390
     32 C         -20.4910   -5.2210    0.3090 C.2       1 TYR         0.2058
     33 O         -20.0530   -5.3800   -0.8310 O.2       1 TYR        -0.3942
     34 CB        -21.7480   -7.2530    0.8760 C.3       1 TYR         0.0163
     35 CG        -23.0260   -7.9970    1.1520 C.ar      1 TYR        -0.0493
     36 CD1       -23.8120   -8.4640    0.1120 C.ar      1 TYR        -0.0685
     37 CD2       -23.4280   -8.2740    2.4530 C.ar      1 TYR        -0.0685
     38 CE1       -24.9880   -9.1440    0.3580 C.ar      1 TYR        -0.0398
     39 CE2       -24.6010   -8.9590    2.6980 C.ar      1 TYR        -0.0398
     40 CZ        -25.3690   -9.3870    1.6450 C.ar      1 TYR         0.0805
     41 OH        -26.5150  -10.0760    1.8840 O.3       1 TYR        -0.3376
     42 N         -19.7910   -4.6460    1.2810 N.am      1 SER        -0.2614
     43 CA        -18.4600   -4.1390    1.0550 C.3       1 SER         0.1539
     44 C         -17.4600   -5.2970    1.0290 C.2       1 SER         0.2062
     45 O         -17.7620   -6.4100    1.4700 O.2       1 SER        -0.3943
     46 CB        -18.0850   -3.1110    2.1430 C.3       1 SER         0.0843
     47 OG        -18.2030   -3.6470    3.4660 O.3       1 SER        -0.3903
     48 N         -16.2740   -5.0270    0.4940 N.am      1 ARG        -0.2637
     49 CA        -15.1560   -5.9570    0.5990 C.3       1 ARG         0.1308
     50 C         -15.0260   -6.5090    2.0320 C.2       1 ARG         0.2010
     51 O         -15.1750   -7.7240    2.2530 O.2       1 ARG        -0.3947
     52 CB        -13.8670   -5.2420    0.1860 C.3       1 ARG        -0.0092
     53 CG        -12.6640   -6.1450    0.1180 C.3       1 ARG        -0.0156
     54 CD        -11.3700   -5.4030   -0.1930 C.3       1 ARG         0.0627
     55 NE        -10.3300   -6.4000   -0.4150 N.pl3     1 ARG        -0.2723
     56 CZ         -9.7450   -7.1260    0.5410 C.cat     1 ARG         0.2882
     57 NH1       -10.0540   -6.9340    1.8200 N.pl3     1 ARG        -0.2849
     58 NH2        -8.8190   -8.0440    0.2170 N.pl3     1 ARG        -0.2849
     59 C         -16.0100   -7.1110    4.9560 C.2       1 MK8         0.2263
     60 N         -14.9350   -5.8870    3.1570 N.am      1 MK8        -0.2743
     61 O         -15.8110   -8.1640    5.6160 O.2       1 MK8        -0.3419
     62 CA        -14.8270   -6.2210    4.5860 C.3       1 MK8         0.1304
     63 CB        -14.8480   -4.9030    5.3580 C.3       1 MK8        -0.0186
     64 CD        -15.9810   -5.3270    7.6510 C.3       1 MK8        -0.0365
     65 CE        -15.6500   -5.6600    9.0980 C.2       1 MK8        -0.0987
     66 CG        -14.6800   -5.0300    6.8850 C.3       1 MK8        -0.0449
     67 CB1       -13.5090   -6.9770    4.7910 C.3       1 MK8        -0.0320
     68 N         -17.2130   -6.8070    4.6430 N.am      1 GLN        -0.2627
     69 CA        -18.4410   -7.5970    4.9290 C.3       1 GLN         0.1332
     70 C         -18.3410   -8.9750    4.3460 C.2       1 GLN         0.2042
     71 O         -18.7010   -9.9380    5.0070 O.2       1 GLN        -0.3944
     72 CB        -19.6840   -6.8990    4.3840 C.3       1 GLN         0.0047
     73 CG        -20.1350   -5.7420    5.2500 C.3       1 GLN         0.0413
     74 CD        -21.2850   -4.9780    4.6310 C.2       1 GLN         0.1737
     75 OE1       -21.0780   -4.0770    3.8040 O.2       1 GLN        -0.3973
     76 NE2       -22.5020   -5.3290    5.0160 N.am      1 GLN        -0.3009
     77 N         -17.8400   -9.0530    3.1110 N.am      1 LEU        -0.2637
     78 CA        -17.7780  -10.3010    2.3800 C.3       1 LEU         0.1312
     79 C         -16.6960  -11.2240    2.9080 C.2       1 LEU         0.2039
     80 O         -16.9410  -12.4190    3.0100 O.2       1 LEU        -0.3944
     81 CB        -17.5990  -10.0530    0.8880 C.3       1 LEU        -0.0101
     82 CG        -18.7790   -9.4480    0.1180 C.3       1 LEU        -0.0425
     83 CD1       -18.3890   -9.2410   -1.3420 C.3       1 LEU        -0.0625
     84 CD2       -20.0250  -10.3180    0.2130 C.3       1 LEU        -0.0625
     85 N         -15.5190  -10.6970    3.2570 N.am      1 LEU        -0.2637
     86 CA        -14.4880  -11.5300    3.9000 C.3       1 LEU         0.1309
     87 C         -14.8960  -11.9640    5.3120 C.2       1 LEU         0.2010
     88 O         -14.4960  -13.0600    5.7370 O.2       1 LEU        -0.3947
     89 CB        -13.1290  -10.8260    3.9870 C.3       1 LEU        -0.0101
     90 CG        -12.3810  -10.4900    2.7070 C.3       1 LEU        -0.0425
     91 CD1       -11.0870   -9.7900    3.0750 C.3       1 LEU        -0.0625
     92 CD2       -12.1110  -11.7380    1.8680 C.3       1 LEU        -0.0625
     93 C         -16.9900  -12.5930    7.6980 C.2       1 MK8         0.2263
     94 N         -15.4260  -11.3320    6.3020 N.am      1 MK8        -0.2743
     95 O         -16.8310  -13.4780    8.6020 O.2       1 MK8        -0.3419
     96 CA        -15.9830  -11.4620    7.6650 C.3       1 MK8         0.1304
     97 CB        -16.7230  -10.1790    8.0370 C.3       1 MK8        -0.0186
     98 CD        -16.7740   -7.9260    9.1020 C.3       1 MK8        -0.0365
     99 CE        -15.9900   -6.7980    9.7350 C.2       1 MK8        -0.0987
    100 CG        -15.9240   -9.1710    8.8750 C.3       1 MK8        -0.0449
    101 CB1       -14.8530  -11.7930    8.6460 C.3       1 MK8        -0.0320
    102 N         -17.9480  -12.7540    6.8560 N.am      1 LEU        -0.2629
    103 CA        -19.1120  -13.6270    6.5340 C.3       1 LEU         0.1310
    104 C         -18.7010  -14.9710    5.8970 C.2       1 LEU         0.1993
    105 O         -17.5720  -15.1380    5.4630 O.2       1 LEU        -0.3947
    106 CB        -20.0730  -12.8810    5.6150 C.3       1 LEU        -0.0099
    107 CG        -21.4780  -12.4800    6.0740 C.3       1 LEU        -0.0425
    108 CD1       -21.6800  -12.3980    7.5710 C.3       1 LEU        -0.0625
    109 CD2       -21.8370  -11.1520    5.4160 C.3       1 LEU        -0.0625
    110 N         -19.6850  -15.7810    5.6620 N.am      1 NME        -0.2990
    111 H1        -33.3142   -3.6704   -2.7229 H         1 LYS         0.2015
    112 H2        -32.3871   -3.0986   -1.4889 H         1 LYS         0.2015
    113 H3        -32.7707   -4.6979   -1.5575 H         1 LYS         0.2015
    114 H4        -31.4871   -5.0053   -3.5715 H         1 LYS         0.1098
    115 H5        -29.9568   -3.1577   -4.2537 H         1 LYS         0.0346
    116 H6        -30.8006   -2.0678   -3.1019 H         1 LYS         0.0346
    117 H7        -32.8054   -2.1174   -4.3748 H         1 LYS         0.0270
    118 H8        -32.2218   -3.4880   -5.3786 H         1 LYS         0.0270
    119 H9        -30.4466   -2.0522   -6.3190 H         1 LYS         0.0317
    120 H10       -31.0103   -0.6819   -5.3034 H         1 LYS         0.0317
    121 H11       -31.8808   -0.4054   -7.5511 H         1 LYS         0.0813
    122 H12       -33.2376   -0.8165   -6.4480 H         1 LYS         0.0813
    123 H13       -33.3372   -2.0586   -8.4961 H         1 LYS         0.1994
    124 H14       -33.0884   -3.0819   -7.2310 H         1 LYS         0.1994
    125 H15       -31.8450   -2.7052   -8.2418 H         1 LYS         0.1994
    126 H16       -29.6209   -6.0271   -3.0950 H         1 LYS         0.1884
    127 H17       -28.5937   -5.6026   -0.3453 H         1 LYS         0.0800
    128 H18       -27.6590   -7.8274   -0.5169 H         1 LYS         0.0312
    129 H19       -28.0687   -7.9115   -2.2638 H         1 LYS         0.0312
    130 H20       -29.5724   -9.2776   -0.9253 H         1 LYS         0.0269
    131 H21       -30.4470   -7.9240   -1.7188 H         1 LYS         0.0269
    132 H22       -31.2595   -8.2000    0.5484 H         1 LYS         0.0317
    133 H23       -30.3531   -6.6546    0.4185 H         1 LYS         0.0317
    134 H24       -28.4814   -7.5343    1.5800 H         1 LYS         0.0813
    135 H25       -29.0659   -9.2238    1.4051 H         1 LYS         0.0813
    136 H26       -29.5084   -8.3432    3.6012 H         1 LYS         0.1994
    137 H27       -30.9259   -8.6471    2.8217 H         1 LYS         0.1994
    138 H28       -30.3903   -7.0989    2.9819 H         1 LYS         0.1994
    139 H29       -26.8031   -4.4895   -0.1373 H         1 ARG         0.1883
    140 H30       -24.6277   -4.9338   -2.1326 H         1 ARG         0.0800
    141 H31       -25.2960   -2.3890   -0.5950 H         1 ARG         0.0313
    142 H32       -25.5356   -2.6745   -2.3522 H         1 ARG         0.0313
    143 H33       -23.0786   -2.9811   -2.5843 H         1 ARG         0.0301
    144 H34       -22.8986   -2.5453   -0.8510 H         1 ARG         0.0301
    145 H35       -23.6957   -0.3123   -1.2484 H         1 ARG         0.0689
    146 H36       -24.1916   -0.7230   -2.9253 H         1 ARG         0.0689
    147 H37       -21.4389   -1.3419   -2.7267 H         1 ARG         0.2642
    148 H38       -22.1778    2.6523   -3.0333 H         1 ARG         0.2615
    149 H39       -23.4801    1.5766   -2.4593 H         1 ARG         0.2615
    150 H40       -19.8167    0.0203   -3.4441 H         1 ARG         0.2615
    151 H41       -20.1095    1.7746   -3.5834 H         1 ARG         0.2615
    152 H42       -22.6448   -5.5128   -1.3020 H         1 TYR         0.1885
    153 H43       -22.1932   -5.2884    1.6468 H         1 TYR         0.0821
    154 H44       -21.0652   -7.4311    1.7198 H         1 TYR         0.0453
    155 H45       -21.3093   -7.6662   -0.0442 H         1 TYR         0.0453
    156 H46       -23.4989   -8.2929   -0.9116 H         1 TYR         0.0530
    157 H47       -22.8136   -7.9485    3.2847 H         1 TYR         0.0530
    158 H48       -25.6048   -9.4827   -0.4665 H         1 TYR         0.0525
    159 H49       -24.9136   -9.1576    3.7168 H         1 TYR         0.0525
    160 H50       -26.9275  -10.2986    1.0577 H         1 TYR         0.2458
    161 H51       -20.1969   -4.5628    2.1911 H         1 SER         0.1884
    162 H52       -18.4368   -3.6350    0.0775 H         1 SER         0.0823
    163 H53       -18.7536   -2.2421    2.0532 H         1 SER         0.0606
    164 H54       -17.0447   -2.7913    1.9831 H         1 SER         0.0606
    165 H55       -19.1003   -3.9201    3.6170 H         1 SER         0.2097
    166 H56       -16.1449   -4.1634    0.0066 H         1 ARG         0.1883
    167 H57       -15.3314   -6.7998   -0.0858 H         1 ARG         0.0800
    168 H58       -13.6622   -4.4467    0.9178 H         1 ARG         0.0313
    169 H59       -14.0215   -4.7954   -0.8073 H         1 ARG         0.0313
    170 H60       -12.8342   -6.8947   -0.6687 H         1 ARG         0.0301
    171 H61       -12.5518   -6.6508    1.0884 H         1 ARG         0.0301
    172 H62       -11.0954   -4.7574    0.6542 H         1 ARG         0.0689
    173 H63       -11.4984   -4.7881   -1.0960 H         1 ARG         0.0689
    174 H64       -10.0222   -6.5568   -1.3854 H         1 ARG         0.2642
    175 H65        -9.5976   -7.4988    2.5505 H         1 ARG         0.2615
    176 H66       -10.7498   -6.2205    2.0802 H         1 ARG         0.2615
    177 H67        -8.5724   -8.2004   -0.7707 H         1 ARG         0.2615
    178 H68        -8.3557   -8.5913    0.9564 H         1 ARG         0.2615
    179 H69       -14.9389   -4.8964    3.0200 H         1 MK8         0.1839
    180 H70       -15.8117   -4.4100    5.1622 H         1 MK8         0.0279
    181 H71       -14.0301   -4.2735    4.9776 H         1 MK8         0.0279
    182 H72       -16.6360   -4.4439    7.6181 H         1 MK8         0.0388
    183 H73       -16.4939   -6.1816    7.1857 H         1 MK8         0.0388
    184 H74       -15.0920   -4.9172    9.6663 H         1 MK8         0.0450
    185 H75       -14.2671   -4.0837    7.2645 H         1 MK8         0.0284
    186 H76       -13.9703   -5.8462    7.0852 H         1 MK8         0.0284
    187 H77       -13.3993   -7.2413    5.8531 H         1 MK8         0.0242
    188 H78       -12.6681   -6.3381    4.4834 H         1 MK8         0.0242
    189 H79       -13.5140   -7.8941    4.1836 H         1 MK8         0.0242
    190 H80       -17.3417   -5.9449    4.1530 H         1 GLN         0.1889
    191 H81       -18.5437   -7.6874    6.0204 H         1 GLN         0.0803
    192 H82       -20.5014   -7.6327    4.3245 H         1 GLN         0.0337
    193 H83       -19.4597   -6.5175    3.3770 H         1 GLN         0.0337
    194 H84       -19.2882   -5.0542    5.3911 H         1 GLN         0.0504
    195 H85       -20.4554   -6.1344    6.2264 H         1 GLN         0.0504
    196 H86       -23.3004   -4.8587    4.6401 H         1 GLN         0.1814
    197 H87       -22.6229   -6.0645    5.6827 H         1 GLN         0.1814
    198 H88       -17.4958   -8.2209    2.6760 H         1 LEU         0.1883
    199 H89       -18.7424  -10.8113    2.5196 H         1 LEU         0.0800
    200 H90       -17.3633  -11.0204    0.4204 H         1 LEU         0.0315
    201 H91       -16.7448   -9.3703    0.7689 H         1 LEU         0.0315
    202 H92       -19.0119   -8.4681    0.5601 H         1 LEU         0.0298
    203 H93       -19.2381   -8.8070   -1.8903 H         1 LEU         0.0232
    204 H94       -18.1192  -10.2086   -1.7902 H         1 LEU         0.0232
    205 H95       -17.5286   -8.5580   -1.3984 H         1 LEU         0.0232
    206 H96       -20.2942  -10.4586    1.2702 H         1 LEU         0.0232
    207 H97       -19.8249  -11.2966   -0.2477 H         1 LEU         0.0232
    208 H98       -20.8560   -9.8273   -0.3148 H         1 LEU         0.0232
    209 H99       -15.3365   -9.7298    3.0804 H         1 LEU         0.1883
    210 H100      -14.3657  -12.4335    3.2847 H         1 LEU         0.0800
    211 H101      -12.4696  -11.4740    4.5830 H         1 LEU         0.0315
    212 H102      -13.2923   -9.8784    4.5212 H         1 LEU         0.0315
    213 H103      -12.9976   -9.8025    2.1095 H         1 LEU         0.0298
    214 H104      -10.5323   -9.5393    2.1587 H         1 LEU         0.0232
    215 H105      -10.4761  -10.4551    3.7030 H         1 LEU         0.0232
    216 H106      -11.3139   -8.8678    3.6300 H         1 LEU         0.0232
    217 H107      -13.0651  -12.2241    1.6164 H         1 LEU         0.0232
    218 H108      -11.4836  -12.4365    2.4411 H         1 LEU         0.0232
    219 H109      -11.5900  -11.4520    0.9424 H         1 LEU         0.0232
    220 H110      -15.4835  -10.3672    6.0454 H         1 MK8         0.1839
    221 H111      -17.6196  -10.4593    8.6093 H         1 MK8         0.0279
    222 H112      -17.0246   -9.6798    7.1044 H         1 MK8         0.0279
    223 H113      -17.1645   -7.5837    8.1323 H         1 MK8         0.0388
    224 H114      -17.6130   -8.1874    9.7636 H         1 MK8         0.0388
    225 H115      -15.6802   -6.9128   10.7727 H         1 MK8         0.0450
    226 H116      -15.0030   -8.8956    8.3404 H         1 MK8         0.0284
    227 H117      -15.6646   -9.6216    9.8444 H         1 MK8         0.0284
    228 H118      -15.2655  -11.8902    9.6611 H         1 MK8         0.0242
    229 H119      -14.1053  -10.9864    8.6298 H         1 MK8         0.0242
    230 H120      -14.3773  -12.7400    8.3514 H         1 MK8         0.0242
    231 H121      -17.8917  -12.0312    6.1672 H         1 LEU         0.1889
    232 H122      -19.6356  -13.8498    7.4754 H         1 LEU         0.0802
    233 H123      -20.2073  -13.5160    4.7269 H         1 LEU         0.0315
    234 H124      -19.5644  -11.9494    5.3262 H         1 LEU         0.0315
    235 H125      -22.1726  -13.2474    5.7015 H         1 LEU         0.0298
    236 H126      -22.7180  -12.1039    7.7853 H         1 LEU         0.0232
    237 H127      -20.9925  -11.6504    7.9934 H         1 LEU         0.0232
    238 H128      -21.4765  -13.3800    8.0228 H         1 LEU         0.0232
    239 H129      -21.6848  -11.2283    4.3293 H         1 LEU         0.0232
    240 H130      -21.1944  -10.3565    5.8212 H         1 LEU         0.0232
    241 H131      -22.8907  -10.9133    5.6228 H         1 LEU         0.0232
    242 H132      -19.5092  -16.6751    5.2500 H         1 NME         0.1815
    243 H133      -20.6201  -15.5119    5.8926 H         1 NME         0.1815
@<TRIPOS>BOND
     1    2    1 1  
     2    3    2 1  
     3    2    5 1  
     4    3    4 2  
     5   10    3 am 
     6    5    6 1  
     7    6    7 1  
     8    7    8 1  
     9    8    9 1  
    10   11   10 1  
    11   12   11 1  
    12   11   14 1  
    13   12   13 2  
    14   19   12 am 
    15   14   15 1  
    16   15   16 1  
    17   16   17 1  
    18   17   18 1  
    19   20   19 1  
    20   21   20 1  
    21   20   23 1  
    22   21   22 2  
    23   30   21 am 
    24   23   24 1  
    25   24   25 1  
    26   25   26 1  
    27   26   27 ar 
    28   27   28 ar 
    29   27   29 ar 
    30   31   30 1  
    31   32   31 1  
    32   31   34 1  
    33   32   33 2  
    34   42   32 am 
    35   34   35 1  
    36   35   36 ar 
    37   35   37 ar 
    38   36   38 ar 
    39   37   39 ar 
    40   38   40 ar 
    41   39   40 ar 
    42   40   41 1  
    43   43   42 1  
    44   44   43 1  
    45   43   46 1  
    46   44   45 2  
    47   48   44 am 
    48   46   47 1  
    49   49   48 1  
    50   50   49 1  
    51   49   52 1  
    52   50   51 2  
    53   60   50 am 
    54   52   53 1  
    55   53   54 1  
    56   54   55 1  
    57   55   56 ar 
    58   56   57 ar 
    59   56   58 ar 
    60   59   61 2  
    61   59   62 1  
    62   68   59 am 
    63   62   60 1  
    64   62   63 1  
    65   62   67 1  
    66   63   66 1  
    67   64   65 1  
    68   66   64 1  
    69   65   99 2  
    70   69   68 1  
    71   70   69 1  
    72   69   72 1  
    73   70   71 2  
    74   77   70 am 
    75   72   73 1  
    76   73   74 1  
    77   74   75 2  
    78   74   76 am 
    79   78   77 1  
    80   79   78 1  
    81   78   81 1  
    82   79   80 2  
    83   85   79 am 
    84   81   82 1  
    85   82   83 1  
    86   82   84 1  
    87   86   85 1  
    88   87   86 1  
    89   86   89 1  
    90   87   88 2  
    91   94   87 am 
    92   89   90 1  
    93   90   91 1  
    94   90   92 1  
    95   93   95 2  
    96   96   93 1  
    97   93  102 am 
    98   94   96 1  
    99   96   97 1  
   100   96  101 1  
   101   97  100 1  
   102   99   98 1  
   103   98  100 1  
   104  102  103 1  
   105  103  104 1  
   106  103  106 1  
   107  104  105 2  
   108  104  110 am 
   109  106  107 1  
   110  107  108 1  
   111  107  109 1  
   112    1  111 1  
   113    1  112 1  
   114    1  113 1  
   115    2  114 1  
   116    5  115 1  
   117    5  116 1  
   118    6  117 1  
   119    6  118 1  
   120    7  119 1  
   121    7  120 1  
   122    8  121 1  
   123    8  122 1  
   124    9  123 1  
   125    9  124 1  
   126    9  125 1  
   127   10  126 1  
   128   11  127 1  
   129   14  128 1  
   130   14  129 1  
   131   15  130 1  
   132   15  131 1  
   133   16  132 1  
   134   16  133 1  
   135   17  134 1  
   136   17  135 1  
   137   18  136 1  
   138   18  137 1  
   139   18  138 1  
   140   19  139 1  
   141   20  140 1  
   142   23  141 1  
   143   23  142 1  
   144   24  143 1  
   145   24  144 1  
   146   25  145 1  
   147   25  146 1  
   148   26  147 1  
   149   28  148 1  
   150   28  149 1  
   151   29  150 1  
   152   29  151 1  
   153   30  152 1  
   154   31  153 1  
   155   34  154 1  
   156   34  155 1  
   157   36  156 1  
   158   37  157 1  
   159   38  158 1  
   160   39  159 1  
   161   41  160 1  
   162   42  161 1  
   163   43  162 1  
   164   46  163 1  
   165   46  164 1  
   166   47  165 1  
   167   48  166 1  
   168   49  167 1  
   169   52  168 1  
   170   52  169 1  
   171   53  170 1  
   172   53  171 1  
   173   54  172 1  
   174   54  173 1  
   175   55  174 1  
   176   57  175 1  
   177   57  176 1  
   178   58  177 1  
   179   58  178 1  
   180   60  179 1  
   181   63  180 1  
   182   63  181 1  
   183   64  182 1  
   184   64  183 1  
   185   65  184 1  
   186   66  185 1  
   187   66  186 1  
   188   67  187 1  
   189   67  188 1  
   190   67  189 1  
   191   68  190 1  
   192   69  191 1  
   193   72  192 1  
   194   72  193 1  
   195   73  194 1  
   196   73  195 1  
   197   76  196 1  
   198   76  197 1  
   199   77  198 1  
   200   78  199 1  
   201   81  200 1  
   202   81  201 1  
   203   82  202 1  
   204   83  203 1  
   205   83  204 1  
   206   83  205 1  
   207   84  206 1  
   208   84  207 1  
   209   84  208 1  
   210   85  209 1  
   211   86  210 1  
   212   89  211 1  
   213   89  212 1  
   214   90  213 1  
   215   91  214 1  
   216   91  215 1  
   217   91  216 1  
   218   92  217 1  
   219   92  218 1  
   220   92  219 1  
   221   94  220 1  
   222   97  221 1  
   223   97  222 1  
   224   98  223 1  
   225   98  224 1  
   226   99  225 1  
   227  100  226 1  
   228  100  227 1  
   229  101  228 1  
   230  101  229 1  
   231  101  230 1  
   232  102  231 1  
   233  103  232 1  
   234  106  233 1  
   235  106  234 1  
   236  107  235 1  
   237  108  236 1  
   238  108  237 1  
   239  108  238 1  
   240  109  239 1  
   241  109  240 1  
   242  109  241 1  
   243  110  242 1  
   244  110  243 1  
@<TRIPOS>SUBSTRUCTURE
     1 LYS         1

