4bea_ligand
  -I-interpret- 

241242  0  0  0  0  0  0  0  0999 V2000
  -32.5470   -3.8810   -2.1040 N   0  3  0  0  0
  -31.3100   -4.1430   -2.9120 C   0  0  0  0  0
  -30.1800   -4.4550   -1.9570 C   0  0  0  0  0
  -29.9870   -3.7270   -0.9740 O   0  0  0  0  0
  -30.9180   -2.9360   -3.7670 C   0  0  0  0  0
  -31.9220   -2.5740   -4.8450 C   0  0  0  0  0
  -31.3230   -1.5880   -5.8430 C   0  0  0  0  0
  -32.3230   -1.1960   -6.9270 C   0  0  0  0  0
  -32.6770   -2.3540   -7.7940 N   0  3  0  0  0
  -29.4480   -5.5330   -2.2430 N   0  0  0  0  0
  -28.4100   -6.0060   -1.3520 C   0  0  0  0  0
  -27.0670   -5.5320   -1.8450 C   0  0  0  0  0
  -26.6810   -5.8340   -2.9850 O   0  0  0  0  0
  -28.3910   -7.5320   -1.2830 C   0  0  0  0  0
  -29.7150   -8.1870   -0.9410 C   0  0  0  0  0
  -30.2650   -7.7510    0.4090 C   0  0  0  0  0
  -29.3730   -8.1780    1.5530 C   0  0  0  0  0
  -30.1090   -8.0570    2.8440 N   0  3  0  0  0
  -26.3630   -4.7940   -0.9820 N   0  0  0  0  0
  -24.9780   -4.4170   -1.2270 C   0  0  0  0  0
  -24.0850   -4.8720   -0.0420 C   0  0  0  0  0
  -24.5140   -4.8140    1.1170 O   0  0  0  0  0
  -24.9050   -2.9090   -1.4820 C   0  0  0  0  0
  -23.5060   -2.3970   -1.7560 C   0  0  0  0  0
  -23.4560   -0.9220   -2.1320 C   0  0  0  0  0
  -22.1150   -0.5730   -2.6140 N   0  0  0  0  0
  -21.6990    0.6550   -2.9180 C   0  0  0  0  0
  -22.5150    1.7090   -2.7940 N   0  0  0  0  0
  -20.4460    0.8300   -3.3480 N   0  0  0  0  0
  -22.8810   -5.3760   -0.3400 N   0  0  0  0  0
  -21.8830   -5.7400    0.6930 C   0  0  0  0  0
  -20.4910   -5.2210    0.3090 C   0  0  0  0  0
  -20.0530   -5.3800   -0.8310 O   0  0  0  0  0
  -21.7480   -7.2530    0.8760 C   0  0  0  0  0
  -23.0260   -7.9970    1.1520 C   0  0  0  0  0
  -23.8120   -8.4640    0.1120 C   0  0  0  0  0
  -23.4280   -8.2740    2.4530 C   0  0  0  0  0
  -24.9880   -9.1440    0.3580 C   0  0  0  0  0
  -24.6010   -8.9590    2.6980 C   0  0  0  0  0
  -25.3690   -9.3870    1.6450 C   0  0  0  0  0
  -26.5150  -10.0760    1.8840 O   0  0  0  0  0
  -19.7910   -4.6460    1.2810 N   0  0  0  0  0
  -18.4600   -4.1390    1.0550 C   0  0  0  0  0
  -17.4600   -5.2970    1.0290 C   0  0  0  0  0
  -17.7620   -6.4100    1.4700 O   0  0  0  0  0
  -18.0850   -3.1110    2.1430 C   0  0  0  0  0
  -18.2030   -3.6470    3.4660 O   0  0  0  0  0
  -16.2740   -5.0270    0.4940 N   0  0  0  0  0
  -15.1560   -5.9570    0.5990 C   0  0  0  0  0
  -15.0260   -6.5090    2.0320 C   0  0  0  0  0
  -15.1750   -7.7240    2.2530 O   0  0  0  0  0
  -13.8670   -5.2420    0.1860 C   0  0  0  0  0
  -12.6640   -6.1450    0.1180 C   0  0  0  0  0
  -11.3700   -5.4030   -0.1930 C   0  0  0  0  0
  -10.3300   -6.4000   -0.4150 N   0  0  0  0  0
   -9.7450   -7.1260    0.5410 C   0  0  0  0  0
  -10.0540   -6.9340    1.8200 N   0  0  0  0  0
   -8.8190   -8.0440    0.2170 N   0  0  0  0  0
  -16.0100   -7.1110    4.9560 C   0  0  0  0  0
  -14.9350   -5.8870    3.1570 N   0  0  0  0  0
  -15.8110   -8.1640    5.6160 O   0  0  0  0  0
  -14.8270   -6.2210    4.5860 C   0  0  0  0  0
  -14.8480   -4.9030    5.3580 C   0  0  0  0  0
  -15.9810   -5.3270    7.6510 C   0  0  0  0  0
  -15.6500   -5.6600    9.0980 C   0  0  0  0  0
  -14.6800   -5.0300    6.8850 C   0  0  0  0  0
  -13.5090   -6.9770    4.7910 C   0  0  0  0  0
  -17.2130   -6.8070    4.6430 N   0  0  0  0  0
  -18.4410   -7.5970    4.9290 C   0  0  0  0  0
  -18.3410   -8.9750    4.3460 C   0  0  0  0  0
  -18.7010   -9.9380    5.0070 O   0  0  0  0  0
  -19.6840   -6.8990    4.3840 C   0  0  0  0  0
  -20.1350   -5.7420    5.2500 C   0  0  0  0  0
  -21.2850   -4.9780    4.6310 C   0  0  0  0  0
  -21.0780   -4.0770    3.8040 O   0  0  0  0  0
  -22.5020   -5.3290    5.0160 N   0  0  0  0  0
  -17.8400   -9.0530    3.1110 N   0  0  0  0  0
  -17.7780  -10.3010    2.3800 C   0  0  0  0  0
  -16.6960  -11.2240    2.9080 C   0  0  0  0  0
  -16.9410  -12.4190    3.0100 O   0  0  0  0  0
  -17.5990  -10.0530    0.8880 C   0  0  0  0  0
  -18.7790   -9.4480    0.1180 C   0  0  0  0  0
  -18.3890   -9.2410   -1.3420 C   0  0  0  0  0
  -20.0250  -10.3180    0.2130 C   0  0  0  0  0
  -15.5190  -10.6970    3.2570 N   0  0  0  0  0
  -14.4880  -11.5300    3.9000 C   0  0  0  0  0
  -14.8960  -11.9640    5.3120 C   0  0  0  0  0
  -14.4960  -13.0600    5.7370 O   0  0  0  0  0
  -13.1290  -10.8260    3.9870 C   0  0  0  0  0
  -12.3810  -10.4900    2.7070 C   0  0  0  0  0
  -11.0870   -9.7900    3.0750 C   0  0  0  0  0
  -12.1110  -11.7380    1.8680 C   0  0  0  0  0
  -16.9900  -12.5930    7.6980 C   0  0  0  0  0
  -15.4260  -11.3320    6.3020 N   0  0  0  0  0
  -16.8310  -13.4780    8.6020 O   0  0  0  0  0
  -15.9830  -11.4620    7.6650 C   0  0  0  0  0
  -16.7230  -10.1790    8.0370 C   0  0  0  0  0
  -16.7740   -7.9260    9.1020 C   0  0  0  0  0
  -15.9900   -6.7980    9.7350 C   0  0  0  0  0
  -15.9240   -9.1710    8.8750 C   0  0  0  0  0
  -14.8530  -11.7930    8.6460 C   0  0  0  0  0
  -17.9480  -12.7540    6.8560 N   0  0  0  0  0
  -19.1120  -13.6270    6.5340 C   0  0  0  0  0
  -18.7010  -14.9710    5.8970 C   0  0  0  0  0
  -17.5720  -15.1380    5.4630 O   0  0  0  0  0
  -20.0730  -12.8810    5.6150 C   0  0  0  0  0
  -21.4780  -12.4800    6.0740 C   0  0  0  0  0
  -21.6800  -12.3980    7.5710 C   0  0  0  0  0
  -21.8370  -11.1520    5.4160 C   0  0  0  0  0
  -19.6850  -15.7810    5.6620 N   0  0  0  0  0
  -32.7719   -4.7080   -1.5510 H   0  0  0  0  0
  -32.3842   -3.0888   -1.4824 H   0  0  0  0  0
  -33.3228   -3.6687   -2.7313 H   0  0  0  0  0
  -31.5074   -4.9770   -3.5855 H   0  0  0  0  0
  -29.9869   -3.1926   -4.2723 H   0  0  0  0  0
  -30.8484   -2.0797   -3.0962 H   0  0  0  0  0
  -32.7887   -2.1106   -4.3736 H   0  0  0  0  0
  -32.2048   -3.4818   -5.3779 H   0  0  0  0  0
  -30.4684   -2.0648   -6.3231 H   0  0  0  0  0
  -31.0353   -0.6867   -5.3018 H   0  0  0  0  0
  -31.8693   -0.4258   -7.5507 H   0  0  0  0  0
  -33.2319   -0.8386   -6.4430 H   0  0  0  0  0
  -33.3451   -2.0539   -8.5040 H   0  0  0  0  0
  -31.8344   -2.7085   -8.2465 H   0  0  0  0  0
  -33.0931   -3.0899   -7.2232 H   0  0  0  0  0
  -29.6244   -6.0370   -3.1121 H   0  0  0  0  0
  -28.6165   -5.6099   -0.3578 H   0  0  0  0  0
  -27.6981   -7.7978   -0.4847 H   0  0  0  0  0
  -28.1186   -7.8841   -2.2779 H   0  0  0  0  0
  -29.5512   -9.2638   -0.8999 H   0  0  0  0  0
  -30.4366   -7.8934   -1.7033 H   0  0  0  0  0
  -31.2398   -8.2191    0.5456 H   0  0  0  0  0
  -30.3271   -6.6628    0.4149 H   0  0  0  0  0
  -28.4921   -7.5367    1.5803 H   0  0  0  0  0
  -29.0729   -9.2156    1.4065 H   0  0  0  0  0
  -29.5003   -8.3468    3.6095 H   0  0  0  0  0
  -30.3931   -7.0872    2.9824 H   0  0  0  0  0
  -30.9353   -8.6545    2.8202 H   0  0  0  0  0
  -26.8119   -4.4834   -0.1204 H   0  0  0  0  0
  -24.5969   -4.9197   -2.1159 H   0  0  0  0  0
  -25.2604   -2.4111   -0.5798 H   0  0  0  0  0
  -25.5044   -2.7018   -2.3685 H   0  0  0  0  0
  -23.1120   -2.9620   -2.6008 H   0  0  0  0  0
  -22.9291   -2.5192   -0.8393 H   0  0  0  0  0
  -23.6898   -0.3197   -1.2541 H   0  0  0  0  0
  -24.1827   -0.7279   -2.9209 H   0  0  0  0  0
  -21.4455   -1.3344   -2.7256 H   0  0  0  0  0
  -22.1799    2.6436   -3.0276 H   0  0  0  0  0
  -23.4718    1.5774   -2.4659 H   0  0  0  0  0
  -19.8217    0.0286   -3.4398 H   0  0  0  0  0
  -22.6401   -5.5155   -1.3213 H   0  0  0  0  0
  -22.2424   -5.2878    1.6173 H   0  0  0  0  0
  -21.1114   -7.4015    1.7482 H   0  0  0  0  0
  -21.3624   -7.6433   -0.0658 H   0  0  0  0  0
  -23.4972   -8.2920   -0.9173 H   0  0  0  0  0
  -22.8102   -7.9467    3.2893 H   0  0  0  0  0
  -25.6082   -9.4846   -0.4711 H   0  0  0  0  0
  -24.9153   -9.1587    3.7224 H   0  0  0  0  0
  -26.6428  -10.1635    2.8314 H   0  0  0  0  0
  -20.2050   -4.5611    2.2093 H   0  0  0  0  0
  -18.4298   -3.6338    0.0896 H   0  0  0  0  0
  -18.7696   -2.2670    2.0592 H   0  0  0  0  0
  -17.0457   -2.8210    1.9885 H   0  0  0  0  0
  -17.9603   -2.9736    4.1057 H   0  0  0  0  0
  -16.1423   -4.1461   -0.0031 H   0  0  0  0  0
  -15.3365   -6.8015   -0.0660 H   0  0  0  0  0
  -13.6608   -4.4832    0.9409 H   0  0  0  0  0
  -14.0262   -4.8380   -0.8137 H   0  0  0  0  0
  -12.8346   -6.8609   -0.6861 H   0  0  0  0  0
  -12.5482   -6.6136    1.0953 H   0  0  0  0  0
  -11.0985   -4.7498    0.6363 H   0  0  0  0  0
  -11.4935   -4.7799   -1.0788 H   0  0  0  0  0
  -10.0252   -6.5553   -1.3759 H   0  0  0  0  0
  -10.7430   -6.2274    2.0777 H   0  0  0  0  0
   -8.3602   -8.5860    0.9492 H   0  0  0  0  0
   -8.5748   -8.1989   -0.7612 H   0  0  0  0  0
  -14.9390   -4.8766    3.0172 H   0  0  0  0  0
  -15.8284   -4.4579    5.1882 H   0  0  0  0  0
  -14.0014   -4.3179    4.9989 H   0  0  0  0  0
  -16.6308   -4.4525    7.6180 H   0  0  0  0  0
  -16.4900   -6.1733    7.1898 H   0  0  0  0  0
  -15.0915   -4.9166    9.6668 H   0  0  0  0  0
  -14.3114   -4.0695    7.2451 H   0  0  0  0  0
  -14.0082   -5.8699    7.0620 H   0  0  0  0  0
  -13.4199   -7.2725    5.8364 H   0  0  0  0  0
  -13.4989   -7.8650    4.1589 H   0  0  0  0  0
  -12.6745   -6.3291    4.5229 H   0  0  0  0  0
  -17.3443   -5.9276    4.1432 H   0  0  0  0  0
  -18.5306   -7.6771    6.0124 H   0  0  0  0  0
  -20.4921   -7.6300    4.3566 H   0  0  0  0  0
  -19.4390   -6.5025    3.3987 H   0  0  0  0  0
  -19.2952   -5.0566    5.3640 H   0  0  0  0  0
  -20.4711   -6.1448    6.2055 H   0  0  0  0  0
  -23.3166   -4.8522    4.6294 H   0  0  0  0  0
  -22.6251   -6.0763    5.6992 H   0  0  0  0  0
  -17.4889   -8.2043    2.6673 H   0  0  0  0  0
  -18.7321  -10.8053    2.5333 H   0  0  0  0  0
  -17.4369  -11.0364    0.4467 H   0  0  0  0  0
  -16.7942   -9.3221    0.8088 H   0  0  0  0  0
  -19.0186   -8.4867    0.5726 H   0  0  0  0  0
  -17.5363   -8.5642   -1.3965 H   0  0  0  0  0
  -18.1218  -10.2005   -1.7849 H   0  0  0  0  0
  -19.2311   -8.8110   -1.8842 H   0  0  0  0  0
  -19.8123  -11.3019   -0.2051 H   0  0  0  0  0
  -20.3157  -10.4211    1.2584 H   0  0  0  0  0
  -20.8358   -9.8516   -0.3466 H   0  0  0  0  0
  -15.3328   -9.7104    3.0769 H   0  0  0  0  0
  -14.3939  -12.4069    3.2594 H   0  0  0  0  0
  -12.4832  -11.5319    4.5092 H   0  0  0  0  0
  -13.3449   -9.8605    4.4444 H   0  0  0  0  0
  -12.9962   -9.8309    2.0945 H   0  0  0  0  0
  -11.3132   -8.8765    3.6249 H   0  0  0  0  0
  -10.4826  -10.4500    3.6973 H   0  0  0  0  0
  -10.5383   -9.5422    2.1663 H   0  0  0  0  0
  -11.5080  -12.4389    2.4453 H   0  0  0  0  0
  -13.0582  -12.2063    1.6004 H   0  0  0  0  0
  -11.5748  -11.4561    0.9618 H   0  0  0  0  0
  -15.4847  -10.3479    6.0403 H   0  0  0  0  0
  -17.5763  -10.4793    8.6451 H   0  0  0  0  0
  -16.9652   -9.6787    7.0994 H   0  0  0  0  0
  -17.1341   -7.5828    8.1321 H   0  0  0  0  0
  -17.5867   -8.1919    9.7780 H   0  0  0  0  0
  -15.6799   -6.9129   10.7736 H   0  0  0  0  0
  -15.0094   -8.8994    8.3479 H   0  0  0  0  0
  -15.6635   -9.6171    9.8348 H   0  0  0  0  0
  -15.2643  -11.8982    9.6499 H   0  0  0  0  0
  -14.3764  -12.7267    8.3476 H   0  0  0  0  0
  -14.1175  -10.9887    8.6358 H   0  0  0  0  0
  -17.8905  -12.0167    6.1535 H   0  0  0  0  0
  -19.6038  -13.8676    7.4765 H   0  0  0  0  0
  -20.2573  -13.5873    4.8055 H   0  0  0  0  0
  -19.5758  -11.9268    5.4408 H   0  0  0  0  0
  -22.1433  -13.2845    5.7606 H   0  0  0  0  0
  -21.4780  -13.3716    8.0175 H   0  0  0  0  0
  -20.9982  -11.6570    7.9883 H   0  0  0  0  0
  -22.7089  -12.1065    7.7821 H   0  0  0  0  0
  -21.1147  -10.3926    5.7155 H   0  0  0  0  0
  -21.8163  -11.2676    4.3323 H   0  0  0  0  0
  -22.8357  -10.8499    5.7315 H   0  0  0  0  0
  -19.5367  -16.6102    5.0869 H   0  0  0  0  0
  -20.6077  -15.5893    6.0522 H   0  0  0  0  0
  2  1  1  0  0  0
  3  2  1  0  0  0
  2  5  1  0  0  0
  3  4  2  0  0  0
 10  3  1  0  0  0
  5  6  1  0  0  0
  6  7  1  0  0  0
  7  8  1  0  0  0
  8  9  1  0  0  0
 11 10  1  0  0  0
 12 11  1  0  0  0
 11 14  1  0  0  0
 12 13  2  0  0  0
 19 12  1  0  0  0
 14 15  1  0  0  0
 15 16  1  0  0  0
 16 17  1  0  0  0
 17 18  1  0  0  0
 20 19  1  0  0  0
 21 20  1  0  0  0
 20 23  1  0  0  0
 21 22  2  0  0  0
 30 21  1  0  0  0
 23 24  1  0  0  0
 24 25  1  0  0  0
 25 26  1  0  0  0
 26 27  1  0  0  0
 27 28  1  0  0  0
 27 29  2  0  0  0
 31 30  1  0  0  0
 32 31  1  0  0  0
 31 34  1  0  0  0
 32 33  2  0  0  0
 42 32  1  0  0  0
 34 35  1  0  0  0
 35 36  4  0  0  0
 35 37  4  0  0  0
 36 38  4  0  0  0
 37 39  4  0  0  0
 38 40  4  0  0  0
 39 40  4  0  0  0
 40 41  1  0  0  0
 43 42  1  0  0  0
 44 43  1  0  0  0
 43 46  1  0  0  0
 44 45  2  0  0  0
 48 44  1  0  0  0
 46 47  1  0  0  0
 49 48  1  0  0  0
 50 49  1  0  0  0
 49 52  1  0  0  0
 50 51  2  0  0  0
 60 50  1  0  0  0
 52 53  1  0  0  0
 53 54  1  0  0  0
 54 55  1  0  0  0
 55 56  1  0  0  0
 56 57  2  0  0  0
 56 58  1  0  0  0
 59 61  2  0  0  0
 59 62  1  0  0  0
 68 59  1  0  0  0
 62 60  1  0  0  0
 62 63  1  0  0  0
 62 67  1  0  0  0
 63 66  1  0  0  0
 64 65  1  0  0  0
 66 64  1  0  0  0
 65 99  2  0  0  0
 69 68  1  0  0  0
 70 69  1  0  0  0
 69 72  1  0  0  0
 70 71  2  0  0  0
 77 70  1  0  0  0
 72 73  1  0  0  0
 73 74  1  0  0  0
 74 75  2  0  0  0
 74 76  1  0  0  0
 78 77  1  0  0  0
 79 78  1  0  0  0
 78 81  1  0  0  0
 79 80  2  0  0  0
 85 79  1  0  0  0
 81 82  1  0  0  0
 82 83  1  0  0  0
 82 84  1  0  0  0
 86 85  1  0  0  0
 87 86  1  0  0  0
 86 89  1  0  0  0
 87 88  2  0  0  0
 94 87  1  0  0  0
 89 90  1  0  0  0
 90 91  1  0  0  0
 90 92  1  0  0  0
 93 95  2  0  0  0
 96 93  1  0  0  0
 93102  1  0  0  0
 94 96  1  0  0  0
 96 97  1  0  0  0
 96101  1  0  0  0
 97100  1  0  0  0
 99 98  1  0  0  0
 98100  1  0  0  0
102103  1  0  0  0
103104  1  0  0  0
103106  1  0  0  0
104105  2  0  0  0
104110  1  0  0  0
106107  1  0  0  0
107108  1  0  0  0
107109  1  0  0  0
  1111  1  0  0  0
  1112  1  0  0  0
  1113  1  0  0  0
  2114  1  0  0  0
  5115  1  0  0  0
  5116  1  0  0  0
  6117  1  0  0  0
  6118  1  0  0  0
  7119  1  0  0  0
  7120  1  0  0  0
  8121  1  0  0  0
  8122  1  0  0  0
  9123  1  0  0  0
  9124  1  0  0  0
  9125  1  0  0  0
 10126  1  0  0  0
 11127  1  0  0  0
 14128  1  0  0  0
 14129  1  0  0  0
 15130  1  0  0  0
 15131  1  0  0  0
 16132  1  0  0  0
 16133  1  0  0  0
 17134  1  0  0  0
 17135  1  0  0  0
 18136  1  0  0  0
 18137  1  0  0  0
 18138  1  0  0  0
 19139  1  0  0  0
 20140  1  0  0  0
 23141  1  0  0  0
 23142  1  0  0  0
 24143  1  0  0  0
 24144  1  0  0  0
 25145  1  0  0  0
 25146  1  0  0  0
 26147  1  0  0  0
 28148  1  0  0  0
 28149  1  0  0  0
 29150  1  0  0  0
 30151  1  0  0  0
 31152  1  0  0  0
 34153  1  0  0  0
 34154  1  0  0  0
 36155  1  0  0  0
 37156  1  0  0  0
 38157  1  0  0  0
 39158  1  0  0  0
 41159  1  0  0  0
 42160  1  0  0  0
 43161  1  0  0  0
 46162  1  0  0  0
 46163  1  0  0  0
 47164  1  0  0  0
 48165  1  0  0  0
 49166  1  0  0  0
 52167  1  0  0  0
 52168  1  0  0  0
 53169  1  0  0  0
 53170  1  0  0  0
 54171  1  0  0  0
 54172  1  0  0  0
 55173  1  0  0  0
 57174  1  0  0  0
 58175  1  0  0  0
 58176  1  0  0  0
 60177  1  0  0  0
 63178  1  0  0  0
 63179  1  0  0  0
 64180  1  0  0  0
 64181  1  0  0  0
 65182  1  0  0  0
 66183  1  0  0  0
 66184  1  0  0  0
 67185  1  0  0  0
 67186  1  0  0  0
 67187  1  0  0  0
 68188  1  0  0  0
 69189  1  0  0  0
 72190  1  0  0  0
 72191  1  0  0  0
 73192  1  0  0  0
 73193  1  0  0  0
 76194  1  0  0  0
 76195  1  0  0  0
 77196  1  0  0  0
 78197  1  0  0  0
 81198  1  0  0  0
 81199  1  0  0  0
 82200  1  0  0  0
 83201  1  0  0  0
 83202  1  0  0  0
 83203  1  0  0  0
 84204  1  0  0  0
 84205  1  0  0  0
 84206  1  0  0  0
 85207  1  0  0  0
 86208  1  0  0  0
 89209  1  0  0  0
 89210  1  0  0  0
 90211  1  0  0  0
 91212  1  0  0  0
 91213  1  0  0  0
 91214  1  0  0  0
 92215  1  0  0  0
 92216  1  0  0  0
 92217  1  0  0  0
 94218  1  0  0  0
 97219  1  0  0  0
 97220  1  0  0  0
 98221  1  0  0  0
 98222  1  0  0  0
 99223  1  0  0  0
100224  1  0  0  0
100225  1  0  0  0
101226  1  0  0  0
101227  1  0  0  0
101228  1  0  0  0
102229  1  0  0  0
103230  1  0  0  0
106231  1  0  0  0
106232  1  0  0  0
107233  1  0  0  0
108234  1  0  0  0
108235  1  0  0  0
108236  1  0  0  0
109237  1  0  0  0
109238  1  0  0  0
109239  1  0  0  0
110240  1  0  0  0
110241  1  0  0  0
M  END
$$$$
