6fi5_ligand
  -I-interpret- 

125129  0  0  0  0  0  0  0  0999 V2000
  -26.4870  -11.3140  -16.2960 N   0  3  0  0  0
  -27.3770  -12.1580  -15.5030 C   0  0  0  0  0
  -26.8670  -12.2860  -14.0680 C   0  0  0  0  0
  -25.6680  -12.4290  -13.8500 O   0  0  0  0  0
  -27.5110  -13.5680  -16.1060 C   0  0  0  0  0
  -28.0260  -13.4800  -17.4390 O   0  0  0  0  0
  -28.4490  -14.4230  -15.2610 C   0  0  0  0  0
  -27.7770  -12.2470  -13.0800 N   0  0  0  0  0
  -27.3290  -12.4400  -11.6970 C   0  0  0  0  0
  -26.7250  -13.8180  -11.4360 C   0  0  0  0  0
  -27.3140  -14.8400  -11.7910 O   0  0  0  0  0
  -28.6140  -12.2640  -10.8800 C   0  0  0  0  0
  -29.5280  -11.4930  -11.7480 C   0  0  0  0  0
  -29.2090  -11.9050  -13.1480 C   0  0  0  0  0
  -25.5540  -13.8290  -10.8090 N   0  0  0  0  0
  -24.9180  -15.0600  -10.3650 C   0  0  0  0  0
  -23.4060  -14.9600  -10.5320 C   0  0  0  0  0
  -22.9480  -13.8640   -9.7730 O   0  0  0  0  0
  -25.2640  -15.3270   -8.9040 C   0  0  0  0  0
  -25.9760  -14.5490   -8.2700 O   0  0  0  0  0
  -21.4710  -13.3630  -10.1540 P   0  0  0  0  0
  -21.3660  -12.9740  -11.7120 O   0  0  0  0  0
  -21.1660  -12.0800   -9.2410 O   0  0  0  0  0
  -20.4480  -14.5460   -9.7800 O   0  0  0  0  0
  -24.7300  -16.4150   -8.3640 N   0  0  0  0  0
  -25.0250  -16.8110   -6.9980 C   0  0  0  0  0
  -24.3840  -15.8540   -6.0000 C   0  0  0  0  0
  -23.1590  -15.8020   -5.9030 O   0  0  0  0  0
  -24.5270  -18.2310   -6.7400 C   0  0  0  0  0
  -24.6020  -18.7270   -5.2950 C   0  0  0  0  0
  -26.0270  -19.0890   -4.9160 C   0  0  0  0  0
  -23.6740  -19.9060   -5.1410 C   0  0  0  0  0
  -25.1980  -15.1010   -5.2460 N   0  0  0  0  0
  -24.5860  -14.2120   -4.2540 C   0  0  0  0  0
  -23.9180  -15.0030   -3.1370 C   0  0  0  0  0
  -24.3770  -16.0980   -2.8150 O   0  0  0  0  0
  -25.7710  -13.3990   -3.7280 C   0  0  0  0  0
  -26.9540  -14.2700   -3.9430 C   0  0  0  0  0
  -26.6690  -15.0810   -5.1760 C   0  0  0  0  0
  -22.8460  -14.4610   -2.5680 N   0  0  0  0  0
  -22.1170  -15.1430   -1.5040 C   0  0  0  0  0
  -20.9080  -14.3230   -1.0820 C   0  0  0  0  0
  -21.6800  -16.5320   -1.9590 C   0  0  0  0  0
  -21.2440  -16.7140   -3.0950 O   0  0  0  0  0
  -21.1780  -17.5580   -1.0990 N   0  0  0  0  0
  -20.6720  -18.9730   -1.4170 C   0  0  0  0  0
  -21.6470  -19.8320   -2.3850 C   0  0  0  0  0
  -22.9830  -20.3210   -1.5950 C   0  0  0  0  0
  -23.0580  -21.5710   -0.9100 C   0  0  0  0  0
  -24.2360  -21.9830   -0.2280 C   0  0  0  0  0
  -25.3680  -21.1430   -0.2180 C   0  0  0  0  0
  -25.3210  -19.9090   -0.8810 C   0  0  0  0  0
  -24.1400  -19.5110   -1.5590 C   0  0  0  0  0
  -20.8780  -21.0260   -3.0650 C   0  0  0  0  0
  -19.4690  -21.0840   -3.0260 C   0  0  0  0  0
  -18.7570  -22.1490   -3.6350 C   0  0  0  0  0
  -19.4530  -23.1850   -4.3000 C   0  0  0  0  0
  -20.8540  -23.1480   -4.3520 C   0  0  0  0  0
  -21.5570  -22.0740   -3.7410 C   0  0  0  0  0
  -20.3790  -19.6130   -0.1040 C   0  0  0  0  0
  -21.3640  -19.0170    0.8770 C   0  0  0  0  0
  -21.5930  -17.6080    0.3960 C   0  0  0  0  0
  -26.4236  -10.3910  -15.8665 H   0  0  0  0  0
  -25.5601  -11.7383  -16.3313 H   0  0  0  0  0
  -26.8579  -11.2254  -17.2420 H   0  0  0  0  0
  -28.3547  -11.6762  -15.5079 H   0  0  0  0  0
  -26.5244  -14.0310  -16.1225 H   0  0  0  0  0
  -27.4373  -12.9421  -17.9734 H   0  0  0  0  0
  -29.4379  -13.9650  -15.2421 H   0  0  0  0  0
  -28.5176  -15.4211  -15.6937 H   0  0  0  0  0
  -28.0596  -14.4920  -14.2453 H   0  0  0  0  0
  -26.5321  -11.7413  -11.4423 H   0  0  0  0  0
  -28.4230  -11.7465   -9.9399 H   0  0  0  0  0
  -29.0445  -13.2251  -10.5988 H   0  0  0  0  0
  -29.3924  -10.4202  -11.6109 H   0  0  0  0  0
  -30.5706  -11.6964  -11.5038 H   0  0  0  0  0
  -29.8241  -12.7364  -13.4923 H   0  0  0  0  0
  -29.4202  -11.1213  -13.8755 H   0  0  0  0  0
  -25.0832  -12.9416  -10.6322 H   0  0  0  0  0
  -25.2855  -15.8858  -10.9742 H   0  0  0  0  0
  -23.1547  -14.8178  -11.5831 H   0  0  0  0  0
  -22.9304  -15.8782  -10.1872 H   0  0  0  0  0
  -21.5504  -13.7492  -12.2474 H   0  0  0  0  0
  -20.6328  -15.3124  -10.3278 H   0  0  0  0  0
  -24.0966  -16.9875   -8.9220 H   0  0  0  0  0
  -26.1064  -16.7774   -6.8652 H   0  0  0  0  0
  -23.4700  -18.2337   -7.0061 H   0  0  0  0  0
  -25.1750  -18.8886   -7.3194 H   0  0  0  0  0
  -24.2888  -17.9324   -4.6178 H   0  0  0  0  0
  -26.6631  -18.2097   -5.0174 H   0  0  0  0  0
  -26.3878  -19.8781   -5.5758 H   0  0  0  0  0
  -26.0495  -19.4382   -3.8837 H   0  0  0  0  0
  -23.9807  -20.6996   -5.8224 H   0  0  0  0  0
  -22.6551  -19.5978   -5.3754 H   0  0  0  0  0
  -23.7179  -20.2697   -4.1144 H   0  0  0  0  0
  -23.7964  -13.5888   -4.6738 H   0  0  0  0  0
  -25.8702  -12.4449   -4.2457 H   0  0  0  0  0
  -25.6474  -13.1346   -2.6778 H   0  0  0  0  0
  -27.8588  -13.6752   -4.0678 H   0  0  0  0  0
  -27.1244  -14.9161   -3.0818 H   0  0  0  0  0
  -27.0972  -16.0820   -5.1243 H   0  0  0  0  0
  -27.1228  -14.6533   -6.0700 H   0  0  0  0  0
  -22.5250  -13.5455   -2.8830 H   0  0  0  0  0
  -22.7818  -15.2529   -0.6472 H   0  0  0  0  0
  -20.2459  -14.1876   -1.9372 H   0  0  0  0  0
  -21.2392  -13.3498   -0.7197 H   0  0  0  0  0
  -20.3753  -14.8458   -0.2877 H   0  0  0  0  0
  -19.7667  -18.9255   -2.0222 H   0  0  0  0  0
  -21.9800  -19.1778   -3.1907 H   0  0  0  0  0
  -22.1883  -22.2280   -0.9096 H   0  0  0  0  0
  -24.2634  -22.9444    0.2849 H   0  0  0  0  0
  -26.2747  -21.4514    0.3024 H   0  0  0  0  0
  -26.1926  -19.2545   -0.8757 H   0  0  0  0  0
  -24.1248  -18.5479   -2.0693 H   0  0  0  0  0
  -18.9161  -20.2942   -2.5174 H   0  0  0  0  0
  -17.6681  -22.1690   -3.5902 H   0  0  0  0  0
  -18.9062  -24.0039   -4.7674 H   0  0  0  0  0
  -21.4028  -23.9411   -4.8599 H   0  0  0  0  0
  -22.6456  -22.0545   -3.7928 H   0  0  0  0  0
  -19.3506  -19.4272    0.2059 H   0  0  0  0  0
  -20.4832  -20.6966   -0.1601 H   0  0  0  0  0
  -20.9796  -19.0373    1.8968 H   0  0  0  0  0
  -22.2926  -19.5868    0.9122 H   0  0  0  0  0
  -22.6402  -17.3288    0.5125 H   0  0  0  0  0
  -21.0029  -16.9027    0.9812 H   0  0  0  0  0
  1  2  1  0  0  0
  2  3  1  0  0  0
  2  5  1  0  0  0
  3  4  2  0  0  0
  3  8  1  0  0  0
  5  6  1  0  0  0
  5  7  1  0  0  0
  8  9  1  0  0  0
  8 14  1  0  0  0
  9 10  1  0  0  0
  9 12  1  0  0  0
 10 11  2  0  0  0
 10 15  1  0  0  0
 12 13  1  0  0  0
 13 14  1  0  0  0
 15 16  1  0  0  0
 16 17  1  0  0  0
 16 19  1  0  0  0
 17 18  1  0  0  0
 18 21  1  0  0  0
 19 20  2  0  0  0
 19 25  1  0  0  0
 21 22  1  0  0  0
 21 23  2  0  0  0
 21 24  1  0  0  0
 25 26  1  0  0  0
 26 27  1  0  0  0
 26 29  1  0  0  0
 27 28  2  0  0  0
 27 33  1  0  0  0
 29 30  1  0  0  0
 30 31  1  0  0  0
 30 32  1  0  0  0
 33 34  1  0  0  0
 33 39  1  0  0  0
 34 35  1  0  0  0
 34 37  1  0  0  0
 35 36  2  0  0  0
 35 40  1  0  0  0
 37 38  1  0  0  0
 38 39  1  0  0  0
 40 41  1  0  0  0
 41 42  1  0  0  0
 41 43  1  0  0  0
 43 44  2  0  0  0
 43 45  1  0  0  0
 45 46  1  0  0  0
 45 62  1  0  0  0
 46 47  1  0  0  0
 46 60  1  0  0  0
 47 48  1  0  0  0
 47 54  1  0  0  0
 48 49  4  0  0  0
 48 53  4  0  0  0
 49 50  4  0  0  0
 50 51  4  0  0  0
 51 52  4  0  0  0
 52 53  4  0  0  0
 54 55  4  0  0  0
 54 59  4  0  0  0
 55 56  4  0  0  0
 56 57  4  0  0  0
 57 58  4  0  0  0
 58 59  4  0  0  0
 60 61  1  0  0  0
 61 62  1  0  0  0
  1 63  1  0  0  0
  1 64  1  0  0  0
  1 65  1  0  0  0
  2 66  1  0  0  0
  5 67  1  0  0  0
  6 68  1  0  0  0
  7 69  1  0  0  0
  7 70  1  0  0  0
  7 71  1  0  0  0
  9 72  1  0  0  0
 12 73  1  0  0  0
 12 74  1  0  0  0
 13 75  1  0  0  0
 13 76  1  0  0  0
 14 77  1  0  0  0
 14 78  1  0  0  0
 15 79  1  0  0  0
 16 80  1  0  0  0
 17 81  1  0  0  0
 17 82  1  0  0  0
 22 83  1  0  0  0
 24 84  1  0  0  0
 25 85  1  0  0  0
 26 86  1  0  0  0
 29 87  1  0  0  0
 29 88  1  0  0  0
 30 89  1  0  0  0
 31 90  1  0  0  0
 31 91  1  0  0  0
 31 92  1  0  0  0
 32 93  1  0  0  0
 32 94  1  0  0  0
 32 95  1  0  0  0
 34 96  1  0  0  0
 37 97  1  0  0  0
 37 98  1  0  0  0
 38 99  1  0  0  0
 38100  1  0  0  0
 39101  1  0  0  0
 39102  1  0  0  0
 40103  1  0  0  0
 41104  1  0  0  0
 42105  1  0  0  0
 42106  1  0  0  0
 42107  1  0  0  0
 46108  1  0  0  0
 47109  1  0  0  0
 49110  1  0  0  0
 50111  1  0  0  0
 51112  1  0  0  0
 52113  1  0  0  0
 53114  1  0  0  0
 55115  1  0  0  0
 56116  1  0  0  0
 57117  1  0  0  0
 58118  1  0  0  0
 59119  1  0  0  0
 60120  1  0  0  0
 60121  1  0  0  0
 61122  1  0  0  0
 61123  1  0  0  0
 62124  1  0  0  0
 62125  1  0  0  0
M  END
$$$$
