### 
### Created by X-TOOL on Wed Jan  1 15:39:36 2020
### 

@<TRIPOS>MOLECULE
6fi5_ligand
  123   127     1     0     0
SMALL
GAST_HUCK


@<TRIPOS>ATOM
      1 N         -26.4870  -11.3140  -16.2960 N.4       1 THR         0.2398
      2 CA        -27.3770  -12.1580  -15.5030 C.3       1 THR         0.0912
      3 C         -26.8670  -12.2860  -14.0680 C.2       1 THR         0.2318
      4 O         -25.6680  -12.4290  -13.8500 O.2       1 THR        -0.3904
      5 CB        -27.5110  -13.5680  -16.1060 C.3       1 THR         0.1120
      6 OG1       -28.0260  -13.4800  -17.4390 O.3       1 THR        -0.3840
      7 CG2       -28.4490  -14.4230  -15.2610 C.3       1 THR        -0.0314
      8 N         -27.7770  -12.2470  -13.0800 N.am      1 PRO        -0.2471
      9 CA        -27.3290  -12.4400  -11.6970 C.3       1 PRO         0.1339
     10 C         -26.7250  -13.8180  -11.4360 C.2       1 PRO         0.2042
     11 O         -27.3140  -14.8400  -11.7910 O.2       1 PRO        -0.3944
     12 CB        -28.6140  -12.2640  -10.8800 C.3       1 PRO        -0.0104
     13 CG        -29.5280  -11.4930  -11.7480 C.3       1 PRO        -0.0281
     14 CD        -29.2090  -11.9050  -13.1480 C.3       1 PRO         0.0371
     15 N         -25.5540  -13.8290  -10.8090 N.am      1 SEP        -0.2613
     16 CA        -24.9180  -15.0600  -10.3650 C.3       1 SEP         0.1586
     17 CB        -23.4060  -14.9600  -10.5320 C.3       1 SEP         0.1184
     18 OG        -22.9480  -13.8640   -9.7730 O.3       1 SEP        -0.2714
     19 C         -25.2640  -15.3270   -8.9040 C.2       1 SEP         0.2065
     20 O         -25.9760  -14.5490   -8.2700 O.2       1 SEP        -0.3943
     21 P         -21.4710  -13.3630  -10.1540 P.3       1 SEP         0.2010
     22 O1P       -21.3660  -12.9740  -11.7120 O.co2     1 SEP        -0.5537
     23 O2P       -21.1660  -12.0800   -9.2410 O.co2     1 SEP        -0.5537
     24 O3P       -20.4480  -14.5460   -9.7800 O.co2     1 SEP        -0.5537
     25 N         -24.7300  -16.4150   -8.3640 N.am      1 LEU        -0.2636
     26 CA        -25.0250  -16.8110   -6.9980 C.3       1 LEU         0.1314
     27 C         -24.3840  -15.8540   -6.0000 C.2       1 LEU         0.2064
     28 O         -23.1590  -15.8020   -5.9030 O.2       1 LEU        -0.3942
     29 CB        -24.5270  -18.2310   -6.7400 C.3       1 LEU        -0.0101
     30 CG        -24.6020  -18.7270   -5.2950 C.3       1 LEU        -0.0425
     31 CD1       -26.0270  -19.0890   -4.9160 C.3       1 LEU        -0.0625
     32 CD2       -23.6740  -19.9060   -5.1410 C.3       1 LEU        -0.0625
     33 N         -25.1980  -15.1010   -5.2460 N.am      1 PRO        -0.2498
     34 CA        -24.5860  -14.2120   -4.2540 C.3       1 PRO         0.1338
     35 C         -23.9180  -15.0030   -3.1370 C.2       1 PRO         0.2041
     36 O         -24.3770  -16.0980   -2.8150 O.2       1 PRO        -0.3944
     37 CB        -25.7710  -13.3990   -3.7280 C.3       1 PRO        -0.0104
     38 CG        -26.9540  -14.2700   -3.9430 C.3       1 PRO        -0.0281
     39 CD        -26.6690  -15.0810   -5.1760 C.3       1 PRO         0.0369
     40 N         -22.8460  -14.4610   -2.5680 N.am      1 DAL        -0.2640
     41 CA        -22.1170  -15.1430   -1.5040 C.3       1 DAL         0.1283
     42 CB        -20.9080  -14.3230   -1.0820 C.3       1 DAL        -0.0244
     43 C         -21.6800  -16.5320   -1.9590 C.2       1 DAL         0.2044
     44 O         -21.2440  -16.7140   -3.0950 O.2       1 DAL        -0.3943
     45 N10       -21.1780  -17.5580   -1.0990 N.am      1 60H        -0.2641
     46 C38       -20.6720  -18.9730   -1.4170 C.3       1 60H         0.0665
     47 C39       -21.6470  -19.8320   -2.3850 C.3       1 60H         0.0487
     48 C46       -22.9830  -20.3210   -1.5950 C.ar      1 60H        -0.0267
     49 C51       -23.0580  -21.5710   -0.9100 C.ar      1 60H        -0.0580
     50 C50       -24.2360  -21.9830   -0.2280 C.ar      1 60H        -0.0682
     51 C49       -25.3680  -21.1430   -0.2180 C.ar      1 60H        -0.0685
     52 C48       -25.3210  -19.9090   -0.8810 C.ar      1 60H        -0.0682
     53 C47       -24.1400  -19.5110   -1.5590 C.ar      1 60H        -0.0580
     54 C40       -20.8780  -21.0260   -3.0650 C.ar      1 60H        -0.0267
     55 C45       -19.4690  -21.0840   -3.0260 C.ar      1 60H        -0.0580
     56 C44       -18.7570  -22.1490   -3.6350 C.ar      1 60H        -0.0682
     57 C43       -19.4530  -23.1850   -4.3000 C.ar      1 60H        -0.0685
     58 C42       -20.8540  -23.1480   -4.3520 C.ar      1 60H        -0.0682
     59 C41       -21.5570  -22.0740   -3.7410 C.ar      1 60H        -0.0580
     60 C37       -20.3790  -19.6130   -0.1040 C.3       1 60H        -0.0239
     61 C36       -21.3640  -19.0170    0.8770 C.3       1 60H        -0.0301
     62 C35       -21.5930  -17.6080    0.3960 C.3       1 60H         0.0347
     63 H1        -26.4236  -10.4015  -15.8725 H         1 THR         0.2016
     64 H2        -26.8526  -11.2257  -17.2312 H         1 THR         0.2016
     65 H3        -25.5706  -11.7323  -16.3315 H         1 THR         0.2016
     66 H4        -28.3712  -11.6877  -15.4853 H         1 THR         0.1125
     67 H5        -26.5184  -14.0414  -16.1320 H         1 THR         0.0674
     68 H6        -27.4328  -12.9649  -17.9731 H         1 THR         0.2102
     69 H7        -28.5325  -15.4254  -15.7063 H         1 THR         0.0258
     70 H8        -29.4429  -13.9530  -15.2270 H         1 THR         0.0258
     71 H9        -28.0483  -14.5076  -14.2401 H         1 THR         0.0258
     72 H10       -26.5879  -11.6724  -11.4296 H         1 PRO         0.0802
     73 H11       -28.4073  -11.7113   -9.9517 H         1 PRO         0.0313
     74 H12       -29.0511  -13.2431  -10.6343 H         1 PRO         0.0313
     75 H13       -29.3586  -10.4138  -11.6189 H         1 PRO         0.0287
     76 H14       -30.5748  -11.7311  -11.5084 H         1 PRO         0.0287
     77 H15       -29.8089  -12.7765  -13.4491 H         1 PRO         0.0524
     78 H16       -29.3842  -11.0782  -13.8521 H         1 PRO         0.0524
     79 H17       -25.0925  -12.9590  -10.6357 H         1 SEP         0.1884
     80 H18       -25.2897  -15.8943  -10.9780 H         1 SEP         0.0827
     81 H19       -23.1583  -14.8071  -11.5928 H         1 SEP         0.0662
     82 H20       -22.9303  -15.8849  -10.1740 H         1 SEP         0.0662
     83 H21       -24.1090  -16.9763   -8.9111 H         1 LEU         0.1883
     84 H22       -26.1155  -16.7874   -6.8559 H         1 LEU         0.0800
     85 H23       -23.4744  -18.2789   -7.0558 H         1 LEU         0.0315
     86 H24       -25.1271  -18.9137   -7.3595 H         1 LEU         0.0315
     87 H25       -24.2626  -17.9220   -4.6266 H         1 LEU         0.0298
     88 H26       -26.0510  -19.4416   -3.8743 H         1 LEU         0.0232
     89 H27       -26.3923  -19.8853   -5.5811 H         1 LEU         0.0232
     90 H28       -26.6700  -18.2024   -5.0179 H         1 LEU         0.0232
     91 H29       -22.6533  -19.6085   -5.4233 H         1 LEU         0.0232
     92 H30       -24.0107  -20.7253   -5.7932 H         1 LEU         0.0232
     93 H31       -23.6811  -20.2440   -4.0942 H         1 LEU         0.0232
     94 H32       -23.8414  -13.5546   -4.7267 H         1 PRO         0.0802
     95 H33       -25.8752  -12.4586   -4.2890 H         1 PRO         0.0313
     96 H34       -25.6435  -13.1758   -2.6585 H         1 PRO         0.0313
     97 H35       -27.8552  -13.6570   -4.0914 H         1 PRO         0.0287
     98 H36       -27.1000  -14.9331   -3.0775 H         1 PRO         0.0287
     99 H37       -27.0713  -16.1000   -5.0773 H         1 PRO         0.0524
    100 H38       -27.0981  -14.6023   -6.0686 H         1 PRO         0.0524
    101 H39       -22.5313  -13.5635   -2.8769 H         1 DAL         0.1883
    102 H40       -22.7856  -15.2532   -0.6375 H         1 DAL         0.0797
    103 H41       -20.3695  -14.8496   -0.2803 H         1 DAL         0.0277
    104 H42       -21.2409  -13.3405   -0.7160 H         1 DAL         0.0277
    105 H43       -20.2389  -14.1857   -1.9443 H         1 DAL         0.0277
    106 H44       -19.7195  -18.8727   -1.9580 H         1 DAL         0.0606
    107 H45       -21.9775  -19.1616   -3.1921 H         1 DAL         0.0641
    108 H46       -22.1931  -22.2244   -0.9096 H         1 DAL         0.0561
    109 H47       -24.2633  -22.9391    0.2821 H         1 DAL         0.0600
    110 H48       -26.2698  -21.4497    0.2995 H         1 DAL         0.0561
    111 H49       -26.1878  -19.2581   -0.8757 H         1 DAL         0.0600
    112 H50       -24.1249  -18.5532   -2.0665 H         1 DAL         0.0561
    113 H51       -18.9191  -20.2985   -2.5202 H         1 DAL         0.0561
    114 H52       -17.6741  -22.1689   -3.5904 H         1 DAL         0.0600
    115 H53       -18.9092  -23.9994   -4.7648 H         1 DAL         0.0561
    116 H54       -21.3997  -23.9368   -4.8571 H         1 DAL         0.0600
    117 H55       -22.6396  -22.0546   -3.7925 H         1 DAL         0.0561
    118 H56       -19.3475  -19.3920    0.2076 H         1 DAL         0.0291
    119 H57       -20.5166  -20.7023   -0.1702 H         1 DAL         0.0291
    120 H58       -20.9433  -19.0145    1.8934 H         1 DAL         0.0285
    121 H59       -22.3061  -19.5848    0.8715 H         1 DAL         0.0285
    122 H60       -22.6552  -17.3423    0.5010 H         1 DAL         0.0522
    123 H61       -20.9800  -16.9063    0.9806 H         1 DAL         0.0522
@<TRIPOS>BOND
     1    1    2 1  
     2    2    3 1  
     3    2    5 1  
     4    3    4 2  
     5    3    8 am 
     6    5    6 1  
     7    5    7 1  
     8    8    9 1  
     9    8   14 1  
    10    9   10 1  
    11    9   12 1  
    12   10   11 2  
    13   10   15 am 
    14   12   13 1  
    15   13   14 1  
    16   15   16 1  
    17   16   17 1  
    18   16   19 1  
    19   17   18 1  
    20   18   21 1  
    21   19   20 2  
    22   19   25 am 
    23   21   22 ar 
    24   21   23 ar 
    25   21   24 ar 
    26   25   26 1  
    27   26   27 1  
    28   26   29 1  
    29   27   28 2  
    30   27   33 am 
    31   29   30 1  
    32   30   31 1  
    33   30   32 1  
    34   33   34 1  
    35   33   39 1  
    36   34   35 1  
    37   34   37 1  
    38   35   36 2  
    39   35   40 am 
    40   37   38 1  
    41   38   39 1  
    42   40   41 1  
    43   41   42 1  
    44   41   43 1  
    45   43   44 2  
    46   43   45 am 
    47   45   46 1  
    48   45   62 1  
    49   46   47 1  
    50   46   60 1  
    51   47   48 1  
    52   47   54 1  
    53   48   49 ar 
    54   48   53 ar 
    55   49   50 ar 
    56   50   51 ar 
    57   51   52 ar 
    58   52   53 ar 
    59   54   55 ar 
    60   54   59 ar 
    61   55   56 ar 
    62   56   57 ar 
    63   57   58 ar 
    64   58   59 ar 
    65   60   61 1  
    66   61   62 1  
    67    1   63 1  
    68    1   64 1  
    69    1   65 1  
    70    2   66 1  
    71    5   67 1  
    72    6   68 1  
    73    7   69 1  
    74    7   70 1  
    75    7   71 1  
    76    9   72 1  
    77   12   73 1  
    78   12   74 1  
    79   13   75 1  
    80   13   76 1  
    81   14   77 1  
    82   14   78 1  
    83   15   79 1  
    84   16   80 1  
    85   17   81 1  
    86   17   82 1  
    87   25   83 1  
    88   26   84 1  
    89   29   85 1  
    90   29   86 1  
    91   30   87 1  
    92   31   88 1  
    93   31   89 1  
    94   31   90 1  
    95   32   91 1  
    96   32   92 1  
    97   32   93 1  
    98   34   94 1  
    99   37   95 1  
   100   37   96 1  
   101   38   97 1  
   102   38   98 1  
   103   39   99 1  
   104   39  100 1  
   105   40  101 1  
   106   41  102 1  
   107   42  103 1  
   108   42  104 1  
   109   42  105 1  
   110   46  106 1  
   111   47  107 1  
   112   49  108 1  
   113   50  109 1  
   114   51  110 1  
   115   52  111 1  
   116   53  112 1  
   117   55  113 1  
   118   56  114 1  
   119   57  115 1  
   120   58  116 1  
   121   59  117 1  
   122   60  118 1  
   123   60  119 1  
   124   61  120 1  
   125   61  121 1  
   126   62  122 1  
   127   62  123 1  
@<TRIPOS>SUBSTRUCTURE
     1 THR         1

