5twz_ligand
  -I-interpret- 

 49 52  0  0  0  0  0  0  0  0999 V2000
  -25.8260  -14.6330  -16.7720 C   0  0  0  0  0
  -26.9590  -14.1740  -17.5040 O   0  0  0  0  0
  -28.2070  -14.6620  -17.2210 C   0  0  0  0  0
  -28.3670  -15.7970  -16.4310 C   0  0  0  0  0
  -29.6440  -16.2770  -16.1600 C   0  0  0  0  0
  -30.7670  -15.6330  -16.6760 C   0  0  0  0  0
  -30.6600  -14.4910  -17.4670 C   0  0  0  0  0
  -29.4050  -13.9760  -17.7640 C   0  0  0  0  0
  -29.2400  -12.7540  -18.6220 C   0  0  0  0  0
  -30.2140  -12.1160  -18.9870 O   0  0  0  0  0
  -28.0010  -12.4300  -18.9730 N   0  0  0  0  0
  -27.5390  -11.1710  -19.1480 C   0  0  0  0  0
  -26.7210  -10.6220  -18.1600 C   0  0  0  0  0
  -26.1860   -9.3430  -18.2770 C   0  0  0  0  0
  -26.4580   -8.5880  -19.4100 C   0  0  0  0  0
  -25.8780   -7.1930  -19.5270 C   0  0  0  0  0
  -24.9440   -7.1190  -20.7280 C   0  0  0  0  0
  -25.7200   -6.8870  -21.9570 N   0  3  0  0  0
  -26.3430   -8.1310  -22.4440 C   0  0  0  0  0
  -27.6510   -8.3890  -21.7100 C   0  0  0  0  0
  -27.3290   -9.1730  -20.4670 C   0  0  0  0  0
  -27.8420  -10.4540  -20.3030 C   0  0  0  0  0
  -29.8200  -17.4960  -15.3180 C   0  0  0  0  0
  -31.0300  -18.0260  -14.8880 C   0  0  0  0  0
  -30.7700  -19.1290  -14.1520 N   0  0  0  0  0
  -29.3800  -19.3070  -14.1190 N   0  0  0  0  0
  -28.8090  -18.3110  -14.8310 C   0  0  0  0  0
  -25.9621  -14.4064  -15.7145 H   0  0  0  0  0
  -25.7220  -15.7100  -16.9036 H   0  0  0  0  0
  -24.9303  -14.1325  -17.1398 H   0  0  0  0  0
  -27.4937  -16.3082  -16.0258 H   0  0  0  0  0
  -31.7562  -16.0337  -16.4547 H   0  0  0  0  0
  -31.5567  -14.0044  -17.8507 H   0  0  0  0  0
  -27.3427  -13.1945  -19.1232 H   0  0  0  0  0
  -26.4948  -11.2116  -17.2716 H   0  0  0  0  0
  -25.5576   -8.9365  -17.4846 H   0  0  0  0  0
  -25.3183   -6.9592  -18.6213 H   0  0  0  0  0
  -26.6888   -6.4763  -19.6574 H   0  0  0  0  0
  -24.4021   -8.0604  -20.8189 H   0  0  0  0  0
  -24.2429   -6.2965  -20.5864 H   0  0  0  0  0
  -25.0880   -6.5381  -22.6776 H   0  0  0  0  0
  -26.4586   -6.2144  -21.7511 H   0  0  0  0  0
  -25.6633   -8.9638  -22.2635 H   0  0  0  0  0
  -26.5466   -8.0333  -23.5104 H   0  0  0  0  0
  -28.3388   -8.9482  -22.3444 H   0  0  0  0  0
  -28.1333   -7.4466  -21.4505 H   0  0  0  0  0
  -28.4765  -10.8942  -21.0722 H   0  0  0  0  0
  -32.0184  -17.6219  -15.1066 H   0  0  0  0  0
  -27.7403  -18.1721  -14.9942 H   0  0  0  0  0
  1  2  1  0  0  0
  2  3  1  0  0  0
  3  4  4  0  0  0
  3  8  4  0  0  0
  4  5  4  0  0  0
  5  6  4  0  0  0
  5 23  1  0  0  0
  6  7  4  0  0  0
  7  8  4  0  0  0
  8  9  1  0  0  0
  9 10  2  0  0  0
  9 11  1  0  0  0
 11 12  1  0  0  0
 12 13  4  0  0  0
 12 22  4  0  0  0
 13 14  4  0  0  0
 14 15  4  0  0  0
 15 16  1  0  0  0
 15 21  4  0  0  0
 16 17  1  0  0  0
 17 18  1  0  0  0
 18 19  1  0  0  0
 19 20  1  0  0  0
 20 21  1  0  0  0
 21 22  4  0  0  0
 23 24  4  0  0  0
 23 27  4  0  0  0
 24 25  4  0  0  0
 25 26  4  0  0  0
 26 27  4  0  0  0
  1 28  1  0  0  0
  1 29  1  0  0  0
  1 30  1  0  0  0
  4 31  1  0  0  0
  6 32  1  0  0  0
  7 33  1  0  0  0
 11 34  1  0  0  0
 13 35  1  0  0  0
 14 36  1  0  0  0
 16 37  1  0  0  0
 16 38  1  0  0  0
 17 39  1  0  0  0
 17 40  1  0  0  0
 18 41  1  0  0  0
 18 42  1  0  0  0
 19 43  1  0  0  0
 19 44  1  0  0  0
 20 45  1  0  0  0
 20 46  1  0  0  0
 22 47  1  0  0  0
 24 48  1  0  0  0
 27 49  1  0  0  0
M  END
$$$$
