4qwf_ligand
  -I-interpret- 

114116  0  0  0  0  0  0  0  0999 V2000
   59.2930 -135.1120   31.5970 C   0  0  0  0  0
   59.8510 -134.1050   31.1590 O   0  0  0  0  0
   58.9980 -136.3480   30.7250 C   0  0  0  0  0
   58.5530 -136.0620   29.3360 N   0  3  0  0  0
   58.4800 -134.6030   27.0670 O   0  0  0  0  0
   59.7100 -135.9630   28.4080 C   0  0  0  0  0
   57.6200 -134.9030   29.2360 C   0  0  0  0  0
   59.1530 -135.8440   27.0300 C   0  0  0  0  0
   57.2540 -134.6530   27.8460 C   0  0  0  0  0
   58.9100 -135.2720   32.8660 N   0  0  0  0  0
   59.1130 -134.2630   33.9020 C   0  0  0  0  0
   60.3170 -134.7030   34.7120 C   0  0  0  0  0
   60.5970 -135.8970   34.8040 O   0  0  0  0  0
   57.9310 -134.3000   34.8300 C   0  0  0  0  0
   57.1310 -133.0440   34.5500 C   0  0  0  0  0
   55.8930 -133.0950   35.2410 C   0  0  0  0  0
   54.8090 -132.3870   34.7190 C   0  0  0  0  0
   55.7020 -133.8010   36.4370 C   0  0  0  0  0
   53.5730 -132.3960   35.3610 C   0  0  0  0  0
   54.4670 -133.8130   37.0800 C   0  0  0  0  0
   53.3990 -133.1090   36.5420 C   0  0  0  0  0
   60.9860 -133.7340   35.3350 N   0  0  0  0  0
   62.1270 -134.0830   36.1820 C   0  0  0  0  0
   61.6050 -134.2540   37.5990 C   0  0  0  0  0
   60.8280 -133.4290   38.0820 O   0  0  0  0  0
   63.1490 -132.9860   36.1860 C   0  0  0  0  0
   63.8880 -133.0980   34.8410 C   0  0  0  0  0
   64.6140 -131.7780   34.5490 C   0  0  0  0  0
   64.8970 -134.2550   34.8760 C   0  0  0  0  0
   62.0520 -135.3570   38.2180 N   0  0  0  0  0
   61.6920 -135.6790   39.5990 C   0  0  0  0  0
   62.9780 -135.6640   40.4030 C   0  0  0  0  0
   64.0720 -135.6840   39.8380 O   0  0  0  0  0
   61.0530 -137.0270   39.6920 C   0  0  0  0  0
   59.7430 -136.8460   39.2420 C   0  0  0  0  0
   59.3920 -137.2020   37.9410 C   0  0  0  0  0
   58.7780 -136.3080   40.0930 C   0  0  0  0  0
   58.0860 -137.0250   37.4940 C   0  0  0  0  0
   57.4730 -136.1280   39.6450 C   0  0  0  0  0
   57.1260 -136.4890   38.3470 C   0  0  0  0  0
   62.7940 -135.6070   41.7260 N   0  0  0  0  0
   63.8970 -135.4440   42.6680 C   0  0  0  0  0
   63.6850 -134.0260   43.1690 C   0  0  0  0  0
   64.8300 -133.0800   42.7470 C   0  0  0  0  0
   64.4410 -131.6610   43.1970 C   0  0  0  0  0
   65.0760 -133.0670   41.2290 C   0  0  0  0  0
   63.8100 -136.3980   43.8840 C   0  0  0  0  0
   64.1820 -137.9240   43.6280 C   0  0  0  0  0
   65.3990 -138.0120   42.6620 C   0  0  0  0  0
   62.9260 -138.5650   42.9890 C   0  0  0  0  0
   63.3380 -139.4750   41.9610 O   0  0  0  0  0
   62.4870 -136.3120   44.4150 O   0  0  0  0  0
   58.1792 -136.8803   31.2091 H   0  0  0  0  0
   59.9345 -136.8997   30.6428 H   0  0  0  0  0
   57.9970 -136.8631   29.0369 H   0  0  0  0  0
   60.3485 -136.8424   28.4918 H   0  0  0  0  0
   60.3271 -135.0980   28.6511 H   0  0  0  0  0
   58.1148 -134.0173   29.6345 H   0  0  0  0  0
   56.7167 -135.1283   29.8029 H   0  0  0  0  0
   59.9215 -135.8855   26.2581 H   0  0  0  0  0
   58.4968 -136.6733   26.7660 H   0  0  0  0  0
   56.6029 -135.4456   27.4773 H   0  0  0  0  0
   56.7122 -133.7111   27.7605 H   0  0  0  0  0
   58.4513 -136.1453   33.1256 H   0  0  0  0  0
   59.2424 -133.2722   33.4665 H   0  0  0  0  0
   58.2511 -134.3369   35.8713 H   0  0  0  0  0
   57.3293 -135.1934   34.6630 H   0  0  0  0  0
   56.9418 -132.9699   33.4791 H   0  0  0  0  0
   57.6958 -132.1754   34.8886 H   0  0  0  0  0
   54.9315 -131.8195   33.7965 H   0  0  0  0  0
   56.5364 -134.3512   36.8720 H   0  0  0  0  0
   52.7372 -131.8409   34.9351 H   0  0  0  0  0
   54.3392 -134.3749   38.0052 H   0  0  0  0  0
   52.4303 -133.1149   37.0418 H   0  0  0  0  0
   60.7060 -132.7596   35.2228 H   0  0  0  0  0
   62.5951 -134.9921   35.8044 H   0  0  0  0  0
   63.8362 -133.0869   37.0260 H   0  0  0  0  0
   62.6813 -132.0083   36.3016 H   0  0  0  0  0
   63.1627 -133.2984   34.0524 H   0  0  0  0  0
   63.8864 -130.9679   34.4997 H   0  0  0  0  0
   65.3315 -131.5758   35.3443 H   0  0  0  0  0
   65.1380 -131.8560   33.5964 H   0  0  0  0  0
   65.6254 -134.0764   35.6670 H   0  0  0  0  0
   64.3700 -135.1892   35.0699 H   0  0  0  0  0
   65.4093 -134.3178   33.9159 H   0  0  0  0  0
   62.6644 -135.9935   37.7079 H   0  0  0  0  0
   60.9725 -134.9536   39.9786 H   0  0  0  0  0
   61.0773 -137.4130   40.7111 H   0  0  0  0  0
   61.5849 -137.7653   39.0919 H   0  0  0  0  0
   60.1431 -137.6206   37.2712 H   0  0  0  0  0
   59.0467 -136.0278   41.1115 H   0  0  0  0  0
   57.8152 -137.3061   36.4763 H   0  0  0  0  0
   56.7220 -135.7038   40.3115 H   0  0  0  0  0
   56.1024 -136.3520   37.9983 H   0  0  0  0  0
   61.8447 -135.6804   42.0918 H   0  0  0  0  0
   64.8564 -135.6514   42.1940 H   0  0  0  0  0
   63.6518 -134.0529   44.2582 H   0  0  0  0  0
   62.7578 -133.6492   42.7373 H   0  0  0  0  0
   65.7512 -133.4311   43.2121 H   0  0  0  0  0
   63.5074 -131.3714   42.7146 H   0  0  0  0  0
   64.3118 -131.6470   44.2792 H   0  0  0  0  0
   65.2291 -130.9629   42.9148 H   0  0  0  0  0
   65.3380 -134.0713   40.8961 H   0  0  0  0  0
   64.1709 -132.7381   40.7184 H   0  0  0  0  0
   65.8929 -132.3824   41.0004 H   0  0  0  0  0
   64.5784 -136.0570   44.5778 H   0  0  0  0  0
   64.4593 -138.4388   44.5479 H   0  0  0  0  0
   65.1441 -137.5376   41.7143 H   0  0  0  0  0
   66.2526 -137.5011   43.1075 H   0  0  0  0  0
   65.6497 -139.0587   42.4899 H   0  0  0  0  0
   62.2944 -137.7872   42.5598 H   0  0  0  0  0
   62.3600 -139.1021   43.7500 H   0  0  0  0  0
   62.5630 -139.8760   41.5607 H   0  0  0  0  0
   62.4087 -136.8967   45.1723 H   0  0  0  0  0
  1  2  2  0  0  0
  3  1  1  0  0  0
  1 10  1  0  0  0
  4  3  1  0  0  0
  6  4  1  0  0  0
  4  7  1  0  0  0
  8  5  1  0  0  0
  5  9  1  0  0  0
  6  8  1  0  0  0
  7  9  1  0  0  0
 10 11  1  0  0  0
 11 12  1  0  0  0
 11 14  1  0  0  0
 12 13  2  0  0  0
 12 22  1  0  0  0
 14 15  1  0  0  0
 15 16  1  0  0  0
 16 17  4  0  0  0
 16 18  4  0  0  0
 17 19  4  0  0  0
 18 20  4  0  0  0
 19 21  4  0  0  0
 20 21  4  0  0  0
 22 23  1  0  0  0
 23 24  1  0  0  0
 23 26  1  0  0  0
 24 25  2  0  0  0
 24 30  1  0  0  0
 26 27  1  0  0  0
 27 28  1  0  0  0
 27 29  1  0  0  0
 30 31  1  0  0  0
 31 32  1  0  0  0
 31 34  1  0  0  0
 32 33  2  0  0  0
 32 41  1  0  0  0
 34 35  1  0  0  0
 35 36  4  0  0  0
 35 37  4  0  0  0
 36 38  4  0  0  0
 37 39  4  0  0  0
 38 40  4  0  0  0
 39 40  4  0  0  0
 41 42  1  0  0  0
 42 43  1  0  0  0
 42 47  1  0  0  0
 43 44  1  0  0  0
 44 45  1  0  0  0
 44 46  1  0  0  0
 47 48  1  0  0  0
 47 52  1  0  0  0
 48 49  1  0  0  0
 48 50  1  0  0  0
 50 51  1  0  0  0
  3 53  1  0  0  0
  3 54  1  0  0  0
  4 55  1  0  0  0
  6 56  1  0  0  0
  6 57  1  0  0  0
  7 58  1  0  0  0
  7 59  1  0  0  0
  8 60  1  0  0  0
  8 61  1  0  0  0
  9 62  1  0  0  0
  9 63  1  0  0  0
 10 64  1  0  0  0
 11 65  1  0  0  0
 14 66  1  0  0  0
 14 67  1  0  0  0
 15 68  1  0  0  0
 15 69  1  0  0  0
 17 70  1  0  0  0
 18 71  1  0  0  0
 19 72  1  0  0  0
 20 73  1  0  0  0
 21 74  1  0  0  0
 22 75  1  0  0  0
 23 76  1  0  0  0
 26 77  1  0  0  0
 26 78  1  0  0  0
 27 79  1  0  0  0
 28 80  1  0  0  0
 28 81  1  0  0  0
 28 82  1  0  0  0
 29 83  1  0  0  0
 29 84  1  0  0  0
 29 85  1  0  0  0
 30 86  1  0  0  0
 31 87  1  0  0  0
 34 88  1  0  0  0
 34 89  1  0  0  0
 36 90  1  0  0  0
 37 91  1  0  0  0
 38 92  1  0  0  0
 39 93  1  0  0  0
 40 94  1  0  0  0
 41 95  1  0  0  0
 42 96  1  0  0  0
 43 97  1  0  0  0
 43 98  1  0  0  0
 44 99  1  0  0  0
 45100  1  0  0  0
 45101  1  0  0  0
 45102  1  0  0  0
 46103  1  0  0  0
 46104  1  0  0  0
 46105  1  0  0  0
 47106  1  0  0  0
 48107  1  0  0  0
 49108  1  0  0  0
 49109  1  0  0  0
 49110  1  0  0  0
 50111  1  0  0  0
 50112  1  0  0  0
 51113  1  0  0  0
 52114  1  0  0  0
M  END
$$$$
