### 
### Created by X-TOOL on Mon Sep 10 21:13:23 2018
### 

@<TRIPOS>MOLECULE
4qwf_ligand
  114   116     1     0     0
SMALL
GAST_HUCK


@<TRIPOS>ATOM
      1 C8         59.2930 -135.1120   31.5970 C.2       1 3BV         0.2238
      2 O9         59.8510 -134.1050   31.1590 O.2       1 3BV        -0.3910
      3 C7         58.9980 -136.3480   30.7250 C.3       1 3BV         0.0582
      4 N4         58.5530 -136.0620   29.3360 N.4       1 3BV         0.2552
      5 O1         58.4800 -134.6030   27.0670 O.3       1 3BV        -0.3693
      6 C5         59.7100 -135.9630   28.4080 C.3       1 3BV        -0.0060
      7 C3         57.6200 -134.9030   29.2360 C.3       1 3BV        -0.0060
      8 C6         59.1530 -135.8440   27.0300 C.3       1 3BV         0.0878
      9 C2         57.2540 -134.6530   27.8460 C.3       1 3BV         0.0878
     10 N10        58.9100 -135.2720   32.8660 N.am      1 3BV        -0.2611
     11 C11        59.1130 -134.2630   33.9020 C.3       1 3BV         0.1328
     12 C20        60.3170 -134.7030   34.7120 C.2       1 3BV         0.2041
     13 O21        60.5970 -135.8970   34.8040 O.2       1 3BV        -0.3944
     14 C12        57.9310 -134.3000   34.8300 C.3       1 3BV        -0.0027
     15 C13        57.1310 -133.0440   34.5500 C.3       1 3BV        -0.0149
     16 C14        55.8930 -133.0950   35.2410 C.ar      1 3BV        -0.0428
     17 C19        54.8090 -132.3870   34.7190 C.ar      1 3BV        -0.0603
     18 C15        55.7020 -133.8010   36.4370 C.ar      1 3BV        -0.0603
     19 C18        53.5730 -132.3960   35.3610 C.ar      1 3BV        -0.0686
     20 C16        54.4670 -133.8130   37.0800 C.ar      1 3BV        -0.0686
     21 C17        53.3990 -133.1090   36.5420 C.ar      1 3BV        -0.0687
     22 N22        60.9860 -133.7340   35.3350 N.am      1 3BV        -0.2637
     23 C23        62.1270 -134.0830   36.1820 C.3       1 3BV         0.1312
     24 C28        61.6050 -134.2540   37.5990 C.2       1 3BV         0.2040
     25 O29        60.8280 -133.4290   38.0820 O.2       1 3BV        -0.3944
     26 C24        63.1490 -132.9860   36.1860 C.3       1 3BV        -0.0101
     27 C25        63.8880 -133.0980   34.8410 C.3       1 3BV        -0.0425
     28 C26        64.6140 -131.7780   34.5490 C.3       1 3BV        -0.0625
     29 C27        64.8970 -134.2550   34.8760 C.3       1 3BV        -0.0625
     30 N30        62.0520 -135.3570   38.2180 N.am      1 3BV        -0.2619
     31 C31        61.6920 -135.6790   39.5990 C.3       1 3BV         0.1403
     32 C39        62.9780 -135.6640   40.4030 C.2       1 3BV         0.2040
     33 O40        64.0720 -135.6840   39.8380 O.2       1 3BV        -0.3943
     34 C32        61.0530 -137.0270   39.6920 C.3       1 3BV         0.0214
     35 C33        59.7430 -136.8460   39.2420 C.ar      1 3BV        -0.0386
     36 C34        59.3920 -137.2020   37.9410 C.ar      1 3BV        -0.0601
     37 C38        58.7780 -136.3080   40.0930 C.ar      1 3BV        -0.0601
     38 C35        58.0860 -137.0250   37.4940 C.ar      1 3BV        -0.0686
     39 C37        57.4730 -136.1280   39.6450 C.ar      1 3BV        -0.0686
     40 C36        57.1260 -136.4890   38.3470 C.ar      1 3BV        -0.0687
     41 N41        62.7940 -135.6070   41.7260 N.am      1 3BV        -0.2794
     42 C42        63.8970 -135.4440   42.6680 C.3       1 3BV         0.0685
     43 C43        63.6850 -134.0260   43.1690 C.3       1 3BV        -0.0251
     44 C44        64.8300 -133.0800   42.7470 C.3       1 3BV        -0.0446
     45 C45        64.4410 -131.6610   43.1970 C.3       1 3BV        -0.0626
     46 C46        65.0760 -133.0670   41.2290 C.3       1 3BV        -0.0626
     47 C47        63.8100 -136.3980   43.8840 C.3       1 3BV         0.0827
     48 C51        64.1820 -137.9240   43.6280 C.3       1 3BV         0.0075
     49 C58        65.3990 -138.0120   42.6620 C.3       1 3BV        -0.0579
     50 C59        62.9260 -138.5650   42.9890 C.3       1 3BV         0.0492
     51 O60        63.3380 -139.4750   41.9610 O.3       1 3BV        -0.3947
     52 O48        62.4870 -136.3120   44.4150 O.3       1 3BV        -0.3892
     53 H1         58.2076 -136.9310   31.2204 H         1 3BV         0.1063
     54 H2         59.9170 -136.9498   30.6688 H         1 3BV         0.1063
     55 H3         58.0230 -136.8668   29.0402 H         1 3BV         0.2054
     56 H4         60.3356 -136.8644   28.4863 H         1 3BV         0.0837
     57 H5         60.3135 -135.0757   28.6496 H         1 3BV         0.0837
     58 H6         58.1106 -134.0082   29.6465 H         1 3BV         0.0837
     59 H7         56.7105 -135.1208   29.8151 H         1 3BV         0.0837
     60 H8         59.9559 -135.8364   26.2781 H         1 3BV         0.0613
     61 H9         58.4552 -136.6662   26.8130 H         1 3BV         0.0613
     62 H10        56.6088 -135.4639   27.4771 H         1 3BV         0.0613
     63 H11        56.7202 -133.6945   27.7660 H         1 3BV         0.0613
     64 H12        58.4603 -136.1282   33.1205 H         1 3BV         0.1884
     65 H13        59.2552 -133.2621   33.4685 H         1 3BV         0.0801
     66 H14        58.2688 -134.3109   35.8768 H         1 3BV         0.0334
     67 H15        57.3196 -135.1929   34.6326 H         1 3BV         0.0334
     68 H16        56.9422 -132.9653   33.4692 H         1 3BV         0.0428
     69 H17        57.7010 -132.1659   34.8876 H         1 3BV         0.0428
     70 H18        54.9309 -131.8226   33.8016 H         1 3BV         0.0557
     71 H19        56.5318 -134.3481   36.8696 H         1 3BV         0.0557
     72 H20        52.7418 -131.8439   34.9375 H         1 3BV         0.0599
     73 H21        54.3399 -134.3718   38.0001 H         1 3BV         0.0599
     74 H22        52.4357 -133.1149   37.0390 H         1 3BV         0.0559
     75 H23        60.7115 -132.7787   35.2250 H         1 3BV         0.1883
     76 H24        62.5862 -135.0170   35.8259 H         1 3BV         0.0800
     77 H25        63.8517 -133.1199   37.0216 H         1 3BV         0.0315
     78 H26        62.6583 -132.0054   36.2731 H         1 3BV         0.0315
     79 H27        63.1544 -133.2896   34.0440 H         1 3BV         0.0298
     80 H28        65.1432 -131.8555   33.5878 H         1 3BV         0.0232
     81 H29        65.3385 -131.5728   35.3509 H         1 3BV         0.0232
     82 H30        63.8808 -130.9595   34.4989 H         1 3BV         0.0232
     83 H31        64.3682 -135.1964   35.0857 H         1 3BV         0.0232
     84 H32        65.6411 -134.0689   35.6645 H         1 3BV         0.0232
     85 H33        65.4045 -134.3285   33.9029 H         1 3BV         0.0232
     86 H34        62.6524 -135.9811   37.7179 H         1 3BV         0.1885
     87 H35        60.9954 -134.9216   39.9878 H         1 3BV         0.0823
     88 H36        61.0570 -137.3843   40.7323 H         1 3BV         0.0474
     89 H37        61.5831 -137.7495   39.0540 H         1 3BV         0.0474
     90 H38        60.1390 -137.6183   37.2749 H         1 3BV         0.0557
     91 H39        59.0452 -136.0294   41.1059 H         1 3BV         0.0557
     92 H40        57.8167 -137.3045   36.4819 H         1 3BV         0.0599
     93 H41        56.7262 -135.7062   40.3078 H         1 3BV         0.0599
     94 H42        56.1080 -136.3528   38.0002 H         1 3BV         0.0559
     95 H43        61.8633 -135.6789   42.0846 H         1 3BV         0.1856
     96 H44        64.8675 -135.5657   42.1647 H         1 3BV         0.0582
     97 H45        63.6269 -134.0435   44.2673 H         1 3BV         0.0291
     98 H46        62.7395 -133.6428   42.7578 H         1 3BV         0.0291
     99 H47        65.7563 -133.3918   43.2518 H         1 3BV         0.0296
    100 H48        65.2356 -130.9555   42.9128 H         1 3BV         0.0232
    101 H49        64.3104 -131.6455   44.2891 H         1 3BV         0.0232
    102 H50        63.4990 -131.3675   42.7108 H         1 3BV         0.0232
    103 H51        65.3552 -134.0769   40.8942 H         1 3BV         0.0232
    104 H52        65.8901 -132.3651   40.9955 H         1 3BV         0.0232
    105 H53        64.1586 -132.7498   40.7116 H         1 3BV         0.0232
    106 H54        64.5153 -136.0224   44.6400 H         1 3BV         0.0620
    107 H55        64.4268 -138.4259   44.5757 H         1 3BV         0.0346
    108 H56        65.6530 -139.0680   42.4876 H         1 3BV         0.0234
    109 H57        66.2612 -137.4968   43.1105 H         1 3BV         0.0234
    110 H58        65.1430 -137.5336   41.7051 H         1 3BV         0.0234
    111 H59        62.2920 -137.7789   42.5531 H         1 3BV         0.0560
    112 H60        62.3583 -139.1097   43.7578 H         1 3BV         0.0560
    113 H61        63.8288 -139.0022   41.2992 H         1 3BV         0.2094
    114 H62        62.4442 -136.7904   45.2347 H         1 3BV         0.2099
@<TRIPOS>BOND
     1    1    2 2  
     2    3    1 1  
     3    1   10 am 
     4    4    3 1  
     5    6    4 1  
     6    4    7 1  
     7    8    5 1  
     8    5    9 1  
     9    6    8 1  
    10    7    9 1  
    11   10   11 1  
    12   11   12 1  
    13   11   14 1  
    14   12   13 2  
    15   12   22 am 
    16   14   15 1  
    17   15   16 1  
    18   16   17 ar 
    19   16   18 ar 
    20   17   19 ar 
    21   18   20 ar 
    22   19   21 ar 
    23   20   21 ar 
    24   22   23 1  
    25   23   24 1  
    26   23   26 1  
    27   24   25 2  
    28   24   30 am 
    29   26   27 1  
    30   27   28 1  
    31   27   29 1  
    32   30   31 1  
    33   31   32 1  
    34   31   34 1  
    35   32   33 2  
    36   32   41 am 
    37   34   35 1  
    38   35   36 ar 
    39   35   37 ar 
    40   36   38 ar 
    41   37   39 ar 
    42   38   40 ar 
    43   39   40 ar 
    44   41   42 1  
    45   42   43 1  
    46   42   47 1  
    47   43   44 1  
    48   44   45 1  
    49   44   46 1  
    50   47   48 1  
    51   47   52 1  
    52   48   49 1  
    53   48   50 1  
    54   50   51 1  
    55    3   53 1  
    56    3   54 1  
    57    4   55 1  
    58    6   56 1  
    59    6   57 1  
    60    7   58 1  
    61    7   59 1  
    62    8   60 1  
    63    8   61 1  
    64    9   62 1  
    65    9   63 1  
    66   10   64 1  
    67   11   65 1  
    68   14   66 1  
    69   14   67 1  
    70   15   68 1  
    71   15   69 1  
    72   17   70 1  
    73   18   71 1  
    74   19   72 1  
    75   20   73 1  
    76   21   74 1  
    77   22   75 1  
    78   23   76 1  
    79   26   77 1  
    80   26   78 1  
    81   27   79 1  
    82   28   80 1  
    83   28   81 1  
    84   28   82 1  
    85   29   83 1  
    86   29   84 1  
    87   29   85 1  
    88   30   86 1  
    89   31   87 1  
    90   34   88 1  
    91   34   89 1  
    92   36   90 1  
    93   37   91 1  
    94   38   92 1  
    95   39   93 1  
    96   40   94 1  
    97   41   95 1  
    98   42   96 1  
    99   43   97 1  
   100   43   98 1  
   101   44   99 1  
   102   45  100 1  
   103   45  101 1  
   104   45  102 1  
   105   46  103 1  
   106   46  104 1  
   107   46  105 1  
   108   47  106 1  
   109   48  107 1  
   110   49  108 1  
   111   49  109 1  
   112   49  110 1  
   113   50  111 1  
   114   50  112 1  
   115   51  113 1  
   116   52  114 1  
@<TRIPOS>SUBSTRUCTURE
     1 3BV         1

