4ocp_ligand
  -I-interpret- 

 42 44  0  0  0  0  0  0  0  0999 V2000
  -32.8010    8.9520  -14.9730 P   0  0  0  0  0
  -31.6730    8.7800  -15.9610 O   0  0  0  0  0
  -34.1290    9.2720  -15.6010 O   0  0  0  0  0
  -32.9350    7.9090  -13.8930 O   0  0  0  0  0
  -31.0380   10.7930  -13.5510 P   0  0  0  0  0
  -29.8300   10.3670  -14.3490 O   0  0  0  0  0
  -31.0630   10.5530  -12.0620 O   0  0  0  0  0
  -32.4540   10.2950  -14.1380 O   0  0  0  0  0
  -31.2150   12.3790  -13.7980 O   0  0  0  0  0
  -31.4150   12.8860  -15.1140 C   0  0  0  0  0
  -30.3820   13.9640  -15.3600 C   0  0  0  0  0
  -30.5420   14.9850  -14.3710 O   0  0  0  0  0
  -28.9490   13.4830  -15.2070 C   0  0  0  0  0
  -28.4410   12.8350  -16.3870 O   0  0  0  0  0
  -28.2370   14.7690  -14.8290 C   0  0  0  0  0
  -27.9810   15.5790  -15.9760 O   0  0  0  0  0
  -29.2580   15.5050  -13.9910 C   0  0  0  0  0
  -29.1170   15.3880  -12.5170 N   0  0  0  0  0
  -29.6110   14.4130  -11.7240 C   0  0  0  0  0
  -29.3170   14.6500  -10.4200 N   0  0  0  0  0
  -28.6370   15.8080  -10.3780 C   0  0  0  0  0
  -28.0550   16.6560   -9.3210 C   0  0  0  0  0
  -28.1520   16.2580   -8.0370 N   0  0  0  0  0
  -27.4270   17.8080   -9.6790 N   0  0  0  0  0
  -27.3560   18.1920  -10.9700 C   0  0  0  0  0
  -27.8740   17.4620  -11.9860 N   0  0  0  0  0
  -28.5190   16.2930  -11.7580 C   0  0  0  0  0
  -30.8624    8.5788  -15.4877 H   0  0  0  0  0
  -32.0713    7.7291  -13.5145 H   0  0  0  0  0
  -29.9653   10.5861  -15.2738 H   0  0  0  0  0
  -32.4198   13.2972  -15.2111 H   0  0  0  0  0
  -31.3074   12.0862  -15.8467 H   0  0  0  0  0
  -30.5415   14.3021  -16.3839 H   0  0  0  0  0
  -28.8154   12.6953  -14.4655 H   0  0  0  0  0
  -27.5363   12.5539  -16.2320 H   0  0  0  0  0
  -27.2857   14.5650  -14.3376 H   0  0  0  0  0
  -27.5312   16.3826  -15.7049 H   0  0  0  0  0
  -29.1163   16.5673  -14.1899 H   0  0  0  0  0
  -30.1716   13.5500  -12.0833 H   0  0  0  0  0
  -28.6224   15.3822   -7.8087 H   0  0  0  0  0
  -27.7550   16.8326   -7.2936 H   0  0  0  0  0
  -26.8590   19.1329  -11.2062 H   0  0  0  0  0
  1  2  1  0  0  0
  1  3  2  0  0  0
  1  4  1  0  0  0
  8  1  1  0  0  0
  5  6  1  0  0  0
  5  7  2  0  0  0
  5  8  1  0  0  0
  5  9  1  0  0  0
  9 10  1  0  0  0
 10 11  1  0  0  0
 11 12  1  0  0  0
 11 13  1  0  0  0
 12 17  1  0  0  0
 13 14  1  0  0  0
 13 15  1  0  0  0
 15 16  1  0  0  0
 15 17  1  0  0  0
 17 18  1  0  0  0
 18 19  4  0  0  0
 18 27  4  0  0  0
 19 20  4  0  0  0
 20 21  4  0  0  0
 21 22  4  0  0  0
 21 27  4  0  0  0
 22 23  1  0  0  0
 22 24  4  0  0  0
 24 25  4  0  0  0
 25 26  4  0  0  0
 26 27  4  0  0  0
  2 28  1  0  0  0
  4 29  1  0  0  0
  6 30  1  0  0  0
 10 31  1  0  0  0
 10 32  1  0  0  0
 11 33  1  0  0  0
 13 34  1  0  0  0
 14 35  1  0  0  0
 15 36  1  0  0  0
 16 37  1  0  0  0
 17 38  1  0  0  0
 19 39  1  0  0  0
 23 40  1  0  0  0
 23 41  1  0  0  0
 25 42  1  0  0  0
M  END
$$$$
