### 
### Created by X-TOOL on Mon Sep 10 21:13:18 2018
### 

@<TRIPOS>MOLECULE
4ocp_ligand
   39    41     1     0     0
SMALL
GAST_HUCK


@<TRIPOS>ATOM
      1 PB        -32.8010    8.9520  -14.9730 P.3       1 ADP         0.2069
      2 O1B       -31.6730    8.7800  -15.9610 O.co2     1 ADP        -0.5891
      3 O2B       -34.1290    9.2720  -15.6010 O.co2     1 ADP        -0.5891
      4 O3B       -32.9350    7.9090  -13.8930 O.co2     1 ADP        -0.5891
      5 PA        -31.0380   10.7930  -13.5510 P.3       1 ADP         0.3276
      6 O1A       -29.8300   10.3670  -14.3490 O.co2     1 ADP        -0.5556
      7 O2A       -31.0630   10.5530  -12.0620 O.co2     1 ADP        -0.5556
      8 O3A       -32.4540   10.2950  -14.1380 O.3       1 ADP        -0.1548
      9 O5'       -31.2150   12.3790  -13.7980 O.3       1 ADP        -0.2436
     10 C5'       -31.4150   12.8860  -15.1140 C.3       1 ADP         0.1132
     11 C4'       -30.3820   13.9640  -15.3600 C.3       1 ADP         0.1189
     12 O4'       -30.5420   14.9850  -14.3710 O.3       1 ADP        -0.3364
     13 C3'       -28.9490   13.4830  -15.2070 C.3       1 ADP         0.1149
     14 O3'       -28.4410   12.8350  -16.3870 O.3       1 ADP        -0.3864
     15 C2'       -28.2370   14.7690  -14.8290 C.3       1 ADP         0.1385
     16 O2'       -27.9810   15.5790  -15.9760 O.3       1 ADP        -0.3836
     17 C1'       -29.2580   15.5050  -13.9910 C.3       1 ADP         0.2010
     18 N9        -29.1170   15.3880  -12.5170 N.pl3     1 ADP        -0.1919
     19 C8        -29.6110   14.4130  -11.7240 C.2       1 ADP         0.1123
     20 N7        -29.3170   14.6500  -10.4200 N.2       1 ADP        -0.2958
     21 C5        -28.6370   15.8080  -10.3780 C.ar      1 ADP         0.1045
     22 C6        -28.0550   16.6560   -9.3210 C.ar      1 ADP         0.1298
     23 N6        -28.1520   16.2580   -8.0370 N.pl3     1 ADP        -0.3152
     24 N1        -27.4270   17.8080   -9.6790 N.ar      1 ADP        -0.2698
     25 C2        -27.3560   18.1920  -10.9700 C.ar      1 ADP         0.0533
     26 N3        -27.8740   17.4620  -11.9860 N.ar      1 ADP        -0.2714
     27 C4        -28.5190   16.2930  -11.7580 C.ar      1 ADP         0.1613
     28 H         -32.4260   13.3106  -15.2012 H         1 ADP         0.0648
     29 H         -31.2926   12.0767  -15.8488 H         1 ADP         0.0648
     30 H         -30.5279   14.3751  -16.3698 H         1 ADP         0.0651
     31 H         -28.8789   12.7628  -14.3785 H         1 ADP         0.0648
     32 H         -28.4642   13.4437  -17.1160 H         1 ADP         0.2100
     33 H         -27.3072   14.5676  -14.2769 H         1 ADP         0.0676
     34 H         -27.4334   15.0986  -16.5857 H         1 ADP         0.2101
     35 H         -29.2013   16.5734  -14.2464 H         1 ADP         0.0996
     36 H         -30.1711   13.5508  -12.0830 H         1 ADP         0.1349
     37 H         -27.7511   16.8382   -7.2863 H         1 ADP         0.1820
     38 H         -28.6270   15.3736   -7.8064 H         1 ADP         0.1820
     39 H         -26.8617   19.1277  -11.2049 H         1 ADP         0.0996
@<TRIPOS>BOND
     1    1    2 ar 
     2    1    3 ar 
     3    1    4 ar 
     4    8    1 1  
     5    5    6 ar 
     6    5    7 ar 
     7    5    8 1  
     8    5    9 1  
     9    9   10 1  
    10   10   11 1  
    11   11   12 1  
    12   11   13 1  
    13   12   17 1  
    14   13   14 1  
    15   13   15 1  
    16   15   16 1  
    17   15   17 1  
    18   17   18 1  
    19   18   19 1  
    20   18   27 1  
    21   19   20 2  
    22   20   21 1  
    23   21   22 ar 
    24   21   27 ar 
    25   22   23 1  
    26   22   24 ar 
    27   24   25 ar 
    28   25   26 ar 
    29   26   27 ar 
    30   10   28 1  
    31   10   29 1  
    32   11   30 1  
    33   13   31 1  
    34   14   32 1  
    35   15   33 1  
    36   16   34 1  
    37   17   35 1  
    38   19   36 1  
    39   23   37 1  
    40   23   38 1  
    41   25   39 1  
@<TRIPOS>SUBSTRUCTURE
     1 ADP         1

