3mvh_ligand
  -I-interpret- 

 51 54  0  0  0  0  0  0  0  0999 V2000
   16.3290   -0.7580   29.3170 C   0  0  0  0  0
   15.3980   -1.3020   28.2480 C   0  0  0  0  0
   14.6320   -2.4920   28.7780 C   0  0  0  0  0
   13.3260   -2.4040   29.2320 C   0  0  0  0  0
   12.9200   -3.6380   29.5790 N   0  0  0  0  0
   13.9460   -4.5060   29.4260 C   0  0  0  0  0
   13.8940   -5.8380   29.7230 N   0  0  0  0  0
   14.9940   -6.5990   29.5520 C   0  0  0  0  0
   16.0980   -6.0270   29.0160 N   0  0  0  0  0
   16.1680   -4.7240   28.6610 C   0  0  0  0  0
   17.3910   -4.4220   28.1630 N   0  0  0  0  0
   18.4990   -5.4200   28.0240 C   0  0  0  0  0
   19.5030   -4.7300   27.0680 C   0  0  0  0  0
   18.6180   -3.7680   26.3580 C   0  0  0  0  0
   17.9770   -4.7660   25.5010 N   0  3  0  0  0
   19.2290   -2.7400   25.3980 C   0  0  0  0  0
   19.7190   -1.5480   26.0970 N   0  0  0  0  0
   20.9200   -1.4910   26.5970 C   0  0  0  0  0
   21.6830   -2.4370   26.4770 O   0  0  0  0  0
   21.4250   -0.2890   27.3100 C   0  0  0  0  0
   21.0200    1.0060   26.9730 C   0  0  0  0  0
   21.5380    2.0900   27.6850 C   0  0  0  0  0
   22.4440    1.8360   28.7080 C   0  0  0  0  0
   22.9750    2.8300   29.4040 F   0  0  0  0  0
   22.8680    0.5560   29.0210 C   0  0  0  0  0
   22.3600   -0.5100   28.3070 C   0  0  0  0  0
   22.7360   -1.7570   28.6280 F   0  0  0  0  0
   17.8110   -3.1990   27.5850 C   0  0  0  0  0
   15.0450   -3.8740   28.9040 C   0  0  0  0  0
   15.7442   -0.4491   30.1834 H   0  0  0  0  0
   17.0349   -1.5345   29.6117 H   0  0  0  0  0
   16.8740    0.0988   28.9207 H   0  0  0  0  0
   15.9882   -1.6132   27.3861 H   0  0  0  0  0
   14.6919   -0.5230   27.9602 H   0  0  0  0  0
   12.7311   -1.4929   29.2966 H   0  0  0  0  0
   14.9944   -7.6506   29.8387 H   0  0  0  0  0
   18.1486   -6.3766   27.6364 H   0  0  0  0  0
   18.9491   -5.6754   28.9833 H   0  0  0  0  0
   20.0201   -5.4217   26.4030 H   0  0  0  0  0
   20.3411   -4.2575   27.5803 H   0  0  0  0  0
   17.2953   -4.3065   24.8972 H   0  0  0  0  0
   18.6849   -5.2257   24.9283 H   0  0  0  0  0
   17.5055   -5.4590   26.0822 H   0  0  0  0  0
   18.4532   -2.4271   24.6992 H   0  0  0  0  0
   20.0748   -3.2084   24.8947 H   0  0  0  0  0
   19.1023   -0.7414   26.1943 H   0  0  0  0  0
   20.3080    1.1677   26.1637 H   0  0  0  0  0
   21.2391    3.1102   27.4444 H   0  0  0  0  0
   23.5920    0.3926   29.8192 H   0  0  0  0  0
   18.3822   -2.5499   28.2488 H   0  0  0  0  0
   17.0045   -2.5131   27.3256 H   0  0  0  0  0
  1  2  1  0  0  0
  2  3  1  0  0  0
  3  4  4  0  0  0
  3 29  4  0  0  0
  4  5  4  0  0  0
  5  6  4  0  0  0
  6  7  4  0  0  0
  6 29  4  0  0  0
  7  8  4  0  0  0
  8  9  4  0  0  0
  9 10  4  0  0  0
 10 11  1  0  0  0
 10 29  4  0  0  0
 11 12  1  0  0  0
 11 28  1  0  0  0
 12 13  1  0  0  0
 13 14  1  0  0  0
 14 15  1  0  0  0
 14 16  1  0  0  0
 14 28  1  0  0  0
 16 17  1  0  0  0
 17 18  1  0  0  0
 18 19  2  0  0  0
 18 20  1  0  0  0
 20 21  4  0  0  0
 20 26  4  0  0  0
 21 22  4  0  0  0
 22 23  4  0  0  0
 23 24  1  0  0  0
 23 25  4  0  0  0
 25 26  4  0  0  0
 26 27  1  0  0  0
  1 30  1  0  0  0
  1 31  1  0  0  0
  1 32  1  0  0  0
  2 33  1  0  0  0
  2 34  1  0  0  0
  4 35  1  0  0  0
  8 36  1  0  0  0
 12 37  1  0  0  0
 12 38  1  0  0  0
 13 39  1  0  0  0
 13 40  1  0  0  0
 15 41  1  0  0  0
 15 42  1  0  0  0
 15 43  1  0  0  0
 16 44  1  0  0  0
 16 45  1  0  0  0
 17 46  1  0  0  0
 21 47  1  0  0  0
 22 48  1  0  0  0
 25 49  1  0  0  0
 28 50  1  0  0  0
 28 51  1  0  0  0
M  END
$$$$
