2gg7_ligand
  -I-interpret- 

 27 28  0  0  0  0  0  0  0  0999 V2000
   -6.2780   -3.0690    6.8550 O   0  0  0  0  0
   -7.0660   -2.4340    7.5870 C   0  0  0  0  0
   -8.3110   -2.5900    7.5440 O   0  0  0  0  0
   -6.4940   -1.4300    8.5350 C   0  0  0  0  0
   -7.3770   -0.6730    9.2980 C   0  0  0  0  0
   -6.9030    0.2760   10.1910 C   0  0  0  0  0
   -5.5350    0.4550   10.3110 C   0  0  0  0  0
   -5.1070   -1.2490    8.6430 C   0  0  0  0  0
   -4.6440   -0.3060    9.5580 C   0  0  0  0  0
   -3.2980    0.0090    9.7360 N   0  0  0  0  0
   -2.3990   -0.5220    8.9790 N   0  0  0  0  0
   -1.1270   -0.0610    9.1740 C   0  0  0  0  0
   -0.0670   -0.2660    8.3120 C   0  0  0  0  0
   -0.0660   -1.0480    7.2000 N   0  0  0  0  0
    1.0240    0.3870    8.7540 N   0  0  0  0  0
   -0.6550    0.8130   10.1400 C   0  0  0  0  0
    0.6210    1.0770    9.9000 N   0  0  0  0  0
   -1.2960    1.3410   11.2180 N   0  0  0  0  0
   -8.7275   -2.0090    8.1848 H   0  0  0  0  0
   -8.4509   -0.8272    9.1930 H   0  0  0  0  0
   -7.5947    0.8705   10.7878 H   0  0  0  0  0
   -5.1499    1.2023   11.0048 H   0  0  0  0  0
   -4.4145   -1.8271    8.0312 H   0  0  0  0  0
   -0.9094   -1.5555    6.9327 H   0  0  0  0  0
    0.7782   -1.1272    6.6330 H   0  0  0  0  0
   -2.2699    1.0993   11.4011 H   0  0  0  0  0
   -0.8026    1.9785   11.8430 H   0  0  0  0  0
  1  2  2  0  0  0
  2  3  1  0  0  0
  2  4  1  0  0  0
  4  5  4  0  0  0
  4  8  4  0  0  0
  5  6  4  0  0  0
  6  7  4  0  0  0
  7  9  4  0  0  0
  8  9  4  0  0  0
  9 10  1  0  0  0
 10 11  2  0  0  0
 11 12  1  0  0  0
 12 13  4  0  0  0
 12 16  4  0  0  0
 13 14  1  0  0  0
 13 15  4  0  0  0
 15 17  4  0  0  0
 16 17  4  0  0  0
 16 18  1  0  0  0
  3 19  1  0  0  0
  5 20  1  0  0  0
  6 21  1  0  0  0
  7 22  1  0  0  0
  8 23  1  0  0  0
 14 24  1  0  0  0
 14 25  1  0  0  0
 18 26  1  0  0  0
 18 27  1  0  0  0
M  END
$$$$
