3l6x_ligand
  -I-interpret- 

260261  0  0  0  0  0  0  0  0999 V2000
  -31.8900   14.0330   15.0810 N   0  3  0  0  0
  -33.2790   14.5040   15.3700 C   0  0  0  0  0
  -33.3540   15.2460   16.6980 C   0  0  0  0  0
  -32.4610   15.1840   17.5260 O   0  0  0  0  0
  -34.2790   13.3440   15.4260 C   0  0  0  0  0
  -34.2240   12.4440   14.2060 C   0  0  0  0  0
  -33.9940   12.9340   13.0790 O   0  0  0  0  0
  -34.4440   11.2360   14.3750 O   0  0  0  0  0
  -34.4540   15.9370   16.9080 N   0  0  0  0  0
  -34.5890   16.6870   18.1290 C   0  0  0  0  0
  -34.8410   15.7800   19.3350 C   0  0  0  0  0
  -35.7130   14.9090   19.2850 O   0  0  0  0  0
  -35.7090   17.7110   17.9880 C   0  0  0  0  0
  -35.9570   18.4650   19.2390 C   0  0  0  0  0
  -37.0910   19.4020   19.0710 C   0  0  0  0  0
  -37.3090   20.2480   19.9670 O   0  0  0  0  0
  -37.7560   19.2870   18.0280 O   0  0  0  0  0
  -34.0500   15.9930   20.3950 N   0  0  0  0  0
  -34.2410   15.3470   21.7020 C   0  0  0  0  0
  -35.1280   16.2890   22.5100 C   0  0  0  0  0
  -34.6410   17.0560   23.3620 O   0  0  0  0  0
  -32.9030   15.1430   22.4330 C   0  0  0  0  0
  -31.7850   14.5610   21.5620 C   0  0  0  0  0
  -30.4320   14.4190   22.2920 C   0  0  0  0  0
  -29.4010   14.1930   21.6060 O   0  0  0  0  0
  -30.3900   14.5160   23.5340 O   0  0  0  0  0
  -36.4230   16.2410   22.2280 N   0  0  0  0  0
  -37.3340   17.2460   22.7280 C   0  0  0  0  0
  -37.7710   17.0230   24.1570 C   0  0  0  0  0
  -38.3910   17.8910   24.7520 O   0  0  0  0  0
  -37.4730   15.8530   24.7100 N   0  0  0  0  0
  -37.7790   15.6060   26.1010 C   0  0  0  0  0
  -37.0160   16.6070   26.9530 C   0  0  0  0  0
  -37.5400   17.1260   27.9370 O   0  0  0  0  0
  -35.7750   16.8960   26.5660 N   0  0  0  0  0
  -34.9760   17.8730   27.2950 C   0  0  0  0  0
  -34.4500   17.2880   28.5870 C   0  0  0  0  0
  -34.4080   16.0740   28.7570 O   0  0  0  0  0
  -34.0360   18.1580   29.5010 N   0  0  0  0  0
  -33.4990   17.7280   30.7720 C   0  0  0  0  0
  -34.0050   18.7050   31.8110 C   0  0  0  0  0
  -34.2230   19.8560   31.5000 O   0  0  0  0  0
  -31.9670   17.6840   30.7240 C   0  0  0  0  0
  -31.2820   18.9800   30.3460 C   0  0  0  0  0
  -29.7640   18.8440   30.3360 C   0  0  0  0  0
  -29.0650   19.7040   29.7470 O   0  0  0  0  0
  -29.2550   17.8630   30.9110 O   0  0  0  0  0
  -34.2390   18.2360   33.0330 N   0  0  0  0  0
  -34.7040   19.1080   34.1300 C   0  0  0  0  0
  -33.7940   18.9560   35.3540 C   0  0  0  0  0
  -33.3040   17.8590   35.6500 O   0  0  0  0  0
  -36.1370   18.7520   34.5450 C   0  0  0  0  0
  -37.2540   19.6290   33.9550 C   0  0  0  0  0
  -38.6840   19.0450   34.1770 C   0  0  0  0  0
  -38.9880   18.5450   35.2850 O   0  0  0  0  0
  -39.5240   19.0960   33.2400 O   0  0  0  0  0
  -33.5980   20.0550   36.0690 N   0  0  0  0  0
  -32.9880   20.0270   37.3830 C   0  0  0  0  0
  -33.9530   19.3840   38.3760 C   0  0  0  0  0
  -35.1310   19.1940   38.0710 O   0  0  0  0  0
  -32.6290   21.4540   37.8310 C   0  0  0  0  0
  -31.5170   21.4710   38.8710 C   0  0  0  0  0
  -31.1490   20.3810   39.3740 O   0  0  0  0  0
  -31.0110   22.5660   39.1960 O   0  0  0  0  0
  -33.4660   19.0450   39.5690 N   0  0  0  0  0
  -34.3220   18.3310   40.5320 C   0  0  0  0  0
  -34.0570   18.6910   42.0080 C   0  0  0  0  0
  -32.9570   19.0960   42.3770 O   0  0  0  0  0
  -34.1920   16.8210   40.3200 C   0  0  0  0  0
  -35.1610   15.9790   41.1320 C   0  0  0  0  0
  -36.6050   16.2910   40.8120 C   0  0  0  0  0
  -37.1300   15.8180   39.8010 O   0  0  0  0  0
  -37.2680   17.0710   41.6730 N   0  0  0  0  0
  -35.0660   18.5360   42.8500 N   0  0  0  0  0
  -34.8530   18.7390   44.2610 C   0  0  0  0  0
  -34.5050   17.4480   44.9710 C   0  0  0  0  0
  -34.7720   16.3720   44.4610 O   0  0  0  0  0
  -36.0640   19.4050   44.8960 C   0  0  0  0  0
  -36.1810   20.8440   44.4850 C   0  0  0  0  0
  -35.1320   21.5300   44.4540 O   0  0  0  0  0
  -37.3050   21.2850   44.1740 O   0  0  0  0  0
  -33.9130   17.5720   46.1530 N   0  0  0  0  0
  -33.4430   16.4200   46.9130 C   0  0  0  0  0
  -33.0480   16.9680   48.2820 C   0  0  0  0  0
  -32.8020   18.1660   48.4310 O   0  0  0  0  0
  -32.1970   15.8460   46.2400 C   0  0  0  0  0
  -31.1490   16.8900   45.9820 C   0  0  0  0  0
  -30.2280   17.2300   46.9690 C   0  0  0  0  0
  -31.1210   17.5830   44.7770 C   0  0  0  0  0
  -29.2730   18.2220   46.7460 C   0  0  0  0  0
  -30.1760   18.5730   44.5550 C   0  0  0  0  0
  -29.2390   18.8920   45.5520 C   0  0  0  0  0
  -32.9650   16.0840   49.2630 N   0  0  0  0  0
  -32.5420   16.4280   50.6090 C   0  0  0  0  0
  -31.1600   15.8490   50.8660 C   0  0  0  0  0
  -31.0120   14.6870   51.2440 O   0  0  0  0  0
  -33.5150   15.8460   51.6280 C   0  0  0  0  0
  -33.1340   16.1850   53.0660 C   0  0  0  0  0
  -32.0110   16.6900   53.3190 O   0  0  0  0  0
  -33.9800   15.9410   53.9400 O   0  0  0  0  0
  -30.1460   16.6670   50.6650 N   0  0  0  0  0
  -28.7910   16.2050   50.7680 C   0  0  0  0  0
  -28.4790   15.5310   52.1210 C   0  0  0  0  0
  -27.6140   14.6580   52.1930 O   0  0  0  0  0
  -27.8690   17.3830   50.5290 C   0  0  0  0  0
  -26.3910   17.1060   50.3880 C   0  0  0  0  0
  -26.1780   16.0890   49.2960 C   0  0  0  0  0
  -25.7080   18.4230   50.0580 C   0  0  0  0  0
  -29.1800   15.9220   53.1880 N   0  0  0  0  0
  -28.8080   15.4700   54.5330 C   0  0  0  0  0
  -29.2000   14.0350   54.7730 C   0  0  0  0  0
  -28.7180   13.3930   55.7270 O   0  0  0  0  0
  -29.4300   16.3380   55.6100 C   0  0  0  0  0
  -30.8370   16.1990   55.6830 O   0  0  0  0  0
  -30.0790   13.5230   53.9160 N   0  0  0  0  0
  -30.5180   12.1480   54.0650 C   0  0  0  0  0
  -29.6510   11.2180   53.2340 C   0  0  0  0  0
  -29.9230   10.0240   53.1820 O   0  0  0  0  0
  -31.9820   11.9740   53.6560 C   0  0  0  0  0
  -33.0010   12.3940   54.6850 C   0  0  0  0  0
  -34.4130   12.4310   54.1000 C   0  0  0  0  0
  -35.0820   11.3920   53.9730 O   0  0  0  0  0
  -34.8810   13.6290   53.7490 N   0  0  0  0  0
  -28.6230   11.7430   52.5750 N   0  0  0  0  0
  -27.8050   10.8830   51.7110 C   0  0  0  0  0
  -26.6040   10.3250   52.4420 C   0  0  0  0  0
  -25.5120   10.8720   52.3590 O   0  0  0  0  0
  -27.3630   11.6030   50.4350 C   0  0  0  0  0
  -28.5140   11.8940   49.4560 C   0  0  0  0  0
  -27.9900   12.5200   48.1970 C   0  0  0  0  0
  -29.2680   10.6140   49.1340 C   0  0  0  0  0
  -26.8210    9.2390   53.1730 N   0  0  0  0  0
  -25.7430    8.5290   53.8710 C   0  0  0  0  0
  -26.2410    7.1160   54.2070 C   0  0  0  0  0
  -25.4750    6.2690   54.6680 O   0  0  0  0  0
  -25.3390    9.2770   55.1430 C   0  0  0  0  0
  -26.5020    9.6030   56.0270 C   0  0  0  0  0
  -26.9460    8.7530   57.0190 N   0  0  0  0  0
  -27.3540   10.6550   56.0270 C   0  0  0  0  0
  -28.0040    9.2810   57.6100 C   0  0  0  0  0
  -28.2700   10.4380   57.0290 N   0  0  0  0  0
  -27.4170    6.8000   54.0230 O   0  0  0  0  0
  -31.2595   14.8343   15.0528 H   0  0  0  0  0
  -31.5912   13.3894   15.8137 H   0  0  0  0  0
  -31.8749   13.5551   14.1800 H   0  0  0  0  0
  -33.5396   15.1740   14.5507 H   0  0  0  0  0
  -35.2795   13.7739   15.4731 H   0  0  0  0  0
  -34.0292   12.7357   16.2953 H   0  0  0  0  0
  -33.8509   13.8793   13.1655 H   0  0  0  0  0
  -35.2016   15.9411   16.2142 H   0  0  0  0  0
  -33.6463   17.2042   18.3075 H   0  0  0  0  0
  -36.6230   17.1738   17.7348 H   0  0  0  0  0
  -35.4135   18.4258   17.2200 H   0  0  0  0  0
  -35.0628   19.0361   19.4887 H   0  0  0  0  0
  -36.1988   17.7588   20.0333 H   0  0  0  0  0
  -36.6648   20.1405   20.6706 H   0  0  0  0  0
  -33.2696   16.6412   20.2892 H   0  0  0  0  0
  -34.6875   14.3604   21.5782 H   0  0  0  0  0
  -33.0845   14.4300   23.2373 H   0  0  0  0  0
  -32.5688   16.1255   22.7664 H   0  0  0  0  0
  -31.6331   15.2471   20.7288 H   0  0  0  0  0
  -32.0967   13.5611   21.2602 H   0  0  0  0  0
  -29.6385   14.1541   20.6767 H   0  0  0  0  0
  -36.7822   15.4823   21.6486 H   0  0  0  0  0
  -38.2289   17.2090   22.1067 H   0  0  0  0  0
  -36.8108   18.2016   22.6953 H   0  0  0  0  0
  -37.0265   15.1259   24.1511 H   0  0  0  0  0
  -37.4858   14.5913   26.3701 H   0  0  0  0  0
  -38.8502   15.7166   26.2698 H   0  0  0  0  0
  -35.3792   16.4285   25.7504 H   0  0  0  0  0
  -35.6039   18.7323   27.5304 H   0  0  0  0  0
  -34.1296   18.1659   26.6737 H   0  0  0  0  0
  -34.0987   19.1562   29.3007 H   0  0  0  0  0
  -33.8231   16.7172   31.0198 H   0  0  0  0  0
  -31.7039   16.9604   29.9524 H   0  0  0  0  0
  -31.6343   17.4431   31.7336 H   0  0  0  0  0
  -31.5510   19.7349   31.0848 H   0  0  0  0  0
  -31.6054   19.2555   29.3422 H   0  0  0  0  0
  -29.6373   20.3761   29.3697 H   0  0  0  0  0
  -34.0928   17.2437   33.2182 H   0  0  0  0  0
  -34.6754   20.1352   33.7666 H   0  0  0  0  0
  -36.1830   18.8876   35.6256 H   0  0  0  0  0
  -36.3177   17.7418   34.1776 H   0  0  0  0  0
  -37.0884   19.6920   32.8795 H   0  0  0  0  0
  -37.2125   20.5955   34.4573 H   0  0  0  0  0
  -39.1207   19.5077   32.4723 H   0  0  0  0  0
  -33.8870   20.9526   35.6801 H   0  0  0  0  0
  -32.0712   19.4388   37.3440 H   0  0  0  0  0
  -33.5168   21.9014   38.2780 H   0  0  0  0  0
  -32.2829   22.0057   36.9570 H   0  0  0  0  0
  -31.6600   19.6643   38.9908 H   0  0  0  0  0
  -32.5041   19.2790   39.8145 H   0  0  0  0  0
  -35.3422   18.6580   40.3313 H   0  0  0  0  0
  -33.1872   16.5419   40.6371 H   0  0  0  0  0
  -34.4089   16.6288   39.2692 H   0  0  0  0  0
  -34.9949   16.1974   42.1869 H   0  0  0  0  0
  -34.9812   14.9314   40.8905 H   0  0  0  0  0
  -38.2486   17.2965   41.5059 H   0  0  0  0  0
  -36.7929   17.4402   42.4966 H   0  0  0  0  0
  -35.9887   18.2745   42.5027 H   0  0  0  0  0
  -33.9972   19.4050   44.3718 H   0  0  0  0  0
  -35.9514   19.3640   45.9794 H   0  0  0  0  0
  -36.9595   18.8784   44.5661 H   0  0  0  0  0
  -34.3891   20.9894   44.7325 H   0  0  0  0  0
  -33.7825   18.5055   46.5428 H   0  0  0  0  0
  -34.2013   15.6398   46.9785 H   0  0  0  0  0
  -32.4969   15.4266   45.2797 H   0  0  0  0  0
  -31.7690   15.0981   46.9075 H   0  0  0  0  0
  -30.2535   16.7142   47.9289 H   0  0  0  0  0
  -31.8481   17.3460   44.0003 H   0  0  0  0  0
  -28.5507   18.4650   47.5254 H   0  0  0  0  0
  -30.1600   19.1054   43.6040 H   0  0  0  0  0
  -28.4916   19.6658   45.3768 H   0  0  0  0  0
  -33.2100   15.1140   49.0642 H   0  0  0  0  0
  -32.5197   17.5134   50.7060 H   0  0  0  0  0
  -33.4990   14.7611   51.5244 H   0  0  0  0  0
  -34.4989   16.2726   51.4329 H   0  0  0  0  0
  -31.5166   16.7934   52.5026 H   0  0  0  0  0
  -30.3272   17.6435   50.4326 H   0  0  0  0  0
  -28.6358   15.4330   50.0143 H   0  0  0  0  0
  -27.9634   18.0098   51.4157 H   0  0  0  0  0
  -28.1779   17.8037   49.5721 H   0  0  0  0  0
  -25.9705   16.6992   51.3076 H   0  0  0  0  0
  -26.7002   15.1673   49.5527 H   0  0  0  0  0
  -26.5684   16.4796   48.3563 H   0  0  0  0  0
  -25.1119   15.8872   49.1921 H   0  0  0  0  0
  -26.1126   18.8170   49.1257 H   0  0  0  0  0
  -25.8872   19.1355   50.8632 H   0  0  0  0  0
  -24.6361   18.2577   49.9492 H   0  0  0  0  0
  -29.9817   16.5408   53.0667 H   0  0  0  0  0
  -27.7227   15.5544   54.5888 H   0  0  0  0  0
  -29.2096   17.3779   55.3689 H   0  0  0  0  0
  -29.0141   16.0289   56.5690 H   0  0  0  0  0
  -31.1780   16.7674   56.3774 H   0  0  0  0  0
  -30.4439   14.0961   53.1552 H   0  0  0  0  0
  -30.4219   11.8930   55.1204 H   0  0  0  0  0
  -32.1320   10.9072   53.4897 H   0  0  0  0  0
  -32.1384   12.6132   52.7870 H   0  0  0  0  0
  -32.7464   13.3956   55.0316 H   0  0  0  0  0
  -32.9855   11.6696   55.4993 H   0  0  0  0  0
  -35.8200   13.7158   53.3603 H   0  0  0  0  0
  -34.3000   14.4587   53.8692 H   0  0  0  0  0
  -28.4043   12.7349   52.6688 H   0  0  0  0  0
  -28.4434   10.0481   51.4220 H   0  0  0  0  0
  -26.6566   10.9507   49.9216 H   0  0  0  0  0
  -26.9393   12.5620   50.7330 H   0  0  0  0  0
  -29.2008   12.5954   49.9297 H   0  0  0  0  0
  -27.4870   13.4559   48.4402 H   0  0  0  0  0
  -27.2839   11.8396   47.7210 H   0  0  0  0  0
  -28.8198   12.7177   47.5184 H   0  0  0  0  0
  -28.5854    9.8964   48.6788 H   0  0  0  0  0
  -29.6784   10.1947   50.0526 H   0  0  0  0  0
  -30.0790   10.8362   48.4405 H   0  0  0  0  0
  -27.7739    8.8840   53.2528 H   0  0  0  0  0
  -24.8609    8.4708   53.2334 H   0  0  0  0  0
  -24.8781   10.2177   54.8418 H   0  0  0  0  0
  -24.6652    8.6318   55.7067 H   0  0  0  0  0
  -27.3201   11.5142   55.3572 H   0  0  0  0  0
  -28.5616    8.8380   58.4352 H   0  0  0  0  0
  -27.8962    7.5500   53.6633 H   0  0  0  0  0
  1  2  1  0  0  0
  2  3  1  0  0  0
  2  5  1  0  0  0
  3  4  2  0  0  0
  3  9  1  0  0  0
  5  6  1  0  0  0
  6  7  1  0  0  0
  6  8  2  0  0  0
  9 10  1  0  0  0
 10 11  1  0  0  0
 10 13  1  0  0  0
 11 12  2  0  0  0
 11 18  1  0  0  0
 13 14  1  0  0  0
 14 15  1  0  0  0
 15 16  1  0  0  0
 15 17  2  0  0  0
 18 19  1  0  0  0
 19 20  1  0  0  0
 19 22  1  0  0  0
 20 21  2  0  0  0
 20 27  1  0  0  0
 22 23  1  0  0  0
 23 24  1  0  0  0
 24 25  1  0  0  0
 24 26  2  0  0  0
 27 28  1  0  0  0
 28 29  1  0  0  0
 29 30  2  0  0  0
 29 31  1  0  0  0
 31 32  1  0  0  0
 32 33  1  0  0  0
 33 34  2  0  0  0
 33 35  1  0  0  0
 35 36  1  0  0  0
 36 37  1  0  0  0
 37 38  2  0  0  0
 37 39  1  0  0  0
 39 40  1  0  0  0
 40 41  1  0  0  0
 40 43  1  0  0  0
 41 42  2  0  0  0
 41 48  1  0  0  0
 43 44  1  0  0  0
 44 45  1  0  0  0
 45 46  1  0  0  0
 45 47  2  0  0  0
 48 49  1  0  0  0
 49 50  1  0  0  0
 49 52  1  0  0  0
 50 51  2  0  0  0
 50 57  1  0  0  0
 52 53  1  0  0  0
 53 54  1  0  0  0
 54 55  2  0  0  0
 54 56  1  0  0  0
 57 58  1  0  0  0
 58 59  1  0  0  0
 58 61  1  0  0  0
 59 60  2  0  0  0
 59 65  1  0  0  0
 61 62  1  0  0  0
 62 63  1  0  0  0
 62 64  2  0  0  0
 65 66  1  0  0  0
 66 67  1  0  0  0
 66 69  1  0  0  0
 67 68  2  0  0  0
 67 74  1  0  0  0
 69 70  1  0  0  0
 70 71  1  0  0  0
 71 72  2  0  0  0
 71 73  1  0  0  0
 74 75  1  0  0  0
 75 76  1  0  0  0
 75 78  1  0  0  0
 76 77  2  0  0  0
 76 82  1  0  0  0
 78 79  1  0  0  0
 79 80  1  0  0  0
 79 81  2  0  0  0
 82 83  1  0  0  0
 83 84  1  0  0  0
 83 86  1  0  0  0
 84 85  2  0  0  0
 84 93  1  0  0  0
 86 87  1  0  0  0
 87 88  4  0  0  0
 87 89  4  0  0  0
 88 90  4  0  0  0
 89 91  4  0  0  0
 90 92  4  0  0  0
 91 92  4  0  0  0
 93 94  1  0  0  0
 94 95  1  0  0  0
 94 97  1  0  0  0
 95 96  2  0  0  0
 95101  1  0  0  0
 97 98  1  0  0  0
 98 99  1  0  0  0
 98100  2  0  0  0
101102  1  0  0  0
102103  1  0  0  0
102105  1  0  0  0
103104  2  0  0  0
103109  1  0  0  0
105106  1  0  0  0
106107  1  0  0  0
106108  1  0  0  0
109110  1  0  0  0
110111  1  0  0  0
110113  1  0  0  0
111112  2  0  0  0
111115  1  0  0  0
113114  1  0  0  0
115116  1  0  0  0
116117  1  0  0  0
116119  1  0  0  0
117118  2  0  0  0
117124  1  0  0  0
119120  1  0  0  0
120121  1  0  0  0
121122  2  0  0  0
121123  1  0  0  0
124125  1  0  0  0
125126  1  0  0  0
125128  1  0  0  0
126127  2  0  0  0
126132  1  0  0  0
128129  1  0  0  0
129130  1  0  0  0
129131  1  0  0  0
132133  1  0  0  0
133134  1  0  0  0
133136  1  0  0  0
134135  2  0  0  0
134142  1  0  0  0
136137  1  0  0  0
137138  4  0  0  0
137139  4  0  0  0
138140  4  0  0  0
139141  4  0  0  0
140141  4  0  0  0
  1143  1  0  0  0
  1144  1  0  0  0
  1145  1  0  0  0
  2146  1  0  0  0
  5147  1  0  0  0
  5148  1  0  0  0
  7149  1  0  0  0
  9150  1  0  0  0
 10151  1  0  0  0
 13152  1  0  0  0
 13153  1  0  0  0
 14154  1  0  0  0
 14155  1  0  0  0
 16156  1  0  0  0
 18157  1  0  0  0
 19158  1  0  0  0
 22159  1  0  0  0
 22160  1  0  0  0
 23161  1  0  0  0
 23162  1  0  0  0
 25163  1  0  0  0
 27164  1  0  0  0
 28165  1  0  0  0
 28166  1  0  0  0
 31167  1  0  0  0
 32168  1  0  0  0
 32169  1  0  0  0
 35170  1  0  0  0
 36171  1  0  0  0
 36172  1  0  0  0
 39173  1  0  0  0
 40174  1  0  0  0
 43175  1  0  0  0
 43176  1  0  0  0
 44177  1  0  0  0
 44178  1  0  0  0
 46179  1  0  0  0
 48180  1  0  0  0
 49181  1  0  0  0
 52182  1  0  0  0
 52183  1  0  0  0
 53184  1  0  0  0
 53185  1  0  0  0
 56186  1  0  0  0
 57187  1  0  0  0
 58188  1  0  0  0
 61189  1  0  0  0
 61190  1  0  0  0
 63191  1  0  0  0
 65192  1  0  0  0
 66193  1  0  0  0
 69194  1  0  0  0
 69195  1  0  0  0
 70196  1  0  0  0
 70197  1  0  0  0
 73198  1  0  0  0
 73199  1  0  0  0
 74200  1  0  0  0
 75201  1  0  0  0
 78202  1  0  0  0
 78203  1  0  0  0
 80204  1  0  0  0
 82205  1  0  0  0
 83206  1  0  0  0
 86207  1  0  0  0
 86208  1  0  0  0
 88209  1  0  0  0
 89210  1  0  0  0
 90211  1  0  0  0
 91212  1  0  0  0
 92213  1  0  0  0
 93214  1  0  0  0
 94215  1  0  0  0
 97216  1  0  0  0
 97217  1  0  0  0
 99218  1  0  0  0
101219  1  0  0  0
102220  1  0  0  0
105221  1  0  0  0
105222  1  0  0  0
106223  1  0  0  0
107224  1  0  0  0
107225  1  0  0  0
107226  1  0  0  0
108227  1  0  0  0
108228  1  0  0  0
108229  1  0  0  0
109230  1  0  0  0
110231  1  0  0  0
113232  1  0  0  0
113233  1  0  0  0
114234  1  0  0  0
115235  1  0  0  0
116236  1  0  0  0
119237  1  0  0  0
119238  1  0  0  0
120239  1  0  0  0
120240  1  0  0  0
123241  1  0  0  0
123242  1  0  0  0
124243  1  0  0  0
125244  1  0  0  0
128245  1  0  0  0
128246  1  0  0  0
129247  1  0  0  0
130248  1  0  0  0
130249  1  0  0  0
130250  1  0  0  0
131251  1  0  0  0
131252  1  0  0  0
131253  1  0  0  0
132254  1  0  0  0
133255  1  0  0  0
136256  1  0  0  0
136257  1  0  0  0
139258  1  0  0  0
140259  1  0  0  0
142260  1  0  0  0
M  END
$$$$
