### 
### Created by X-TOOL on Mon Sep 10 21:13:03 2018
### 

@<TRIPOS>MOLECULE
3l6x_ligand
  252   253     1     0     0
SMALL
GAST_HUCK


@<TRIPOS>ATOM
      1 N         -31.8900   14.0330   15.0810 N.4       1 ASP         0.2391
      2 CA        -33.2790   14.5040   15.3700 C.3       1 ASP         0.0764
      3 C         -33.3540   15.2460   16.6980 C.2       1 ASP         0.2284
      4 O         -32.4610   15.1840   17.5260 O.2       1 ASP        -0.3906
      5 CB        -34.2790   13.3440   15.4260 C.3       1 ASP         0.0607
      6 CG        -34.2240   12.4440   14.2060 C.2       1 ASP         0.0425
      7 OD1       -33.9940   12.9340   13.0790 O.co2     1 ASP        -0.5686
      8 OD2       -34.4440   11.2360   14.3750 O.co2     1 ASP        -0.5686
      9 N         -34.4540   15.9370   16.9080 N.am      1 GLU        -0.2608
     10 CA        -34.5890   16.6870   18.1290 C.3       1 GLU         0.1326
     11 C         -34.8410   15.7800   19.3350 C.2       1 GLU         0.2040
     12 O         -35.7130   14.9090   19.2850 O.2       1 GLU        -0.3944
     13 CB        -35.7090   17.7110   17.9880 C.3       1 GLU        -0.0008
     14 CG        -35.9570   18.4650   19.2390 C.3       1 GLU         0.0044
     15 CD        -37.0910   19.4020   19.0710 C.2       1 GLU         0.0350
     16 OE1       -37.3090   20.2480   19.9670 O.co2     1 GLU        -0.5690
     17 OE2       -37.7560   19.2870   18.0280 O.co2     1 GLU        -0.5690
     18 N         -34.0500   15.9930   20.3950 N.am      1 GLU        -0.2636
     19 CA        -34.2410   15.3470   21.7020 C.3       1 GLU         0.1325
     20 C         -35.1280   16.2890   22.5100 C.2       1 GLU         0.2038
     21 O         -34.6410   17.0560   23.3620 O.2       1 GLU        -0.3944
     22 CB        -32.9030   15.1430   22.4330 C.3       1 GLU        -0.0008
     23 CG        -31.7850   14.5610   21.5620 C.3       1 GLU         0.0044
     24 CD        -30.4320   14.4190   22.2920 C.2       1 GLU         0.0350
     25 OE1       -29.4010   14.1930   21.6060 O.co2     1 GLU        -0.5690
     26 OE2       -30.3900   14.5160   23.5340 O.co2     1 GLU        -0.5690
     27 N         -36.4230   16.2410   22.2280 N.am      1 GLY        -0.2664
     28 CA        -37.3340   17.2460   22.7280 C.3       1 GLY         0.1201
     29 C         -37.7710   17.0230   24.1570 C.2       1 GLY         0.2005
     30 O         -38.3910   17.8910   24.7520 O.2       1 GLY        -0.3947
     31 N         -37.4730   15.8530   24.7100 N.am      1 GLY        -0.2666
     32 CA        -37.7790   15.6060   26.1010 C.3       1 GLY         0.1201
     33 C         -37.0160   16.6070   26.9530 C.2       1 GLY         0.2005
     34 O         -37.5400   17.1260   27.9370 O.2       1 GLY        -0.3947
     35 N         -35.7750   16.8960   26.5660 N.am      1 GLY        -0.2666
     36 CA        -34.9760   17.8730   27.2950 C.3       1 GLY         0.1201
     37 C         -34.4500   17.2880   28.5870 C.2       1 GLY         0.2007
     38 O         -34.4080   16.0740   28.7570 O.2       1 GLY        -0.3947
     39 N         -34.0360   18.1580   29.5010 N.am      1 GLU        -0.2639
     40 CA        -33.4990   17.7280   30.7720 C.3       1 GLU         0.1324
     41 C         -34.0050   18.7050   31.8110 C.2       1 GLU         0.2040
     42 O         -34.2230   19.8560   31.5000 O.2       1 GLU        -0.3944
     43 CB        -31.9670   17.6840   30.7240 C.3       1 GLU        -0.0008
     44 CG        -31.2820   18.9800   30.3460 C.3       1 GLU         0.0044
     45 CD        -29.7640   18.8440   30.3360 C.2       1 GLU         0.0350
     46 OE1       -29.0650   19.7040   29.7470 O.co2     1 GLU        -0.5690
     47 OE2       -29.2550   17.8630   30.9110 O.co2     1 GLU        -0.5690
     48 N         -34.2390   18.2360   33.0330 N.am      1 GLU        -0.2636
     49 CA        -34.7040   19.1080   34.1300 C.3       1 GLU         0.1325
     50 C         -33.7940   18.9560   35.3540 C.2       1 GLU         0.2041
     51 O         -33.3040   17.8590   35.6500 O.2       1 GLU        -0.3944
     52 CB        -36.1370   18.7520   34.5450 C.3       1 GLU        -0.0008
     53 CG        -37.2540   19.6290   33.9550 C.3       1 GLU         0.0044
     54 CD        -38.6840   19.0450   34.1770 C.2       1 GLU         0.0350
     55 OE1       -38.9880   18.5450   35.2850 O.co2     1 GLU        -0.5690
     56 OE2       -39.5240   19.0960   33.2400 O.co2     1 GLU        -0.5690
     57 N         -33.5980   20.0550   36.0690 N.am      1 ASP        -0.2622
     58 CA        -32.9880   20.0270   37.3830 C.3       1 ASP         0.1423
     59 C         -33.9530   19.3840   38.3760 C.2       1 ASP         0.2056
     60 O         -35.1310   19.1940   38.0710 O.2       1 ASP        -0.3943
     61 CB        -32.6290   21.4540   37.8310 C.3       1 ASP         0.0406
     62 CG        -31.5170   21.4710   38.8710 C.2       1 ASP         0.0393
     63 OD1       -31.1490   20.3810   39.3740 O.co2     1 ASP        -0.5688
     64 OD2       -31.0110   22.5660   39.1960 O.co2     1 ASP        -0.5688
     65 N         -33.4660   19.0450   39.5690 N.am      1 GLN        -0.2635
     66 CA        -34.3220   18.3310   40.5320 C.3       1 GLN         0.1330
     67 C         -34.0570   18.6910   42.0080 C.2       1 GLN         0.2041
     68 O         -32.9570   19.0960   42.3770 O.2       1 GLN        -0.3944
     69 CB        -34.1920   16.8210   40.3200 C.3       1 GLN         0.0045
     70 CG        -35.1610   15.9790   41.1320 C.3       1 GLN         0.0412
     71 CD        -36.6050   16.2910   40.8120 C.2       1 GLN         0.1737
     72 OE1       -37.1300   15.8180   39.8010 O.2       1 GLN        -0.3973
     73 NE2       -37.2680   17.0710   41.6730 N.am      1 GLN        -0.3009
     74 N         -35.0660   18.5360   42.8500 N.am      1 ASP        -0.2622
     75 CA        -34.8530   18.7390   44.2610 C.3       1 ASP         0.1423
     76 C         -34.5050   17.4480   44.9710 C.2       1 ASP         0.2057
     77 O         -34.7720   16.3720   44.4610 O.2       1 ASP        -0.3943
     78 CB        -36.0640   19.4050   44.8960 C.3       1 ASP         0.0406
     79 CG        -36.1810   20.8440   44.4850 C.2       1 ASP         0.0393
     80 OD1       -35.1320   21.5300   44.4540 O.co2     1 ASP        -0.5688
     81 OD2       -37.3050   21.2850   44.1740 O.co2     1 ASP        -0.5688
     82 N         -33.9130   17.5720   46.1530 N.am      1 PHE        -0.2618
     83 CA        -33.4430   16.4200   46.9130 C.3       1 PHE         0.1404
     84 C         -33.0480   16.9680   48.2820 C.2       1 PHE         0.2060
     85 O         -32.8020   18.1660   48.4310 O.2       1 PHE        -0.3942
     86 CB        -32.1970   15.8460   46.2400 C.3       1 PHE         0.0214
     87 CG        -31.1490   16.8900   45.9820 C.ar      1 PHE        -0.0386
     88 CD1       -30.2280   17.2300   46.9690 C.ar      1 PHE        -0.0601
     89 CD2       -31.1210   17.5830   44.7770 C.ar      1 PHE        -0.0601
     90 CE1       -29.2730   18.2220   46.7460 C.ar      1 PHE        -0.0686
     91 CE2       -30.1760   18.5730   44.5550 C.ar      1 PHE        -0.0686
     92 CZ        -29.2390   18.8920   45.5520 C.ar      1 PHE        -0.0687
     93 N         -32.9650   16.0840   49.2630 N.am      1 ASP        -0.2620
     94 CA        -32.5420   16.4280   50.6090 C.3       1 ASP         0.1423
     95 C         -31.1600   15.8490   50.8660 C.2       1 ASP         0.2056
     96 O         -31.0120   14.6870   51.2440 O.2       1 ASP        -0.3943
     97 CB        -33.5150   15.8460   51.6280 C.3       1 ASP         0.0406
     98 CG        -33.1340   16.1850   53.0660 C.2       1 ASP         0.0393
     99 OD1       -32.0110   16.6900   53.3190 O.co2     1 ASP        -0.5688
    100 OD2       -33.9800   15.9410   53.9400 O.co2     1 ASP        -0.5688
    101 N         -30.1460   16.6670   50.6650 N.am      1 LEU        -0.2636
    102 CA        -28.7910   16.2050   50.7680 C.3       1 LEU         0.1312
    103 C         -28.4790   15.5310   52.1210 C.2       1 LEU         0.2040
    104 O         -27.6140   14.6580   52.1930 O.2       1 LEU        -0.3944
    105 CB        -27.8690   17.3830   50.5290 C.3       1 LEU        -0.0101
    106 CG        -26.3910   17.1060   50.3880 C.3       1 LEU        -0.0425
    107 CD1       -26.1780   16.0890   49.2960 C.3       1 LEU        -0.0625
    108 CD2       -25.7080   18.4230   50.0580 C.3       1 LEU        -0.0625
    109 N         -29.1800   15.9220   53.1880 N.am      1 SER        -0.2616
    110 CA        -28.8080   15.4700   54.5330 C.3       1 SER         0.1539
    111 C         -29.2000   14.0350   54.7730 C.2       1 SER         0.2062
    112 O         -28.7180   13.3930   55.7270 O.2       1 SER        -0.3943
    113 CB        -29.4300   16.3380   55.6100 C.3       1 SER         0.0843
    114 OG        -30.8370   16.1990   55.6830 O.3       1 SER        -0.3903
    115 N         -30.0790   13.5230   53.9160 N.am      1 GLN        -0.2635
    116 CA        -30.5180   12.1480   54.0650 C.3       1 GLN         0.1330
    117 C         -29.6510   11.2180   53.2340 C.2       1 GLN         0.2040
    118 O         -29.9230   10.0240   53.1820 O.2       1 GLN        -0.3944
    119 CB        -31.9820   11.9740   53.6560 C.3       1 GLN         0.0045
    120 CG        -33.0010   12.3940   54.6850 C.3       1 GLN         0.0412
    121 CD        -34.4130   12.4310   54.1000 C.2       1 GLN         0.1737
    122 OE1       -35.0820   11.3920   53.9730 O.2       1 GLN        -0.3973
    123 NE2       -34.8810   13.6290   53.7490 N.am      1 GLN        -0.3009
    124 N         -28.6230   11.7430   52.5750 N.am      1 LEU        -0.2637
    125 CA        -27.8050   10.8830   51.7110 C.3       1 LEU         0.1312
    126 C         -26.6040   10.3250   52.4420 C.2       1 LEU         0.2034
    127 O         -25.5120   10.8720   52.3590 O.2       1 LEU        -0.3944
    128 CB        -27.3630   11.6030   50.4350 C.3       1 LEU        -0.0101
    129 CG        -28.5140   11.8940   49.4560 C.3       1 LEU        -0.0425
    130 CD1       -27.9900   12.5200   48.1970 C.3       1 LEU        -0.0625
    131 CD2       -29.2680   10.6140   49.1340 C.3       1 LEU        -0.0625
    132 N         -26.8210    9.2390   53.1730 N.am      1 HIS        -0.2682
    133 CA        -25.7430    8.5290   53.8710 C.3       1 HIS         0.1004
    134 C         -26.2410    7.1160   54.2070 C.2       1 HIS         0.0615
    135 O         -25.4750    6.2690   54.6680 O.co2     1 HIS        -0.5665
    136 CB        -25.3390    9.2770   55.1430 C.3       1 HIS         0.0090
    137 CG        -26.5020    9.6030   56.0270 C.2       1 HIS        -0.0033
    138 ND1       -26.9460    8.7530   57.0190 N.2       1 HIS        -0.3253
    139 CD2       -27.3540   10.6550   56.0270 C.2       1 HIS         0.0291
    140 CE1       -28.0040    9.2810   57.6100 C.2       1 HIS         0.0907
    141 NE2       -28.2700   10.4380   57.0290 N.pl3     1 HIS        -0.2752
    142 OXT       -27.4170    6.8000   54.0230 O.co2     1 HIS        -0.5665
    143 H1        -31.8768   13.5477   14.1976 H         1 ASP         0.2016
    144 H2        -31.5881   13.4082   15.8121 H         1 ASP         0.2016
    145 H3        -31.2685   14.8255   15.0383 H         1 ASP         0.2016
    146 H4        -33.5790   15.1895   14.5638 H         1 ASP         0.1117
    147 H5        -35.2936   13.7614   15.5063 H         1 ASP         0.0512
    148 H6        -34.0604   12.7375   16.3172 H         1 ASP         0.0512
    149 H7        -35.1870   15.9410   16.2278 H         1 GLU         0.1885
    150 H8        -33.6465   17.2269   18.3028 H         1 GLU         0.0801
    151 H9        -36.6329   17.1850   17.7055 H         1 GLU         0.0330
    152 H10       -35.4360   18.4239   17.1960 H         1 GLU         0.0330
    153 H11       -35.0538   19.0352   19.5017 H         1 GLU         0.0433
    154 H12       -36.1912   17.7563   20.0470 H         1 GLU         0.0433
    155 H13       -33.2849   16.6285   20.2913 H         1 GLU         0.1883
    156 H14       -34.7353   14.3731   21.5714 H         1 GLU         0.0801
    157 H15       -33.0733   14.4577   23.2764 H         1 GLU         0.0330
    158 H16       -32.5681   16.1186   22.8151 H         1 GLU         0.0330
    159 H17       -31.6425   15.2219   20.6943 H         1 GLU         0.0433
    160 H18       -32.0982   13.5647   21.2166 H         1 GLU         0.0433
    161 H19       -36.7752   15.4972   21.6600 H         1 GLY         0.1881
    162 H20       -38.2294   17.2498   22.0891 H         1 GLY         0.0763
    163 H21       -36.8362   18.2250   22.6674 H         1 GLY         0.0763
    164 H22       -37.0353   15.1401   24.1621 H         1 GLY         0.1881
    165 H23       -37.4761   14.5835   26.3708 H         1 GLY         0.0763
    166 H24       -38.8596   15.7247   26.2690 H         1 GLY         0.0763
    167 H25       -35.3870   16.4376   25.7664 H         1 GLY         0.1881
    168 H26       -35.6005   18.7489   27.5248 H         1 GLY         0.0763
    169 H27       -34.1266   18.1825   26.6683 H         1 GLY         0.0763
    170 H28       -34.0975   19.1366   29.3046 H         1 GLU         0.1883
    171 H29       -33.8711   16.7201   31.0080 H         1 GLU         0.0801
    172 H30       -31.6742   16.9205   29.9882 H         1 GLU         0.0330
    173 H31       -31.6064   17.3900   31.7208 H         1 GLU         0.0330
    174 H32       -31.5639   19.7555   31.0734 H         1 GLU         0.0433
    175 H33       -31.6179   19.2792   29.3422 H         1 GLU         0.0433
    176 H34       -34.0957   17.2631   33.2146 H         1 GLU         0.1883
    177 H35       -34.6777   20.1525   33.7862 H         1 GLU         0.0801
    178 H36       -36.1968   18.8253   35.6409 H         1 GLU         0.0330
    179 H37       -36.3275   17.7136   34.2360 H         1 GLU         0.0330
    180 H38       -37.0830   19.7302   32.8731 H         1 GLU         0.0433
    181 H39       -37.2052   20.6208   34.4283 H         1 GLU         0.0433
    182 H40       -33.8813   20.9350   35.6878 H         1 ASP         0.1884
    183 H41       -32.0674   19.4266   37.3386 H         1 ASP         0.0819
    184 H42       -33.5244   21.9249   38.2629 H         1 ASP         0.0478
    185 H43       -32.3003   22.0284   36.9524 H         1 ASP         0.0478
    186 H44       -32.5229   19.2744   39.8097 H         1 GLN         0.1883
    187 H45       -35.3620   18.6150   40.3134 H         1 GLN         0.0801
    188 H46       -33.1686   16.5238   40.5927 H         1 GLN         0.0337
    189 H47       -34.3639   16.6088   39.2544 H         1 GLN         0.0337
    190 H48       -34.9866   16.1720   42.2008 H         1 GLN         0.0504
    191 H49       -34.9730   14.9170   40.9157 H         1 GLN         0.0504
    192 H50       -38.2254   17.3037   41.5018 H         1 GLN         0.1814
    193 H51       -36.8063   17.4214   42.4879 H         1 GLN         0.1814
    194 H52       -35.9706   18.2796   42.5095 H         1 ASP         0.1884
    195 H53       -33.9970   19.4206   44.3741 H         1 ASP         0.0819
    196 H54       -35.9673   19.3530   45.9905 H         1 ASP         0.0478
    197 H55       -36.9719   18.8690   44.5822 H         1 ASP         0.0478
    198 H56       -33.7851   18.4872   46.5352 H         1 PHE         0.1885
    199 H57       -34.2260   15.6522   46.9986 H         1 PHE         0.0823
    200 H58       -32.4903   15.3962   45.2800 H         1 PHE         0.0474
    201 H59       -31.7692   15.0708   46.8927 H         1 PHE         0.0474
    202 H60       -30.2533   16.7170   47.9236 H         1 PHE         0.0557
    203 H61       -31.8441   17.3473   44.0046 H         1 PHE         0.0557
    204 H62       -28.5547   18.4636   47.5211 H         1 PHE         0.0599
    205 H63       -30.1601   19.1025   43.6092 H         1 PHE         0.0599
    206 H64       -28.4957   19.6616   45.3778 H         1 PHE         0.0559
    207 H65       -33.2052   15.1330   49.0681 H         1 ASP         0.1884
    208 H66       -32.5105   17.5225   50.7140 H         1 ASP         0.0819
    209 H67       -33.5289   14.7518   51.5163 H         1 ASP         0.0478
    210 H68       -34.5187   16.2481   51.4258 H         1 ASP         0.0478
    211 H69       -30.3236   17.6244   50.4372 H         1 LEU         0.1883
    212 H70       -28.6218   15.4597   49.9769 H         1 LEU         0.0800
    213 H71       -27.9935   18.0737   51.3760 H         1 LEU         0.0315
    214 H72       -28.1998   17.8754   49.6027 H         1 LEU         0.0315
    215 H73       -25.9910   16.7109   51.3334 H         1 LEU         0.0298
    216 H74       -25.1024   15.8845   49.1902 H         1 LEU         0.0232
    217 H75       -26.5716   16.4821   48.3470 H         1 LEU         0.0232
    218 H76       -26.7045   15.1583   49.5539 H         1 LEU         0.0232
    219 H77       -25.8826   19.1409   50.8730 H         1 LEU         0.0232
    220 H78       -26.1201   18.8250   49.1207 H         1 LEU         0.0232
    221 H79       -24.6270   18.2564   49.9416 H         1 LEU         0.0232
    222 H80       -29.9660   16.5287   53.0691 H         1 SER         0.1884
    223 H81       -27.7140   15.5460   54.6194 H         1 SER         0.0823
    224 H82       -29.1917   17.3900   55.3945 H         1 SER         0.0606
    225 H83       -28.9983   16.0558   56.5816 H         1 SER         0.0606
    226 H84       -31.2223   16.4477   54.8510 H         1 SER         0.2097
    227 H85       -30.4368   14.0848   53.1701 H         1 GLN         0.1883
    228 H86       -30.4178   11.8690   55.1243 H         1 GLN         0.0801
    229 H87       -32.1465   10.9097   53.4319 H         1 GLN         0.0337
    230 H88       -32.1527   12.5706   52.7478 H         1 GLN         0.0337
    231 H89       -32.7419   13.3971   55.0546 H         1 GLN         0.0504
    232 H90       -32.9799   11.6786   55.5203 H         1 GLN         0.0504
    233 H91       -35.7987   13.7132   53.3608 H         1 GLN         0.1814
    234 H92       -34.3143   14.4434   53.8739 H         1 GLN         0.1814
    235 H93       -28.4086   12.7154   52.6669 H         1 LEU         0.1883
    236 H94       -28.4342   10.0324   51.4099 H         1 LEU         0.0800
    237 H95       -26.6212   10.9741   49.9210 H         1 LEU         0.0315
    238 H96       -26.8993   12.5591   50.7191 H         1 LEU         0.0315
    239 H97       -29.2094   12.5996   49.9339 H         1 LEU         0.0298
    240 H98       -28.8266   12.7200   47.5113 H         1 LEU         0.0232
    241 H99       -27.2773   11.8342   47.7156 H         1 LEU         0.0232
    242 H100      -27.4821   13.4647   48.4411 H         1 LEU         0.0232
    243 H101      -29.6458   10.1669   50.0653 H         1 LEU         0.0232
    244 H102      -28.5908    9.9050   48.6353 H         1 LEU         0.0232
    245 H103      -30.1131   10.8438   48.4685 H         1 LEU         0.0232
    246 H104      -27.7552    8.8910   53.2512 H         1 HIS         0.1877
    247 H105      -24.8672    8.4575   53.2093 H         1 HIS         0.0743
    248 H106      -24.8444   10.2163   54.8547 H         1 HIS         0.0413
    249 H107      -24.6342    8.6501   55.7089 H         1 HIS         0.0413
    250 H108      -27.3201   11.5135   55.3578 H         1 HIS         0.0729
    251 H109      -28.5611    8.8384   58.4345 H         1 HIS         0.1199
    252 H110      -29.0387   11.0738   57.2853 H         1 HIS         0.2361
@<TRIPOS>BOND
     1    1    2 1  
     2    2    3 1  
     3    2    5 1  
     4    3    4 2  
     5    3    9 am 
     6    5    6 1  
     7    6    7 ar 
     8    6    8 ar 
     9    9   10 1  
    10   10   11 1  
    11   10   13 1  
    12   11   12 2  
    13   11   18 am 
    14   13   14 1  
    15   14   15 1  
    16   15   16 ar 
    17   15   17 ar 
    18   18   19 1  
    19   19   20 1  
    20   19   22 1  
    21   20   21 2  
    22   20   27 am 
    23   22   23 1  
    24   23   24 1  
    25   24   25 ar 
    26   24   26 ar 
    27   27   28 1  
    28   28   29 1  
    29   29   30 2  
    30   29   31 am 
    31   31   32 1  
    32   32   33 1  
    33   33   34 2  
    34   33   35 am 
    35   35   36 1  
    36   36   37 1  
    37   37   38 2  
    38   37   39 am 
    39   39   40 1  
    40   40   41 1  
    41   40   43 1  
    42   41   42 2  
    43   41   48 am 
    44   43   44 1  
    45   44   45 1  
    46   45   46 ar 
    47   45   47 ar 
    48   48   49 1  
    49   49   50 1  
    50   49   52 1  
    51   50   51 2  
    52   50   57 am 
    53   52   53 1  
    54   53   54 1  
    55   54   55 ar 
    56   54   56 ar 
    57   57   58 1  
    58   58   59 1  
    59   58   61 1  
    60   59   60 2  
    61   59   65 am 
    62   61   62 1  
    63   62   63 ar 
    64   62   64 ar 
    65   65   66 1  
    66   66   67 1  
    67   66   69 1  
    68   67   68 2  
    69   67   74 am 
    70   69   70 1  
    71   70   71 1  
    72   71   72 2  
    73   71   73 am 
    74   74   75 1  
    75   75   76 1  
    76   75   78 1  
    77   76   77 2  
    78   76   82 am 
    79   78   79 1  
    80   79   80 ar 
    81   79   81 ar 
    82   82   83 1  
    83   83   84 1  
    84   83   86 1  
    85   84   85 2  
    86   84   93 am 
    87   86   87 1  
    88   87   88 ar 
    89   87   89 ar 
    90   88   90 ar 
    91   89   91 ar 
    92   90   92 ar 
    93   91   92 ar 
    94   93   94 1  
    95   94   95 1  
    96   94   97 1  
    97   95   96 2  
    98   95  101 am 
    99   97   98 1  
   100   98   99 ar 
   101   98  100 ar 
   102  101  102 1  
   103  102  103 1  
   104  102  105 1  
   105  103  104 2  
   106  103  109 am 
   107  105  106 1  
   108  106  107 1  
   109  106  108 1  
   110  109  110 1  
   111  110  111 1  
   112  110  113 1  
   113  111  112 2  
   114  111  115 am 
   115  113  114 1  
   116  115  116 1  
   117  116  117 1  
   118  116  119 1  
   119  117  118 2  
   120  117  124 am 
   121  119  120 1  
   122  120  121 1  
   123  121  122 2  
   124  121  123 am 
   125  124  125 1  
   126  125  126 1  
   127  125  128 1  
   128  126  127 2  
   129  126  132 am 
   130  128  129 1  
   131  129  130 1  
   132  129  131 1  
   133  132  133 1  
   134  133  134 1  
   135  133  136 1  
   136  134  135 ar 
   137  134  142 ar 
   138  136  137 1  
   139  137  138 1  
   140  137  139 2  
   141  138  140 2  
   142  139  141 1  
   143  140  141 1  
   144    1  143 1  
   145    1  144 1  
   146    1  145 1  
   147    2  146 1  
   148    5  147 1  
   149    5  148 1  
   150    9  149 1  
   151   10  150 1  
   152   13  151 1  
   153   13  152 1  
   154   14  153 1  
   155   14  154 1  
   156   18  155 1  
   157   19  156 1  
   158   22  157 1  
   159   22  158 1  
   160   23  159 1  
   161   23  160 1  
   162   27  161 1  
   163   28  162 1  
   164   28  163 1  
   165   31  164 1  
   166   32  165 1  
   167   32  166 1  
   168   35  167 1  
   169   36  168 1  
   170   36  169 1  
   171   39  170 1  
   172   40  171 1  
   173   43  172 1  
   174   43  173 1  
   175   44  174 1  
   176   44  175 1  
   177   48  176 1  
   178   49  177 1  
   179   52  178 1  
   180   52  179 1  
   181   53  180 1  
   182   53  181 1  
   183   57  182 1  
   184   58  183 1  
   185   61  184 1  
   186   61  185 1  
   187   65  186 1  
   188   66  187 1  
   189   69  188 1  
   190   69  189 1  
   191   70  190 1  
   192   70  191 1  
   193   73  192 1  
   194   73  193 1  
   195   74  194 1  
   196   75  195 1  
   197   78  196 1  
   198   78  197 1  
   199   82  198 1  
   200   83  199 1  
   201   86  200 1  
   202   86  201 1  
   203   88  202 1  
   204   89  203 1  
   205   90  204 1  
   206   91  205 1  
   207   92  206 1  
   208   93  207 1  
   209   94  208 1  
   210   97  209 1  
   211   97  210 1  
   212  101  211 1  
   213  102  212 1  
   214  105  213 1  
   215  105  214 1  
   216  106  215 1  
   217  107  216 1  
   218  107  217 1  
   219  107  218 1  
   220  108  219 1  
   221  108  220 1  
   222  108  221 1  
   223  109  222 1  
   224  110  223 1  
   225  113  224 1  
   226  113  225 1  
   227  114  226 1  
   228  115  227 1  
   229  116  228 1  
   230  119  229 1  
   231  119  230 1  
   232  120  231 1  
   233  120  232 1  
   234  123  233 1  
   235  123  234 1  
   236  124  235 1  
   237  125  236 1  
   238  128  237 1  
   239  128  238 1  
   240  129  239 1  
   241  130  240 1  
   242  130  241 1  
   243  130  242 1  
   244  131  243 1  
   245  131  244 1  
   246  131  245 1  
   247  132  246 1  
   248  133  247 1  
   249  136  248 1  
   250  136  249 1  
   251  139  250 1  
   252  140  251 1  
   253  141  252 1  
@<TRIPOS>SUBSTRUCTURE
     1 ASP         1

