1kwr_ligand
  -I-interpret- 

 23 24  0  0  0  0  0  0  0  0999 V2000
   -5.7020    1.0070   16.6810 S   0  0  0  0  0
   -5.0630    2.3060   15.6790 C   0  0  0  0  0
   -3.7070    2.2600   15.4120 C   0  0  0  0  0
   -3.1660    3.2510   14.6300 C   0  0  0  0  0
   -3.9790    4.2690   14.0820 C   0  0  0  0  0
   -3.4940    5.3130   13.2510 N   0  0  0  0  0
   -2.0940    5.4400   12.8500 C   0  0  0  0  0
   -4.8100    6.2840   12.8420 S   0  0  0  0  0
   -6.0650    5.4370   13.7000 C   0  0  0  0  0
   -7.2380    5.7590   13.7350 O   0  0  0  0  0
   -5.3530    4.3050   14.3550 C   0  0  0  0  0
   -5.9080    3.3080   15.1560 C   0  0  0  0  0
   -5.2960   -0.5040   15.9240 N   0  0  0  0  0
   -7.1410    1.1640   16.7170 O   0  0  0  0  0
   -5.1480    1.0640   18.0130 O   0  0  0  0  0
   -3.0846    1.4592   15.8112 H   0  0  0  0  0
   -2.0947    3.2524   14.4292 H   0  0  0  0  0
   -2.0212    5.3770   11.7643 H   0  0  0  0  0
   -1.7069    6.4019   13.1862 H   0  0  0  0  0
   -1.5136    4.6355   13.3016 H   0  0  0  0  0
   -6.9759    3.3025   15.3745 H   0  0  0  0  0
   -6.0354   -1.1207   15.5874 H   0  0  0  0  0
   -4.3183   -0.7740   15.8164 H   0  0  0  0  0
  1  2  1  0  0  0
  1 13  1  0  0  0
  1 14  2  0  0  0
  1 15  2  0  0  0
  2  3  4  0  0  0
  2 12  4  0  0  0
  3  4  4  0  0  0
  4  5  4  0  0  0
  5  6  1  0  0  0
  5 11  4  0  0  0
  6  7  1  0  0  0
  6  8  1  0  0  0
  8  9  1  0  0  0
  9 10  2  0  0  0
  9 11  1  0  0  0
 11 12  4  0  0  0
  3 16  1  0  0  0
  4 17  1  0  0  0
  7 18  1  0  0  0
  7 19  1  0  0  0
  7 20  1  0  0  0
 12 21  1  0  0  0
 13 22  1  0  0  0
 13 23  1  0  0  0
M  END
$$$$
