4pci_ligand
  -I-interpret- 

 35 37  0  0  0  0  0  0  0  0999 V2000
   14.7690    4.6140    0.0960 O   0  0  0  0  0
   13.7690    5.3220    0.2010 C   0  0  0  0  0
   12.6000    4.9480   -0.3040 N   0  0  0  0  0
   12.4730    3.7170   -1.0850 C   0  0  0  0  0
   13.8060    6.6440    0.9320 C   0  0  0  0  0
   13.2710    6.4620    2.3530 C   0  0  0  0  0
   13.3210    7.7720    3.0740 C   0  0  0  0  0
   12.3520    8.7630    2.8910 C   0  0  0  0  0
   12.4340    9.9800    3.5740 C   0  0  0  0  0
   13.4910   10.2010    4.4470 C   0  0  0  0  0
   14.4680    9.2270    4.6250 C   0  0  0  0  0
   14.3830    8.0210    3.9360 C   0  0  0  0  0
   11.9340    5.8750    2.3090 N   0  0  0  0  0
   11.0830    6.0590    1.2550 C   0  0  0  0  0
   11.4010    5.6400   -0.0340 C   0  0  0  0  0
    9.8570    6.6830    1.4740 C   0  0  0  0  0
    8.9490    6.8770    0.4350 C   0  0  0  0  0
    9.2700    6.4600   -0.8480 C   0  0  0  0  0
   10.4940    5.8420   -1.0770 C   0  0  0  0  0
   11.8327    3.0143   -0.5517 H   0  0  0  0  0
   12.0327    3.9475   -2.0551 H   0  0  0  0  0
   13.4593    3.2755   -1.2278 H   0  0  0  0  0
   13.1861    7.3674    0.4023 H   0  0  0  0  0
   14.8339    7.0040    0.9761 H   0  0  0  0  0
   13.8954    5.7662    2.9134 H   0  0  0  0  0
   11.5222    8.5845    2.2072 H   0  0  0  0  0
   11.6755   10.7481    3.4227 H   0  0  0  0  0
   13.5554   11.1411    4.9948 H   0  0  0  0  0
   15.3007    9.4085    5.3046 H   0  0  0  0  0
   15.1559    7.2648    4.0733 H   0  0  0  0  0
   11.6231    5.3053    3.0959 H   0  0  0  0  0
    9.6032    7.0260    2.4770 H   0  0  0  0  0
    7.9891    7.3552    0.6302 H   0  0  0  0  0
    8.5696    6.6152   -1.6687 H   0  0  0  0  0
   10.7493    5.5107   -2.0836 H   0  0  0  0  0
  1  2  2  0  0  0
  2  3  1  0  0  0
  2  5  1  0  0  0
  3  4  1  0  0  0
  3 15  1  0  0  0
  5  6  1  0  0  0
  6  7  1  0  0  0
  6 13  1  0  0  0
  7  8  4  0  0  0
  7 12  4  0  0  0
  8  9  4  0  0  0
  9 10  4  0  0  0
 10 11  4  0  0  0
 11 12  4  0  0  0
 13 14  1  0  0  0
 14 15  4  0  0  0
 14 16  4  0  0  0
 15 19  4  0  0  0
 16 17  4  0  0  0
 17 18  4  0  0  0
 18 19  4  0  0  0
  4 20  1  0  0  0
  4 21  1  0  0  0
  4 22  1  0  0  0
  5 23  1  0  0  0
  5 24  1  0  0  0
  6 25  1  0  0  0
  8 26  1  0  0  0
  9 27  1  0  0  0
 10 28  1  0  0  0
 11 29  1  0  0  0
 12 30  1  0  0  0
 13 31  1  0  0  0
 16 32  1  0  0  0
 17 33  1  0  0  0
 18 34  1  0  0  0
 19 35  1  0  0  0
M  END
$$$$
