6mlp_ligand
  -I-interpret- 

 20 20  0  0  0  0  0  0  0  0999 V2000
   13.7260    1.1710  -12.3460 N   0  3  0  0  0
   13.7950    2.0290  -11.1600 C   0  0  0  0  0
   14.2400    1.2270   -9.9510 C   0  0  0  0  0
   14.5010    0.0180  -10.1020 O   0  0  0  0  0
   12.4780    2.8120  -10.9100 C   0  0  0  0  0
   11.2440    1.9700  -10.7680 C   0  0  0  0  0
    9.9870    2.5330  -10.6560 N   0  0  0  0  0
   11.0590    0.6290  -10.7200 C   0  0  0  0  0
    9.0820    1.5760  -10.5490 C   0  0  0  0  0
    9.7040    0.4110  -10.5900 N   0  0  0  0  0
   14.3930    1.7670   -8.8480 O   0  0  0  0  0
   14.6136    0.6822  -12.4626 H   0  0  0  0  0
   12.9748    0.4910  -12.2290 H   0  0  0  0  0
   13.5417    1.7447  -13.1690 H   0  0  0  0  0
   14.5498    2.7931  -11.3460 H   0  0  0  0  0
   14.3269   -0.2346  -11.0117 H   0  0  0  0  0
   12.3229    3.4459  -11.7830 H   0  0  0  0  0
   12.6048    3.3394   -9.9646 H   0  0  0  0  0
   11.8354   -0.1341  -10.7740 H   0  0  0  0  0
    8.0069    1.7226  -10.4448 H   0  0  0  0  0
  1  2  1  0  0  0
  2  3  1  0  0  0
  2  5  1  0  0  0
  3  4  1  0  0  0
  3 11  2  0  0  0
  5  6  1  0  0  0
  6  7  4  0  0  0
  6  8  4  0  0  0
  7  9  4  0  0  0
  8 10  4  0  0  0
  9 10  4  0  0  0
  1 12  1  0  0  0
  1 13  1  0  0  0
  1 14  1  0  0  0
  2 15  1  0  0  0
  4 16  1  0  0  0
  5 17  1  0  0  0
  5 18  1  0  0  0
  8 19  1  0  0  0
  9 20  1  0  0  0
M  END
$$$$
