5dj5_ligand
  -I-interpret- 

 36 39  0  0  0  0  0  0  0  0999 V2000
  -33.3040   14.2500  -23.2930 C   0  0  0  0  0
  -33.8330   13.6670  -24.4520 C   0  0  0  0  0
  -35.2140   13.5620  -24.6680 C   0  0  0  0  0
  -36.1010   14.0420  -23.7010 C   0  0  0  0  0
  -35.5850   14.6250  -22.5380 C   0  0  0  0  0
  -34.2000   14.7330  -22.3240 C   0  0  0  0  0
  -33.3980   15.3280  -21.1550 C   0  0  0  0  0
  -31.9370   15.4240  -21.6470 C   0  0  0  0  0
  -31.8450   14.4750  -22.8550 C   0  0  0  0  0
  -32.1120   14.4120  -19.4790 C   0  0  0  0  0
  -31.1470   14.9740  -20.4490 C   0  0  0  0  0
  -29.8320   15.0850  -20.2100 C   0  0  0  0  0
  -27.6350   15.3650  -20.6860 C   0  0  0  0  0
  -27.1170   16.0510  -19.5900 C   0  0  0  0  0
  -26.2490   15.2930  -18.9470 C   0  0  0  0  0
  -26.1130   14.0120  -19.7040 C   0  0  0  0  0
  -25.5120   15.7460  -17.6810 C   0  0  0  0  0
  -31.7740   13.9780  -18.4020 O   0  0  0  0  0
  -33.4480   14.4570  -19.9960 O   0  0  0  0  0
  -28.9260   15.6380  -21.1390 O   0  0  0  0  0
  -25.3830   13.0800  -19.4440 O   0  0  0  0  0
  -26.9940   14.0960  -20.8260 O   0  0  0  0  0
  -33.1494   13.2831  -25.2093 H   0  0  0  0  0
  -35.5933   13.1090  -25.5840 H   0  0  0  0  0
  -37.1779   13.9636  -23.8501 H   0  0  0  0  0
  -36.2723   15.0037  -21.7815 H   0  0  0  0  0
  -33.8056   16.2956  -20.8623 H   0  0  0  0  0
  -31.5773   16.3989  -21.9761 H   0  0  0  0  0
  -31.2418   14.8987  -23.6579 H   0  0  0  0  0
  -31.3503   13.5384  -22.5976 H   0  0  0  0  0
  -29.4456   14.7317  -19.2540 H   0  0  0  0  0
  -27.3893   17.0671  -19.3047 H   0  0  0  0  0
  -25.7536   15.2211  -17.9788 H   0  0  0  0  0
  -24.9218   16.6348  -17.9041 H   0  0  0  0  0
  -26.2387   15.9769  -16.9021 H   0  0  0  0  0
  -24.8534   14.9472  -17.3400 H   0  0  0  0  0
  1  2  4  0  0  0
  1  6  4  0  0  0
  9  1  1  0  0  0
  2  3  4  0  0  0
  3  4  4  0  0  0
  5  4  4  0  0  0
  6  5  4  0  0  0
  7  6  1  0  0  0
  8  7  1  0  0  0
 19  7  1  0  0  0
  8  9  1  0  0  0
 11  8  1  0  0  0
 11 10  1  0  0  0
 10 18  2  0  0  0
 10 19  1  0  0  0
 12 11  2  0  0  0
 20 12  1  0  0  0
 13 14  2  0  0  0
 13 20  1  0  0  0
 13 22  1  0  0  0
 14 15  1  0  0  0
 15 16  1  0  0  0
 15 17  1  0  0  0
 16 21  2  0  0  0
 16 22  1  0  0  0
  2 23  1  0  0  0
  3 24  1  0  0  0
  4 25  1  0  0  0
  5 26  1  0  0  0
  7 27  1  0  0  0
  8 28  1  0  0  0
  9 29  1  0  0  0
  9 30  1  0  0  0
 12 31  1  0  0  0
 14 32  1  0  0  0
 15 33  1  0  0  0
 17 34  1  0  0  0
 17 35  1  0  0  0
 17 36  1  0  0  0
M  END
$$$$
