5tr6_ligand
  -I-interpret- 

 47 50  0  0  0  0  0  0  0  0999 V2000
   -1.1880    0.2530   14.7710 C   0  0  0  0  0
    0.0850    0.0120   14.2070 C   0  0  0  0  0
   -2.3690   -0.6310   14.5290 C   0  0  0  0  0
   -1.2170   -4.9490   11.0790 C   0  0  0  0  0
    1.0630   -5.7490   11.8900 C   0  0  0  0  0
   -0.5490   -4.6280   13.5260 C   0  0  0  0  0
   -4.3720   -2.4520   13.9000 C   0  0  0  0  0
   -4.6910   -1.3420   14.6480 C   0  0  0  0  0
    0.7950    3.0490   16.0220 C   0  0  0  0  0
    0.2070    1.8510   15.4060 N   0  0  0  0  0
   -1.0720    1.4110   15.5080 C   0  0  0  0  0
    0.9030    0.9580   14.5820 N   0  0  0  0  0
   -2.1320   -1.7280   13.7920 N   0  0  0  0  0
   -3.0510   -2.6390   13.4610 C   0  0  0  0  0
   -2.7150   -3.7580   12.6920 N   0  0  0  0  0
   -1.3070   -4.0270   12.3190 C   0  0  0  0  0
    0.2650   -5.1720   10.7030 C   0  0  0  0  0
    0.9340   -4.8550   13.1460 C   0  0  0  0  0
   -1.1730   -5.8900   13.9810 N   0  3  0  0  0
   -5.3490   -3.3310   13.6050 F   0  0  0  0  0
   -5.9880   -0.8880   15.2570 C   0  0  0  0  0
   -5.6680    0.3400   15.9800 N   0  0  0  0  0
   -4.3770    0.6320   15.8200 C   0  0  0  0  0
   -3.8740    1.6050   16.3460 O   0  0  0  0  0
   -3.6960   -0.3890   14.9930 C   0  0  0  0  0
    0.3426   -0.8285   13.5625 H   0  0  0  0  0
   -1.7358   -4.4812   10.2423 H   0  0  0  0  0
   -1.6803   -5.9088   11.3078 H   0  0  0  0  0
    2.1147   -5.7993   11.6079 H   0  0  0  0  0
    0.6662   -6.7364   12.1261 H   0  0  0  0  0
   -0.6026   -3.9226   14.3552 H   0  0  0  0  0
    0.2648    3.9341   15.6706 H   0  0  0  0  0
    0.7081    2.9784   17.1062 H   0  0  0  0  0
    1.8467    3.1198   15.7444 H   0  0  0  0  0
   -1.8699    1.8907   16.0750 H   0  0  0  0  0
   -3.4485   -4.3965   12.3843 H   0  0  0  0  0
   -0.8339   -3.0833   12.0474 H   0  0  0  0  0
    0.7009   -4.2123   10.4253 H   0  0  0  0  0
    0.3106   -5.8812    9.8765 H   0  0  0  0  0
    1.3887   -3.8879   12.9313 H   0  0  0  0  0
    1.4328   -5.3521   13.9780 H   0  0  0  0  0
   -0.6506   -6.2590   14.7756 H   0  0  0  0  0
   -2.1372   -5.7096   14.2607 H   0  0  0  0  0
   -1.1599   -6.5683   13.2193 H   0  0  0  0  0
   -6.4058   -1.6456   15.9200 H   0  0  0  0  0
   -6.7496   -0.7176   14.4960 H   0  0  0  0  0
   -6.3316    0.8907   16.5247 H   0  0  0  0  0
  1  2  4  0  0  0
  3  1  1  0  0  0
  1 11  4  0  0  0
  2 12  4  0  0  0
 13  3  4  0  0  0
  3 25  4  0  0  0
 16  4  1  0  0  0
  4 17  1  0  0  0
 17  5  1  0  0  0
 18  5  1  0  0  0
 16  6  1  0  0  0
  6 18  1  0  0  0
  6 19  1  0  0  0
  7  8  4  0  0  0
 14  7  4  0  0  0
  7 20  1  0  0  0
  8 21  1  0  0  0
  8 25  4  0  0  0
 10  9  1  0  0  0
 11 10  4  0  0  0
 10 12  4  0  0  0
 14 13  4  0  0  0
 15 14  1  0  0  0
 15 16  1  0  0  0
 21 22  1  0  0  0
 22 23  1  0  0  0
 23 24  2  0  0  0
 23 25  1  0  0  0
  2 26  1  0  0  0
  4 27  1  0  0  0
  4 28  1  0  0  0
  5 29  1  0  0  0
  5 30  1  0  0  0
  6 31  1  0  0  0
  9 32  1  0  0  0
  9 33  1  0  0  0
  9 34  1  0  0  0
 11 35  1  0  0  0
 15 36  1  0  0  0
 16 37  1  0  0  0
 17 38  1  0  0  0
 17 39  1  0  0  0
 18 40  1  0  0  0
 18 41  1  0  0  0
 19 42  1  0  0  0
 19 43  1  0  0  0
 19 44  1  0  0  0
 21 45  1  0  0  0
 21 46  1  0  0  0
 22 47  1  0  0  0
M  END
$$$$
