4u91_ligand
  -I-interpret- 

168169  0  0  0  0  0  0  0  0999 V2000
   25.8050   35.8890  221.7500 N   0  3  0  0  0
   26.7920   35.0160  221.1250 C   0  0  0  0  0
   26.5140   34.8620  219.6410 C   0  0  0  0  0
   25.3790   34.6390  219.2410 O   0  0  0  0  0
   26.7890   33.6360  221.7880 C   0  0  0  0  0
   27.6170   32.6160  221.0640 C   0  0  0  0  0
   28.9490   32.4400  221.3740 C   0  0  0  0  0
   27.0630   31.8380  220.0690 C   0  0  0  0  0
   29.7130   31.5090  220.7090 C   0  0  0  0  0
   27.8220   30.9050  219.3980 C   0  0  0  0  0
   29.1500   30.7410  219.7200 C   0  0  0  0  0
   27.5500   35.0000  218.8270 N   0  0  0  0  0
   27.4280   34.7150  217.4060 C   0  0  0  0  0
   28.5540   33.8310  216.8940 C   0  0  0  0  0
   29.7180   34.0430  217.2110 O   0  0  0  0  0
   27.3540   36.0000  216.5870 C   0  0  0  0  0
   27.2080   35.7070  215.2140 O   0  0  0  0  0
   28.1920   32.8460  216.0880 N   0  0  0  0  0
   29.1680   32.0160  215.4090 C   0  0  0  0  0
   29.8270   32.7740  214.2590 C   0  0  0  0  0
   30.8190   32.3260  213.7010 O   0  0  0  0  0
   28.5620   30.6940  214.9170 C   0  0  0  0  0
   29.6660   29.6670  214.6880 C   0  0  0  0  0
   27.7500   30.9090  213.6560 C   0  0  0  0  0
   30.6920   29.6310  215.7940 C   0  0  0  0  0
   29.2450   33.9120  213.8940 N   0  0  0  0  0
   29.7830   34.7490  212.8290 C   0  0  0  0  0
   30.6620   35.8550  213.3990 C   0  0  0  0  0
   30.2710   36.5540  214.3220 O   0  0  0  0  0
   28.6640   35.3910  211.9900 C   0  0  0  0  0
   29.2510   36.3410  210.9640 C   0  0  0  0  0
   27.8250   34.3220  211.3140 C   0  0  0  0  0
   31.8520   36.0120  212.8390 N   0  0  0  0  0
   32.8000   36.9730  213.3620 C   0  0  0  0  0
   32.2930   38.3990  213.2940 C   0  0  0  0  0
   31.6840   38.8090  212.3210 O   0  0  0  0  0
   32.5320   39.1460  214.3600 N   0  0  0  0  0
   32.1100   40.5340  214.4470 C   0  0  0  0  0
   33.0370   41.4860  213.7050 C   0  0  0  0  0
   34.2160   41.2070  213.5210 O   0  0  0  0  0
   31.9860   40.9600  215.9080 C   0  0  0  0  0
   33.2630   41.0920  216.4940 O   0  0  0  0  0
   32.4850   42.6130  213.2780 N   0  0  0  0  0
   33.2780   43.7140  212.7580 C   0  0  0  0  0
   34.0010   44.4060  213.9050 C   0  0  0  0  0
   33.5270   44.3660  215.0420 O   0  0  0  0  0
   32.3880   44.7080  212.0200 C   0  0  0  0  0
   31.9160   44.2490  210.6450 C   0  0  0  0  0
   30.5370   44.7990  210.3270 C   0  0  0  0  0
   32.9220   44.6470  209.5800 C   0  0  0  0  0
   35.2000   45.0620  213.5730 N   0  0  0  0  0
   35.8050   45.7710  214.7190 C   0  0  0  0  0
   34.8380   46.8170  215.2710 C   0  0  0  0  0
   34.1750   47.5200  214.5130 O   0  0  0  0  0
   37.0400   46.4410  214.1190 C   0  0  0  0  0
   37.4780   45.5030  213.0670 C   0  0  0  0  0
   36.1820   45.2160  212.3910 C   0  0  0  0  0
   34.7700   46.9080  216.5970 N   0  0  0  0  0
   33.6290   47.4910  217.2920 C   0  0  0  0  0
   33.3400   48.9610  216.9830 C   0  0  0  0  0
   32.1820   49.3430  216.8260 O   0  0  0  0  0
   33.7540   47.2590  218.8070 C   0  0  0  0  0
   34.3110   48.4240  219.6120 C   0  0  0  0  0
   33.6310   48.5160  220.9670 C   0  0  0  0  0
   34.5720   48.8130  222.0410 N   0  0  0  0  0
   35.7680   48.2480  222.1670 C   0  0  0  0  0
   36.5530   48.5830  223.1810 N   0  0  0  0  0
   36.1800   47.3500  221.2840 N   0  0  0  0  0
   34.3780   49.7820  216.8940 N   0  0  0  0  0
   34.1730   51.1800  216.5440 C   0  0  0  0  0
   35.2140   51.6700  215.5500 C   0  0  0  0  0
   36.4080   51.7080  215.8390 O   0  0  0  0  0
   34.1200   52.0700  217.7860 C   0  0  0  0  0
   32.7070   52.5160  218.1160 C   0  0  0  0  0
   31.7790   52.1530  217.3640 O   0  0  0  0  0
   32.5190   53.2250  219.1250 O   0  0  0  0  0
   34.7310   52.0340  214.3700 N   0  0  0  0  0
   35.5760   52.4460  213.2680 C   0  0  0  0  0
   34.7160   52.7760  212.0550 C   0  0  0  0  0
   33.6780   53.4270  212.1790 O   0  0  0  0  0
   36.5380   51.3120  212.9270 C   0  0  0  0  0
   38.2780   51.7650  213.0260 S   0  0  0  0  0
   35.0380   52.4080  210.9240 O   0  0  0  0  0
   25.8231   36.8015  221.2946 H   0  0  0  0  0
   24.8773   35.4768  221.6513 H   0  0  0  0  0
   26.0268   35.9972  222.7397 H   0  0  0  0  0
   27.7716   35.4754  221.2571 H   0  0  0  0  0
   25.7595   33.2779  221.7895 H   0  0  0  0  0
   27.2147   33.7528  222.7846 H   0  0  0  0  0
   29.4031   33.0472  222.1571 H   0  0  0  0  0
   26.0115   31.9631  219.8105 H   0  0  0  0  0
   30.7643   31.3812  220.9671 H   0  0  0  0  0
   27.3716   30.2974  218.6131 H   0  0  0  0  0
   29.7533   30.0032  219.1911 H   0  0  0  0  0
   28.4462   35.3106  219.2022 H   0  0  0  0  0
   26.4948   34.1657  217.2816 H   0  0  0  0  0
   28.2754   36.5642  216.7315 H   0  0  0  0  0
   26.4925   36.5802  216.9176 H   0  0  0  0  0
   27.1634   36.5265  214.7160 H   0  0  0  0  0
   27.1990   32.6656  215.9403 H   0  0  0  0  0
   29.9364   31.7651  216.1402 H   0  0  0  0  0
   27.8874   30.3124  215.6834 H   0  0  0  0  0
   30.1839   29.9415  213.7690 H   0  0  0  0  0
   29.1961   28.6845  214.6444 H   0  0  0  0  0
   26.9420   31.6112  213.8610 H   0  0  0  0  0
   28.3943   31.3125  212.8749 H   0  0  0  0  0
   27.3316   29.9574  213.3281 H   0  0  0  0  0
   31.1667   30.6085  215.8794 H   0  0  0  0  0
   30.2017   29.3804  216.7347 H   0  0  0  0  0
   31.4461   28.8783  215.5640 H   0  0  0  0  0
   28.3954   34.2087  214.3742 H   0  0  0  0  0
   30.3775   34.0977  212.1883 H   0  0  0  0  0
   28.0164   35.9620  212.6553 H   0  0  0  0  0
   29.8077   37.1267  211.4748 H   0  0  0  0  0
   29.9203   35.7910  210.3025 H   0  0  0  0  0
   28.4454   36.7858  210.3798 H   0  0  0  0  0
   28.4593   33.7237  210.6600 H   0  0  0  0  0
   27.3758   33.6809  212.0725 H   0  0  0  0  0
   27.0395   34.7964  210.7258 H   0  0  0  0  0
   32.1041   35.4477  212.0276 H   0  0  0  0  0
   33.7041   36.9121  212.7562 H   0  0  0  0  0
   32.9745   36.7315  214.4105 H   0  0  0  0  0
   33.0300   38.7329  215.1485 H   0  0  0  0  0
   31.1367   40.5941  213.9600 H   0  0  0  0  0
   31.4234   40.2011  216.4518 H   0  0  0  0  0
   31.4738   41.9210  215.9546 H   0  0  0  0  0
   33.1670   41.3599  217.4109 H   0  0  0  0  0
   31.4704   42.7105  213.3157 H   0  0  0  0  0
   34.0124   43.3226  212.0541 H   0  0  0  0  0
   32.9818   45.6089  211.8653 H   0  0  0  0  0
   31.4954   44.8459  212.6302 H   0  0  0  0  0
   31.8408   43.1617  210.6556 H   0  0  0  0  0
   29.8259   44.4480  211.0748 H   0  0  0  0  0
   30.5702   45.8884  210.3385 H   0  0  0  0  0
   30.2283   44.4540  209.3402 H   0  0  0  0  0
   33.0332   45.7313  209.5741 H   0  0  0  0  0
   33.8837   44.1831  209.7990 H   0  0  0  0  0
   32.5689   44.3114  208.6049 H   0  0  0  0  0
   36.0462   45.1085  215.5503 H   0  0  0  0  0
   37.8162   46.6197  214.8631 H   0  0  0  0  0
   36.8214   47.4330  213.7238 H   0  0  0  0  0
   37.9847   44.6162  213.4476 H   0  0  0  0  0
   38.2431   45.9071  212.4041 H   0  0  0  0  0
   35.8856   46.0010  211.6953 H   0  0  0  0  0
   36.2231   44.3297  211.7579 H   0  0  0  0  0
   35.5501   46.5545  217.1510 H   0  0  0  0  0
   32.7605   46.9633  216.8978 H   0  0  0  0  0
   34.4544   46.4337  218.9351 H   0  0  0  0  0
   32.7432   47.0853  219.1761 H   0  0  0  0  0
   34.1300   49.3487  219.0640 H   0  0  0  0  0
   35.3790   48.2678  219.7642 H   0  0  0  0  0
   33.1696   47.5516  221.1794 H   0  0  0  0  0
   32.9012   49.3245  220.9243 H   0  0  0  0  0
   34.2936   49.4999  222.7418 H   0  0  0  0  0
   37.4712   48.1499  223.2799 H   0  0  0  0  0
   36.2389   49.2739  223.8625 H   0  0  0  0  0
   35.5781   47.0894  220.5028 H   0  0  0  0  0
   35.3202   49.4336  217.0709 H   0  0  0  0  0
   33.2018   51.2488  216.0539 H   0  0  0  0  0
   34.7181   52.9599  217.5899 H   0  0  0  0  0
   34.4987   51.4944  218.6306 H   0  0  0  0  0
   32.1366   51.6177  216.6518 H   0  0  0  0  0
   33.7204   52.0234  214.2323 H   0  0  0  0  0
   36.1421   53.3333  213.5515 H   0  0  0  0  0
   36.3396   51.0213  211.8954 H   0  0  0  0  0
   36.3704   50.5183  213.6551 H   0  0  0  0  0
   39.0272   50.7120  212.7119 H   0  0  0  0  0
   35.8601   51.9145  210.9712 H   0  0  0  0  0
  1  2  1  0  0  0
  2  3  1  0  0  0
  2  5  1  0  0  0
  3  4  2  0  0  0
  3 12  1  0  0  0
  5  6  1  0  0  0
  6  7  4  0  0  0
  6  8  4  0  0  0
  7  9  4  0  0  0
  8 10  4  0  0  0
  9 11  4  0  0  0
 10 11  4  0  0  0
 12 13  1  0  0  0
 13 14  1  0  0  0
 13 16  1  0  0  0
 14 15  2  0  0  0
 14 18  1  0  0  0
 16 17  1  0  0  0
 18 19  1  0  0  0
 19 20  1  0  0  0
 19 22  1  0  0  0
 20 21  2  0  0  0
 20 26  1  0  0  0
 22 23  1  0  0  0
 22 24  1  0  0  0
 23 25  1  0  0  0
 26 27  1  0  0  0
 27 28  1  0  0  0
 27 30  1  0  0  0
 28 29  2  0  0  0
 28 33  1  0  0  0
 30 31  1  0  0  0
 30 32  1  0  0  0
 33 34  1  0  0  0
 34 35  1  0  0  0
 35 36  2  0  0  0
 35 37  1  0  0  0
 37 38  1  0  0  0
 38 39  1  0  0  0
 38 41  1  0  0  0
 39 40  2  0  0  0
 39 43  1  0  0  0
 41 42  1  0  0  0
 43 44  1  0  0  0
 44 45  1  0  0  0
 44 47  1  0  0  0
 45 46  2  0  0  0
 45 51  1  0  0  0
 47 48  1  0  0  0
 48 49  1  0  0  0
 48 50  1  0  0  0
 51 52  1  0  0  0
 51 57  1  0  0  0
 52 53  1  0  0  0
 52 55  1  0  0  0
 53 54  2  0  0  0
 53 58  1  0  0  0
 55 56  1  0  0  0
 56 57  1  0  0  0
 58 59  1  0  0  0
 59 60  1  0  0  0
 59 62  1  0  0  0
 60 61  2  0  0  0
 60 69  1  0  0  0
 62 63  1  0  0  0
 63 64  1  0  0  0
 64 65  1  0  0  0
 65 66  1  0  0  0
 66 67  1  0  0  0
 66 68  2  0  0  0
 69 70  1  0  0  0
 70 71  1  0  0  0
 70 73  1  0  0  0
 71 72  2  0  0  0
 71 77  1  0  0  0
 73 74  1  0  0  0
 74 75  1  0  0  0
 74 76  2  0  0  0
 77 78  1  0  0  0
 78 79  1  0  0  0
 78 81  1  0  0  0
 79 80  2  0  0  0
 79 83  1  0  0  0
 81 82  1  0  0  0
  1 84  1  0  0  0
  1 85  1  0  0  0
  1 86  1  0  0  0
  2 87  1  0  0  0
  5 88  1  0  0  0
  5 89  1  0  0  0
  7 90  1  0  0  0
  8 91  1  0  0  0
  9 92  1  0  0  0
 10 93  1  0  0  0
 11 94  1  0  0  0
 12 95  1  0  0  0
 13 96  1  0  0  0
 16 97  1  0  0  0
 16 98  1  0  0  0
 17 99  1  0  0  0
 18100  1  0  0  0
 19101  1  0  0  0
 22102  1  0  0  0
 23103  1  0  0  0
 23104  1  0  0  0
 24105  1  0  0  0
 24106  1  0  0  0
 24107  1  0  0  0
 25108  1  0  0  0
 25109  1  0  0  0
 25110  1  0  0  0
 26111  1  0  0  0
 27112  1  0  0  0
 30113  1  0  0  0
 31114  1  0  0  0
 31115  1  0  0  0
 31116  1  0  0  0
 32117  1  0  0  0
 32118  1  0  0  0
 32119  1  0  0  0
 33120  1  0  0  0
 34121  1  0  0  0
 34122  1  0  0  0
 37123  1  0  0  0
 38124  1  0  0  0
 41125  1  0  0  0
 41126  1  0  0  0
 42127  1  0  0  0
 43128  1  0  0  0
 44129  1  0  0  0
 47130  1  0  0  0
 47131  1  0  0  0
 48132  1  0  0  0
 49133  1  0  0  0
 49134  1  0  0  0
 49135  1  0  0  0
 50136  1  0  0  0
 50137  1  0  0  0
 50138  1  0  0  0
 52139  1  0  0  0
 55140  1  0  0  0
 55141  1  0  0  0
 56142  1  0  0  0
 56143  1  0  0  0
 57144  1  0  0  0
 57145  1  0  0  0
 58146  1  0  0  0
 59147  1  0  0  0
 62148  1  0  0  0
 62149  1  0  0  0
 63150  1  0  0  0
 63151  1  0  0  0
 64152  1  0  0  0
 64153  1  0  0  0
 65154  1  0  0  0
 67155  1  0  0  0
 67156  1  0  0  0
 68157  1  0  0  0
 69158  1  0  0  0
 70159  1  0  0  0
 73160  1  0  0  0
 73161  1  0  0  0
 75162  1  0  0  0
 77163  1  0  0  0
 78164  1  0  0  0
 81165  1  0  0  0
 81166  1  0  0  0
 82167  1  0  0  0
 83168  1  0  0  0
M  END
$$$$
