### 
### Created by X-TOOL on Mon Sep 10 21:13:17 2018
### 

@<TRIPOS>MOLECULE
4u91_ligand
  167   168     1     0     0
SMALL
GAST_HUCK


@<TRIPOS>ATOM
      1 N          25.8050   35.8890  221.7500 N.4       1 PHE         0.2394
      2 CA         26.7920   35.0160  221.1250 C.3       1 PHE         0.0744
      3 C          26.5140   34.8620  219.6410 C.2       1 PHE         0.2288
      4 O          25.3790   34.6390  219.2410 O.2       1 PHE        -0.3905
      5 CB         26.7890   33.6360  221.7880 C.3       1 PHE         0.0416
      6 CG         27.6170   32.6160  221.0640 C.ar      1 PHE        -0.0353
      7 CD1        28.9490   32.4400  221.3740 C.ar      1 PHE        -0.0600
      8 CD2        27.0630   31.8380  220.0690 C.ar      1 PHE        -0.0600
      9 CE1        29.7130   31.5090  220.7090 C.ar      1 PHE        -0.0686
     10 CE2        27.8220   30.9050  219.3980 C.ar      1 PHE        -0.0686
     11 CZ         29.1500   30.7410  219.7200 C.ar      1 PHE        -0.0687
     12 N          27.5500   35.0000  218.8270 N.am      1 SER        -0.2587
     13 CA         27.4280   34.7150  217.4060 C.3       1 SER         0.1540
     14 C          28.5540   33.8310  216.8940 C.2       1 SER         0.2062
     15 O          29.7180   34.0430  217.2110 O.2       1 SER        -0.3943
     16 CB         27.3540   36.0000  216.5870 C.3       1 SER         0.0843
     17 OG         27.2080   35.7070  215.2140 O.3       1 SER        -0.3903
     18 N          28.1920   32.8460  216.0880 N.am      1 ILE        -0.2634
     19 CA         29.1680   32.0160  215.4090 C.3       1 ILE         0.1335
     20 C          29.8270   32.7740  214.2590 C.2       1 ILE         0.2042
     21 O          30.8190   32.3260  213.7010 O.2       1 ILE        -0.3944
     22 CB         28.5620   30.6940  214.9170 C.3       1 ILE        -0.0037
     23 CG1        29.6660   29.6670  214.6880 C.3       1 ILE        -0.0491
     24 CG2        27.7500   30.9090  213.6560 C.3       1 ILE        -0.0582
     25 CD1        30.6920   29.6310  215.7940 C.3       1 ILE        -0.0648
     26 N          29.2450   33.9120  213.8940 N.am      1 VAL        -0.2635
     27 CA         29.7830   34.7490  212.8290 C.3       1 VAL         0.1332
     28 C          30.6620   35.8550  213.3990 C.2       1 VAL         0.2039
     29 O          30.2710   36.5540  214.3220 O.2       1 VAL        -0.3944
     30 CB         28.6640   35.3910  211.9900 C.3       1 VAL        -0.0063
     31 CG1        29.2510   36.3410  210.9640 C.3       1 VAL        -0.0584
     32 CG2        27.8250   34.3220  211.3140 C.3       1 VAL        -0.0584
     33 N          31.8520   36.0120  212.8390 N.am      1 GLY        -0.2664
     34 CA         32.8000   36.9730  213.3620 C.3       1 GLY         0.1201
     35 C          32.2930   38.3990  213.2940 C.2       1 GLY         0.2008
     36 O          31.6840   38.8090  212.3210 O.2       1 GLY        -0.3947
     37 N          32.5320   39.1460  214.3600 N.am      1 SER        -0.2618
     38 CA         32.1100   40.5340  214.4470 C.3       1 SER         0.1539
     39 C          33.0370   41.4860  213.7050 C.2       1 SER         0.2062
     40 O          34.2160   41.2070  213.5210 O.2       1 SER        -0.3943
     41 CB         31.9860   40.9600  215.9080 C.3       1 SER         0.0843
     42 OG         33.2630   41.0920  216.4940 O.3       1 SER        -0.3903
     43 N          32.4850   42.6130  213.2780 N.am      1 LEU        -0.2636
     44 CA         33.2780   43.7140  212.7580 C.3       1 LEU         0.1314
     45 C          34.0010   44.4060  213.9050 C.2       1 LEU         0.2064
     46 O          33.5270   44.3660  215.0420 O.2       1 LEU        -0.3942
     47 CB         32.3880   44.7080  212.0200 C.3       1 LEU        -0.0101
     48 CG         31.9160   44.2490  210.6450 C.3       1 LEU        -0.0425
     49 CD1        30.5370   44.7990  210.3270 C.3       1 LEU        -0.0625
     50 CD2        32.9220   44.6470  209.5800 C.3       1 LEU        -0.0625
     51 N          35.2000   45.0620  213.5730 N.am      1 PRO        -0.2498
     52 CA         35.8050   45.7710  214.7190 C.3       1 PRO         0.1338
     53 C          34.8380   46.8170  215.2710 C.2       1 PRO         0.2041
     54 O          34.1750   47.5200  214.5130 O.2       1 PRO        -0.3944
     55 CB         37.0400   46.4410  214.1190 C.3       1 PRO        -0.0104
     56 CG         37.4780   45.5030  213.0670 C.3       1 PRO        -0.0281
     57 CD         36.1820   45.2160  212.3910 C.3       1 PRO         0.0369
     58 N          34.7700   46.9080  216.5970 N.am      1 ARG        -0.2637
     59 CA         33.6290   47.4910  217.2920 C.3       1 ARG         0.1311
     60 C          33.3400   48.9610  216.9830 C.2       1 ARG         0.2040
     61 O          32.1820   49.3430  216.8260 O.2       1 ARG        -0.3944
     62 CB         33.7540   47.2590  218.8070 C.3       1 ARG        -0.0092
     63 CG         34.3110   48.4240  219.6120 C.3       1 ARG        -0.0156
     64 CD         33.6310   48.5160  220.9670 C.3       1 ARG         0.0627
     65 NE         34.5720   48.8130  222.0410 N.pl3     1 ARG        -0.2723
     66 CZ         35.7680   48.2480  222.1670 C.cat     1 ARG         0.2882
     67 NH1        36.5530   48.5830  223.1810 N.pl3     1 ARG        -0.2849
     68 NH2        36.1800   47.3500  221.2840 N.pl3     1 ARG        -0.2849
     69 N          34.3780   49.7820  216.8940 N.am      1 ASP        -0.2622
     70 CA         34.1730   51.1800  216.5440 C.3       1 ASP         0.1423
     71 C          35.2140   51.6700  215.5500 C.2       1 ASP         0.2051
     72 O          36.4080   51.7080  215.8390 O.2       1 ASP        -0.3943
     73 CB         34.1200   52.0700  217.7860 C.3       1 ASP         0.0406
     74 CG         32.7070   52.5160  218.1160 C.2       1 ASP         0.0393
     75 OD1        31.7790   52.1530  217.3640 O.co2     1 ASP        -0.5688
     76 OD2        32.5190   53.2250  219.1250 O.co2     1 ASP        -0.5688
     77 N          34.7310   52.0340  214.3700 N.am      1 CYS        -0.2686
     78 CA         35.5760   52.4460  213.2680 C.3       1 CYS         0.1030
     79 C          34.7160   52.7760  212.0550 C.2       1 CYS         0.0609
     80 O          33.6780   53.4270  212.1790 O.co2     1 CYS        -0.5666
     81 CB         36.5380   51.3120  212.9270 C.3       1 CYS         0.0256
     82 SG         38.2780   51.7650  213.0260 S.3       1 CYS        -0.1742
     83 OXT        35.0380   52.4080  210.9240 O.co2     1 CYS        -0.5666
     84 H          26.0088   35.9767  222.7333 H         1 PHE         0.2017
     85 H          24.8848   35.4949  221.6314 H         1 PHE         0.2017
     86 H          25.8392   36.7988  221.3174 H         1 PHE         0.2017
     87 H          27.7869   35.4675  221.2527 H         1 PHE         0.1122
     88 H          25.7513   33.2737  221.8306 H         1 PHE         0.0507
     89 H          27.1830   33.7409  222.8096 H         1 PHE         0.0507
     90 H          29.4006   33.0438  222.1528 H         1 PHE         0.0557
     91 H          26.0173   31.9624  219.8119 H         1 PHE         0.0557
     92 H          30.7585   31.3819  220.9656 H         1 PHE         0.0599
     93 H          27.3741   30.3007  218.6174 H         1 PHE         0.0599
     94 H          29.7500   30.0072  219.1940 H         1 PHE         0.0559
     95 H          28.4286   35.3045  219.1949 H         1 SER         0.1885
     96 H          26.4843   34.1688  217.2606 H         1 SER         0.0823
     97 H          28.2779   36.5778  216.7369 H         1 SER         0.0606
     98 H          26.4914   36.5939  216.9235 H         1 SER         0.0606
     99 H          26.4094   35.2102  215.0806 H         1 SER         0.2097
    100 H          27.2185   32.6691  215.9432 H         1 ILE         0.1883
    101 H          29.9531   31.7675  216.1383 H         1 ILE         0.0803
    102 H          27.8885   30.3099  215.6972 H         1 ILE         0.0345
    103 H          30.1782   29.9104  213.7455 H         1 ILE         0.0267
    104 H          29.2048   28.6716  214.6082 H         1 ILE         0.0267
    105 H          26.9628   31.6526  213.8492 H         1 ILE         0.0235
    106 H          27.2891   29.9582  213.3501 H         1 ILE         0.0235
    107 H          28.4085   31.2723  212.8533 H         1 ILE         0.0235
    108 H          31.4536   28.8717  215.5630 H         1 ILE         0.0230
    109 H          30.1984   29.3781  216.7440 H         1 ILE         0.0230
    110 H          31.1719   30.6169  215.8812 H         1 ILE         0.0230
    111 H          28.4121   34.2029  214.3648 H         1 VAL         0.1883
    112 H          30.3950   34.1149  212.1706 H         1 VAL         0.0802
    113 H          28.0126   35.9676  212.6633 H         1 VAL         0.0343
    114 H          28.4389   36.7906  210.3737 H         1 VAL         0.0234
    115 H          29.9267   35.7871  210.2957 H         1 VAL         0.0234
    116 H          29.8131   37.1345  211.4783 H         1 VAL         0.0234
    117 H          27.4100   33.6455  212.0757 H         1 VAL         0.0234
    118 H          28.4540   33.7482  210.6175 H         1 VAL         0.0234
    119 H          27.0029   34.7975  210.7590 H         1 VAL         0.0234
    120 H          32.0992   35.4587  212.0435 H         1 GLY         0.1881
    121 H          33.7293   36.9028  212.7777 H         1 GLY         0.0763
    122 H          33.0080   36.7244  214.4131 H         1 GLY         0.0763
    123 H          33.0203   38.7410  215.1330 H         1 SER         0.1884
    124 H          31.1156   40.6081  213.9827 H         1 SER         0.0823
    125 H          31.4115   40.2008  216.4590 H         1 SER         0.0606
    126 H          31.4621   41.9258  215.9604 H         1 SER         0.0606
    127 H          33.7170   40.2586  216.4523 H         1 SER         0.2097
    128 H          31.4903   42.7086  213.3149 H         1 LEU         0.1883
    129 H          34.0235   43.3155  212.0541 H         1 LEU         0.0800
    130 H          32.9527   45.6433  211.8927 H         1 LEU         0.0315
    131 H          31.4997   44.8975  212.6405 H         1 LEU         0.0315
    132 H          31.8480   43.1512  210.6568 H         1 LEU         0.0298
    133 H          30.2244   44.4515  209.3312 H         1 LEU         0.0232
    134 H          30.5692   45.8985  210.3382 H         1 LEU         0.0232
    135 H          29.8184   44.4454  211.0810 H         1 LEU         0.0232
    136 H          33.9094   44.2355  209.8363 H         1 LEU         0.0232
    137 H          32.9846   45.7439  209.5263 H         1 LEU         0.0232
    138 H          32.6010   44.2499  208.6057 H         1 LEU         0.0232
    139 H          36.0855   45.0674  215.5167 H         1 PRO         0.0802
    140 H          37.8240   46.5693  214.8798 H         1 PRO         0.0313
    141 H          36.7835   47.4200  213.6881 H         1 PRO         0.0313
    142 H          37.9212   44.5921  213.4958 H         1 PRO         0.0287
    143 H          38.1975   45.9725  212.3801 H         1 PRO         0.0287
    144 H          35.8849   46.0484  211.7361 H         1 PRO         0.0524
    145 H          36.2402   44.2888  211.8020 H         1 PRO         0.0524
    146 H          35.5348   46.5614  217.1401 H         1 ARG         0.1883
    147 H          32.7455   46.9311  216.9516 H         1 ARG         0.0800
    148 H          34.4160   46.3944  218.9625 H         1 ARG         0.0313
    149 H          32.7517   47.0282  219.1969 H         1 ARG         0.0313
    150 H          34.1405   49.3592  219.0586 H         1 ARG         0.0301
    151 H          35.3911   48.2769  219.7596 H         1 ARG         0.0301
    152 H          33.1406   47.5552  221.1824 H         1 ARG         0.0689
    153 H          32.8744   49.3136  220.9294 H         1 ARG         0.0689
    154 H          34.2908   49.5066  222.7486 H         1 ARG         0.2642
    155 H          37.4805   48.1462  223.2805 H         1 ARG         0.2615
    156 H          36.2356   49.2802  223.8696 H         1 ARG         0.2615
    157 H          35.5725   47.0874  220.4948 H         1 ARG         0.2615
    158 H          37.1078   46.9146  221.3868 H         1 ARG         0.2615
    159 H          35.3017   49.4404  217.0674 H         1 ASP         0.1884
    160 H          33.1927   51.2512  216.0502 H         1 ASP         0.0819
    161 H          34.7399   52.9613  217.6091 H         1 ASP         0.0478
    162 H          34.5221   51.5076  218.6415 H         1 ASP         0.0478
    163 H          33.7402   52.0236  214.2350 H         1 CYS         0.1876
    164 H          36.1501   53.3377  213.5601 H         1 CYS         0.0734
    165 H          36.3266   50.9772  211.9007 H         1 CYS         0.0415
    166 H          36.3569   50.4836  213.6276 H         1 CYS         0.0415
    167 H          38.8458   50.9669  212.7879 H         1 CYS         0.1018
@<TRIPOS>BOND
     1    1    2 1  
     2    2    3 1  
     3    2    5 1  
     4    3    4 2  
     5    3   12 am 
     6    5    6 1  
     7    6    7 ar 
     8    6    8 ar 
     9    7    9 ar 
    10    8   10 ar 
    11    9   11 ar 
    12   10   11 ar 
    13   12   13 1  
    14   13   14 1  
    15   13   16 1  
    16   14   15 2  
    17   14   18 am 
    18   16   17 1  
    19   18   19 1  
    20   19   20 1  
    21   19   22 1  
    22   20   21 2  
    23   20   26 am 
    24   22   23 1  
    25   22   24 1  
    26   23   25 1  
    27   26   27 1  
    28   27   28 1  
    29   27   30 1  
    30   28   29 2  
    31   28   33 am 
    32   30   31 1  
    33   30   32 1  
    34   33   34 1  
    35   34   35 1  
    36   35   36 2  
    37   35   37 am 
    38   37   38 1  
    39   38   39 1  
    40   38   41 1  
    41   39   40 2  
    42   39   43 am 
    43   41   42 1  
    44   43   44 1  
    45   44   45 1  
    46   44   47 1  
    47   45   46 2  
    48   45   51 am 
    49   47   48 1  
    50   48   49 1  
    51   48   50 1  
    52   51   52 1  
    53   51   57 1  
    54   52   53 1  
    55   52   55 1  
    56   53   54 2  
    57   53   58 am 
    58   55   56 1  
    59   56   57 1  
    60   58   59 1  
    61   59   60 1  
    62   59   62 1  
    63   60   61 2  
    64   60   69 am 
    65   62   63 1  
    66   63   64 1  
    67   64   65 1  
    68   65   66 ar 
    69   66   67 ar 
    70   66   68 ar 
    71   69   70 1  
    72   70   71 1  
    73   70   73 1  
    74   71   72 2  
    75   71   77 am 
    76   73   74 1  
    77   74   75 ar 
    78   74   76 ar 
    79   77   78 1  
    80   78   79 1  
    81   78   81 1  
    82   79   80 ar 
    83   79   83 ar 
    84   81   82 1  
    85    1   84 1  
    86    1   85 1  
    87    1   86 1  
    88    2   87 1  
    89    5   88 1  
    90    5   89 1  
    91    7   90 1  
    92    8   91 1  
    93    9   92 1  
    94   10   93 1  
    95   11   94 1  
    96   12   95 1  
    97   13   96 1  
    98   16   97 1  
    99   16   98 1  
   100   17   99 1  
   101   18  100 1  
   102   19  101 1  
   103   22  102 1  
   104   23  103 1  
   105   23  104 1  
   106   24  105 1  
   107   24  106 1  
   108   24  107 1  
   109   25  108 1  
   110   25  109 1  
   111   25  110 1  
   112   26  111 1  
   113   27  112 1  
   114   30  113 1  
   115   31  114 1  
   116   31  115 1  
   117   31  116 1  
   118   32  117 1  
   119   32  118 1  
   120   32  119 1  
   121   33  120 1  
   122   34  121 1  
   123   34  122 1  
   124   37  123 1  
   125   38  124 1  
   126   41  125 1  
   127   41  126 1  
   128   42  127 1  
   129   43  128 1  
   130   44  129 1  
   131   47  130 1  
   132   47  131 1  
   133   48  132 1  
   134   49  133 1  
   135   49  134 1  
   136   49  135 1  
   137   50  136 1  
   138   50  137 1  
   139   50  138 1  
   140   52  139 1  
   141   55  140 1  
   142   55  141 1  
   143   56  142 1  
   144   56  143 1  
   145   57  144 1  
   146   57  145 1  
   147   58  146 1  
   148   59  147 1  
   149   62  148 1  
   150   62  149 1  
   151   63  150 1  
   152   63  151 1  
   153   64  152 1  
   154   64  153 1  
   155   65  154 1  
   156   67  155 1  
   157   67  156 1  
   158   68  157 1  
   159   68  158 1  
   160   69  159 1  
   161   70  160 1  
   162   73  161 1  
   163   73  162 1  
   164   77  163 1  
   165   78  164 1  
   166   81  165 1  
   167   81  166 1  
   168   82  167 1  
@<TRIPOS>SUBSTRUCTURE
     1 PHE         1

