3fxw_ligand
  -I-interpret- 

 36 39  0  0  0  0  0  0  0  0999 V2000
   16.3010    0.4090   18.3860 N   0  0  0  0  0
   18.0590    0.6660   19.7370 O   0  0  0  0  0
   21.4400    8.1570   13.2430 C   0  0  0  0  0
   19.9430    5.1490   14.9090 C   0  0  0  0  0
   21.2550    9.0160   12.1350 C   0  0  0  0  0
   19.2170    2.6230   17.7120 C   0  0  0  0  0
   15.4880    0.7190   17.2060 C   0  0  0  0  0
   15.9560    1.7330   16.1560 C   0  0  0  0  0
   18.0310    1.9480   17.7340 C   0  0  0  0  0
   17.4480    0.9730   18.7090 C   0  0  0  0  0
   21.4280    4.3220   16.6060 C   0  0  0  0  0
   22.4380    5.1620   16.1410 C   0  0  0  0  0
   17.2900    2.3020   16.5110 C   0  0  0  0  0
   20.1800    4.3050   15.9900 C   0  0  0  0  0
   19.1590    3.3810   16.5460 C   0  0  0  0  0
   20.9740    5.9910   14.4560 C   0  0  0  0  0
   20.7830    6.9220   13.2890 C   0  0  0  0  0
   19.9360    6.5650   12.1160 C   0  0  0  0  0
   19.7810    7.4470   11.0350 C   0  0  0  0  0
   20.4450    8.6710   11.0590 C   0  0  0  0  0
   19.2870    5.3920   12.0980 F   0  0  0  0  0
   18.0410    3.1770   15.8130 N   0  0  0  0  0
   22.1800    5.9780   15.0910 N   0  0  0  0  0
   15.9460   -0.3103   19.0160 H   0  0  0  0  0
   22.0945    8.4568   14.0615 H   0  0  0  0  0
   18.9693    5.1572   14.4192 H   0  0  0  0  0
   21.7639    9.9798   12.1242 H   0  0  0  0  0
   20.0256    2.5786   18.4415 H   0  0  0  0  0
   14.5874    1.1710   17.6215 H   0  0  0  0  0
   15.4514   -0.2236   16.6598 H   0  0  0  0  0
   15.2318    2.5464   16.1111 H   0  0  0  0  0
   16.0391    1.2252   15.1951 H   0  0  0  0  0
   21.6172    3.6720   17.4603 H   0  0  0  0  0
   23.4198    5.1624   16.6145 H   0  0  0  0  0
   19.1496    7.1776   10.1884 H   0  0  0  0  0
   20.3286    9.3649   10.2265 H   0  0  0  0  0
  7  1  1  0  0  0
 10  1  1  0  0  0
 10  2  2  0  0  0
  3  5  4  0  0  0
 17  3  4  0  0  0
  4 14  4  0  0  0
 16  4  4  0  0  0
  5 20  4  0  0  0
  6  9  4  0  0  0
 15  6  4  0  0  0
  8  7  1  0  0  0
 13  8  1  0  0  0
  9 10  1  0  0  0
 13  9  4  0  0  0
 11 12  4  0  0  0
 14 11  4  0  0  0
 12 23  4  0  0  0
 22 13  4  0  0  0
 14 15  1  0  0  0
 15 22  4  0  0  0
 16 17  1  0  0  0
 16 23  4  0  0  0
 17 18  4  0  0  0
 18 19  4  0  0  0
 18 21  1  0  0  0
 19 20  4  0  0  0
  1 24  1  0  0  0
  3 25  1  0  0  0
  4 26  1  0  0  0
  5 27  1  0  0  0
  6 28  1  0  0  0
  7 29  1  0  0  0
  7 30  1  0  0  0
  8 31  1  0  0  0
  8 32  1  0  0  0
 11 33  1  0  0  0
 12 34  1  0  0  0
 19 35  1  0  0  0
 20 36  1  0  0  0
M  END
$$$$
