3mfv_ligand
  -I-interpret- 

 25 25  0  0  0  0  0  0  0  0999 V2000
  -19.5010   16.4710   -5.2810 C   0  0  0  0  0
  -20.9540   16.8970   -5.5920 C   0  0  0  0  0
  -20.2620   12.6300   -5.6040 C   0  0  0  0  0
  -20.2510   10.4610   -5.6450 C   0  0  0  0  0
  -19.2420   12.2430   -6.5980 C   0  0  0  0  0
  -19.2760   14.9430   -5.1580 C   0  0  0  0  0
  -20.5410   14.1040   -5.3310 C   0  0  0  0  0
  -19.1230   17.0290   -4.0280 N   0  3  0  0  0
  -20.8500   11.5140   -5.0490 N   0  0  0  0  0
  -19.2840   10.8510   -6.5770 N   0  0  0  0  0
  -20.5650    9.1430   -5.3650 N   0  0  0  0  0
  -21.5310   16.5360   -6.6910 O   0  0  0  0  0
  -21.6040   17.6250   -4.7600 O   0  0  0  0  0
  -18.9116   16.8258   -6.1265 H   0  0  0  0  0
  -18.6080   12.8910   -7.2032 H   0  0  0  0  0
  -18.9017   14.7544   -4.1518 H   0  0  0  0  0
  -18.5895   14.6553   -5.9542 H   0  0  0  0  0
  -21.1031   14.1635   -4.3990 H   0  0  0  0  0
  -21.0809   14.4996   -6.1913 H   0  0  0  0  0
  -19.2525   18.0404   -4.0546 H   0  0  0  0  0
  -19.7037   16.6300   -3.2904 H   0  0  0  0  0
  -18.1428   16.8153   -3.8438 H   0  0  0  0  0
  -21.2842    8.9255   -4.6751 H   0  0  0  0  0
  -20.0773    8.3888   -5.8484 H   0  0  0  0  0
  -20.9255   15.9994   -7.2077 H   0  0  0  0  0
  1  2  1  0  0  0
  6  1  1  0  0  0
  1  8  1  0  0  0
  2 12  1  0  0  0
  2 13  2  0  0  0
  3  5  4  0  0  0
  7  3  1  0  0  0
  3  9  4  0  0  0
  9  4  4  0  0  0
  4 10  4  0  0  0
  4 11  1  0  0  0
  5 10  4  0  0  0
  6  7  1  0  0  0
  1 14  1  0  0  0
  5 15  1  0  0  0
  6 16  1  0  0  0
  6 17  1  0  0  0
  7 18  1  0  0  0
  7 19  1  0  0  0
  8 20  1  0  0  0
  8 21  1  0  0  0
  8 22  1  0  0  0
 11 23  1  0  0  0
 11 24  1  0  0  0
 12 25  1  0  0  0
M  END
$$$$
