2jup_ligand
  -I-interpret- 

133138  0  0  0  0  0  0  0  0999 V2000
   -1.2300   18.4890   -8.4750 N   0  3  0  0  0
   -0.1990   18.1660   -7.4590 C   0  0  0  0  0
   -0.1870   16.6930   -7.1160 C   0  0  0  0  0
   -1.0950   15.9600   -7.5080 O   0  0  0  0  0
    0.8370   16.2230   -6.3870 N   0  0  0  0  0
    0.9310   14.8280   -5.9720 C   0  0  0  0  0
    0.0160   14.5380   -4.7840 C   0  0  0  0  0
   -0.2240   15.4140   -3.9520 O   0  0  0  0  0
    2.4030   14.6630   -5.5550 C   0  0  0  0  0
    3.0660   15.9820   -5.8210 C   0  0  0  0  0
    1.9730   17.0070   -5.8970 C   0  0  0  0  0
   -0.5110   13.3120   -4.6890 N   0  0  0  0  0
   -1.3740   12.9220   -3.5750 C   0  0  0  0  0
   -0.5800   12.6110   -2.3060 C   0  0  0  0  0
    0.5520   12.1270   -2.3730 O   0  0  0  0  0
   -2.0490   11.6530   -4.0950 C   0  0  0  0  0
   -1.0790   11.0690   -5.0670 C   0  0  0  0  0
   -0.3220   12.2230   -5.6640 C   0  0  0  0  0
   -1.1640   12.9020   -1.1530 N   0  0  0  0  0
   -0.5600   12.5200    0.1140 C   0  0  0  0  0
   -0.8550   11.0530    0.3730 C   0  0  0  0  0
   -1.9140   10.5590   -0.0230 O   0  0  0  0  0
   -1.0990   13.3730    1.2730 C   0  0  0  0  0
   -0.7930   14.8810    1.2170 C   0  0  0  0  0
    0.6860   15.1300    0.9670 C   0  0  0  0  0
   -1.6410   15.5880    0.1670 C   0  0  0  0  0
    0.0560   10.3530    1.0250 N   0  0  0  0  0
   -0.1940    8.9620    1.3600 C   0  0  0  0  0
   -1.0800    8.9020    2.5970 C   0  0  0  0  0
   -1.0030    9.7740    3.4670 O   0  0  0  0  0
    1.1190    8.1190    1.5810 C   0  0  0  0  0
    2.2010    8.5180    0.5610 C   0  0  0  0  0
    0.8280    6.6370    1.4510 C   0  0  0  0  0
    2.9470    9.7870    0.8920 C   0  0  0  0  0
   -1.9400    7.8880    2.6810 N   0  0  0  0  0
   -2.6170    7.5350    3.9250 C   0  0  0  0  0
   -1.6060    6.8450    4.8100 C   0  0  0  0  0
   -0.6660    6.2770    4.2900 O   0  0  0  0  0
   -3.6840    6.5220    3.4730 C   0  0  0  0  0
   -3.1340    5.9420    2.2210 C   0  0  0  0  0
   -2.3760    7.0480    1.5540 C   0  0  0  0  0
   -1.6890    6.9180    6.1320 N   0  0  0  0  0
   -0.7840    6.1190    6.9300 C   0  0  0  0  0
   -1.2740    4.6810    6.9290 C   0  0  0  0  0
   -2.4840    4.4410    6.9520 O   0  0  0  0  0
   -0.8980    6.7350    8.3360 C   0  0  0  0  0
   -1.7930    7.9350    8.1970 C   0  0  0  0  0
   -2.5870    7.7420    6.9340 C   0  0  0  0  0
   -0.3690    3.6970    6.9040 N   0  0  0  0  0
   -0.7710    2.3030    6.9230 C   0  0  0  0  0
   -1.1140    1.8090    8.3260 C   0  0  0  0  0
   -0.5450    2.2690    9.3230 O   0  0  0  0  0
    0.4310    1.5510    6.3400 C   0  0  0  0  0
    1.4910    2.5740    6.0990 C   0  0  0  0  0
    1.0920    3.8320    6.8030 C   0  0  0  0  0
   -2.0580    0.8670    8.3960 N   0  0  0  0  0
   -2.4340    0.1880    9.6360 C   0  0  0  0  0
   -1.4110   -0.8740   10.0360 C   0  0  0  0  0
   -0.4560   -0.5340   10.7590 O   0  0  0  0  0
   -3.7740   -0.4670    9.2820 C   0  0  0  0  0
   -3.7210   -0.6700    7.8020 C   0  0  0  0  0
   -2.8750    0.4340    7.2550 C   0  0  0  0  0
   -1.5580   -2.0410    9.6150 O   0  0  0  0  0
   -1.2049   19.4884   -8.6773 H   0  0  0  0  0
   -1.0411   17.9633   -9.3284 H   0  0  0  0  0
   -2.1506   18.2367   -8.1156 H   0  0  0  0  0
   -0.4258   18.7263   -6.5519 H   0  0  0  0  0
    0.7769   18.4299   -7.8666 H   0  0  0  0  0
    0.6271   14.1442   -6.7646 H   0  0  0  0  0
    2.8827   13.8624   -6.1180 H   0  0  0  0  0
    2.4842   14.3883   -4.5033 H   0  0  0  0  0
    3.6340   15.9505   -6.7508 H   0  0  0  0  0
    3.7739   16.2273   -5.0293 H   0  0  0  0  0
    1.7761   17.4931   -4.9415 H   0  0  0  0  0
    2.2213   17.8490   -6.5431 H   0  0  0  0  0
   -2.0656   13.7160   -3.2933 H   0  0  0  0  0
   -3.0090   11.8695   -4.5635 H   0  0  0  0  0
   -2.2788   10.9581   -3.2873 H   0  0  0  0  0
   -1.5966   10.5011   -5.8401 H   0  0  0  0  0
   -0.4016   10.3738   -4.5711 H   0  0  0  0  0
    0.7304   11.9892   -5.8251 H   0  0  0  0  0
   -0.6859   12.4880   -6.6567 H   0  0  0  0  0
   -2.0527   13.4026   -1.1537 H   0  0  0  0  0
    0.5156   12.6861    0.0538 H   0  0  0  0  0
   -0.6123   12.9997    2.1740 H   0  0  0  0  0
   -2.1846   13.2838    1.2337 H   0  0  0  0  0
   -1.0518   15.2995    2.1896 H   0  0  0  0  0
    1.2694   14.6848    1.7729 H   0  0  0  0  0
    0.9735   14.6796    0.0169 H   0  0  0  0  0
    0.8717   16.2035    0.9326 H   0  0  0  0  0
   -1.4356   15.1584   -0.8135 H   0  0  0  0  0
   -2.6964   15.4596    0.4075 H   0  0  0  0  0
   -1.3956   16.6500    0.1585 H   0  0  0  0  0
    0.9373   10.7905    1.2939 H   0  0  0  0  0
   -0.6954    8.5081    0.5052 H   0  0  0  0  0
    1.4839    8.3268    2.5869 H   0  0  0  0  0
    1.6930    8.6885   -0.3882 H   0  0  0  0  0
    2.9361    7.7133    0.5489 H   0  0  0  0  0
    0.0901    6.3460    2.1986 H   0  0  0  0  0
    0.4381    6.4307    0.4543 H   0  0  0  0  0
    1.7473    6.0725    1.6070 H   0  0  0  0  0
    2.2431   10.6175    0.9447 H   0  0  0  0  0
    3.4481    9.6722    1.8532 H   0  0  0  0  0
    3.6869    9.9848    0.1164 H   0  0  0  0  0
   -3.0426    8.3797    4.4668 H   0  0  0  0  0
   -4.6547    6.9920    3.3152 H   0  0  0  0  0
   -3.8725    5.7602    4.2294 H   0  0  0  0  0
   -3.9287    5.5635    1.5781 H   0  0  0  0  0
   -2.4874    5.0899    2.4306 H   0  0  0  0  0
   -1.5414    6.6829    0.9555 H   0  0  0  0  0
   -2.9819    7.5959    0.8323 H   0  0  0  0  0
    0.2436    6.1132    6.5667 H   0  0  0  0  0
    0.0815    7.0179    8.7216 H   0  0  0  0  0
   -1.3093    6.0183    9.0468 H   0  0  0  0  0
   -1.2062    8.8523    8.1492 H   0  0  0  0  0
   -2.4534    8.0275    9.0592 H   0  0  0  0  0
   -3.5600    7.2805    7.1028 H   0  0  0  0  0
   -2.8603    8.6792    6.4492 H   0  0  0  0  0
   -1.6838    2.1430    6.3492 H   0  0  0  0  0
    0.1622    1.0407    5.4151 H   0  0  0  0  0
    0.7804    0.7797    7.0263 H   0  0  0  0  0
    1.5978    2.7595    5.0302 H   0  0  0  0  0
    2.4490    2.2188    6.4788 H   0  0  0  0  0
    1.5761    3.9483    7.7726 H   0  0  0  0  0
    1.3999    4.7325    6.2715 H   0  0  0  0  0
   -2.4884    0.8711   10.4836 H   0  0  0  0  0
   -4.6196    0.1546    9.5762 H   0  0  0  0  0
   -3.9198   -1.4064    9.8153 H   0  0  0  0  0
   -4.7207   -0.6486    7.3681 H   0  0  0  0  0
   -3.2997   -1.6446    7.5556 H   0  0  0  0  0
   -2.2636    0.1039    6.4152 H   0  0  0  0  0
   -3.4758    1.2479    6.8491 H   0  0  0  0  0
   -2.3528   -2.0888    9.0787 H   0  0  0  0  0
  1  2  1  0  0  0
  2  3  1  0  0  0
  3  4  2  0  0  0
  3  5  1  0  0  0
  5  6  1  0  0  0
  5 11  1  0  0  0
  6  7  1  0  0  0
  6  9  1  0  0  0
  7  8  2  0  0  0
  7 12  1  0  0  0
  9 10  1  0  0  0
 10 11  1  0  0  0
 12 13  1  0  0  0
 12 18  1  0  0  0
 13 14  1  0  0  0
 13 16  1  0  0  0
 14 15  2  0  0  0
 14 19  1  0  0  0
 16 17  1  0  0  0
 17 18  1  0  0  0
 19 20  1  0  0  0
 20 21  1  0  0  0
 20 23  1  0  0  0
 21 22  2  0  0  0
 21 27  1  0  0  0
 23 24  1  0  0  0
 24 25  1  0  0  0
 24 26  1  0  0  0
 27 28  1  0  0  0
 28 29  1  0  0  0
 28 31  1  0  0  0
 29 30  2  0  0  0
 29 35  1  0  0  0
 31 32  1  0  0  0
 31 33  1  0  0  0
 32 34  1  0  0  0
 35 36  1  0  0  0
 35 41  1  0  0  0
 36 37  1  0  0  0
 36 39  1  0  0  0
 37 38  2  0  0  0
 37 42  1  0  0  0
 39 40  1  0  0  0
 40 41  1  0  0  0
 42 43  1  0  0  0
 42 48  1  0  0  0
 43 44  1  0  0  0
 43 46  1  0  0  0
 44 45  2  0  0  0
 44 49  1  0  0  0
 46 47  1  0  0  0
 47 48  1  0  0  0
 49 50  1  0  0  0
 49 55  1  0  0  0
 50 51  1  0  0  0
 50 53  1  0  0  0
 51 52  2  0  0  0
 51 56  1  0  0  0
 53 54  1  0  0  0
 54 55  1  0  0  0
 56 57  1  0  0  0
 56 62  1  0  0  0
 57 58  1  0  0  0
 57 60  1  0  0  0
 58 59  2  0  0  0
 58 63  1  0  0  0
 60 61  1  0  0  0
 61 62  1  0  0  0
  1 64  1  0  0  0
  1 65  1  0  0  0
  1 66  1  0  0  0
  2 67  1  0  0  0
  2 68  1  0  0  0
  6 69  1  0  0  0
  9 70  1  0  0  0
  9 71  1  0  0  0
 10 72  1  0  0  0
 10 73  1  0  0  0
 11 74  1  0  0  0
 11 75  1  0  0  0
 13 76  1  0  0  0
 16 77  1  0  0  0
 16 78  1  0  0  0
 17 79  1  0  0  0
 17 80  1  0  0  0
 18 81  1  0  0  0
 18 82  1  0  0  0
 19 83  1  0  0  0
 20 84  1  0  0  0
 23 85  1  0  0  0
 23 86  1  0  0  0
 24 87  1  0  0  0
 25 88  1  0  0  0
 25 89  1  0  0  0
 25 90  1  0  0  0
 26 91  1  0  0  0
 26 92  1  0  0  0
 26 93  1  0  0  0
 27 94  1  0  0  0
 28 95  1  0  0  0
 31 96  1  0  0  0
 32 97  1  0  0  0
 32 98  1  0  0  0
 33 99  1  0  0  0
 33100  1  0  0  0
 33101  1  0  0  0
 34102  1  0  0  0
 34103  1  0  0  0
 34104  1  0  0  0
 36105  1  0  0  0
 39106  1  0  0  0
 39107  1  0  0  0
 40108  1  0  0  0
 40109  1  0  0  0
 41110  1  0  0  0
 41111  1  0  0  0
 43112  1  0  0  0
 46113  1  0  0  0
 46114  1  0  0  0
 47115  1  0  0  0
 47116  1  0  0  0
 48117  1  0  0  0
 48118  1  0  0  0
 50119  1  0  0  0
 53120  1  0  0  0
 53121  1  0  0  0
 54122  1  0  0  0
 54123  1  0  0  0
 55124  1  0  0  0
 55125  1  0  0  0
 57126  1  0  0  0
 60127  1  0  0  0
 60128  1  0  0  0
 61129  1  0  0  0
 61130  1  0  0  0
 62131  1  0  0  0
 62132  1  0  0  0
 63133  1  0  0  0
M  END
$$$$
