2a4r_ligand
  -I-interpret- 

103106  0  0  0  0  0  0  0  0999 V2000
  191.1800  -10.6150   48.8780 C   0  0  0  0  0
  191.7780  -11.4990   49.5040 O   0  0  0  0  0
  189.9130  -10.5240   48.9240 O   0  0  0  0  0
  189.0440  -11.3980   49.6700 C   0  0  0  0  0
  187.9290  -10.8220   50.5490 C   0  0  0  0  0
  188.2740  -10.9430   52.0270 C   0  0  0  0  0
  187.6520   -9.3870   50.1940 C   0  0  0  0  0
  191.8070   -9.7090   48.1290 N   0  0  0  0  0
  193.2600   -9.5430   48.1500 C   0  0  0  0  0
  193.7410   -8.7540   46.9380 C   0  0  0  0  0
  195.2600   -8.5800   46.9690 C   0  0  0  0  0
  193.3560   -9.4530   45.6390 C   0  0  0  0  0
  195.7980   -7.8450   45.7550 C   0  0  0  0  0
  193.8530   -8.7160   44.4110 C   0  0  0  0  0
  195.3700   -8.5420   44.4680 C   0  0  0  0  0
  193.7160   -8.7810   49.3820 C   0  0  0  0  0
  193.2930   -7.6440   49.5990 O   0  0  0  0  0
  194.5990   -9.3990   50.1580 N   0  0  0  0  0
  195.1270   -8.7780   51.3690 C   0  0  0  0  0
  196.1830   -7.7450   51.0020 C   0  0  0  0  0
  197.1620   -8.0600   50.3170 O   0  0  0  0  0
  195.7430   -9.8290   52.2870 C   0  0  0  0  0
  194.6820  -10.8400   52.6830 C   0  0  0  0  0
  193.5660  -10.3740   53.6150 C   0  0  0  0  0
  194.6770  -11.3080   54.1340 C   0  0  0  0  0
  195.9770   -6.5110   51.4540 N   0  0  0  0  0
  196.9070   -5.4190   51.1700 C   0  0  0  0  0
  196.1980   -4.3240   50.3540 C   0  0  0  0  0
  195.9260   -4.7740   48.8890 C   0  0  0  0  0
  195.1560   -3.8690   47.9210 C   0  0  0  0  0
  194.4930   -5.1470   48.4640 C   0  0  0  0  0
  198.0060   -5.8700   53.2870 O   0  0  0  0  0
  197.5670   -4.8280   52.4310 C   0  0  0  0  0
  198.6990   -2.9110   51.5300 O   0  0  0  0  0
  199.9360   -4.7280   51.9770 N   0  0  0  0  0
  201.2120   -4.1190   51.6670 C   0  0  0  0  0
  201.5520   -4.0790   50.1970 C   0  0  0  0  0
  200.7180   -4.3280   49.3220 O   0  0  0  0  0
  198.7860   -4.0700   51.9370 C   0  0  0  0  0
  202.8030   -3.7200   49.9390 N   0  0  0  0  0
  203.3580   -3.6350   48.5990 C   0  0  0  0  0
  203.0040   -2.4400   47.7450 C   0  0  0  0  0
  203.0240   -1.1470   48.2860 C   0  0  0  0  0
  202.7010   -2.6440   46.4010 C   0  0  0  0  0
  202.7470   -0.0660   47.5050 C   0  0  0  0  0
  202.4220   -1.5460   45.6150 C   0  0  0  0  0
  202.4470   -0.2640   46.1600 C   0  0  0  0  0
  204.8800   -3.6940   48.7580 C   0  0  0  0  0
  205.4190   -3.3480   49.8220 O   0  0  0  0  0
  205.5960   -4.0890   47.8330 O   0  0  0  0  0
  189.7082  -11.8997   50.3738 H   0  0  0  0  0
  188.5156  -11.9673   48.9053 H   0  0  0  0  0
  187.0279  -11.4056   50.3606 H   0  0  0  0  0
  189.1596  -10.3450   52.2422 H   0  0  0  0  0
  187.4368  -10.5829   52.6249 H   0  0  0  0  0
  188.4718  -11.9874   52.2683 H   0  0  0  0  0
  186.8131   -9.0228   50.7870 H   0  0  0  0  0
  188.5359   -8.7849   50.4044 H   0  0  0  0  0
  187.4069   -9.3170   49.1342 H   0  0  0  0  0
  191.2530   -9.1087   47.5181 H   0  0  0  0  0
  193.6793  -10.5491   48.1482 H   0  0  0  0  0
  193.2594   -7.7771   46.9794 H   0  0  0  0  0
  195.7077   -9.5737   46.9807 H   0  0  0  0  0
  195.5086   -7.9901   47.8512 H   0  0  0  0  0
  192.2679   -9.4924   45.5890 H   0  0  0  0  0
  193.8115  -10.4432   45.6432 H   0  0  0  0  0
  196.8868   -7.8342   45.8041 H   0  0  0  0  0
  195.4015   -6.8297   45.7540 H   0  0  0  0  0
  193.3850   -7.7322   44.3751 H   0  0  0  0  0
  193.5962   -9.2940   43.5233 H   0  0  0  0  0
  195.8344   -9.5276   44.4355 H   0  0  0  0  0
  195.6818   -7.9305   43.6213 H   0  0  0  0  0
  194.9170  -10.3334   49.9007 H   0  0  0  0  0
  194.3046   -8.2910   51.8930 H   0  0  0  0  0
  196.1353   -9.3450   53.1814 H   0  0  0  0  0
  196.5527  -10.3381   51.7643 H   0  0  0  0  0
  194.7083  -11.3354   51.7124 H   0  0  0  0  0
  192.4780  -10.3083   53.6242 H   0  0  0  0  0
  193.0717   -9.4466   53.9042 H   0  0  0  0  0
  195.3655  -11.3737   54.9765 H   0  0  0  0  0
  194.7706  -12.2373   54.6959 H   0  0  0  0  0
  195.1464   -6.3211   52.0148 H   0  0  0  0  0
  197.7213   -5.8433   50.5827 H   0  0  0  0  0
  196.8439   -3.4464   50.3270 H   0  0  0  0  0
  195.2403   -4.1108   50.8288 H   0  0  0  0  0
  196.8980   -5.2666   48.8629 H   0  0  0  0  0
  195.3162   -3.3777   46.9613 H   0  0  0  0  0
  194.9178   -2.8114   47.8076 H   0  0  0  0  0
  193.5535   -5.4507   48.9259 H   0  0  0  0  0
  193.9489   -6.0126   48.0861 H   0  0  0  0  0
  198.4149   -5.4901   54.0681 H   0  0  0  0  0
  196.8693   -4.1970   52.9816 H   0  0  0  0  0
  199.9210   -5.7135   52.2396 H   0  0  0  0  0
  201.9780   -4.7230   52.1532 H   0  0  0  0  0
  201.1613   -3.0853   52.0089 H   0  0  0  0  0
  203.4096   -3.4906   50.7263 H   0  0  0  0  0
  202.9080   -4.4620   48.0497 H   0  0  0  0  0
  203.2631   -1.0055   49.3400 H   0  0  0  0  0
  202.6848   -3.6492   45.9799 H   0  0  0  0  0
  202.7600    0.9390   47.9267 H   0  0  0  0  0
  202.1804   -1.6818   44.5608 H   0  0  0  0  0
  202.2289    0.5949   45.5253 H   0  0  0  0  0
  204.7444   -3.0669   50.4445 H   0  0  0  0  0
  1  2  2  0  0  0
  1  3  1  0  0  0
  8  1  1  0  0  0
  3  4  1  0  0  0
  4  5  1  0  0  0
  5  6  1  0  0  0
  5  7  1  0  0  0
  9  8  1  0  0  0
  9 10  1  0  0  0
 16  9  1  0  0  0
 10 11  1  0  0  0
 10 12  1  0  0  0
 11 13  1  0  0  0
 12 14  1  0  0  0
 13 15  1  0  0  0
 14 15  1  0  0  0
 16 17  2  0  0  0
 18 16  1  0  0  0
 19 18  1  0  0  0
 20 19  1  0  0  0
 19 22  1  0  0  0
 20 21  2  0  0  0
 26 20  1  0  0  0
 22 23  1  0  0  0
 23 24  1  0  0  0
 23 25  1  0  0  0
 25 24  1  0  0  0
 27 26  1  0  0  0
 27 28  1  0  0  0
 33 27  1  0  0  0
 28 29  1  0  0  0
 29 30  1  0  0  0
 29 31  1  0  0  0
 31 30  1  0  0  0
 33 32  1  0  0  0
 39 33  1  0  0  0
 35 36  1  0  0  0
 35 39  1  0  0  0
 36 37  1  0  0  0
 37 38  2  0  0  0
 37 40  1  0  0  0
 40 41  1  0  0  0
 41 42  1  0  0  0
 41 48  1  0  0  0
 42 43  4  0  0  0
 42 44  4  0  0  0
 43 45  4  0  0  0
 44 46  4  0  0  0
 45 47  4  0  0  0
 46 47  4  0  0  0
 48 49  1  0  0  0
 48 50  2  0  0  0
 39 34  2  0  0  0
  4 51  1  0  0  0
  4 52  1  0  0  0
  5 53  1  0  0  0
  6 54  1  0  0  0
  6 55  1  0  0  0
  6 56  1  0  0  0
  7 57  1  0  0  0
  7 58  1  0  0  0
  7 59  1  0  0  0
  8 60  1  0  0  0
  9 61  1  0  0  0
 10 62  1  0  0  0
 11 63  1  0  0  0
 11 64  1  0  0  0
 12 65  1  0  0  0
 12 66  1  0  0  0
 13 67  1  0  0  0
 13 68  1  0  0  0
 14 69  1  0  0  0
 14 70  1  0  0  0
 15 71  1  0  0  0
 15 72  1  0  0  0
 18 73  1  0  0  0
 19 74  1  0  0  0
 22 75  1  0  0  0
 22 76  1  0  0  0
 23 77  1  0  0  0
 24 78  1  0  0  0
 24 79  1  0  0  0
 25 80  1  0  0  0
 25 81  1  0  0  0
 26 82  1  0  0  0
 27 83  1  0  0  0
 28 84  1  0  0  0
 28 85  1  0  0  0
 29 86  1  0  0  0
 30 87  1  0  0  0
 30 88  1  0  0  0
 31 89  1  0  0  0
 31 90  1  0  0  0
 32 91  1  0  0  0
 33 92  1  0  0  0
 35 93  1  0  0  0
 36 94  1  0  0  0
 36 95  1  0  0  0
 40 96  1  0  0  0
 41 97  1  0  0  0
 43 98  1  0  0  0
 44 99  1  0  0  0
 45100  1  0  0  0
 46101  1  0  0  0
 47102  1  0  0  0
 49103  1  0  0  0
M  END
$$$$
