### 
### Created by X-TOOL on Mon Sep 10 21:13:27 2018
### 

@<TRIPOS>MOLECULE
5jmw_ligand
   44    44     1     0     0
SMALL
GAST_HUCK


@<TRIPOS>ATOM
      1 O8         -1.0910   16.5460   20.1360 O.co2     1 L50        -0.5622
      2 P5         -0.9940   16.0220   21.5190 P.3       1 L50         0.0583
      3 O7         -0.0720   16.8780   22.3240 O.co2     1 L50        -0.5622
      4 O6         -2.3560   16.0220   22.1490 O.co2     1 L50        -0.5622
      5 C1         -0.3670   14.3060   21.4840 C.3       1 L50         0.0245
      6 C2          0.7060   14.1800   20.3960 C.3       1 L50        -0.0091
      7 C3          1.9430   13.4200   20.9290 C.3       1 L50         0.0432
      8 C4          3.1770   14.0350   20.3190 C.2       1 L50         0.2014
      9 N9          3.7590   13.5000   19.2070 N.am      1 L50        -0.1538
     10 C11         3.2820   12.2450   18.6000 C.3       1 L50         0.0516
     11 O10         4.8450   14.1480   18.6300 O.3       1 L50        -0.2694
     12 O12         3.5800   15.0830   20.7920 O.2       1 L50        -0.3968
     13 C13         0.1250   13.5060   19.1020 C.3       1 L50        -0.0452
     14 C14        -0.2500   12.0060   19.3140 C.3       1 L50        -0.0437
     15 C15        -0.7860   11.3970   17.9890 C.3       1 L50        -0.0223
     16 C16         0.3480   11.1890   16.9990 C.ar      1 L50        -0.0497
     17 C18         0.5500   12.1020   15.9630 C.ar      1 L50        -0.0668
     18 C20         1.5970   11.9330   15.0640 C.ar      1 L50        -0.0671
     19 C21         2.4430   10.8380   15.1970 C.ar      1 L50        -0.0528
     20 C19         2.2420    9.9170   16.2270 C.ar      1 L50        -0.0671
     21 C17         1.1930   10.0880   17.1240 C.ar      1 L50        -0.0668
     22 C22         3.5860   10.6470   14.2280 C.3       1 L50        -0.0343
     23 H1         -1.1955   13.6166   21.2644 H         1 L50         0.0455
     24 H2          0.0700   14.0545   22.4617 H         1 L50         0.0455
     25 H3          1.0297   15.1957   20.1249 H         1 L50         0.0339
     26 H4          1.8778   12.3590   20.6461 H         1 L50         0.0505
     27 H5          1.9880   13.5053   22.0248 H         1 L50         0.0505
     28 H6          3.8964   12.0071   17.7191 H         1 L50         0.0514
     29 H7          2.2319   12.3616   18.2939 H         1 L50         0.0514
     30 H8          3.3616   11.4293   19.3337 H         1 L50         0.0514
     31 H9          5.5997   13.5710   18.6421 H         1 L50         0.2492
     32 H10         0.8796   13.5696   18.3042 H         1 L50         0.0271
     33 H11        -0.7787   14.0538   18.7966 H         1 L50         0.0271
     34 H12        -1.0269   11.9313   20.0891 H         1 L50         0.0286
     35 H13         0.6430   11.4496   19.6350 H         1 L50         0.0286
     36 H14        -1.5276   12.0810   17.5507 H         1 L50         0.0413
     37 H15        -1.2616   10.4284   18.2026 H         1 L50         0.0413
     38 H16        -0.1158   12.9510   15.8582 H         1 L50         0.0540
     39 H17         1.7524   12.6495   14.2656 H         1 L50         0.0540
     40 H18         2.9057    9.0659   16.3278 H         1 L50         0.0540
     41 H19         1.0332    9.3672   17.9177 H         1 L50         0.0540
     42 H20         3.5841   11.4653   13.4929 H         1 L50         0.0378
     43 H21         3.4680    9.6856   13.7066 H         1 L50         0.0378
     44 H22         4.5382   10.6510   14.7787 H         1 L50         0.0378
@<TRIPOS>BOND
     1    1    2 ar 
     2    2    3 ar 
     3    2    4 ar 
     4    2    5 1  
     5    5    6 1  
     6    6    7 1  
     7    6   13 1  
     8    7    8 1  
     9    8    9 am 
    10    8   12 2  
    11    9   10 1  
    12    9   11 1  
    13   13   14 1  
    14   14   15 1  
    15   15   16 1  
    16   16   17 ar 
    17   16   21 ar 
    18   17   18 ar 
    19   18   19 ar 
    20   19   20 ar 
    21   19   22 1  
    22   20   21 ar 
    23    5   23 1  
    24    5   24 1  
    25    6   25 1  
    26    7   26 1  
    27    7   27 1  
    28   10   28 1  
    29   10   29 1  
    30   10   30 1  
    31   11   31 1  
    32   13   32 1  
    33   13   33 1  
    34   14   34 1  
    35   14   35 1  
    36   15   36 1  
    37   15   37 1  
    38   17   38 1  
    39   18   39 1  
    40   20   40 1  
    41   21   41 1  
    42   22   42 1  
    43   22   43 1  
    44   22   44 1  
@<TRIPOS>SUBSTRUCTURE
     1 L50         1

