5jmw_ligand
  -I-interpret- 

 46 46  0  0  0  0  0  0  0  0999 V2000
   -1.0910   16.5460   20.1360 O   0  0  0  0  0
   -0.9940   16.0220   21.5190 P   0  0  0  0  0
   -0.0720   16.8780   22.3240 O   0  0  0  0  0
   -2.3560   16.0220   22.1490 O   0  0  0  0  0
   -0.3670   14.3060   21.4840 C   0  0  0  0  0
    0.7060   14.1800   20.3960 C   0  0  0  0  0
    1.9430   13.4200   20.9290 C   0  0  0  0  0
    3.1770   14.0350   20.3190 C   0  0  0  0  0
    3.7590   13.5000   19.2070 N   0  0  0  0  0
    3.2820   12.2450   18.6000 C   0  0  0  0  0
    4.8450   14.1480   18.6300 O   0  0  0  0  0
    3.5800   15.0830   20.7920 O   0  0  0  0  0
    0.1250   13.5060   19.1020 C   0  0  0  0  0
   -0.2500   12.0060   19.3140 C   0  0  0  0  0
   -0.7860   11.3970   17.9890 C   0  0  0  0  0
    0.3480   11.1890   16.9990 C   0  0  0  0  0
    0.5500   12.1020   15.9630 C   0  0  0  0  0
    1.5970   11.9330   15.0640 C   0  0  0  0  0
    2.4430   10.8380   15.1970 C   0  0  0  0  0
    2.2420    9.9170   16.2270 C   0  0  0  0  0
    1.1930   10.0880   17.1240 C   0  0  0  0  0
    3.5860   10.6470   14.2280 C   0  0  0  0  0
   -0.0147   16.5322   23.2177 H   0  0  0  0  0
   -2.2930   15.6826   23.0448 H   0  0  0  0  0
   -1.1878   13.6222   21.2676 H   0  0  0  0  0
    0.0650   14.0558   22.4529 H   0  0  0  0  0
    1.0292   15.1838   20.1203 H   0  0  0  0  0
    1.8786   12.3659   20.6591 H   0  0  0  0  0
    1.9871   13.4938   22.0156 H   0  0  0  0  0
    2.9781   12.4335   17.5703 H   0  0  0  0  0
    4.0849   11.5079   18.6141 H   0  0  0  0  0
    2.4314   11.8685   19.1681 H   0  0  0  0  0
    5.1405   13.6532   17.8623 H   0  0  0  0  0
    0.8930   13.5510   18.3299 H   0  0  0  0  0
   -0.7844   14.0408   18.8279 H   0  0  0  0  0
   -1.0235   11.9354   20.0787 H   0  0  0  0  0
    0.6376   11.4562   19.6269 H   0  0  0  0  0
   -1.5134   12.0824   17.5540 H   0  0  0  0  0
   -1.2480   10.4336   18.2045 H   0  0  0  0  0
   -0.1195   12.9557   15.8577 H   0  0  0  0  0
    1.7533   12.6535   14.2611 H   0  0  0  0  0
    2.9094    9.0612   16.3284 H   0  0  0  0  0
    1.0324    9.3632   17.9221 H   0  0  0  0  0
    3.1913   10.5556   13.2161 H   0  0  0  0  0
    4.2543   11.5064   14.2825 H   0  0  0  0  0
    4.1342    9.7417   14.4887 H   0  0  0  0  0
  1  2  2  0  0  0
  2  3  1  0  0  0
  2  4  1  0  0  0
  2  5  1  0  0  0
  5  6  1  0  0  0
  6  7  1  0  0  0
  6 13  1  0  0  0
  7  8  1  0  0  0
  8  9  1  0  0  0
  8 12  2  0  0  0
  9 10  1  0  0  0
  9 11  1  0  0  0
 13 14  1  0  0  0
 14 15  1  0  0  0
 15 16  1  0  0  0
 16 17  4  0  0  0
 16 21  4  0  0  0
 17 18  4  0  0  0
 18 19  4  0  0  0
 19 20  4  0  0  0
 19 22  1  0  0  0
 20 21  4  0  0  0
  3 23  1  0  0  0
  4 24  1  0  0  0
  5 25  1  0  0  0
  5 26  1  0  0  0
  6 27  1  0  0  0
  7 28  1  0  0  0
  7 29  1  0  0  0
 10 30  1  0  0  0
 10 31  1  0  0  0
 10 32  1  0  0  0
 11 33  1  0  0  0
 13 34  1  0  0  0
 13 35  1  0  0  0
 14 36  1  0  0  0
 14 37  1  0  0  0
 15 38  1  0  0  0
 15 39  1  0  0  0
 17 40  1  0  0  0
 18 41  1  0  0  0
 20 42  1  0  0  0
 21 43  1  0  0  0
 22 44  1  0  0  0
 22 45  1  0  0  0
 22 46  1  0  0  0
M  END
$$$$
