3fl9_ligand
  -I-interpret- 

 39 40  0  0  0  0  0  0  0  0999 V2000
   18.3770   10.8000   38.0650 C   0  0  0  0  0
   18.4500   12.1040   38.2420 N   0  0  0  0  0
   19.4430   12.8200   37.7080 C   0  0  0  0  0
   19.4790   14.1330   37.9090 N   0  0  0  0  0
   20.3930   12.2210   36.9760 N   0  0  0  0  0
   20.3600   10.8950   36.7710 C   0  0  0  0  0
   21.3140   10.3240   36.0440 N   0  0  0  0  0
   19.3350   10.1290   37.3190 C   0  0  0  0  0
   19.1980    8.6080   37.1410 C   0  0  0  0  0
   18.4230    7.9630   38.3040 C   0  0  0  0  0
   19.0580    7.0380   39.1230 C   0  0  0  0  0
   18.3810    6.4350   40.1790 C   0  0  0  0  0
   19.0680    5.5380   40.9510 O   0  0  0  0  0
   20.0700    4.8610   40.1790 C   0  0  0  0  0
   17.0380    6.7620   40.4280 C   0  0  0  0  0
   16.3530    6.1950   41.4670 O   0  0  0  0  0
   16.7500    4.8790   41.8420 C   0  0  0  0  0
   16.3950    7.7010   39.6050 C   0  0  0  0  0
   15.0860    8.0850   39.7530 O   0  0  0  0  0
   14.1600    7.0680   40.1590 C   0  0  0  0  0
   17.0920    8.2790   38.5490 C   0  0  0  0  0
   17.5535   10.2417   38.5104 H   0  0  0  0  0
   18.7532   14.5837   38.4661 H   0  0  0  0  0
   20.2325   14.6901   37.5062 H   0  0  0  0  0
   22.0623   10.8925   35.6476 H   0  0  0  0  0
   21.2982    9.3170   35.8822 H   0  0  0  0  0
   20.1980    8.1751   37.1142 H   0  0  0  0  0
   18.6497    8.4194   36.2180 H   0  0  0  0  0
   20.1006    6.7809   38.9361 H   0  0  0  0  0
   19.5938    4.3254   39.3578 H   0  0  0  0  0
   20.7734    5.5912   39.7788 H   0  0  0  0  0
   20.6014    4.1539   40.8160 H   0  0  0  0  0
   16.6203    4.2063   40.9942 H   0  0  0  0  0
   17.7976    4.8888   42.1428 H   0  0  0  0  0
   16.1347    4.5387   42.6749 H   0  0  0  0  0
   14.1533    6.2680   39.4187 H   0  0  0  0  0
   14.4635    6.6672   41.1262 H   0  0  0  0  0
   13.1619    7.4985   40.2397 H   0  0  0  0  0
   16.5844    8.9936   37.9011 H   0  0  0  0  0
  1  2  4  0  0  0
  1  8  4  0  0  0
  2  3  4  0  0  0
  3  4  1  0  0  0
  3  5  4  0  0  0
  5  6  4  0  0  0
  6  7  1  0  0  0
  6  8  4  0  0  0
  8  9  1  0  0  0
  9 10  1  0  0  0
 10 11  4  0  0  0
 10 21  4  0  0  0
 11 12  4  0  0  0
 12 13  1  0  0  0
 12 15  4  0  0  0
 13 14  1  0  0  0
 15 16  1  0  0  0
 15 18  4  0  0  0
 16 17  1  0  0  0
 18 19  1  0  0  0
 18 21  4  0  0  0
 19 20  1  0  0  0
  1 22  1  0  0  0
  4 23  1  0  0  0
  4 24  1  0  0  0
  7 25  1  0  0  0
  7 26  1  0  0  0
  9 27  1  0  0  0
  9 28  1  0  0  0
 11 29  1  0  0  0
 14 30  1  0  0  0
 14 31  1  0  0  0
 14 32  1  0  0  0
 17 33  1  0  0  0
 17 34  1  0  0  0
 17 35  1  0  0  0
 20 36  1  0  0  0
 20 37  1  0  0  0
 20 38  1  0  0  0
 21 39  1  0  0  0
M  END
$$$$
