### 
### Created by X-TOOL on Mon Sep 10 21:12:46 2018
### 

@<TRIPOS>MOLECULE
1d4t_ligand
  191   191     1     0     0
SMALL
GAST_HUCK


@<TRIPOS>ATOM
      1 N          17.3050  -16.2480    8.3120 N.4       1 LYS         0.2379
      2 CA         16.9090  -16.8700    9.5740 C.3       1 LYS         0.0650
      3 C          16.3820  -15.8310   10.5790 C.2       1 LYS         0.2268
      4 O          16.0680  -16.1770   11.7130 O.2       1 LYS        -0.3907
      5 CB         17.9730  -17.7320   10.1930 C.3       1 LYS         0.0080
      6 CG         19.4250  -17.6200   10.3260 C.3       1 LYS        -0.0410
      7 CD         20.2800  -17.2010    9.2040 C.3       1 LYS        -0.0123
      8 CE         21.6460  -17.8190    9.1940 C.3       1 LYS        -0.0354
      9 NZ         22.6720  -16.7340    9.0740 N.4       1 LYS         0.2185
     10 N          16.2600  -14.5750   10.2440 N.am      1 SER        -0.2589
     11 CA         15.3950  -13.6540   10.9770 C.3       1 SER         0.1540
     12 C          13.9990  -13.6750   10.3440 C.2       1 SER         0.2062
     13 O          13.8300  -13.7390    9.1410 O.2       1 SER        -0.3943
     14 CB         15.9970  -12.2830   10.8830 C.3       1 SER         0.0843
     15 OG         15.0770  -11.3200   11.2030 O.3       1 SER        -0.3903
     16 N          13.0030  -13.5790   11.2170 N.am      1 LEU        -0.2636
     17 CA         11.6450  -13.3910   10.7460 C.3       1 LEU         0.1312
     18 C          11.2400  -11.9320   10.5440 C.2       1 LEU         0.2040
     19 O          10.1180  -11.6390   10.1400 O.2       1 LEU        -0.3944
     20 CB         10.6210  -14.0100   11.7210 C.3       1 LEU        -0.0101
     21 CG         10.8870  -15.6120   11.7840 C.3       1 LEU        -0.0425
     22 CD1         9.7430  -16.0580   12.7680 C.3       1 LEU        -0.0625
     23 CD2        10.5130  -16.2290   10.1920 C.3       1 LEU        -0.0625
     24 N          12.1240  -11.0190   10.8440 N.am      1 THR        -0.2613
     25 CA         11.8880   -9.5800   10.6580 C.3       1 THR         0.1565
     26 C          12.5010   -9.1020    9.3560 C.2       1 THR         0.2065
     27 O          13.6710   -9.4070    9.0780 O.2       1 THR        -0.3943
     28 CB         12.5170   -8.8010   11.8130 C.3       1 THR         0.0924
     29 OG1        11.7210   -8.9350   12.9940 O.3       1 THR        -0.3874
     30 CG2        12.6760   -7.3010   11.5520 C.3       1 THR        -0.0346
     31 N          11.6990   -8.4020    8.5720 N.am      1 ILE        -0.2634
     32 CA         12.1010   -7.8080    7.3060 C.3       1 ILE         0.1335
     33 C          11.9290   -6.2970    7.4520 C.2       1 ILE         0.2043
     34 O          10.8020   -5.8150    7.4800 O.2       1 ILE        -0.3944
     35 CB         11.2830   -8.3530    6.1350 C.3       1 ILE        -0.0037
     36 CG1        11.4430   -9.8540    5.9770 C.3       1 ILE        -0.0491
     37 CG2        11.6740   -7.6300    4.8480 C.3       1 ILE        -0.0582
     38 CD1        10.6270  -10.5300    4.9330 C.3       1 ILE        -0.0648
     39 N          13.0170   -5.5630    7.6120 N.am      1 TYR        -0.2621
     40 CA         12.9180   -4.1040    7.6220 C.3       1 TYR         0.1390
     41 C          12.4760   -3.6310    6.2400 C.2       1 TYR         0.2057
     42 O          13.0160   -4.0650    5.2160 O.2       1 TYR        -0.3942
     43 CB         14.2420   -3.4220    8.1110 C.3       1 TYR         0.0163
     44 CG         14.3590   -3.6430    9.6340 C.ar      1 TYR        -0.0493
     45 CD1        15.1280   -4.6320   10.1670 C.ar      1 TYR        -0.0685
     46 CD2        13.6220   -2.8280   10.4830 C.ar      1 TYR        -0.0685
     47 CE1        15.1850   -4.7900   11.5790 C.ar      1 TYR        -0.0398
     48 CE2        13.6460   -2.9730   11.8570 C.ar      1 TYR        -0.0398
     49 CZ         14.4270   -3.9540   12.3730 C.ar      1 TYR         0.0805
     50 OH         14.4040   -4.0840   13.7750 O.3       1 TYR        -0.3376
     51 N          11.5000   -2.7670    6.2080 N.am      1 ALA        -0.2639
     52 CA         10.8150   -2.3970    4.9840 C.3       1 ALA         0.1282
     53 C          10.5770   -0.8890    4.9650 C.2       1 ALA         0.2036
     54 O          10.6630   -0.1560    5.9370 O.2       1 ALA        -0.3944
     55 CB          9.4960   -3.1800    4.8990 C.3       1 ALA        -0.0244
     56 N          10.2690   -0.4250    3.7420 N.am      1 GLN        -0.2636
     57 CA         10.0100    0.9670    3.4780 C.3       1 GLN         0.1330
     58 C           8.6390    1.0940    2.8280 C.2       1 GLN         0.2041
     59 O           8.2160    0.2520    2.0700 O.2       1 GLN        -0.3944
     60 CB         11.0740    1.5580    2.5260 C.3       1 GLN         0.0045
     61 CG         12.5090    1.3150    2.9940 C.3       1 GLN         0.0412
     62 CD         13.5800    1.9490    2.1260 C.2       1 GLN         0.1737
     63 OE1        13.5460    1.8080    0.8850 O.2       1 GLN        -0.3973
     64 NE2        14.5390    2.6650    2.7000 N.am      1 GLN        -0.3009
     65 N           7.9780    2.2140    3.1230 N.am      1 VAL        -0.2635
     66 CA          6.6970    2.5420    2.5000 C.3       1 VAL         0.1332
     67 C           6.9350    2.7990    1.0060 C.2       1 VAL         0.2042
     68 O           7.8290    3.5570    0.6490 O.2       1 VAL        -0.3944
     69 CB          6.0330    3.7480    3.2150 C.3       1 VAL        -0.0063
     70 CG1         4.7530    4.1370    2.5300 C.3       1 VAL        -0.0584
     71 CG2         5.7400    3.4680    4.6940 C.3       1 VAL        -0.0584
     72 N           6.1230    2.1780    0.1680 N.am      1 GLN        -0.2636
     73 CA          6.3530    2.1310   -1.2630 C.3       1 GLN         0.1330
     74 C           5.4950    3.0680   -2.0670 C.2       1 GLN         0.2035
     75 O           5.7470    3.1660   -3.2970 O.2       1 GLN        -0.3944
     76 CB          6.1030    0.6870   -1.7550 C.3       1 GLN         0.0045
     77 CG          7.0740   -0.3210   -1.1550 C.3       1 GLN         0.0412
     78 CD          8.5030   -0.0640   -1.6030 C.2       1 GLN         0.1737
     79 OE1         8.7350    0.1370   -2.8080 O.2       1 GLN        -0.3973
     80 NE2         9.4040   -0.0800   -0.6420 N.am      1 GLN        -0.3009
     81 N           4.4950    3.7310   -1.4990 N.am      1 LYS        -0.2695
     82 CA          3.5680    4.6400   -2.1370 C.3       1 LYS         0.0944
     83 C           3.2730    5.8400   -1.2470 C.2       1 LYS         0.0601
     84 O           3.6230    5.7710   -0.0630 O.co2     1 LYS        -0.5666
     85 CB          2.2000    3.9470   -2.4740 C.3       1 LYS        -0.0177
     86 CG          2.2940    2.6130   -3.1370 C.3       1 LYS        -0.0446
     87 CD          0.9930    1.9330   -3.4080 C.3       1 LYS        -0.0125
     88 CE         -0.0840    2.7850   -3.9760 C.3       1 LYS        -0.0354
     89 NZ          0.1780    3.0810   -5.3930 N.4       1 LYS         0.2185
     90 OXT         2.6600    6.7950   -1.7710 O.co2     1 LYS        -0.5666
     91 H1         17.6440  -16.9564    7.6801 H         1 LYS         0.2015
     92 H2         18.0347  -15.5742    8.4839 H         1 LYS         0.2015
     93 H3         16.5095  -15.7845    7.9016 H         1 LYS         0.2015
     94 H4         16.0682  -17.5385    9.3370 H         1 LYS         0.1098
     95 H5         17.8456  -18.6934    9.6739 H         1 LYS         0.0346
     96 H6         17.6360  -17.8307   11.2354 H         1 LYS         0.0346
     97 H7         19.7839  -18.6136   10.6324 H         1 LYS         0.0270
     98 H8         19.6054  -16.8988   11.1368 H         1 LYS         0.0270
     99 H9         20.3984  -16.1085    9.2525 H         1 LYS         0.0317
    100 H10        19.7735  -17.4737    8.2664 H         1 LYS         0.0317
    101 H11        21.7338  -18.5056    8.3391 H         1 LYS         0.0813
    102 H12        21.8057  -18.3756   10.1292 H         1 LYS         0.0813
    103 H13        23.5935  -17.1424    9.0666 H         1 LYS         0.1994
    104 H14        22.5894  -16.1053    9.8575 H         1 LYS         0.1994
    105 H15        22.5235  -16.2244    8.2171 H         1 LYS         0.1994
    106 H16        16.7761  -14.2320    9.4592 H         1 SER         0.1885
    107 H17        15.3259  -13.9583   12.0318 H         1 SER         0.0823
    108 H18        16.3507  -12.1151    9.8550 H         1 SER         0.0606
    109 H19        16.8462  -12.2145   11.5788 H         1 SER         0.0606
    110 H20        14.3429  -11.3729   10.6023 H         1 SER         0.2097
    111 H21        13.1895  -13.6363   12.1978 H         1 LEU         0.1883
    112 H22        11.5634  -13.9045    9.7766 H         1 LEU         0.0800
    113 H23         9.5997  -13.8157   11.3617 H         1 LEU         0.0315
    114 H24        10.7473  -13.5716   12.7219 H         1 LEU         0.0315
    115 H25        11.8965  -15.8902   12.1210 H         1 LEU         0.0298
    116 H26         9.7908  -17.1469   12.9163 H         1 LEU         0.0232
    117 H27         8.7659  -15.7888   12.3404 H         1 LEU         0.0232
    118 H28         9.8725  -15.5502   13.7351 H         1 LEU         0.0232
    119 H29        11.3021  -15.9277    9.4873 H         1 LEU         0.0232
    120 H30         9.5478  -15.8207    9.8579 H         1 LEU         0.0232
    121 H31        10.4539  -17.3268   10.2288 H         1 LEU         0.0232
    122 H32        13.0036  -11.3127   11.2182 H         1 THR         0.1884
    123 H33        10.8041   -9.3934   10.6384 H         1 THR         0.0826
    124 H34        13.5138   -9.2271   11.9992 H         1 THR         0.0639
    125 H35        11.6633   -9.8526   13.2332 H         1 THR         0.2101
    126 H36        13.1339   -6.8225   12.4303 H         1 THR         0.0257
    127 H37        11.6882   -6.8547   11.3646 H         1 THR         0.0257
    128 H38        13.3202   -7.1479   10.6736 H         1 THR         0.0257
    129 H39        10.7530   -8.2721    8.8689 H         1 ILE         0.1883
    130 H40        13.1611   -8.0360    7.1210 H         1 ILE         0.0803
    131 H41        10.2215   -8.1470    6.3371 H         1 ILE         0.0345
    132 H42        11.1883  -10.3151    6.9427 H         1 ILE         0.0267
    133 H43        12.5004  -10.0491    5.7450 H         1 ILE         0.0267
    134 H44        11.5506   -6.5455    4.9847 H         1 ILE         0.0235
    135 H45        11.0289   -7.9715    4.0251 H         1 ILE         0.0235
    136 H46        12.7241   -7.8521    4.6072 H         1 ILE         0.0235
    137 H47        10.8479  -11.6076    4.9357 H         1 ILE         0.0230
    138 H48        10.8709  -10.1082    3.9468 H         1 ILE         0.0230
    139 H49         9.5588  -10.3742    5.1445 H         1 ILE         0.0230
    140 H50        13.9067   -6.0051    7.7261 H         1 TYR         0.1885
    141 H51        12.1303   -3.8252    8.3374 H         1 TYR         0.0821
    142 H52        14.2098   -2.3446    7.8917 H         1 TYR         0.0453
    143 H53        15.1052   -3.8744    7.6009 H         1 TYR         0.0453
    144 H54        15.6924   -5.2938    9.5200 H         1 TYR         0.0530
    145 H55        13.0045   -2.0485   10.0516 H         1 TYR         0.0530
    146 H56        15.8128   -5.5536   12.0237 H         1 TYR         0.0525
    147 H57        13.0610   -2.3252   12.4998 H         1 TYR         0.0525
    148 H58        14.9795   -4.7935   14.0356 H         1 TYR         0.2458
    149 H59        11.2109   -2.3406    7.0651 H         1 ALA         0.1883
    150 H60        11.4432   -2.6652    4.1218 H         1 ALA         0.0797
    151 H61         8.9669   -2.9076    3.9739 H         1 ALA         0.0277
    152 H62         8.8669   -2.9340    5.7672 H         1 ALA         0.0277
    153 H63         9.7097   -4.2590    4.8950 H         1 ALA         0.0277
    154 H64        10.2174   -1.0739    2.9828 H         1 GLN         0.1883
    155 H65        10.0233    1.5246    4.4261 H         1 GLN         0.0801
    156 H66        10.9107    2.6432    2.4511 H         1 GLN         0.0337
    157 H67        10.9482    1.0989    1.5343 H         1 GLN         0.0337
    158 H68        12.6830    0.2290    3.0128 H         1 GLN         0.0504
    159 H69        12.6098    1.7202    4.0116 H         1 GLN         0.0504
    160 H70        15.2507    3.0881    2.1393 H         1 GLN         0.1814
    161 H71        14.5498    2.7813    3.6932 H         1 GLN         0.1814
    162 H72         8.3700    2.8478    3.7897 H         1 VAL         0.1883
    163 H73         6.0241    1.6776    2.5996 H         1 VAL         0.0802
    164 H74         6.7305    4.5967    3.1590 H         1 VAL         0.0343
    165 H75         4.3019    4.9924    3.0542 H         1 VAL         0.0234
    166 H76         4.0550    3.2870    2.5470 H         1 VAL         0.0234
    167 H77         4.9652    4.4164    1.4875 H         1 VAL         0.0234
    168 H78         6.6715    3.1822    5.2046 H         1 VAL         0.0234
    169 H79         5.0113    2.6480    4.7746 H         1 VAL         0.0234
    170 H80         5.3272    4.3729    5.1638 H         1 VAL         0.0234
    171 H81         5.3142    1.7203    0.5372 H         1 GLN         0.1883
    172 H82         7.4049    2.3961   -1.4451 H         1 GLN         0.0801
    173 H83         6.2079    0.6663   -2.8498 H         1 GLN         0.0337
    174 H84         5.0791    0.3947   -1.4791 H         1 GLN         0.0337
    175 H85         6.7782   -1.3321   -1.4714 H         1 GLN         0.0504
    176 H86         7.0268   -0.2514   -0.0582 H         1 GLN         0.0504
    177 H87        10.3673    0.0808   -0.8570 H         1 GLN         0.1814
    178 H88         9.1246   -0.2529    0.3025 H         1 GLN         0.1814
    179 H89         4.3680    3.5854   -0.5178 H         1 LYS         0.1875
    180 H90         4.0256    4.9934   -3.0728 H         1 LYS         0.0726
    181 H91         1.6377    4.6167   -3.1413 H         1 LYS         0.0305
    182 H92         1.6461    3.8177   -1.5325 H         1 LYS         0.0305
    183 H93         2.8911    1.9546   -2.4890 H         1 LYS         0.0269
    184 H94         2.8113    2.7488   -4.0982 H         1 LYS         0.0269
    185 H95         0.6267    1.5173   -2.4578 H         1 LYS         0.0317
    186 H96         1.1831    1.1142   -4.1175 H         1 LYS         0.0317
    187 H97        -0.1320    3.7289   -3.4132 H         1 LYS         0.0813
    188 H98        -1.0452    2.2571   -3.8894 H         1 LYS         0.0813
    189 H99        -0.5629    3.6588   -5.7581 H         1 LYS         0.1994
    190 H100        0.2198    2.2192   -5.9142 H         1 LYS         0.1994
    191 H101        1.0565    3.5679   -5.4777 H         1 LYS         0.1994
@<TRIPOS>BOND
     1    1    2 1  
     2    2    3 1  
     3    2    5 1  
     4    3    4 2  
     5    3   10 am 
     6    5    6 1  
     7    6    7 1  
     8    7    8 1  
     9    8    9 1  
    10   10   11 1  
    11   11   12 1  
    12   11   14 1  
    13   12   13 2  
    14   12   16 am 
    15   14   15 1  
    16   16   17 1  
    17   17   18 1  
    18   17   20 1  
    19   18   19 2  
    20   18   24 am 
    21   20   21 1  
    22   21   22 1  
    23   21   23 1  
    24   24   25 1  
    25   25   26 1  
    26   25   28 1  
    27   26   27 2  
    28   26   31 am 
    29   28   29 1  
    30   28   30 1  
    31   31   32 1  
    32   32   33 1  
    33   32   35 1  
    34   33   34 2  
    35   33   39 am 
    36   35   36 1  
    37   35   37 1  
    38   36   38 1  
    39   39   40 1  
    40   40   41 1  
    41   40   43 1  
    42   41   42 2  
    43   41   51 am 
    44   43   44 1  
    45   44   45 ar 
    46   44   46 ar 
    47   45   47 ar 
    48   46   48 ar 
    49   47   49 ar 
    50   48   49 ar 
    51   49   50 1  
    52   51   52 1  
    53   52   53 1  
    54   52   55 1  
    55   53   54 2  
    56   53   56 am 
    57   56   57 1  
    58   57   58 1  
    59   57   60 1  
    60   58   59 2  
    61   58   65 am 
    62   60   61 1  
    63   61   62 1  
    64   62   63 2  
    65   62   64 am 
    66   65   66 1  
    67   66   67 1  
    68   66   69 1  
    69   67   68 2  
    70   67   72 am 
    71   69   70 1  
    72   69   71 1  
    73   72   73 1  
    74   73   74 1  
    75   73   76 1  
    76   74   75 2  
    77   74   81 am 
    78   76   77 1  
    79   77   78 1  
    80   78   79 2  
    81   78   80 am 
    82   81   82 1  
    83   82   83 1  
    84   82   85 1  
    85   83   84 ar 
    86   83   90 ar 
    87   85   86 1  
    88   86   87 1  
    89   87   88 1  
    90   88   89 1  
    91    1   91 1  
    92    1   92 1  
    93    1   93 1  
    94    2   94 1  
    95    5   95 1  
    96    5   96 1  
    97    6   97 1  
    98    6   98 1  
    99    7   99 1  
   100    7  100 1  
   101    8  101 1  
   102    8  102 1  
   103    9  103 1  
   104    9  104 1  
   105    9  105 1  
   106   10  106 1  
   107   11  107 1  
   108   14  108 1  
   109   14  109 1  
   110   15  110 1  
   111   16  111 1  
   112   17  112 1  
   113   20  113 1  
   114   20  114 1  
   115   21  115 1  
   116   22  116 1  
   117   22  117 1  
   118   22  118 1  
   119   23  119 1  
   120   23  120 1  
   121   23  121 1  
   122   24  122 1  
   123   25  123 1  
   124   28  124 1  
   125   29  125 1  
   126   30  126 1  
   127   30  127 1  
   128   30  128 1  
   129   31  129 1  
   130   32  130 1  
   131   35  131 1  
   132   36  132 1  
   133   36  133 1  
   134   37  134 1  
   135   37  135 1  
   136   37  136 1  
   137   38  137 1  
   138   38  138 1  
   139   38  139 1  
   140   39  140 1  
   141   40  141 1  
   142   43  142 1  
   143   43  143 1  
   144   45  144 1  
   145   46  145 1  
   146   47  146 1  
   147   48  147 1  
   148   50  148 1  
   149   51  149 1  
   150   52  150 1  
   151   55  151 1  
   152   55  152 1  
   153   55  153 1  
   154   56  154 1  
   155   57  155 1  
   156   60  156 1  
   157   60  157 1  
   158   61  158 1  
   159   61  159 1  
   160   64  160 1  
   161   64  161 1  
   162   65  162 1  
   163   66  163 1  
   164   69  164 1  
   165   70  165 1  
   166   70  166 1  
   167   70  167 1  
   168   71  168 1  
   169   71  169 1  
   170   71  170 1  
   171   72  171 1  
   172   73  172 1  
   173   76  173 1  
   174   76  174 1  
   175   77  175 1  
   176   77  176 1  
   177   80  177 1  
   178   80  178 1  
   179   81  179 1  
   180   82  180 1  
   181   85  181 1  
   182   85  182 1  
   183   86  183 1  
   184   86  184 1  
   185   87  185 1  
   186   87  186 1  
   187   88  187 1  
   188   88  188 1  
   189   89  189 1  
   190   89  190 1  
   191   89  191 1  
@<TRIPOS>SUBSTRUCTURE
     1 LYS         1

