1d4t_ligand
  -I-interpret- 

192192  0  0  0  0  0  0  0  0999 V2000
   17.3050  -16.2480    8.3120 N   0  3  0  0  0
   16.9090  -16.8700    9.5740 C   0  0  0  0  0
   16.3820  -15.8310   10.5790 C   0  0  0  0  0
   16.0680  -16.1770   11.7130 O   0  0  0  0  0
   17.9730  -17.7320   10.1930 C   0  0  0  0  0
   19.4250  -17.6200   10.3260 C   0  0  0  0  0
   20.2800  -17.2010    9.2040 C   0  0  0  0  0
   21.6460  -17.8190    9.1940 C   0  0  0  0  0
   22.6720  -16.7340    9.0740 N   0  3  0  0  0
   16.2600  -14.5750   10.2440 N   0  0  0  0  0
   15.3950  -13.6540   10.9770 C   0  0  0  0  0
   13.9990  -13.6750   10.3440 C   0  0  0  0  0
   13.8300  -13.7390    9.1410 O   0  0  0  0  0
   15.9970  -12.2830   10.8830 C   0  0  0  0  0
   15.0770  -11.3200   11.2030 O   0  0  0  0  0
   13.0030  -13.5790   11.2170 N   0  0  0  0  0
   11.6450  -13.3910   10.7460 C   0  0  0  0  0
   11.2400  -11.9320   10.5440 C   0  0  0  0  0
   10.1180  -11.6390   10.1400 O   0  0  0  0  0
   10.6210  -14.0100   11.7210 C   0  0  0  0  0
   10.8870  -15.6120   11.7840 C   0  0  0  0  0
    9.7430  -16.0580   12.7680 C   0  0  0  0  0
   10.5130  -16.2290   10.1920 C   0  0  0  0  0
   12.1240  -11.0190   10.8440 N   0  0  0  0  0
   11.8880   -9.5800   10.6580 C   0  0  0  0  0
   12.5010   -9.1020    9.3560 C   0  0  0  0  0
   13.6710   -9.4070    9.0780 O   0  0  0  0  0
   12.5170   -8.8010   11.8130 C   0  0  0  0  0
   11.7210   -8.9350   12.9940 O   0  0  0  0  0
   12.6760   -7.3010   11.5520 C   0  0  0  0  0
   11.6990   -8.4020    8.5720 N   0  0  0  0  0
   12.1010   -7.8080    7.3060 C   0  0  0  0  0
   11.9290   -6.2970    7.4520 C   0  0  0  0  0
   10.8020   -5.8150    7.4800 O   0  0  0  0  0
   11.2830   -8.3530    6.1350 C   0  0  0  0  0
   11.4430   -9.8540    5.9770 C   0  0  0  0  0
   11.6740   -7.6300    4.8480 C   0  0  0  0  0
   10.6270  -10.5300    4.9330 C   0  0  0  0  0
   13.0170   -5.5630    7.6120 N   0  0  0  0  0
   12.9180   -4.1040    7.6220 C   0  0  0  0  0
   12.4760   -3.6310    6.2400 C   0  0  0  0  0
   13.0160   -4.0650    5.2160 O   0  0  0  0  0
   14.2420   -3.4220    8.1110 C   0  0  0  0  0
   14.3590   -3.6430    9.6340 C   0  0  0  0  0
   15.1280   -4.6320   10.1670 C   0  0  0  0  0
   13.6220   -2.8280   10.4830 C   0  0  0  0  0
   15.1850   -4.7900   11.5790 C   0  0  0  0  0
   13.6460   -2.9730   11.8570 C   0  0  0  0  0
   14.4270   -3.9540   12.3730 C   0  0  0  0  0
   14.4040   -4.0840   13.7750 O   0  0  0  0  0
   11.5000   -2.7670    6.2080 N   0  0  0  0  0
   10.8150   -2.3970    4.9840 C   0  0  0  0  0
   10.5770   -0.8890    4.9650 C   0  0  0  0  0
   10.6630   -0.1560    5.9370 O   0  0  0  0  0
    9.4960   -3.1800    4.8990 C   0  0  0  0  0
   10.2690   -0.4250    3.7420 N   0  0  0  0  0
   10.0100    0.9670    3.4780 C   0  0  0  0  0
    8.6390    1.0940    2.8280 C   0  0  0  0  0
    8.2160    0.2520    2.0700 O   0  0  0  0  0
   11.0740    1.5580    2.5260 C   0  0  0  0  0
   12.5090    1.3150    2.9940 C   0  0  0  0  0
   13.5800    1.9490    2.1260 C   0  0  0  0  0
   13.5460    1.8080    0.8850 O   0  0  0  0  0
   14.5390    2.6650    2.7000 N   0  0  0  0  0
    7.9780    2.2140    3.1230 N   0  0  0  0  0
    6.6970    2.5420    2.5000 C   0  0  0  0  0
    6.9350    2.7990    1.0060 C   0  0  0  0  0
    7.8290    3.5570    0.6490 O   0  0  0  0  0
    6.0330    3.7480    3.2150 C   0  0  0  0  0
    4.7530    4.1370    2.5300 C   0  0  0  0  0
    5.7400    3.4680    4.6940 C   0  0  0  0  0
    6.1230    2.1780    0.1680 N   0  0  0  0  0
    6.3530    2.1310   -1.2630 C   0  0  0  0  0
    5.4950    3.0680   -2.0670 C   0  0  0  0  0
    5.7470    3.1660   -3.2970 O   0  0  0  0  0
    6.1030    0.6870   -1.7550 C   0  0  0  0  0
    7.0740   -0.3210   -1.1550 C   0  0  0  0  0
    8.5030   -0.0640   -1.6030 C   0  0  0  0  0
    8.7350    0.1370   -2.8080 O   0  0  0  0  0
    9.4040   -0.0800   -0.6420 N   0  0  0  0  0
    4.4950    3.7310   -1.4990 N   0  0  0  0  0
    3.5680    4.6400   -2.1370 C   0  0  0  0  0
    3.2730    5.8400   -1.2470 C   0  0  0  0  0
    3.6230    5.7710   -0.0630 O   0  0  0  0  0
    2.2000    3.9470   -2.4740 C   0  0  0  0  0
    2.2940    2.6130   -3.1370 C   0  0  0  0  0
    0.9930    1.9330   -3.4080 C   0  0  0  0  0
   -0.0840    2.7850   -3.9760 C   0  0  0  0  0
    0.1780    3.0810   -5.3930 N   0  3  0  0  0
    2.6600    6.7950   -1.7710 O   0  0  0  0  0
   16.5343  -15.6823    7.9566 H   0  0  0  0  0
   18.1201  -15.6549    8.4677 H   0  0  0  0  0
   17.5361  -16.9743    7.6341 H   0  0  0  0  0
   16.0935  -17.5455    9.3156 H   0  0  0  0  0
   17.9349  -18.5685    9.4952 H   0  0  0  0  0
   17.7006  -17.6042   11.2407 H   0  0  0  0  0
   19.7442  -18.6433   10.5235 H   0  0  0  0  0
   19.5548  -16.8235   11.0587 H   0  0  0  0  0
   20.4193  -16.1238    9.2957 H   0  0  0  0  0
   19.7809  -17.5185    8.2885 H   0  0  0  0  0
   21.7338  -18.5026    8.3495 H   0  0  0  0  0
   21.8048  -18.3741   10.1185 H   0  0  0  0  0
   23.6040  -17.1484    9.0666 H   0  0  0  0  0
   22.5207  -16.2190    8.2066 H   0  0  0  0  0
   22.5874  -16.0985    9.8673 H   0  0  0  0  0
   16.7864  -14.2251    9.4435 H   0  0  0  0  0
   15.3063  -13.9429   12.0243 H   0  0  0  0  0
   16.3339  -12.1184    9.8595 H   0  0  0  0  0
   16.8295  -12.2178   11.5835 H   0  0  0  0  0
   15.4854  -10.4538   11.1355 H   0  0  0  0  0
   13.1932  -13.6375   12.2174 H   0  0  0  0  0
   11.6353  -13.8899    9.7769 H   0  0  0  0  0
    9.6064  -13.8112   11.3758 H   0  0  0  0  0
   10.7341  -13.5714   12.7124 H   0  0  0  0  0
   11.8878  -15.9285   12.0778 H   0  0  0  0  0
    9.8725  -15.5541   13.7258 H   0  0  0  0  0
    8.7754  -15.7907   12.3432 H   0  0  0  0  0
    9.7914  -17.1371   12.9142 H   0  0  0  0  0
    9.4713  -16.0123    9.9552 H   0  0  0  0  0
   11.1610  -15.7513    9.4571 H   0  0  0  0  0
   10.6743  -17.3069   10.1743 H   0  0  0  0  0
   13.0212  -11.3186   11.2257 H   0  0  0  0  0
   10.8116   -9.4102   10.6321 H   0  0  0  0  0
   13.5106   -9.2340   11.9286 H   0  0  0  0  0
   12.1274   -8.4414   13.7101 H   0  0  0  0  0
   13.3144   -7.1507   10.6814 H   0  0  0  0  0
   11.6966   -6.8600   11.3664 H   0  0  0  0  0
   13.1297   -6.8281   12.4229 H   0  0  0  0  0
   10.7340   -8.2695    8.8748 H   0  0  0  0  0
   13.1376   -8.0597    7.0819 H   0  0  0  0  0
   10.2303   -8.1663    6.3475 H   0  0  0  0  0
   11.1181  -10.2834    6.9247 H   0  0  0  0  0
   12.4807  -10.0072    5.6808 H   0  0  0  0  0
   11.4790   -6.5633    4.9584 H   0  0  0  0  0
   12.7344   -7.7884    4.6516 H   0  0  0  0  0
   11.0867   -8.0241    4.0186 H   0  0  0  0  0
    9.5689  -10.3748    5.1437 H   0  0  0  0  0
   10.8696  -10.1112    3.9563 H   0  0  0  0  0
   10.8467  -11.5976    4.9367 H   0  0  0  0  0
   13.9245   -6.0139    7.7283 H   0  0  0  0  0
   12.1648   -3.7984    8.3483 H   0  0  0  0  0
   14.2213   -2.3557    7.8860 H   0  0  0  0  0
   15.1007   -3.8580    7.6004 H   0  0  0  0  0
   15.6955   -5.2975    9.5165 H   0  0  0  0  0
   13.0010   -2.0442   10.0492 H   0  0  0  0  0
   15.8163   -5.5579   12.0262 H   0  0  0  0  0
   13.0577   -2.3216   12.5033 H   0  0  0  0  0
   13.8231   -3.4167   14.1476 H   0  0  0  0  0
   11.2051   -2.3321    7.0822 H   0  0  0  0  0
   11.4227   -2.6469    4.1143 H   0  0  0  0  0
    9.7091   -4.2490    4.8951 H   0  0  0  0  0
    8.8736   -2.9354    5.7598 H   0  0  0  0  0
    8.9727   -2.9092    3.9820 H   0  0  0  0  0
   10.2164   -1.0868    2.9677 H   0  0  0  0  0
   10.0451    1.5152    4.4195 H   0  0  0  0  0
   10.9187    2.6362    2.4883 H   0  0  0  0  0
   10.9567    1.0699    1.5585 H   0  0  0  0  0
   12.6733    0.2379    2.9617 H   0  0  0  0  0
   12.5984    1.7634    3.9835 H   0  0  0  0  0
   15.2580    3.1068    2.1270 H   0  0  0  0  0
   14.5570    2.7734    3.7141 H   0  0  0  0  0
    8.3779    2.8605    3.8031 H   0  0  0  0  0
    6.0001    1.7099    2.5999 H   0  0  0  0  0
    6.7506    4.5666    3.1592 H   0  0  0  0  0
    4.9647    4.4135    1.4971 H   0  0  0  0  0
    4.0623    3.2940    2.5475 H   0  0  0  0  0
    4.3070    4.9846    3.0503 H   0  0  0  0  0
    5.0640    2.6167    4.7743 H   0  0  0  0  0
    6.6726    3.2431    5.2116 H   0  0  0  0  0
    5.2759    4.3458    5.1437 H   0  0  0  0  0
    5.2980    1.7111    0.5446 H   0  0  0  0  0
    7.3828    2.4529   -1.4176 H   0  0  0  0  0
    6.2384    0.6760   -2.8365 H   0  0  0  0  0
    5.0963    0.4013   -1.4499 H   0  0  0  0  0
    6.7840   -1.3170   -1.4897 H   0  0  0  0  0
    7.0339   -0.2309   -0.0695 H   0  0  0  0  0
   10.3869    0.0816   -0.8617 H   0  0  0  0  0
    9.1187   -0.2540    0.3217 H   0  0  0  0  0
    4.3654    3.5825   -0.4982 H   0  0  0  0  0
    4.0509    4.9608   -3.0601 H   0  0  0  0  0
    1.6865    4.6042   -3.1758 H   0  0  0  0  0
    1.6952    3.7829   -1.5220 H   0  0  0  0  0
    2.8443    1.9663   -2.4536 H   0  0  0  0  0
    2.7623    2.7821   -4.1067 H   0  0  0  0  0
    0.6265    1.5798   -2.4441 H   0  0  0  0  0
    1.1995    1.1647   -4.1531 H   0  0  0  0  0
   -0.1201    3.7227   -3.4215 H   0  0  0  0  0
   -1.0320    2.2529   -3.8972 H   0  0  0  0  0
   -0.5723    3.6657   -5.7613 H   0  0  0  0  0
    1.0672    3.5736   -5.4774 H   0  0  0  0  0
    0.2201    2.2083   -5.9193 H   0  0  0  0  0
    2.5067    6.6046   -2.6994 H   0  0  0  0  0
  1  2  1  0  0  0
  2  3  1  0  0  0
  2  5  1  0  0  0
  3  4  2  0  0  0
  3 10  1  0  0  0
  5  6  1  0  0  0
  6  7  1  0  0  0
  7  8  1  0  0  0
  8  9  1  0  0  0
 10 11  1  0  0  0
 11 12  1  0  0  0
 11 14  1  0  0  0
 12 13  2  0  0  0
 12 16  1  0  0  0
 14 15  1  0  0  0
 16 17  1  0  0  0
 17 18  1  0  0  0
 17 20  1  0  0  0
 18 19  2  0  0  0
 18 24  1  0  0  0
 20 21  1  0  0  0
 21 22  1  0  0  0
 21 23  1  0  0  0
 24 25  1  0  0  0
 25 26  1  0  0  0
 25 28  1  0  0  0
 26 27  2  0  0  0
 26 31  1  0  0  0
 28 29  1  0  0  0
 28 30  1  0  0  0
 31 32  1  0  0  0
 32 33  1  0  0  0
 32 35  1  0  0  0
 33 34  2  0  0  0
 33 39  1  0  0  0
 35 36  1  0  0  0
 35 37  1  0  0  0
 36 38  1  0  0  0
 39 40  1  0  0  0
 40 41  1  0  0  0
 40 43  1  0  0  0
 41 42  2  0  0  0
 41 51  1  0  0  0
 43 44  1  0  0  0
 44 45  4  0  0  0
 44 46  4  0  0  0
 45 47  4  0  0  0
 46 48  4  0  0  0
 47 49  4  0  0  0
 48 49  4  0  0  0
 49 50  1  0  0  0
 51 52  1  0  0  0
 52 53  1  0  0  0
 52 55  1  0  0  0
 53 54  2  0  0  0
 53 56  1  0  0  0
 56 57  1  0  0  0
 57 58  1  0  0  0
 57 60  1  0  0  0
 58 59  2  0  0  0
 58 65  1  0  0  0
 60 61  1  0  0  0
 61 62  1  0  0  0
 62 63  2  0  0  0
 62 64  1  0  0  0
 65 66  1  0  0  0
 66 67  1  0  0  0
 66 69  1  0  0  0
 67 68  2  0  0  0
 67 72  1  0  0  0
 69 70  1  0  0  0
 69 71  1  0  0  0
 72 73  1  0  0  0
 73 74  1  0  0  0
 73 76  1  0  0  0
 74 75  2  0  0  0
 74 81  1  0  0  0
 76 77  1  0  0  0
 77 78  1  0  0  0
 78 79  2  0  0  0
 78 80  1  0  0  0
 81 82  1  0  0  0
 82 83  1  0  0  0
 82 85  1  0  0  0
 83 84  2  0  0  0
 83 90  1  0  0  0
 85 86  1  0  0  0
 86 87  1  0  0  0
 87 88  1  0  0  0
 88 89  1  0  0  0
  1 91  1  0  0  0
  1 92  1  0  0  0
  1 93  1  0  0  0
  2 94  1  0  0  0
  5 95  1  0  0  0
  5 96  1  0  0  0
  6 97  1  0  0  0
  6 98  1  0  0  0
  7 99  1  0  0  0
  7100  1  0  0  0
  8101  1  0  0  0
  8102  1  0  0  0
  9103  1  0  0  0
  9104  1  0  0  0
  9105  1  0  0  0
 10106  1  0  0  0
 11107  1  0  0  0
 14108  1  0  0  0
 14109  1  0  0  0
 15110  1  0  0  0
 16111  1  0  0  0
 17112  1  0  0  0
 20113  1  0  0  0
 20114  1  0  0  0
 21115  1  0  0  0
 22116  1  0  0  0
 22117  1  0  0  0
 22118  1  0  0  0
 23119  1  0  0  0
 23120  1  0  0  0
 23121  1  0  0  0
 24122  1  0  0  0
 25123  1  0  0  0
 28124  1  0  0  0
 29125  1  0  0  0
 30126  1  0  0  0
 30127  1  0  0  0
 30128  1  0  0  0
 31129  1  0  0  0
 32130  1  0  0  0
 35131  1  0  0  0
 36132  1  0  0  0
 36133  1  0  0  0
 37134  1  0  0  0
 37135  1  0  0  0
 37136  1  0  0  0
 38137  1  0  0  0
 38138  1  0  0  0
 38139  1  0  0  0
 39140  1  0  0  0
 40141  1  0  0  0
 43142  1  0  0  0
 43143  1  0  0  0
 45144  1  0  0  0
 46145  1  0  0  0
 47146  1  0  0  0
 48147  1  0  0  0
 50148  1  0  0  0
 51149  1  0  0  0
 52150  1  0  0  0
 55151  1  0  0  0
 55152  1  0  0  0
 55153  1  0  0  0
 56154  1  0  0  0
 57155  1  0  0  0
 60156  1  0  0  0
 60157  1  0  0  0
 61158  1  0  0  0
 61159  1  0  0  0
 64160  1  0  0  0
 64161  1  0  0  0
 65162  1  0  0  0
 66163  1  0  0  0
 69164  1  0  0  0
 70165  1  0  0  0
 70166  1  0  0  0
 70167  1  0  0  0
 71168  1  0  0  0
 71169  1  0  0  0
 71170  1  0  0  0
 72171  1  0  0  0
 73172  1  0  0  0
 76173  1  0  0  0
 76174  1  0  0  0
 77175  1  0  0  0
 77176  1  0  0  0
 80177  1  0  0  0
 80178  1  0  0  0
 81179  1  0  0  0
 82180  1  0  0  0
 85181  1  0  0  0
 85182  1  0  0  0
 86183  1  0  0  0
 86184  1  0  0  0
 87185  1  0  0  0
 87186  1  0  0  0
 88187  1  0  0  0
 88188  1  0  0  0
 89189  1  0  0  0
 89190  1  0  0  0
 89191  1  0  0  0
 90192  1  0  0  0
M  END
$$$$
