6pdj_ligand
  -I-interpret- 

 56 60  0  0  0  0  0  0  0  0999 V2000
    7.8010   -0.4910   -7.4200 C   0  0  0  0  0
   -2.8950    2.3950  -11.7540 C   0  0  0  0  0
   -1.8640    1.6800  -10.9860 C   0  0  0  0  0
   -0.2110    3.3290   -8.3350 C   0  0  0  0  0
    5.7440   -3.4490   -3.5950 C   0  0  0  0  0
   -4.2450    2.0850  -11.7190 C   0  0  0  0  0
   -2.7840    3.4510  -12.6750 C   0  0  0  0  0
   -5.0660    1.1280  -11.1010 C   0  0  0  0  0
   -6.4200    1.0790  -11.3920 C   0  0  0  0  0
   -6.9700    2.0060  -12.2650 C   0  0  0  0  0
   -6.1830    2.9610  -12.8780 C   0  0  0  0  0
    7.8360   -1.9790   -5.5200 C   0  0  0  0  0
    8.5000   -1.2960   -6.5300 C   0  0  0  0  0
   -0.6460    2.2440  -10.9860 N   0  0  0  0  0
    0.4530    1.7580  -10.2430 C   0  0  0  0  0
    1.3000    0.7850  -10.7830 C   0  0  0  0  0
    2.3020    0.2350  -10.0000 C   0  0  0  0  0
    2.4510    0.6300   -8.6740 C   0  0  0  0  0
    1.6350    1.6360   -8.1560 C   0  0  0  0  0
    0.6280    2.2150   -8.9200 C   0  0  0  0  0
    3.3650   -0.0310   -7.8230 N   0  0  0  0  0
    3.1270   -0.5920   -6.6020 C   0  0  0  0  0
    2.0160   -0.6590   -6.0670 O   0  0  0  0  0
    4.3480   -1.1390   -5.9040 C   0  0  0  0  0
    4.2570   -1.9880   -4.8810 N   0  0  0  0  0
    5.5340   -2.4240   -4.6110 N   0  0  0  0  0
    6.4530   -1.8470   -5.4350 C   0  0  0  0  0
    5.7340   -1.0220   -6.3100 C   0  0  0  0  0
    6.4240   -0.3420   -7.3120 C   0  0  0  0  0
   -2.1250    0.6310  -10.4020 O   0  0  0  0  0
   -4.8630    2.9940  -12.6250 N   0  0  0  0  0
   -3.9810    3.8310  -13.2150 N   0  0  0  0  0
   -8.3260    1.9830  -12.4700 O   0  0  0  0  0
   -8.8940    2.9480  -13.3560 C   0  0  0  0  0
    8.3389    0.0298   -8.2122 H   0  0  0  0  0
   -0.0717    4.2351   -8.9247 H   0  0  0  0  0
   -1.2616    3.0393   -8.3543 H   0  0  0  0  0
    0.0978    3.5127   -7.3059 H   0  0  0  0  0
    5.3746   -3.0883   -2.6350 H   0  0  0  0  0
    5.2050   -4.3536   -3.8765 H   0  0  0  0  0
    6.8088   -3.6684   -3.5168 H   0  0  0  0  0
   -1.8353    3.9214  -12.9336 H   0  0  0  0  0
   -4.6370    0.4216  -10.3903 H   0  0  0  0  0
   -7.0503    0.3151  -10.9367 H   0  0  0  0  0
   -6.6289    3.6829  -13.5622 H   0  0  0  0  0
    8.3831   -2.6020   -4.8125 H   0  0  0  0  0
    9.5815   -1.3926   -6.6255 H   0  0  0  0  0
   -0.5049    3.0762  -11.5587 H   0  0  0  0  0
    1.1724    0.4606  -11.8158 H   0  0  0  0  0
    2.9758   -0.5095  -10.4240 H   0  0  0  0  0
    1.7900    1.9749   -7.1317 H   0  0  0  0  0
    4.3239   -0.0972   -8.1645 H   0  0  0  0  0
    5.8863    0.3030   -8.0069 H   0  0  0  0  0
   -8.6836    3.9503  -12.9827 H   0  0  0  0  0
   -8.4582    2.8294  -14.3480 H   0  0  0  0  0
   -9.9723    2.7984  -13.4112 H   0  0  0  0  0
 13  1  4  0  0  0
  1 29  4  0  0  0
  3  2  1  0  0  0
  2  6  4  0  0  0
  2  7  4  0  0  0
 14  3  1  0  0  0
  3 30  2  0  0  0
 20  4  1  0  0  0
 26  5  1  0  0  0
  6  8  4  0  0  0
  6 31  4  0  0  0
  7 32  4  0  0  0
  8  9  4  0  0  0
  9 10  4  0  0  0
 11 10  4  0  0  0
 10 33  1  0  0  0
 31 11  4  0  0  0
 12 13  4  0  0  0
 27 12  4  0  0  0
 15 14  1  0  0  0
 16 15  4  0  0  0
 20 15  4  0  0  0
 17 16  4  0  0  0
 18 17  4  0  0  0
 18 19  4  0  0  0
 21 18  1  0  0  0
 19 20  4  0  0  0
 22 21  1  0  0  0
 22 23  2  0  0  0
 24 22  1  0  0  0
 25 24  4  0  0  0
 24 28  4  0  0  0
 26 25  4  0  0  0
 26 27  4  0  0  0
 27 28  4  0  0  0
 28 29  4  0  0  0
 31 32  4  0  0  0
 33 34  1  0  0  0
  1 35  1  0  0  0
  4 36  1  0  0  0
  4 37  1  0  0  0
  4 38  1  0  0  0
  5 39  1  0  0  0
  5 40  1  0  0  0
  5 41  1  0  0  0
  7 42  1  0  0  0
  8 43  1  0  0  0
  9 44  1  0  0  0
 11 45  1  0  0  0
 12 46  1  0  0  0
 13 47  1  0  0  0
 14 48  1  0  0  0
 16 49  1  0  0  0
 17 50  1  0  0  0
 19 51  1  0  0  0
 21 52  1  0  0  0
 29 53  1  0  0  0
 34 54  1  0  0  0
 34 55  1  0  0  0
 34 56  1  0  0  0
M  END
$$$$
