3owj_ligand
  -I-interpret- 

 34 37  0  0  0  0  0  0  0  0999 V2000
   23.2250    7.5970   11.3670 C   0  0  0  0  0
   23.3960    8.4820   10.3420 O   0  0  0  0  0
   23.1890    6.2250   11.0990 C   0  0  0  0  0
   23.0130    5.2980   12.1270 C   0  0  0  0  0
   22.8730    5.7600   13.4340 C   0  0  0  0  0
   22.9110    7.1200   13.6820 C   0  0  0  0  0
   23.0840    8.0650   12.6740 C   0  0  0  0  0
   22.6900    5.1540   14.6510 N   0  0  0  0  0
   22.6040    6.0560   15.6850 C   0  0  0  0  0
   22.7390    7.3130   15.1260 C   0  0  0  0  0
   22.4210    5.9360   17.0590 C   0  0  0  0  0
   22.2750    4.5600   17.6680 C   0  0  0  0  0
   22.3800    7.0930   17.8500 C   0  0  0  0  0
   22.5210    8.3740   17.2730 C   0  0  0  0  0
   22.7040    8.4920   15.8790 C   0  0  0  0  0
   22.8640    9.8340   15.1940 C   0  0  0  0  0
   22.2020    6.9820   19.2320 C   0  0  0  0  0
   22.1610    8.1280   20.0230 C   0  0  0  0  0
   22.2930    9.3410   19.4580 N   0  0  0  0  0
   22.4700    9.4920   18.1310 C   0  0  0  0  0
   22.5930   10.7620   17.6490 O   0  0  0  0  0
   23.3981    9.3766   10.6902 H   0  0  0  0  0
   23.3000    5.8748   10.0728 H   0  0  0  0  0
   22.9855    4.2300   11.9111 H   0  0  0  0  0
   23.1084    9.1315   12.8978 H   0  0  0  0  0
   21.4077    4.0623   17.2342 H   0  0  0  0  0
   23.1717    3.9757   17.4616 H   0  0  0  0  0
   22.1407    4.6534   18.7456 H   0  0  0  0  0
   23.8302    9.8707   14.6908 H   0  0  0  0  0
   22.0667    9.9644   14.4623 H   0  0  0  0  0
   22.8098   10.6289   15.9378 H   0  0  0  0  0
   22.0953    5.9990   19.6907 H   0  0  0  0  0
   22.0218    8.0413   21.1006 H   0  0  0  0  0
   22.2581   10.1703   20.0508 H   0  0  0  0  0
  1  2  1  0  0  0
  1  3  4  0  0  0
  1  7  4  0  0  0
  3  4  4  0  0  0
  4  5  4  0  0  0
  5  6  4  0  0  0
  5  8  4  0  0  0
  6  7  4  0  0  0
  6 10  4  0  0  0
  8  9  4  0  0  0
  9 10  4  0  0  0
  9 11  4  0  0  0
 10 15  4  0  0  0
 11 12  1  0  0  0
 11 13  4  0  0  0
 13 14  4  0  0  0
 13 17  1  0  0  0
 14 15  4  0  0  0
 14 20  1  0  0  0
 15 16  1  0  0  0
 17 18  2  0  0  0
 18 19  1  0  0  0
 19 20  1  0  0  0
 20 21  2  0  0  0
  2 22  1  0  0  0
  3 23  1  0  0  0
  4 24  1  0  0  0
  7 25  1  0  0  0
 12 26  1  0  0  0
 12 27  1  0  0  0
 12 28  1  0  0  0
 16 29  1  0  0  0
 16 30  1  0  0  0
 16 31  1  0  0  0
 17 32  1  0  0  0
 18 33  1  0  0  0
 19 34  1  0  0  0
M  END
$$$$
