5yvx_ligand
  -I-interpret- 

117116  0  0  0  0  0  0  0  0999 V2000
   31.9540  104.3460   14.0510 N   0  3  0  0  0
   31.3970  104.1060   15.3760 C   0  0  0  0  0
   29.9570  103.6320   15.2530 C   0  0  0  0  0
   29.2520  104.0090   14.3100 O   0  0  0  0  0
   31.4920  105.3740   16.2310 C   0  0  0  0  0
   29.5220  102.7840   16.1790 N   0  0  0  0  0
   28.1460  102.3130   16.1740 C   0  0  0  0  0
   27.2290  103.3590   16.7960 C   0  0  0  0  0
   27.5840  103.9770   17.8050 O   0  0  0  0  0
   28.0140  100.9870   16.9320 C   0  0  0  0  0
   29.0480   99.9310   16.5450 C   0  0  0  0  0
   28.5350   98.9640   15.4760 C   0  0  0  0  0
   29.5090   97.9060   15.1900 N   0  0  0  0  0
   29.5360   96.7120   15.7850 C   0  0  0  0  0
   28.6310   96.3930   16.7130 N   0  0  0  0  0
   30.4700   95.8270   15.4480 N   0  0  0  0  0
   26.0560  103.5570   16.1940 N   0  0  0  0  0
   25.0490  104.4620   16.7450 C   0  0  0  0  0
   23.6710  103.8090   16.8140 C   0  0  0  0  0
   23.4010  102.8340   16.1050 O   0  0  0  0  0
   24.9100  105.7480   15.9140 C   0  0  0  0  0
   24.4610  105.4010   14.5930 O   0  0  0  0  0
   26.2410  106.5110   15.8380 C   0  0  0  0  0
   22.8080  104.3490   17.6710 N   0  0  0  0  0
   21.4510  103.9200   17.7550 C   0  0  0  0  0
   21.2260  103.0700   19.0110 C   0  0  0  0  0
   21.9750  101.7480   18.9440 C   0  0  0  0  0
   21.4890  100.7700   20.0430 C   0  0  0  0  0
   21.9360  101.2120   21.4340 C   0  0  0  0  0
   21.6440  100.1710   22.4130 N   0  3  0  0  0
   22.1200  100.5840   23.7130 C   0  0  0  0  0
   20.5860  105.1550   17.7830 C   0  0  0  0  0
   20.9310  106.1620   18.4380 O   0  0  0  0  0
   19.4480  105.1160   17.0940 N   0  0  0  0  0
   18.5390  106.2580   17.0970 C   0  0  0  0  0
   17.0870  105.8130   16.9670 C   0  0  0  0  0
   16.8180  104.6530   16.6730 O   0  0  0  0  0
   18.8980  107.2310   15.9720 C   0  0  0  0  0
   18.9290  106.6150   14.5820 C   0  0  0  0  0
   19.7610  107.4450   13.6070 C   0  0  0  0  0
   20.5710  106.9120   12.8490 O   0  0  0  0  0
   19.5670  108.7570   13.6360 N   0  0  0  0  0
   16.1590  106.7390   17.1840 N   0  0  0  0  0
   14.7340  106.4410   17.0320 C   0  0  0  0  0
   14.4350  106.1200   15.5740 C   0  0  0  0  0
   15.0110  106.7260   14.6720 O   0  0  0  0  0
   13.8450  107.6190   17.4870 C   0  0  0  0  0
   14.3420  108.1570   18.7200 O   0  0  0  0  0
   12.4040  107.1670   17.6770 C   0  0  0  0  0
   13.5520  105.1550   15.3390 N   0  0  0  0  0
   13.1690  104.8010   13.9760 C   0  0  0  0  0
   11.8170  105.4150   13.6200 C   0  0  0  0  0
   11.7140  106.2250   12.6970 O   0  0  0  0  0
   13.1290  103.2870   13.8070 C   0  0  0  0  0
   10.8010  105.1130   14.2480 O   0  0  0  0  0
   31.8837  103.4941   13.4945 H   0  0  0  0  0
   31.4332  105.0953   13.5952 H   0  0  0  0  0
   32.9336  104.6161   14.1391 H   0  0  0  0  0
   31.9736  103.3251   15.8718 H   0  0  0  0  0
   30.9026  106.1666   15.7699 H   0  0  0  0  0
   31.1069  105.1671   17.2295 H   0  0  0  0  0
   32.5338  105.6872   16.2996 H   0  0  0  0  0
   30.1621  102.4588   16.9035 H   0  0  0  0  0
   27.8508  102.1468   15.1380 H   0  0  0  0  0
   27.0334  100.5773   16.6900 H   0  0  0  0  0
   28.1631  101.2074   17.9890 H   0  0  0  0  0
   29.2818   99.3497   17.4369 H   0  0  0  0  0
   29.9174  100.4478   16.1385 H   0  0  0  0  0
   28.3600   99.5268   14.5591 H   0  0  0  0  0
   27.6205   98.4988   15.8439 H   0  0  0  0  0
   30.2192   98.0971   14.4832 H   0  0  0  0  0
   28.6588   95.4758   17.1584 H   0  0  0  0  0
   27.9117   97.0664   16.9767 H   0  0  0  0  0
   31.1624   96.0621   14.7369 H   0  0  0  0  0
   25.8556  103.0630   15.3244 H   0  0  0  0  0
   25.3990  104.7041   17.7485 H   0  0  0  0  0
   24.1838  106.4026   16.3959 H   0  0  0  0  0
   24.3714  106.1989   14.0668 H   0  0  0  0  0
   26.5615  106.7809   16.8442 H   0  0  0  0  0
   26.9957  105.8770   15.3727 H   0  0  0  0  0
   26.1069  107.4146   15.2433 H   0  0  0  0  0
   23.1282  105.0950   18.2886 H   0  0  0  0  0
   21.1961  103.2974   16.8974 H   0  0  0  0  0
   20.1604  102.8550   19.0914 H   0  0  0  0  0
   21.5948  103.6281   19.8716 H   0  0  0  0  0
   23.0366  101.9423   19.0969 H   0  0  0  0  0
   21.7921  101.2943   17.9699 H   0  0  0  0  0
   21.9175   99.7882   19.8415 H   0  0  0  0  0
   20.3994  100.7481   20.0244 H   0  0  0  0  0
   21.3994  102.1201   21.7088 H   0  0  0  0  0
   23.0100  101.3975   21.4208 H   0  0  0  0  0
   22.1110   99.3065   22.1392 H   0  0  0  0  0
   20.6367  100.0159   22.4536 H   0  0  0  0  0
   23.1964  100.7497   23.6686 H   0  0  0  0  0
   21.6206  101.5079   24.0047 H   0  0  0  0  0
   21.9009   99.8049   24.4431 H   0  0  0  0  0
   19.2090  104.2809   16.5593 H   0  0  0  0  0
   18.6498  106.7681   18.0539 H   0  0  0  0  0
   19.9038  107.5966   16.1787 H   0  0  0  0  0
   18.1257  108.0001   15.9602 H   0  0  0  0  0
   17.9069  106.5707   14.2059 H   0  0  0  0  0
   19.3794  105.6253   14.6577 H   0  0  0  0  0
   20.0997  109.3652   13.0141 H   0  0  0  0  0
   18.8852  109.1576   14.2802 H   0  0  0  0  0
   16.4458  107.6774   17.4624 H   0  0  0  0  0
   14.5055  105.5843   17.6660 H   0  0  0  0  0
   13.8725  108.3865   16.7135 H   0  0  0  0  0
   13.7848  108.8883   18.9964 H   0  0  0  0  0
   12.0188  106.7792   16.7339 H   0  0  0  0  0
   12.3669  106.3848   18.4352 H   0  0  0  0  0
   11.7980  108.0144   17.9975 H   0  0  0  0  0
   13.1354  104.6539   16.1237 H   0  0  0  0  0
   13.9186  105.2038   13.2949 H   0  0  0  0  0
   12.5761  106.3663   12.2990 H   0  0  0  0  0
   14.1154  102.8731   14.0164 H   0  0  0  0  0
   12.4017  102.8644   14.5002 H   0  0  0  0  0
   12.8414  103.0444   12.7840 H   0  0  0  0  0
  1  2  1  0  0  0
  2  3  1  0  0  0
  2  5  1  0  0  0
  3  4  2  0  0  0
  3  6  1  0  0  0
  6  7  1  0  0  0
  7  8  1  0  0  0
  7 10  1  0  0  0
  8  9  2  0  0  0
  8 17  1  0  0  0
 10 11  1  0  0  0
 11 12  1  0  0  0
 12 13  1  0  0  0
 13 14  1  0  0  0
 14 15  1  0  0  0
 14 16  2  0  0  0
 17 18  1  0  0  0
 18 19  1  0  0  0
 18 21  1  0  0  0
 19 20  2  0  0  0
 19 24  1  0  0  0
 21 22  1  0  0  0
 21 23  1  0  0  0
 24 25  1  0  0  0
 25 26  1  0  0  0
 25 32  1  0  0  0
 26 27  1  0  0  0
 27 28  1  0  0  0
 28 29  1  0  0  0
 29 30  1  0  0  0
 30 31  1  0  0  0
 32 33  2  0  0  0
 32 34  1  0  0  0
 34 35  1  0  0  0
 35 36  1  0  0  0
 35 38  1  0  0  0
 36 37  2  0  0  0
 36 43  1  0  0  0
 38 39  1  0  0  0
 39 40  1  0  0  0
 40 41  2  0  0  0
 40 42  1  0  0  0
 43 44  1  0  0  0
 44 45  1  0  0  0
 44 47  1  0  0  0
 45 46  2  0  0  0
 45 50  1  0  0  0
 47 48  1  0  0  0
 47 49  1  0  0  0
 50 51  1  0  0  0
 51 52  1  0  0  0
 51 54  1  0  0  0
 52 53  1  0  0  0
 52 55  2  0  0  0
  1 56  1  0  0  0
  1 57  1  0  0  0
  1 58  1  0  0  0
  2 59  1  0  0  0
  5 60  1  0  0  0
  5 61  1  0  0  0
  5 62  1  0  0  0
  6 63  1  0  0  0
  7 64  1  0  0  0
 10 65  1  0  0  0
 10 66  1  0  0  0
 11 67  1  0  0  0
 11 68  1  0  0  0
 12 69  1  0  0  0
 12 70  1  0  0  0
 13 71  1  0  0  0
 15 72  1  0  0  0
 15 73  1  0  0  0
 16 74  1  0  0  0
 17 75  1  0  0  0
 18 76  1  0  0  0
 21 77  1  0  0  0
 22 78  1  0  0  0
 23 79  1  0  0  0
 23 80  1  0  0  0
 23 81  1  0  0  0
 24 82  1  0  0  0
 25 83  1  0  0  0
 26 84  1  0  0  0
 26 85  1  0  0  0
 27 86  1  0  0  0
 27 87  1  0  0  0
 28 88  1  0  0  0
 28 89  1  0  0  0
 29 90  1  0  0  0
 29 91  1  0  0  0
 30 92  1  0  0  0
 30 93  1  0  0  0
 31 94  1  0  0  0
 31 95  1  0  0  0
 31 96  1  0  0  0
 34 97  1  0  0  0
 35 98  1  0  0  0
 38 99  1  0  0  0
 38100  1  0  0  0
 39101  1  0  0  0
 39102  1  0  0  0
 42103  1  0  0  0
 42104  1  0  0  0
 43105  1  0  0  0
 44106  1  0  0  0
 47107  1  0  0  0
 48108  1  0  0  0
 49109  1  0  0  0
 49110  1  0  0  0
 49111  1  0  0  0
 50112  1  0  0  0
 51113  1  0  0  0
 53114  1  0  0  0
 54115  1  0  0  0
 54116  1  0  0  0
 54117  1  0  0  0
M  END
$$$$
