### 
### Created by X-TOOL on Wed Jan  1 15:39:35 2020
### 

@<TRIPOS>MOLECULE
5yvx_ligand
  117   116     1     0     0
SMALL
GAST_HUCK


@<TRIPOS>ATOM
      1 N          31.9540  104.3460   14.0510 N.4       1 ALA         0.2377
      2 CA         31.3970  104.1060   15.3760 C.3       1 ALA         0.0621
      3 C          29.9570  103.6320   15.2530 C.2       1 ALA         0.2264
      4 O          29.2520  104.0090   14.3100 O.2       1 ALA        -0.3907
      5 CB         31.4920  105.3740   16.2310 C.3       1 ALA        -0.0040
      6 N          29.5220  102.7840   16.1790 N.am      1 ARG        -0.2610
      7 CA         28.1460  102.3130   16.1740 C.3       1 ARG         0.1312
      8 C          27.2290  103.3590   16.7960 C.2       1 ARG         0.2040
      9 O          27.5840  103.9770   17.8050 O.2       1 ARG        -0.3944
     10 CB         28.0140  100.9870   16.9320 C.3       1 ARG        -0.0092
     11 CG         29.0480   99.9310   16.5450 C.3       1 ARG        -0.0156
     12 CD         28.5350   98.9640   15.4760 C.3       1 ARG         0.0627
     13 NE         29.5090   97.9060   15.1900 N.pl3     1 ARG        -0.2723
     14 CZ         29.5360   96.7120   15.7850 C.cat     1 ARG         0.2882
     15 NH1        28.6310   96.3930   16.7130 N.pl3     1 ARG        -0.2849
     16 NH2        30.4700   95.8270   15.4480 N.pl3     1 ARG        -0.2849
     17 N          26.0560  103.5570   16.1940 N.am      1 THR        -0.2613
     18 CA         25.0490  104.4620   16.7450 C.3       1 THR         0.1565
     19 C          23.6710  103.8090   16.8140 C.2       1 THR         0.2065
     20 O          23.4010  102.8340   16.1050 O.2       1 THR        -0.3943
     21 CB         24.9100  105.7480   15.9140 C.3       1 THR         0.0924
     22 OG1        24.4610  105.4010   14.5930 O.3       1 THR        -0.3874
     23 CG2        26.2410  106.5110   15.8380 C.3       1 THR        -0.0346
     24 N          22.8080  104.3490   17.6710 N.am      1 MLZ        -0.2637
     25 CA         21.4510  103.9200   17.7550 C.3       1 MLZ         0.1310
     26 CB         21.2260  103.0700   19.0110 C.3       1 MLZ        -0.0122
     27 CG         21.9750  101.7480   18.9440 C.3       1 MLZ        -0.0440
     28 CD         21.4890  100.7700   20.0430 C.3       1 MLZ        -0.0124
     29 CE         21.9360  101.2120   21.4340 C.3       1 MLZ        -0.0339
     30 NZ         21.6440  100.1710   22.4130 N.4       1 MLZ         0.2248
     31 CM         22.1200  100.5840   23.7130 C.3       1 MLZ        -0.0449
     32 C          20.5860  105.1550   17.7830 C.2       1 MLZ         0.2039
     33 O          20.9310  106.1620   18.4380 O.2       1 MLZ        -0.3944
     34 N          19.4480  105.1160   17.0940 N.am      1 GLN        -0.2636
     35 CA         18.5390  106.2580   17.0970 C.3       1 GLN         0.1330
     36 C          17.0870  105.8130   16.9670 C.2       1 GLN         0.2041
     37 O          16.8180  104.6530   16.6730 O.2       1 GLN        -0.3944
     38 CB         18.8980  107.2310   15.9720 C.3       1 GLN         0.0045
     39 CG         18.9290  106.6150   14.5820 C.3       1 GLN         0.0412
     40 CD         19.7610  107.4450   13.6070 C.2       1 GLN         0.1737
     41 OE1        20.5710  106.9120   12.8490 O.2       1 GLN        -0.3973
     42 NE2        19.5670  108.7570   13.6360 N.am      1 GLN        -0.3009
     43 N          16.1590  106.7390   17.1840 N.am      1 THR        -0.2613
     44 CA         14.7340  106.4410   17.0320 C.3       1 THR         0.1564
     45 C          14.4350  106.1200   15.5740 C.2       1 THR         0.2059
     46 O          15.0110  106.7260   14.6720 O.2       1 THR        -0.3943
     47 CB         13.8450  107.6190   17.4870 C.3       1 THR         0.0924
     48 OG1        14.3420  108.1570   18.7200 O.3       1 THR        -0.3874
     49 CG2        12.4040  107.1670   17.6770 C.3       1 THR        -0.0346
     50 N          13.5520  105.1550   15.3390 N.am      1 ALA        -0.2697
     51 CA         13.1690  104.8010   13.9760 C.3       1 ALA         0.0916
     52 C          11.8170  105.4150   13.6200 C.2       1 ALA         0.0598
     53 O          11.7140  106.2250   12.6970 O.co2     1 ALA        -0.5666
     54 CB         13.1290  103.2870   13.8070 C.3       1 ALA        -0.0300
     55 OXT        10.8010  105.1130   14.2480 O.co2     1 ALA        -0.5666
     56 H1         32.9079  104.6597   14.1393 H         1 ALA         0.2015
     57 H2         31.4101  105.0525   13.5808 H         1 ALA         0.2015
     58 H3         31.9294  103.4918   13.5164 H         1 ALA         0.2015
     59 H4         31.9833  103.3141   15.8651 H         1 ALA         0.1095
     60 H5         31.0682  105.1773   17.2268 H         1 ALA         0.0310
     61 H6         30.9293  106.1857   15.7469 H         1 ALA         0.0310
     62 H7         32.5467  105.6692   16.3332 H         1 ALA         0.0310
     63 H8         30.1496  102.4652   16.8893 H         1 ARG         0.1884
     64 H9         27.8379  102.1505   15.1306 H         1 ARG         0.0800
     65 H10        27.0129  100.5763   16.7343 H         1 ARG         0.0313
     66 H11        28.1198  101.1937   18.0072 H         1 ARG         0.0313
     67 H12        29.3140   99.3537   17.4428 H         1 ARG         0.0301
     68 H13        29.9429  100.4403   16.1580 H         1 ARG         0.0301
     69 H14        28.3378   99.5265   14.5515 H         1 ARG         0.0689
     70 H15        27.6015   98.5028   15.8308 H         1 ARG         0.0689
     71 H16        30.2261   98.0989   14.4763 H         1 ARG         0.2642
     72 H17        28.6615   95.4683   17.1657 H         1 ARG         0.2615
     73 H18        27.9022   97.0715   16.9763 H         1 ARG         0.2615
     74 H19        31.1717   96.0659   14.7328 H         1 ARG         0.2615
     75 H20        30.4916   94.9028   15.9022 H         1 ARG         0.2615
     76 H21        25.8595  103.0727   15.3414 H         1 THR         0.1884
     77 H22        25.3622  104.7333   17.7640 H         1 THR         0.0826
     78 H23        24.1605  106.3981   16.3888 H         1 THR         0.0639
     79 H24        23.6203  104.9622   14.6505 H         1 THR         0.2101
     80 H25        26.1069  107.4232   15.2381 H         1 THR         0.0257
     81 H26        27.0036  105.8722   15.3685 H         1 THR         0.0257
     82 H27        26.5656  106.7841   16.8529 H         1 THR         0.0257
     83 H28        23.1219  105.0803   18.2765 H         1 MLZ         0.1883
     84 H29        21.2014  103.3175   16.8692 H         1 MLZ         0.0800
     85 H30        20.1503  102.8642   19.1129 H         1 MLZ         0.0312
     86 H31        21.5764  103.6329   19.8887 H         1 MLZ         0.0312
     87 H32        23.0497  101.9375   19.0826 H         1 MLZ         0.0269
     88 H33        21.8075  101.2907   17.9577 H         1 MLZ         0.0269
     89 H34        21.9006   99.7708   19.8377 H         1 MLZ         0.0317
     90 H35        20.3901  100.7258   20.0196 H         1 MLZ         0.0317
     91 H36        21.4011  102.1321   21.7120 H         1 MLZ         0.0814
     92 H37        23.0186  101.4064   21.4228 H         1 MLZ         0.0814
     93 H38        22.1053   99.3166   22.1424 H         1 MLZ         0.2011
     94 H39        20.6486  100.0174   22.4531 H         1 MLZ         0.2011
     95 H40        21.8994   99.7985   24.4508 H         1 MLZ         0.0777
     96 H41        21.6167  101.5163   24.0086 H         1 MLZ         0.0777
     97 H42        23.2063  100.7516   23.6695 H         1 MLZ         0.0777
     98 H43        19.2137  104.2973   16.5698 H         1 GLN         0.1883
     99 H44        18.6520  106.7825   18.0572 H         1 GLN         0.0801
    100 H45        19.8939  107.6471   16.1842 H         1 GLN         0.0337
    101 H46        18.1546  108.0417   15.9705 H         1 GLN         0.0337
    102 H47        17.8994  106.5462   14.2010 H         1 GLN         0.0504
    103 H48        19.3630  105.6065   14.6500 H         1 GLN         0.0504
    104 H49        20.0832  109.3525   13.0204 H         1 GLN         0.1814
    105 H50        18.9045  109.1505   14.2734 H         1 GLN         0.1814
    106 H51        16.4402  107.6590   17.4570 H         1 THR         0.1884
    107 H52        14.4935  105.5629   17.6493 H         1 THR         0.0826
    108 H53        13.8734  108.4027   16.7157 H         1 THR         0.0639
    109 H54        13.7906  108.8806   18.9935 H         1 THR         0.2101
    110 H55        11.7914  108.0214   18.0004 H         1 THR         0.0257
    111 H56        12.3652  106.3776   18.4420 H         1 THR         0.0257
    112 H57        12.0141  106.7755   16.7259 H         1 THR         0.0257
    113 H58        13.1436  104.6637   16.1083 H         1 ALA         0.1875
    114 H59        13.9253  105.2064   13.2878 H         1 ALA         0.0723
    115 H60        12.8389  103.0408   12.7749 H         1 ALA         0.0270
    116 H61        12.3953  102.8593   14.5060 H         1 ALA         0.0270
    117 H62        14.1240  102.8681   14.0180 H         1 ALA         0.0270
@<TRIPOS>BOND
     1    1    2 1  
     2    2    3 1  
     3    2    5 1  
     4    3    4 2  
     5    3    6 am 
     6    6    7 1  
     7    7    8 1  
     8    7   10 1  
     9    8    9 2  
    10    8   17 am 
    11   10   11 1  
    12   11   12 1  
    13   12   13 1  
    14   13   14 ar 
    15   14   15 ar 
    16   14   16 ar 
    17   17   18 1  
    18   18   19 1  
    19   18   21 1  
    20   19   20 2  
    21   19   24 am 
    22   21   22 1  
    23   21   23 1  
    24   24   25 1  
    25   25   26 1  
    26   25   32 1  
    27   26   27 1  
    28   27   28 1  
    29   28   29 1  
    30   29   30 1  
    31   30   31 1  
    32   32   33 2  
    33   32   34 am 
    34   34   35 1  
    35   35   36 1  
    36   35   38 1  
    37   36   37 2  
    38   36   43 am 
    39   38   39 1  
    40   39   40 1  
    41   40   41 2  
    42   40   42 am 
    43   43   44 1  
    44   44   45 1  
    45   44   47 1  
    46   45   46 2  
    47   45   50 am 
    48   47   48 1  
    49   47   49 1  
    50   50   51 1  
    51   51   52 1  
    52   51   54 1  
    53   52   53 ar 
    54   52   55 ar 
    55    1   56 1  
    56    1   57 1  
    57    1   58 1  
    58    2   59 1  
    59    5   60 1  
    60    5   61 1  
    61    5   62 1  
    62    6   63 1  
    63    7   64 1  
    64   10   65 1  
    65   10   66 1  
    66   11   67 1  
    67   11   68 1  
    68   12   69 1  
    69   12   70 1  
    70   13   71 1  
    71   15   72 1  
    72   15   73 1  
    73   16   74 1  
    74   16   75 1  
    75   17   76 1  
    76   18   77 1  
    77   21   78 1  
    78   22   79 1  
    79   23   80 1  
    80   23   81 1  
    81   23   82 1  
    82   24   83 1  
    83   25   84 1  
    84   26   85 1  
    85   26   86 1  
    86   27   87 1  
    87   27   88 1  
    88   28   89 1  
    89   28   90 1  
    90   29   91 1  
    91   29   92 1  
    92   30   93 1  
    93   30   94 1  
    94   31   95 1  
    95   31   96 1  
    96   31   97 1  
    97   34   98 1  
    98   35   99 1  
    99   38  100 1  
   100   38  101 1  
   101   39  102 1  
   102   39  103 1  
   103   42  104 1  
   104   42  105 1  
   105   43  106 1  
   106   44  107 1  
   107   47  108 1  
   108   48  109 1  
   109   49  110 1  
   110   49  111 1  
   111   49  112 1  
   112   50  113 1  
   113   51  114 1  
   114   54  115 1  
   115   54  116 1  
   116   54  117 1  
@<TRIPOS>SUBSTRUCTURE
     1 ALA         1

