### 
### Created by X-TOOL on Mon Sep 10 21:13:23 2018
### 

@<TRIPOS>MOLECULE
4raq_ligand
   45    46     1     0     0
SMALL
GAST_HUCK


@<TRIPOS>ATOM
      1 OAF        61.5030   -2.7400    5.6570 O.co2     1 3L8        -0.5607
      2 PBA        61.8140   -3.0390    4.1460 P.3       1 3L8         0.0846
      3 OAG        62.2450   -1.7080    3.4310 O.co2     1 3L8        -0.5607
      4 OAC        60.6070   -3.6460    3.4860 O.co2     1 3L8        -0.5607
      5 CAP        63.2300   -4.2200    3.9940 C.3       1 3L8         0.1179
      6 OAT        63.6290   -4.5470    2.6890 O.3       1 3L8        -0.3573
      7 CAJ        64.9590   -4.3260    2.3080 C.3       1 3L8         0.0893
      8 CAK        65.6660   -5.5320    1.7580 C.3       1 3L8        -0.0077
      9 NAX        66.4900   -5.3880    0.5700 N.4       1 3L8         0.2398
     10 CAM        66.9370   -6.7010    0.1130 C.3       1 3L8        -0.0164
     11 CAO        66.6590   -7.1890   -1.2820 C.3       1 3L8         0.0596
     12 PAZ        67.7130   -8.5900   -1.8320 P.3       1 3L8         0.0628
     13 OAD        67.9850   -9.5810   -0.6660 O.co2     1 3L8        -0.5621
     14 OAE        67.0090   -9.3920   -2.9720 O.co2     1 3L8        -0.5621
     15 OAB        69.0130   -8.0280   -2.3200 O.co2     1 3L8        -0.5621
     16 CAL        65.7990   -4.6080   -0.4670 C.3       1 3L8        -0.0032
     17 CAN        66.3640   -3.1920   -0.6300 C.3       1 3L8         0.0993
     18 N9         66.3830   -2.6160   -1.9830 N.pl3     1 3L8        -0.2286
     19 C4         65.6110   -1.5240   -2.3660 C.2       1 3L8         0.1335
     20 N3         64.6980   -0.7650   -1.6640 N.2       1 3L8        -0.2684
     21 C2         64.0760    0.2340   -2.3050 C.2       1 3L8         0.1273
     22 N1         64.3350    0.4980   -3.6050 N.am      1 3L8        -0.2042
     23 C6         65.2100   -0.2080   -4.3420 C.2       1 3L8         0.2200
     24 O6         65.4410    0.1090   -5.6480 O.2       1 3L8        -0.4066
     25 C5         65.8990   -1.2770   -3.6940 C.2       1 3L8         0.1043
     26 N7         66.8450   -2.2040   -4.0980 N.2       1 3L8        -0.3156
     27 C8         67.1230   -3.0060   -3.0360 C.2       1 3L8         0.0981
     28 H1         62.9439   -5.1534    4.5008 H         1 3L8         0.0753
     29 H2         64.0949   -3.7743    4.5072 H         1 3L8         0.0753
     30 H3         65.5144   -3.9771    3.1911 H         1 3L8         0.0614
     31 H4         64.9680   -3.5425    1.5359 H         1 3L8         0.0614
     32 H5         64.8934   -6.2795    1.5249 H         1 3L8         0.0837
     33 H6         66.3177   -5.9151    2.5570 H         1 3L8         0.0837
     34 H7         67.3128   -4.8668    0.8298 H         1 3L8         0.2036
     35 H8         66.4838   -7.4364    0.7940 H         1 3L8         0.0828
     36 H9         68.0303   -6.7148    0.2334 H         1 3L8         0.0828
     37 H10        66.8157   -6.3499   -1.9758 H         1 3L8         0.0504
     38 H11        65.6086   -7.5121   -1.3286 H         1 3L8         0.0504
     39 H12        64.7353   -4.5317   -0.1974 H         1 3L8         0.0842
     40 H13        65.8970   -5.1367   -1.4266 H         1 3L8         0.0842
     41 H14        67.4016   -3.2081   -0.2651 H         1 3L8         0.0672
     42 H15        65.7628   -2.5233    0.0035 H         1 3L8         0.0672
     43 H16        63.3496    0.8434   -1.7694 H         1 3L8         0.1493
     44 H17        63.8512    1.2570   -4.0407 H         1 3L8         0.2557
     45 H18        67.8320   -3.8326   -3.0377 H         1 3L8         0.1212
@<TRIPOS>BOND
     1    1    2 ar 
     2    2    3 ar 
     3    2    4 ar 
     4    2    5 1  
     5    5    6 1  
     6    6    7 1  
     7    7    8 1  
     8    8    9 1  
     9    9   10 1  
    10    9   16 1  
    11   10   11 1  
    12   11   12 1  
    13   12   13 ar 
    14   12   14 ar 
    15   12   15 ar 
    16   16   17 1  
    17   17   18 1  
    18   18   19 1  
    19   18   27 1  
    20   19   20 1  
    21   19   25 2  
    22   20   21 2  
    23   21   22 am 
    24   22   23 am 
    25   23   24 2  
    26   23   25 1  
    27   25   26 1  
    28   26   27 2  
    29    5   28 1  
    30    5   29 1  
    31    7   30 1  
    32    7   31 1  
    33    8   32 1  
    34    8   33 1  
    35    9   34 1  
    36   10   35 1  
    37   10   36 1  
    38   11   37 1  
    39   11   38 1  
    40   16   39 1  
    41   16   40 1  
    42   17   41 1  
    43   17   42 1  
    44   21   43 1  
    45   22   44 1  
    46   27   45 1  
@<TRIPOS>SUBSTRUCTURE
     1 3L8         1

