4raq_ligand
  -I-interpret- 

 49 50  0  0  0  0  0  0  0  0999 V2000
   61.5030   -2.7400    5.6570 O   0  0  0  0  0
   61.8140   -3.0390    4.1460 P   0  0  0  0  0
   62.2450   -1.7080    3.4310 O   0  0  0  0  0
   60.6070   -3.6460    3.4860 O   0  0  0  0  0
   63.2300   -4.2200    3.9940 C   0  0  0  0  0
   63.6290   -4.5470    2.6890 O   0  0  0  0  0
   64.9590   -4.3260    2.3080 C   0  0  0  0  0
   65.6660   -5.5320    1.7580 C   0  0  0  0  0
   66.4900   -5.3880    0.5700 N   0  3  0  0  0
   66.9370   -6.7010    0.1130 C   0  0  0  0  0
   66.6590   -7.1890   -1.2820 C   0  0  0  0  0
   67.7130   -8.5900   -1.8320 P   0  0  0  0  0
   67.9850   -9.5810   -0.6660 O   0  0  0  0  0
   67.0090   -9.3920   -2.9720 O   0  0  0  0  0
   69.0130   -8.0280   -2.3200 O   0  0  0  0  0
   65.7990   -4.6080   -0.4670 C   0  0  0  0  0
   66.3640   -3.1920   -0.6300 C   0  0  0  0  0
   66.3830   -2.6160   -1.9830 N   0  0  0  0  0
   65.6110   -1.5240   -2.3660 C   0  0  0  0  0
   64.6980   -0.7650   -1.6640 N   0  0  0  0  0
   64.0760    0.2340   -2.3050 C   0  0  0  0  0
   64.3350    0.4980   -3.6050 N   0  0  0  0  0
   65.2100   -0.2080   -4.3420 C   0  0  0  0  0
   65.4410    0.1090   -5.6480 O   0  0  0  0  0
   65.8990   -1.2770   -3.6940 C   0  0  0  0  0
   66.8450   -2.2040   -4.0980 N   0  0  0  0  0
   67.1230   -3.0060   -3.0360 C   0  0  0  0  0
   62.2776   -2.3529    6.0715 H   0  0  0  0  0
   63.0158   -1.3440    3.8726 H   0  0  0  0  0
   62.8990   -5.1517    4.4528 H   0  0  0  0  0
   64.0853   -3.7301    4.4593 H   0  0  0  0  0
   65.4992   -4.0247    3.2055 H   0  0  0  0  0
   64.9406   -3.5804    1.5132 H   0  0  0  0  0
   64.8682   -6.2141    1.4641 H   0  0  0  0  0
   66.3586   -5.8329    2.5440 H   0  0  0  0  0
   67.3272   -4.8525    0.7998 H   0  0  0  0  0
   66.3850   -7.3966    0.7451 H   0  0  0  0  0
   68.0241   -6.6317    0.1509 H   0  0  0  0  0
   66.8626   -6.3563   -1.9552 H   0  0  0  0  0
   65.6286   -7.5444   -1.2937 H   0  0  0  0  0
   67.1521   -9.9414   -0.3530 H   0  0  0  0  0
   66.1783   -9.7463   -2.6465 H   0  0  0  0  0
   64.7539   -4.5159   -0.1713 H   0  0  0  0  0
   65.9301   -5.1284   -1.4157 H   0  0  0  0  0
   67.4087   -3.2577   -0.3260 H   0  0  0  0  0
   65.7069   -2.5466   -0.0471 H   0  0  0  0  0
   63.3489    0.8440   -1.7689 H   0  0  0  0  0
   63.8415    1.2722   -4.0494 H   0  0  0  0  0
   67.8327   -3.8333   -3.0377 H   0  0  0  0  0
  1  2  1  0  0  0
  2  3  1  0  0  0
  2  4  2  0  0  0
  2  5  1  0  0  0
  5  6  1  0  0  0
  6  7  1  0  0  0
  7  8  1  0  0  0
  8  9  1  0  0  0
  9 10  1  0  0  0
  9 16  1  0  0  0
 10 11  1  0  0  0
 11 12  1  0  0  0
 12 13  1  0  0  0
 12 14  1  0  0  0
 12 15  2  0  0  0
 16 17  1  0  0  0
 17 18  1  0  0  0
 18 19  4  0  0  0
 18 27  4  0  0  0
 19 20  1  0  0  0
 19 25  4  0  0  0
 20 21  2  0  0  0
 21 22  1  0  0  0
 22 23  1  0  0  0
 23 24  2  0  0  0
 23 25  1  0  0  0
 25 26  4  0  0  0
 26 27  4  0  0  0
  1 28  1  0  0  0
  3 29  1  0  0  0
  5 30  1  0  0  0
  5 31  1  0  0  0
  7 32  1  0  0  0
  7 33  1  0  0  0
  8 34  1  0  0  0
  8 35  1  0  0  0
  9 36  1  0  0  0
 10 37  1  0  0  0
 10 38  1  0  0  0
 11 39  1  0  0  0
 11 40  1  0  0  0
 13 41  1  0  0  0
 14 42  1  0  0  0
 16 43  1  0  0  0
 16 44  1  0  0  0
 17 45  1  0  0  0
 17 46  1  0  0  0
 21 47  1  0  0  0
 22 48  1  0  0  0
 27 49  1  0  0  0
M  END
$$$$
