1ejn_ligand
  -I-interpret- 

 52 55  0  0  0  0  0  0  0  0999 V2000
   22.6160   11.2980   27.0970 C   0  0  0  0  0
   22.7960   12.7650   27.5790 C   0  0  0  0  0
   23.9920   10.5490   27.1350 C   0  0  0  0  0
   21.6000   10.5700   28.0280 C   0  0  0  0  0
   22.3300   12.0400   29.9730 C   0  0  0  0  0
   23.3450   12.7570   29.0310 C   0  0  0  0  0
   22.1400   10.5700   29.4910 C   0  0  0  0  0
   24.7070   12.0000   29.0690 C   0  0  0  0  0
   23.5050    9.8130   29.5460 C   0  0  0  0  0
   24.5380   10.5130   28.6040 C   0  0  0  0  0
   27.2030    8.0200   29.0940 N   0  0  0  0  0
   26.0830    8.5320   28.5490 C   0  0  0  0  0
   25.8560    9.8630   28.7070 N   0  0  0  0  0
   25.3160    7.7840   27.9360 O   0  0  0  0  0
   27.5820    6.6420   28.8350 C   0  0  0  0  0
   29.7790    5.4990   29.3810 C   0  0  0  0  0
   29.0900    6.4880   28.6600 C   0  0  0  0  0
   29.7990    7.3260   27.7680 C   0  0  0  0  0
   31.1620    7.0740   27.5100 C   0  0  0  0  0
   31.7920    5.9960   28.1480 C   0  0  0  0  0
   31.1050    5.2080   29.0770 C   0  0  0  0  0
   33.1960    5.8990   27.6390 N   0  0  0  0  0
   33.2340    3.4270   27.5260 N   0  0  0  0  0
   33.5800    4.6700   27.5130 C   0  0  0  0  0
   34.8510    4.8760   27.2810 N   0  0  0  0  0
   22.2404   11.2996   26.0737 H   0  0  0  0  0
   21.8362   13.2808   27.5521 H   0  0  0  0  0
   23.4966   13.2834   26.9243 H   0  0  0  0  0
   24.7050   11.0734   26.4987 H   0  0  0  0  0
   23.8565    9.5287   26.7763 H   0  0  0  0  0
   21.4701    9.5421   27.6894 H   0  0  0  0  0
   20.6419   11.0888   27.9951 H   0  0  0  0  0
   21.3732   12.5616   29.9470 H   0  0  0  0  0
   22.7102   12.0453   30.9945 H   0  0  0  0  0
   23.4878   13.7843   29.3663 H   0  0  0  0  0
   21.4264   10.0664   30.1431 H   0  0  0  0  0
   25.0810   12.0053   30.0928 H   0  0  0  0  0
   25.4030   12.4996   28.3952 H   0  0  0  0  0
   23.8832    9.8262   30.5682 H   0  0  0  0  0
   23.3593    8.7835   29.2189 H   0  0  0  0  0
   27.7884    8.6032   29.6920 H   0  0  0  0  0
   26.6594   10.4568   28.9125 H   0  0  0  0  0
   27.0971    6.3225   27.9126 H   0  0  0  0  0
   27.2741    6.0374   29.6881 H   0  0  0  0  0
   29.2734    4.9580   30.1809 H   0  0  0  0  0
   29.2946    8.1617   27.2829 H   0  0  0  0  0
   31.7196    7.7099   26.8224 H   0  0  0  0  0
   31.6063    4.3696   29.5607 H   0  0  0  0  0
   33.7802    6.7053   27.4179 H   0  0  0  0  0
   32.2626    3.1698   27.7008 H   0  0  0  0  0
   35.4765    4.0847   27.1291 H   0  0  0  0  0
   35.2164    5.8279   27.2520 H   0  0  0  0  0
  1  4  1  0  0  0
  1  3  1  0  0  0
  1  2  1  0  0  0
  2  6  1  0  0  0
  6  5  1  0  0  0
  6  8  1  0  0  0
  8 10  1  0  0  0
 10 13  1  0  0  0
 10  9  1  0  0  0
 10  3  1  0  0  0
  9  7  1  0  0  0
  7  5  1  0  0  0
  7  4  1  0  0  0
 13 12  1  0  0  0
 12 14  2  0  0  0
 12 11  1  0  0  0
 11 15  1  0  0  0
 15 17  1  0  0  0
 17 16  4  0  0  0
 17 18  4  0  0  0
 18 19  4  0  0  0
 19 20  4  0  0  0
 20 22  1  0  0  0
 20 21  4  0  0  0
 21 16  4  0  0  0
 22 24  1  0  0  0
 24 23  2  0  0  0
 24 25  1  0  0  0
  1 26  1  0  0  0
  2 27  1  0  0  0
  2 28  1  0  0  0
  3 29  1  0  0  0
  3 30  1  0  0  0
  4 31  1  0  0  0
  4 32  1  0  0  0
  5 33  1  0  0  0
  5 34  1  0  0  0
  6 35  1  0  0  0
  7 36  1  0  0  0
  8 37  1  0  0  0
  8 38  1  0  0  0
  9 39  1  0  0  0
  9 40  1  0  0  0
 11 41  1  0  0  0
 13 42  1  0  0  0
 15 43  1  0  0  0
 15 44  1  0  0  0
 16 45  1  0  0  0
 18 46  1  0  0  0
 19 47  1  0  0  0
 21 48  1  0  0  0
 22 49  1  0  0  0
 23 50  1  0  0  0
 25 51  1  0  0  0
 25 52  1  0  0  0
M  END
$$$$
