### 
### Created by X-TOOL on Mon Sep 10 21:13:34 2018
### 

@<TRIPOS>MOLECULE
5vwk_ligand
  125   127     1     0     0
SMALL
GAST_HUCK


@<TRIPOS>ATOM
      1 N           7.2090  -28.4750  -30.8190 N.4       1 PRO         0.2461
      2 CA          6.4020  -27.4000  -30.2380 C.3       1 PRO         0.0669
      3 C           5.8140  -26.4890  -31.2990 C.2       1 PRO         0.2268
      4 O           6.2120  -26.5410  -32.4660 O.2       1 PRO        -0.3907
      5 CB          7.4030  -26.6350  -29.3580 C.3       1 PRO         0.0127
      6 CG          8.5990  -27.4890  -29.2600 C.3       1 PRO        -0.0053
      7 CD          8.6340  -28.2840  -30.5240 C.3       1 PRO        -0.0313
      8 N           4.8550  -25.6670  -30.8920 N.am      1 ALA        -0.2613
      9 CA          4.4330  -24.5770  -31.7480 C.3       1 ALA         0.1283
     10 C           5.6160  -23.6490  -31.9950 C.2       1 ALA         0.2037
     11 O           6.5950  -23.6340  -31.2430 O.2       1 ALA        -0.3944
     12 CB          3.2850  -23.8020  -31.1070 C.3       1 ALA        -0.0244
     13 N           5.5300  -22.8700  -33.0650 N.am      1 TRP        -0.2627
     14 CA          6.5470  -21.8520  -33.2730 C.3       1 TRP         0.1352
     15 C           6.4330  -20.7760  -32.1980 C.2       1 TRP         0.2052
     16 O           5.3600  -20.5370  -31.6380 O.2       1 TRP        -0.3942
     17 CB          6.4430  -21.2330  -34.6710 C.3       1 TRP         0.0042
     18 CG          5.0550  -21.0400  -35.2290 C.2       1 TRP        -0.0418
     19 CD1         4.3970  -21.8720  -36.0960 C.2       1 TRP         0.0167
     20 CD2         4.1700  -19.9380  -34.9850 C.ar      1 TRP        -0.0214
     21 NE1         3.1610  -21.3570  -36.4000 N.pl3     1 TRP        -0.2890
     22 CE2         2.9960  -20.1720  -35.7330 C.ar      1 TRP         0.0603
     23 CE3         4.2560  -18.7780  -34.2100 C.ar      1 TRP        -0.0747
     24 CZ2         1.9170  -19.2940  -35.7220 C.ar      1 TRP        -0.0443
     25 CZ3         3.1800  -17.9030  -34.2030 C.ar      1 TRP        -0.0792
     26 CH2         2.0270  -18.1670  -34.9530 C.ar      1 TRP        -0.0768
     27 N           7.5670  -20.1530  -31.8850 N.am      1 ASP        -0.2621
     28 CA          7.6130  -19.0790  -30.9020 C.3       1 ASP         0.1423
     29 C           7.0480  -17.7860  -31.4760 C.2       1 ASP         0.2056
     30 O           7.1620  -17.5060  -32.6720 O.2       1 ASP        -0.3943
     31 CB          9.0480  -18.8260  -30.4350 C.3       1 ASP         0.0406
     32 CG          9.5140  -19.8290  -29.4020 C.2       1 ASP         0.0393
     33 OD1        10.6940  -20.2320  -29.4640 O.co2     1 ASP        -0.5688
     34 OD2         8.7070  -20.2050  -28.5250 O.co2     1 ASP        -0.5688
     35 N           6.4440  -16.9890  -30.5990 N.am      1 GLU        -0.2635
     36 CA          5.9030  -15.6920  -30.9720 C.3       1 GLU         0.1325
     37 C           6.2570  -14.6820  -29.8930 C.2       1 GLU         0.2041
     38 O           6.0650  -14.9500  -28.7030 O.2       1 GLU        -0.3944
     39 CB          4.3840  -15.7560  -31.1600 C.3       1 GLU        -0.0008
     40 CG          3.7710  -14.4300  -31.5480 C.3       1 GLU         0.0044
     41 CD          2.3020  -14.5470  -31.8760 C.2       1 GLU         0.0350
     42 OE1         1.9360  -14.4090  -33.0650 O.co2     1 GLU        -0.5690
     43 OE2         1.5180  -14.7820  -30.9360 O.co2     1 GLU        -0.5690
     44 N           6.7760  -13.5310  -30.3110 N.am      1 THR        -0.2613
     45 CA          7.1160  -12.4480  -29.3990 C.3       1 THR         0.1565
     46 C           6.4580  -11.1670  -29.8880 C.2       1 THR         0.2066
     47 O           6.5220  -10.8490  -31.0790 O.2       1 THR        -0.3943
     48 CB          8.6360  -12.2720  -29.2990 C.3       1 THR         0.0924
     49 OG1         9.2410  -13.5220  -28.9440 O.3       1 THR        -0.3874
     50 CG2         8.9940  -11.2160  -28.2540 C.3       1 THR        -0.0346
     51 N           5.8240  -10.4440  -28.9720 N.am      1 ASN        -0.2615
     52 CA          5.2080   -9.1640  -29.2910 C.3       1 ASN         0.1475
     53 C           6.2340   -8.0460  -29.1930 C.2       1 ASN         0.2057
     54 O           7.0320   -7.9940  -28.2520 O.2       1 ASN        -0.3942
     55 CB          4.0370   -8.8700  -28.3510 C.3       1 ASN         0.0773
     56 CG          3.0020   -9.9750  -28.3520 C.2       1 ASN         0.1780
     57 OD1         2.9420  -10.7860  -29.2790 O.2       1 ASN        -0.3970
     58 ND2         2.1720  -10.0110  -27.3170 N.am      1 ASN        -0.3007
     59 N           6.1950   -7.1460  -30.1670 N.am      1 LEU        -0.2693
     60 CA          7.1040   -6.0080  -30.2010 C.3       1 LEU         0.0946
     61 C           6.3610   -4.6990  -30.4230 C.2       1 LEU         0.0601
     62 O           6.9630   -3.6260  -30.3970 O.co2     1 LEU        -0.5666
     63 CB          8.1400   -6.1980  -31.3030 C.3       1 LEU        -0.0156
     64 CG          8.9260   -7.5040  -31.2370 C.3       1 LEU        -0.0431
     65 CD1         9.6200   -7.7740  -32.5610 C.3       1 LEU        -0.0625
     66 CD2         9.9320   -7.4410  -30.1050 C.3       1 LEU        -0.0625
     67 OXT         5.1490   -4.6790  -30.6490 O.co2     1 LEU        -0.5666
     68 H1          7.0777  -28.4820  -31.8184 H         1 PRO         0.2035
     69 H2          6.9085  -29.3570  -30.4344 H         1 PRO         0.2035
     70 H3          5.5860  -27.8167  -29.6294 H         1 PRO         0.1099
     71 H4          6.9767  -26.4596  -28.3593 H         1 PRO         0.0347
     72 H5          7.6596  -25.6710  -29.8216 H         1 PRO         0.0347
     73 H6          8.5229  -28.1568  -28.3892 H         1 PRO         0.0320
     74 H7          9.5048  -26.8714  -29.1705 H         1 PRO         0.0320
     75 H8          9.1356  -27.7278  -31.3296 H         1 PRO         0.0814
     76 H9          9.1414  -29.2482  -30.3731 H         1 PRO         0.0814
     77 H10         4.4256  -25.7993  -29.9986 H         1 ALA         0.1884
     78 H11         4.0906  -24.9882  -32.7091 H         1 ALA         0.0797
     79 H12         2.9807  -22.9805  -31.7723 H         1 ALA         0.0277
     80 H13         3.6148  -23.3893  -30.1422 H         1 ALA         0.0277
     81 H14         2.4321  -24.4775  -30.9447 H         1 ALA         0.0277
     82 H15         4.7796  -22.9808  -33.7166 H         1 TRP         0.1884
     83 H16         7.5343  -22.3287  -33.1834 H         1 TRP         0.0815
     84 H17         6.9927  -21.8854  -35.3653 H         1 TRP         0.0397
     85 H18         6.9269  -20.2458  -34.6345 H         1 TRP         0.0397
     86 H19         4.7964  -22.8065  -36.4874 H         1 TRP         0.0795
     87 H20         2.4697  -21.7914  -37.0280 H         1 TRP         0.2216
     88 H21         5.1449  -18.5667  -33.6267 H         1 TRP         0.0540
     89 H22         1.0227  -19.4948  -36.3007 H         1 TRP         0.0541
     90 H23         3.2323  -16.9992  -33.6068 H         1 TRP         0.0510
     91 H24         1.2032  -17.4630  -34.9238 H         1 TRP         0.0530
     92 H25         8.4136  -20.4309  -32.3388 H         1 ASP         0.1884
     93 H26         7.0053  -19.3768  -30.0348 H         1 ASP         0.0819
     94 H27         9.1024  -17.8187  -29.9963 H         1 ASP         0.0478
     95 H28         9.7165  -18.8830  -31.3067 H         1 ASP         0.0478
     96 H29         6.3590  -17.2924  -29.6499 H         1 GLU         0.1883
     97 H30         6.3600  -15.3770  -31.9217 H         1 GLU         0.0801
     98 H31         3.9292  -16.0871  -30.2147 H         1 GLU         0.0330
     99 H32         4.1609  -16.4878  -31.9503 H         1 GLU         0.0330
    100 H33         4.2998  -14.0416  -32.4308 H         1 GLU         0.0433
    101 H34         3.8906  -13.7273  -30.7103 H         1 GLU         0.0433
    102 H35         6.9390  -13.4045  -31.2895 H         1 THR         0.1884
    103 H36         6.7262  -12.6897  -28.3992 H         1 THR         0.0826
    104 H37         9.0220  -11.9495  -30.2773 H         1 THR         0.0639
    105 H38         9.0403  -14.1699  -29.6092 H         1 THR         0.2101
    106 H39        10.0874  -11.1084  -28.2012 H         1 THR         0.0257
    107 H40         8.6083  -11.5266  -27.2718 H         1 THR         0.0257
    108 H41         8.5441  -10.2529  -28.5368 H         1 THR         0.0257
    109 H42         5.7680  -10.7891  -28.0351 H         1 ASN         0.1885
    110 H43         4.8284   -9.2067  -30.3225 H         1 ASN         0.0826
    111 H44         3.5546   -7.9344  -28.6702 H         1 ASN         0.0551
    112 H45         4.4260   -8.7519  -27.3289 H         1 ASN         0.0551
    113 H46         1.4680  -10.7193  -27.2650 H         1 ASN         0.1814
    114 H47         2.2506   -9.3298  -26.5891 H         1 ASN         0.1814
    115 H48         5.5221   -7.2518  -30.8991 H         1 LEU         0.1875
    116 H49         7.6238   -5.9525  -29.2332 H         1 LEU         0.0726
    117 H50         8.8570   -5.3659  -31.2433 H         1 LEU         0.0308
    118 H51         7.6179   -6.1635  -32.2706 H         1 LEU         0.0308
    119 H52         8.2244   -8.3273  -31.0372 H         1 LEU         0.0297
    120 H53        10.1809   -8.7180  -32.4951 H         1 LEU         0.0232
    121 H54        10.3135   -6.9504  -32.7862 H         1 LEU         0.0232
    122 H55         8.8682   -7.8493  -33.3604 H         1 LEU         0.0232
    123 H56         9.4070   -7.2449  -29.1584 H         1 LEU         0.0232
    124 H57        10.6522   -6.6325  -30.2991 H         1 LEU         0.0232
    125 H58        10.4668   -8.3998  -30.0359 H         1 LEU         0.0232
@<TRIPOS>BOND
     1    1    2 1  
     2    1    7 1  
     3    2    3 1  
     4    2    5 1  
     5    3    4 2  
     6    3    8 am 
     7    5    6 1  
     8    6    7 1  
     9    8    9 1  
    10    9   10 1  
    11    9   12 1  
    12   10   11 2  
    13   10   13 am 
    14   13   14 1  
    15   14   15 1  
    16   14   17 1  
    17   15   16 2  
    18   15   27 am 
    19   17   18 1  
    20   18   19 2  
    21   18   20 1  
    22   19   21 1  
    23   20   22 ar 
    24   20   23 ar 
    25   21   22 1  
    26   22   24 ar 
    27   23   25 ar 
    28   24   26 ar 
    29   25   26 ar 
    30   27   28 1  
    31   28   29 1  
    32   28   31 1  
    33   29   30 2  
    34   29   35 am 
    35   31   32 1  
    36   32   33 ar 
    37   32   34 ar 
    38   35   36 1  
    39   36   37 1  
    40   36   39 1  
    41   37   38 2  
    42   37   44 am 
    43   39   40 1  
    44   40   41 1  
    45   41   42 ar 
    46   41   43 ar 
    47   44   45 1  
    48   45   46 1  
    49   45   48 1  
    50   46   47 2  
    51   46   51 am 
    52   48   49 1  
    53   48   50 1  
    54   51   52 1  
    55   52   53 1  
    56   52   55 1  
    57   53   54 2  
    58   53   59 am 
    59   55   56 1  
    60   56   57 2  
    61   56   58 am 
    62   59   60 1  
    63   60   61 1  
    64   60   63 1  
    65   61   62 ar 
    66   61   67 ar 
    67   63   64 1  
    68   64   65 1  
    69   64   66 1  
    70    1   68 1  
    71    1   69 1  
    72    2   70 1  
    73    5   71 1  
    74    5   72 1  
    75    6   73 1  
    76    6   74 1  
    77    7   75 1  
    78    7   76 1  
    79    8   77 1  
    80    9   78 1  
    81   12   79 1  
    82   12   80 1  
    83   12   81 1  
    84   13   82 1  
    85   14   83 1  
    86   17   84 1  
    87   17   85 1  
    88   19   86 1  
    89   21   87 1  
    90   23   88 1  
    91   24   89 1  
    92   25   90 1  
    93   26   91 1  
    94   27   92 1  
    95   28   93 1  
    96   31   94 1  
    97   31   95 1  
    98   35   96 1  
    99   36   97 1  
   100   39   98 1  
   101   39   99 1  
   102   40  100 1  
   103   40  101 1  
   104   44  102 1  
   105   45  103 1  
   106   48  104 1  
   107   49  105 1  
   108   50  106 1  
   109   50  107 1  
   110   50  108 1  
   111   51  109 1  
   112   52  110 1  
   113   55  111 1  
   114   55  112 1  
   115   58  113 1  
   116   58  114 1  
   117   59  115 1  
   118   60  116 1  
   119   63  117 1  
   120   63  118 1  
   121   64  119 1  
   122   65  120 1  
   123   65  121 1  
   124   65  122 1  
   125   66  123 1  
   126   66  124 1  
   127   66  125 1  
@<TRIPOS>SUBSTRUCTURE
     1 PRO         1

