5vwk_ligand
  -I-interpret- 

127129  0  0  0  0  0  0  0  0999 V2000
    7.2090  -28.4750  -30.8190 N   0  3  0  0  0
    6.4020  -27.4000  -30.2380 C   0  0  0  0  0
    5.8140  -26.4890  -31.2990 C   0  0  0  0  0
    6.2120  -26.5410  -32.4660 O   0  0  0  0  0
    7.4030  -26.6350  -29.3580 C   0  0  0  0  0
    8.5990  -27.4890  -29.2600 C   0  0  0  0  0
    8.6340  -28.2840  -30.5240 C   0  0  0  0  0
    4.8550  -25.6670  -30.8920 N   0  0  0  0  0
    4.4330  -24.5770  -31.7480 C   0  0  0  0  0
    5.6160  -23.6490  -31.9950 C   0  0  0  0  0
    6.5950  -23.6340  -31.2430 O   0  0  0  0  0
    3.2850  -23.8020  -31.1070 C   0  0  0  0  0
    5.5300  -22.8700  -33.0650 N   0  0  0  0  0
    6.5470  -21.8520  -33.2730 C   0  0  0  0  0
    6.4330  -20.7760  -32.1980 C   0  0  0  0  0
    5.3600  -20.5370  -31.6380 O   0  0  0  0  0
    6.4430  -21.2330  -34.6710 C   0  0  0  0  0
    5.0550  -21.0400  -35.2290 C   0  0  0  0  0
    4.3970  -21.8720  -36.0960 C   0  0  0  0  0
    4.1700  -19.9380  -34.9850 C   0  0  0  0  0
    3.1610  -21.3570  -36.4000 N   0  0  0  0  0
    2.9960  -20.1720  -35.7330 C   0  0  0  0  0
    4.2560  -18.7780  -34.2100 C   0  0  0  0  0
    1.9170  -19.2940  -35.7220 C   0  0  0  0  0
    3.1800  -17.9030  -34.2030 C   0  0  0  0  0
    2.0270  -18.1670  -34.9530 C   0  0  0  0  0
    7.5670  -20.1530  -31.8850 N   0  0  0  0  0
    7.6130  -19.0790  -30.9020 C   0  0  0  0  0
    7.0480  -17.7860  -31.4760 C   0  0  0  0  0
    7.1620  -17.5060  -32.6720 O   0  0  0  0  0
    9.0480  -18.8260  -30.4350 C   0  0  0  0  0
    9.5140  -19.8290  -29.4020 C   0  0  0  0  0
   10.6940  -20.2320  -29.4640 O   0  0  0  0  0
    8.7070  -20.2050  -28.5250 O   0  0  0  0  0
    6.4440  -16.9890  -30.5990 N   0  0  0  0  0
    5.9030  -15.6920  -30.9720 C   0  0  0  0  0
    6.2570  -14.6820  -29.8930 C   0  0  0  0  0
    6.0650  -14.9500  -28.7030 O   0  0  0  0  0
    4.3840  -15.7560  -31.1600 C   0  0  0  0  0
    3.7710  -14.4300  -31.5480 C   0  0  0  0  0
    2.3020  -14.5470  -31.8760 C   0  0  0  0  0
    1.9360  -14.4090  -33.0650 O   0  0  0  0  0
    1.5180  -14.7820  -30.9360 O   0  0  0  0  0
    6.7760  -13.5310  -30.3110 N   0  0  0  0  0
    7.1160  -12.4480  -29.3990 C   0  0  0  0  0
    6.4580  -11.1670  -29.8880 C   0  0  0  0  0
    6.5220  -10.8490  -31.0790 O   0  0  0  0  0
    8.6360  -12.2720  -29.2990 C   0  0  0  0  0
    9.2410  -13.5220  -28.9440 O   0  0  0  0  0
    8.9940  -11.2160  -28.2540 C   0  0  0  0  0
    5.8240  -10.4440  -28.9720 N   0  0  0  0  0
    5.2080   -9.1640  -29.2910 C   0  0  0  0  0
    6.2340   -8.0460  -29.1930 C   0  0  0  0  0
    7.0320   -7.9940  -28.2520 O   0  0  0  0  0
    4.0370   -8.8700  -28.3510 C   0  0  0  0  0
    3.0020   -9.9750  -28.3520 C   0  0  0  0  0
    2.9420  -10.7860  -29.2790 O   0  0  0  0  0
    2.1720  -10.0110  -27.3170 N   0  0  0  0  0
    6.1950   -7.1460  -30.1670 N   0  0  0  0  0
    7.1040   -6.0080  -30.2010 C   0  0  0  0  0
    6.3610   -4.6990  -30.4230 C   0  0  0  0  0
    6.9630   -3.6260  -30.3970 O   0  0  0  0  0
    8.1400   -6.1980  -31.3030 C   0  0  0  0  0
    8.9260   -7.5040  -31.2370 C   0  0  0  0  0
    9.6200   -7.7740  -32.5610 C   0  0  0  0  0
    9.9320   -7.4410  -30.1050 C   0  0  0  0  0
    5.1490   -4.6790  -30.6490 O   0  0  0  0  0
    7.0813  -28.4687  -31.8310 H   0  0  0  0  0
    6.9084  -29.3628  -30.4167 H   0  0  0  0  0
    5.5436  -27.7837  -29.6865 H   0  0  0  0  0
    6.9841  -26.4303  -28.3727 H   0  0  0  0  0
    7.6468  -25.6651  -29.7916 H   0  0  0  0  0
    8.5538  -28.1368  -28.3845 H   0  0  0  0  0
    9.5038  -26.8930  -29.1405 H   0  0  0  0  0
    9.1732  -27.7836  -31.3283 H   0  0  0  0  0
    9.1787  -29.2227  -30.4230 H   0  0  0  0  0
    4.4170  -25.8020  -29.9808 H   0  0  0  0  0
    4.0807  -24.9840  -32.6958 H   0  0  0  0  0
    2.4406  -24.4724  -30.9466 H   0  0  0  0  0
    3.6130  -23.3937  -30.1511 H   0  0  0  0  0
    2.9843  -22.9884  -31.7671 H   0  0  0  0  0
    4.7646  -22.9830  -33.7296 H   0  0  0  0  0
    7.5251  -22.3273  -33.1982 H   0  0  0  0  0
    6.9416  -21.9302  -35.3444 H   0  0  0  0  0
    6.8735  -20.2350  -34.5887 H   0  0  0  0  0
    4.7968  -22.8073  -36.4877 H   0  0  0  0  0
    5.1499  -18.5656  -33.6235 H   0  0  0  0  0
    1.0177  -19.4959  -36.3039 H   0  0  0  0  0
    3.2326  -16.9942  -33.6035 H   0  0  0  0  0
    1.1987  -17.4591  -34.9237 H   0  0  0  0  0
    8.4306  -20.4365  -32.3479 H   0  0  0  0  0
    7.0048  -19.3935  -30.0539 H   0  0  0  0  0
    9.0809  -17.8368  -29.9784 H   0  0  0  0  0
    9.7017  -18.9126  -31.3030 H   0  0  0  0  0
    7.8610  -19.7730  -28.6638 H   0  0  0  0  0
    6.3573  -17.2985  -29.6310 H   0  0  0  0  0
    6.3390  -15.3883  -31.9237 H   0  0  0  0  0
    3.9471  -16.0537  -30.2068 H   0  0  0  0  0
    4.1821  -16.4601  -31.9672 H   0  0  0  0  0
    4.2867  -14.0682  -32.4375 H   0  0  0  0  0
    3.8738  -13.7511  -30.7015 H   0  0  0  0  0
    2.7024  -14.2352  -33.6164 H   0  0  0  0  0
    6.9423  -13.4019  -31.3090 H   0  0  0  0  0
    6.7486  -12.6890  -28.4015 H   0  0  0  0  0
    9.0105  -11.9412  -30.2677 H   0  0  0  0  0
   10.1924  -13.4096  -28.8820 H   0  0  0  0  0
    8.5476  -10.2623  -28.5354 H   0  0  0  0  0
    8.6113  -11.5249  -27.2813 H   0  0  0  0  0
   10.0776  -11.1103  -28.2026 H   0  0  0  0  0
    5.7669  -10.7960  -28.0164 H   0  0  0  0  0
    4.8299   -9.2188  -30.3119 H   0  0  0  0  0
    3.5528   -7.9551  -28.6925 H   0  0  0  0  0
    4.4321   -8.7799  -27.3391 H   0  0  0  0  0
    1.4495  -10.7293  -27.2674 H   0  0  0  0  0
    2.2566   -9.3204  -26.5712 H   0  0  0  0  0
    5.5086   -7.2540  -30.9137 H   0  0  0  0  0
    7.6000   -5.9560  -29.2318 H   0  0  0  0  0
    8.8644   -5.3908  -31.1943 H   0  0  0  0  0
    7.5949   -6.2080  -32.2468 H   0  0  0  0  0
    8.2353   -8.3252  -31.0453 H   0  0  0  0  0
    8.8740   -7.8483  -33.3523 H   0  0  0  0  0
   10.3068   -6.9572  -32.7829 H   0  0  0  0  0
   10.1754   -8.7095  -32.4945 H   0  0  0  0  0
   10.6203   -6.6137  -30.2779 H   0  0  0  0  0
    9.4070   -7.2875  -29.1622 H   0  0  0  0  0
   10.4896   -8.3767  -30.0637 H   0  0  0  0  0
    4.8082   -5.5764  -30.6406 H   0  0  0  0  0
  1  2  1  0  0  0
  1  7  1  0  0  0
  2  3  1  0  0  0
  2  5  1  0  0  0
  3  4  2  0  0  0
  3  8  1  0  0  0
  5  6  1  0  0  0
  6  7  1  0  0  0
  8  9  1  0  0  0
  9 10  1  0  0  0
  9 12  1  0  0  0
 10 11  2  0  0  0
 10 13  1  0  0  0
 13 14  1  0  0  0
 14 15  1  0  0  0
 14 17  1  0  0  0
 15 16  2  0  0  0
 15 27  1  0  0  0
 17 18  1  0  0  0
 18 19  4  0  0  0
 18 20  4  0  0  0
 19 21  4  0  0  0
 20 22  4  0  0  0
 20 23  4  0  0  0
 21 22  4  0  0  0
 22 24  4  0  0  0
 23 25  4  0  0  0
 24 26  4  0  0  0
 25 26  4  0  0  0
 27 28  1  0  0  0
 28 29  1  0  0  0
 28 31  1  0  0  0
 29 30  2  0  0  0
 29 35  1  0  0  0
 31 32  1  0  0  0
 32 33  2  0  0  0
 32 34  1  0  0  0
 35 36  1  0  0  0
 36 37  1  0  0  0
 36 39  1  0  0  0
 37 38  2  0  0  0
 37 44  1  0  0  0
 39 40  1  0  0  0
 40 41  1  0  0  0
 41 42  1  0  0  0
 41 43  2  0  0  0
 44 45  1  0  0  0
 45 46  1  0  0  0
 45 48  1  0  0  0
 46 47  2  0  0  0
 46 51  1  0  0  0
 48 49  1  0  0  0
 48 50  1  0  0  0
 51 52  1  0  0  0
 52 53  1  0  0  0
 52 55  1  0  0  0
 53 54  2  0  0  0
 53 59  1  0  0  0
 55 56  1  0  0  0
 56 57  2  0  0  0
 56 58  1  0  0  0
 59 60  1  0  0  0
 60 61  1  0  0  0
 60 63  1  0  0  0
 61 62  2  0  0  0
 61 67  1  0  0  0
 63 64  1  0  0  0
 64 65  1  0  0  0
 64 66  1  0  0  0
  1 68  1  0  0  0
  1 69  1  0  0  0
  2 70  1  0  0  0
  5 71  1  0  0  0
  5 72  1  0  0  0
  6 73  1  0  0  0
  6 74  1  0  0  0
  7 75  1  0  0  0
  7 76  1  0  0  0
  8 77  1  0  0  0
  9 78  1  0  0  0
 12 79  1  0  0  0
 12 80  1  0  0  0
 12 81  1  0  0  0
 13 82  1  0  0  0
 14 83  1  0  0  0
 17 84  1  0  0  0
 17 85  1  0  0  0
 19 86  1  0  0  0
 23 87  1  0  0  0
 24 88  1  0  0  0
 25 89  1  0  0  0
 26 90  1  0  0  0
 27 91  1  0  0  0
 28 92  1  0  0  0
 31 93  1  0  0  0
 31 94  1  0  0  0
 34 95  1  0  0  0
 35 96  1  0  0  0
 36 97  1  0  0  0
 39 98  1  0  0  0
 39 99  1  0  0  0
 40100  1  0  0  0
 40101  1  0  0  0
 42102  1  0  0  0
 44103  1  0  0  0
 45104  1  0  0  0
 48105  1  0  0  0
 49106  1  0  0  0
 50107  1  0  0  0
 50108  1  0  0  0
 50109  1  0  0  0
 51110  1  0  0  0
 52111  1  0  0  0
 55112  1  0  0  0
 55113  1  0  0  0
 58114  1  0  0  0
 58115  1  0  0  0
 59116  1  0  0  0
 60117  1  0  0  0
 63118  1  0  0  0
 63119  1  0  0  0
 64120  1  0  0  0
 65121  1  0  0  0
 65122  1  0  0  0
 65123  1  0  0  0
 66124  1  0  0  0
 66125  1  0  0  0
 66126  1  0  0  0
 67127  1  0  0  0
M  END
$$$$
