### 
### Created by X-TOOL on Mon Sep 10 21:13:19 2018
### 

@<TRIPOS>MOLECULE
4oc6_ligand
   98   103     1     0     0
SMALL
GAST_HUCK


@<TRIPOS>ATOM
      1 C2         15.7570   40.4850    8.8480 C.2       1 2S1         0.1965
      2 C3         14.9250   41.4050    8.0420 C.ar      1 2S1         0.0389
      3 O4         16.4920   40.9360    9.6930 O.2       1 2S1        -0.3884
      4 C7         13.2390   43.1180    6.5640 C.ar      1 2S1         0.1277
      5 C8         12.6880   42.0570    7.3360 C.ar      1 2S1         0.1283
      6 C9         13.5340   41.2290    8.0750 C.ar      1 2S1        -0.0189
      7 C12        11.9510   45.1560    6.2940 C.3       1 2S1         0.0582
      8 C14        10.7960   40.6760    7.9980 C.3       1 2S1         0.0576
      9 C15        14.7620   38.1810   11.2980 C.ar      1 2S1        -0.0487
     10 C16        13.4920   38.7190   11.0080 C.ar      1 2S1        -0.0275
     11 C19        14.7500   39.2750   13.4590 C.ar      1 2S1        -0.0762
     12 C20        15.4730   37.3110   10.2710 C.3       1 2S1         0.0040
     13 C21        16.4210   38.1610    9.4170 C.3       1 2S1         0.0784
     14 C22        17.2770   37.2830    8.5330 C.3       1 2S1         0.1000
     15 C24        11.3280   41.3750   12.0070 C.ar      1 2S1         0.1159
     16 C27        10.6130   43.9840   12.7470 C.ar      1 2S1        -0.0723
     17 C30        18.2270   38.1680    7.7070 C.3       1 2S1         0.0623
     18 C32        15.3730   38.4600   12.5220 C.ar      1 2S1        -0.0707
     19 C34        20.0150   36.9230    6.4610 C.3       1 2S1         0.0436
     20 C35        20.4210   37.9340    5.3680 C.3       1 2S1         0.0021
     21 N1         15.6860   39.1490    8.6350 N.am      1 2S1        -0.2799
     22 C5         15.4630   42.4610    7.2580 C.ar      1 2S1         0.0126
     23 C6         14.6210   43.2860    6.5200 C.ar      1 2S1        -0.0256
     24 BR         17.3300   42.7920    7.1250 Br        1 2S1        -0.0571
     25 O11        12.4840   43.9390    5.7720 O.3       1 2S1        -0.3207
     26 O13        11.3380   41.8740    7.4230 O.3       1 2S1        -0.3218
     27 C17        12.8660   39.5640   11.9310 C.ar      1 2S1         0.1095
     28 C18        13.5090   39.8250   13.1650 C.ar      1 2S1        -0.0354
     29 O23        11.6370   40.0940   11.6350 O.3       1 2S1        -0.2597
     30 C25        12.0360   42.4720   11.4860 C.ar      1 2S1        -0.0285
     31 C26        11.6720   43.7730   11.8560 C.ar      1 2S1        -0.0697
     32 C28         9.9060   42.8890   13.2660 C.ar      1 2S1        -0.0697
     33 C29        10.2730   41.5930   12.9010 C.ar      1 2S1        -0.0285
     34 O31        16.5670   36.3630    7.7220 O.3       1 2S1        -0.3873
     35 N33        19.5920   37.6130    7.6990 N.am      1 2S1        -0.2686
     36 C36        21.6390   38.6990    5.8120 C.ar      1 2S1        -0.0267
     37 C37        21.5170   39.9750    6.3640 C.ar      1 2S1         0.0419
     38 C38        22.6120   40.6470    6.8560 C.ar      1 2S1        -0.0406
     39 C39        23.8390   40.0420    6.8200 C.ar      1 2S1         0.0335
     40 C40        23.9940   38.7650    6.2910 C.ar      1 2S1        -0.0544
     41 C41        22.8940   38.0900    5.7730 C.ar      1 2S1        -0.0590
     42 CL2        20.0390   40.8500    6.4940 Cl        1 2S1        -0.0771
     43 CL1        25.1510   40.9850    7.4200 Cl        1 2S1        -0.0770
     44 C44        20.3740   37.7500    8.8250 C.2       1 2S1         0.1810
     45 O45        19.9470   38.3890    9.7790 O.2       1 2S1        -0.3968
     46 C46        21.7830   37.1730    8.8990 C.3       1 2S1         0.0617
     47 C47        22.3290   36.9850   10.3140 C.3       1 2S1         0.0731
     48 N48        23.6490   36.3360   10.2490 N.am      1 2S1        -0.1821
     49 C49        24.8240   36.9660    9.9690 C.2       1 2S1         0.2402
     50 C50        23.8420   35.0140   10.4610 C.2       1 2S1         0.2402
     51 C51        25.2880   34.7350   10.3390 C.ar      1 2S1         0.0732
     52 C52        25.9080   35.9680   10.0260 C.ar      1 2S1         0.0732
     53 C53        27.3020   36.0270    9.9230 C.ar      1 2S1        -0.0372
     54 C54        28.0580   34.8620   10.0840 C.ar      1 2S1        -0.0523
     55 C55        27.4690   33.6460   10.3870 C.ar      1 2S1        -0.0523
     56 C56        26.0840   33.6030   10.5540 C.ar      1 2S1        -0.0372
     57 O57        22.9900   34.1830   10.7560 O.2       1 2S1        -0.3670
     58 O58        24.9990   38.1570    9.7670 O.2       1 2S1        -0.3670
     59 H          13.1099   40.4384    8.6833 H         1 2S1         0.0566
     60 H          11.3777   45.6715    5.5094 H         1 2S1         0.0575
     61 H          12.7748   45.8025    6.6307 H         1 2S1         0.0575
     62 H          11.2897   44.9319    7.1440 H         1 2S1         0.0575
     63 H           9.6972   40.7228    7.9748 H         1 2S1         0.0574
     64 H          11.1371   40.5823    9.0396 H         1 2S1         0.0574
     65 H          11.1381   39.8047    7.4203 H         1 2S1         0.0574
     66 H          13.0012   38.4786   10.0718 H         1 2S1         0.0488
     67 H          15.2278   39.4796   14.4102 H         1 2S1         0.0573
     68 H          14.7256   36.8353    9.6189 H         1 2S1         0.0447
     69 H          16.0522   36.5345   10.7922 H         1 2S1         0.0447
     70 H          17.0907   38.7058   10.0987 H         1 2S1         0.0604
     71 H          17.9008   36.6756    9.2052 H         1 2S1         0.0638
     72 H          10.3395   44.9925   13.0356 H         1 2S1         0.0528
     73 H          18.2513   39.1766    8.1453 H         1 2S1         0.0549
     74 H          17.8564   38.2264    6.6730 H         1 2S1         0.0549
     75 H          16.3454   38.0355   12.7440 H         1 2S1         0.0470
     76 H          20.8747   36.2752    6.6874 H         1 2S1         0.0545
     77 H          19.1811   36.3092    6.0898 H         1 2S1         0.0545
     78 H          19.5922   38.6357    5.1929 H         1 2S1         0.0448
     79 H          20.6476   37.3944    4.4366 H         1 2S1         0.0448
     80 H          15.0949   38.8208    7.8982 H         1 2S1         0.1848
     81 H          15.0456   44.0695    5.9028 H         1 2S1         0.0550
     82 H          13.0243   40.4653   13.8931 H         1 2S1         0.0496
     83 H          12.8604   42.3117   10.8006 H         1 2S1         0.0552
     84 H          12.2128   44.6204   11.4505 H         1 2S1         0.0590
     85 H           9.0783   43.0489   13.9475 H         1 2S1         0.0590
     86 H           9.7358   40.7468   13.3138 H         1 2S1         0.0552
     87 H          15.9939   35.8378    8.2681 H         1 2S1         0.2100
     88 H          22.5041   41.6441    7.2674 H         1 2S1         0.0612
     89 H          24.9714   38.2963    6.2825 H         1 2S1         0.0607
     90 H          23.0102   37.1015    5.3436 H         1 2S1         0.0557
     91 H          22.4591   37.8526    8.3596 H         1 2S1         0.0526
     92 H          21.7767   36.1916    8.4023 H         1 2S1         0.0526
     93 H          21.6384   36.3539   10.8926 H         1 2S1         0.0596
     94 H          22.4264   37.9657   10.8027 H         1 2S1         0.0596
     95 H          27.7936   36.9714    9.7193 H         1 2S1         0.0682
     96 H          29.1347   34.9120    9.9685 H         1 2S1         0.0662
     97 H          28.0690   32.7493   10.4919 H         1 2S1         0.0662
     98 H          25.6146   32.6739   10.8565 H         1 2S1         0.0682
@<TRIPOS>BOND
     1    1    2 1  
     2    1    3 2  
     3   21    1 am 
     4    2    6 ar 
     5    2   22 ar 
     6    5    4 ar 
     7   23    4 ar 
     8    4   25 1  
     9    6    5 ar 
    10    5   26 1  
    11   25    7 1  
    12   26    8 1  
    13   10    9 ar 
    14    9   12 1  
    15    9   18 ar 
    16   27   10 ar 
    17   11   18 ar 
    18   28   11 ar 
    19   12   13 1  
    20   13   14 1  
    21   13   21 1  
    22   14   17 1  
    23   14   34 1  
    24   15   29 1  
    25   30   15 ar 
    26   15   33 ar 
    27   31   16 ar 
    28   16   32 ar 
    29   17   35 1  
    30   19   20 1  
    31   35   19 1  
    32   20   36 1  
    33   22   23 ar 
    34   22   24 1  
    35   27   28 ar 
    36   29   27 1  
    37   30   31 ar 
    38   32   33 ar 
    39   35   44 am 
    40   36   37 ar 
    41   36   41 ar 
    42   37   38 ar 
    43   37   42 1  
    44   38   39 ar 
    45   39   40 ar 
    46   39   43 1  
    47   40   41 ar 
    48   44   45 2  
    49   44   46 1  
    50   46   47 1  
    51   47   48 1  
    52   48   49 am 
    53   48   50 am 
    54   49   52 1  
    55   49   58 2  
    56   50   51 1  
    57   50   57 2  
    58   51   52 ar 
    59   51   56 ar 
    60   52   53 ar 
    61   53   54 ar 
    62   54   55 ar 
    63   55   56 ar 
    64    6   59 1  
    65    7   60 1  
    66    7   61 1  
    67    7   62 1  
    68    8   63 1  
    69    8   64 1  
    70    8   65 1  
    71   10   66 1  
    72   11   67 1  
    73   12   68 1  
    74   12   69 1  
    75   13   70 1  
    76   14   71 1  
    77   16   72 1  
    78   17   73 1  
    79   17   74 1  
    80   18   75 1  
    81   19   76 1  
    82   19   77 1  
    83   20   78 1  
    84   20   79 1  
    85   21   80 1  
    86   23   81 1  
    87   28   82 1  
    88   30   83 1  
    89   31   84 1  
    90   32   85 1  
    91   33   86 1  
    92   34   87 1  
    93   38   88 1  
    94   40   89 1  
    95   41   90 1  
    96   46   91 1  
    97   46   92 1  
    98   47   93 1  
    99   47   94 1  
   100   53   95 1  
   101   54   96 1  
   102   55   97 1  
   103   56   98 1  
@<TRIPOS>SUBSTRUCTURE
     1 2S1         1

