4oc6_ligand
  -I-interpret- 

 98103  0  0  0  0  0  0  0  0999 V2000
   15.7570   40.4850    8.8480 C   0  0  0  0  0
   14.9250   41.4050    8.0420 C   0  0  0  0  0
   16.4920   40.9360    9.6930 O   0  0  0  0  0
   13.2390   43.1180    6.5640 C   0  0  0  0  0
   12.6880   42.0570    7.3360 C   0  0  0  0  0
   13.5340   41.2290    8.0750 C   0  0  0  0  0
   11.9510   45.1560    6.2940 C   0  0  0  0  0
   10.7960   40.6760    7.9980 C   0  0  0  0  0
   14.7620   38.1810   11.2980 C   0  0  0  0  0
   13.4920   38.7190   11.0080 C   0  0  0  0  0
   14.7500   39.2750   13.4590 C   0  0  0  0  0
   15.4730   37.3110   10.2710 C   0  0  0  0  0
   16.4210   38.1610    9.4170 C   0  0  0  0  0
   17.2770   37.2830    8.5330 C   0  0  0  0  0
   11.3280   41.3750   12.0070 C   0  0  0  0  0
   10.6130   43.9840   12.7470 C   0  0  0  0  0
   18.2270   38.1680    7.7070 C   0  0  0  0  0
   15.3730   38.4600   12.5220 C   0  0  0  0  0
   20.0150   36.9230    6.4610 C   0  0  0  0  0
   20.4210   37.9340    5.3680 C   0  0  0  0  0
   15.6860   39.1490    8.6350 N   0  0  0  0  0
   15.4630   42.4610    7.2580 C   0  0  0  0  0
   14.6210   43.2860    6.5200 C   0  0  0  0  0
   17.3300   42.7920    7.1250 Br  0  0  0  0  0
   12.4840   43.9390    5.7720 O   0  0  0  0  0
   11.3380   41.8740    7.4230 O   0  0  0  0  0
   12.8660   39.5640   11.9310 C   0  0  0  0  0
   13.5090   39.8250   13.1650 C   0  0  0  0  0
   11.6370   40.0940   11.6350 O   0  0  0  0  0
   12.0360   42.4720   11.4860 C   0  0  0  0  0
   11.6720   43.7730   11.8560 C   0  0  0  0  0
    9.9060   42.8890   13.2660 C   0  0  0  0  0
   10.2730   41.5930   12.9010 C   0  0  0  0  0
   16.5670   36.3630    7.7220 O   0  0  0  0  0
   19.5920   37.6130    7.6990 N   0  0  0  0  0
   21.6390   38.6990    5.8120 C   0  0  0  0  0
   21.5170   39.9750    6.3640 C   0  0  0  0  0
   22.6120   40.6470    6.8560 C   0  0  0  0  0
   23.8390   40.0420    6.8200 C   0  0  0  0  0
   23.9940   38.7650    6.2910 C   0  0  0  0  0
   22.8940   38.0900    5.7730 C   0  0  0  0  0
   20.0390   40.8500    6.4940 Cl  0  0  0  0  0
   25.1510   40.9850    7.4200 Cl  0  0  0  0  0
   20.3740   37.7500    8.8250 C   0  0  0  0  0
   19.9470   38.3890    9.7790 O   0  0  0  0  0
   21.7830   37.1730    8.8990 C   0  0  0  0  0
   22.3290   36.9850   10.3140 C   0  0  0  0  0
   23.6490   36.3360   10.2490 N   0  0  0  0  0
   24.8240   36.9660    9.9690 C   0  0  0  0  0
   23.8420   35.0140   10.4610 C   0  0  0  0  0
   25.2880   34.7350   10.3390 C   0  0  0  0  0
   25.9080   35.9680   10.0260 C   0  0  0  0  0
   27.3020   36.0270    9.9230 C   0  0  0  0  0
   28.0580   34.8620   10.0840 C   0  0  0  0  0
   27.4690   33.6460   10.3870 C   0  0  0  0  0
   26.0840   33.6030   10.5540 C   0  0  0  0  0
   22.9900   34.1830   10.7560 O   0  0  0  0  0
   24.9990   38.1570    9.7670 O   0  0  0  0  0
   13.1076   40.4340    8.6867 H   0  0  0  0  0
   11.2960   44.9326    7.1362 H   0  0  0  0  0
   12.7682   45.7956    6.6273 H   0  0  0  0  0
   11.3832   45.6658    5.5157 H   0  0  0  0  0
   11.1358   39.8134    7.4248 H   0  0  0  0  0
   11.1347   40.5843    9.0300 H   0  0  0  0  0
    9.7073   40.7235    7.9745 H   0  0  0  0  0
   12.9985   38.4773   10.0666 H   0  0  0  0  0
   15.2305   39.4807   14.4155 H   0  0  0  0  0
   14.7298   36.8472    9.6225 H   0  0  0  0  0
   16.0514   36.5475   10.7913 H   0  0  0  0  0
   17.0835   38.7067   10.0889 H   0  0  0  0  0
   17.8494   36.6383    9.2000 H   0  0  0  0  0
   10.3380   44.9980   13.0372 H   0  0  0  0  0
   18.2561   39.1619    8.1537 H   0  0  0  0  0
   17.8611   38.2116    6.6812 H   0  0  0  0  0
   16.3508   38.0332   12.7452 H   0  0  0  0  0
   20.8757   36.2947    6.6901 H   0  0  0  0  0
   19.1793   36.3288    6.0915 H   0  0  0  0  0
   19.5998   38.6299    5.1964 H   0  0  0  0  0
   20.6470   37.3982    4.4461 H   0  0  0  0  0
   15.0830   38.8142    7.8835 H   0  0  0  0  0
   15.0479   44.0739    5.8994 H   0  0  0  0  0
   13.0216   40.4688   13.8971 H   0  0  0  0  0
   12.8650   42.3108   10.7968 H   0  0  0  0  0
   12.2158   44.6251   11.4483 H   0  0  0  0  0
    9.0737   43.0498   13.9513 H   0  0  0  0  0
    9.7329   40.7421   13.3161 H   0  0  0  0  0
   17.1895   35.8525    7.1990 H   0  0  0  0  0
   22.5035   41.6496    7.2697 H   0  0  0  0  0
   24.9768   38.2937    6.2825 H   0  0  0  0  0
   23.0108   37.0960    5.3412 H   0  0  0  0  0
   22.4412   37.8836    8.3990 H   0  0  0  0  0
   21.7429   36.1839    8.4427 H   0  0  0  0  0
   21.6446   36.3596   10.8872 H   0  0  0  0  0
   22.4256   37.9568   10.7981 H   0  0  0  0  0
   27.7963   36.9767    9.7182 H   0  0  0  0  0
   29.1406   34.9123    9.9678 H   0  0  0  0  0
   28.0723   32.7443   10.4925 H   0  0  0  0  0
   25.6120   32.6688   10.8581 H   0  0  0  0  0
  1  2  1  0  0  0
  1  3  2  0  0  0
 21  1  1  0  0  0
  2  6  4  0  0  0
  2 22  4  0  0  0
  5  4  4  0  0  0
 23  4  4  0  0  0
  4 25  1  0  0  0
  6  5  4  0  0  0
  5 26  1  0  0  0
 25  7  1  0  0  0
 26  8  1  0  0  0
 10  9  4  0  0  0
  9 12  1  0  0  0
  9 18  4  0  0  0
 27 10  4  0  0  0
 11 18  4  0  0  0
 28 11  4  0  0  0
 12 13  1  0  0  0
 13 14  1  0  0  0
 13 21  1  0  0  0
 14 17  1  0  0  0
 14 34  1  0  0  0
 15 29  1  0  0  0
 30 15  4  0  0  0
 15 33  4  0  0  0
 31 16  4  0  0  0
 16 32  4  0  0  0
 17 35  1  0  0  0
 19 20  1  0  0  0
 35 19  1  0  0  0
 20 36  1  0  0  0
 22 23  4  0  0  0
 22 24  1  0  0  0
 27 28  4  0  0  0
 29 27  1  0  0  0
 30 31  4  0  0  0
 32 33  4  0  0  0
 35 44  1  0  0  0
 36 37  4  0  0  0
 36 41  4  0  0  0
 37 38  4  0  0  0
 37 42  1  0  0  0
 38 39  4  0  0  0
 39 40  4  0  0  0
 39 43  1  0  0  0
 40 41  4  0  0  0
 44 45  2  0  0  0
 44 46  1  0  0  0
 46 47  1  0  0  0
 47 48  1  0  0  0
 48 49  1  0  0  0
 48 50  1  0  0  0
 49 52  1  0  0  0
 49 58  2  0  0  0
 50 51  1  0  0  0
 50 57  2  0  0  0
 51 52  4  0  0  0
 51 56  4  0  0  0
 52 53  4  0  0  0
 53 54  4  0  0  0
 54 55  4  0  0  0
 55 56  4  0  0  0
  6 59  1  0  0  0
  7 60  1  0  0  0
  7 61  1  0  0  0
  7 62  1  0  0  0
  8 63  1  0  0  0
  8 64  1  0  0  0
  8 65  1  0  0  0
 10 66  1  0  0  0
 11 67  1  0  0  0
 12 68  1  0  0  0
 12 69  1  0  0  0
 13 70  1  0  0  0
 14 71  1  0  0  0
 16 72  1  0  0  0
 17 73  1  0  0  0
 17 74  1  0  0  0
 18 75  1  0  0  0
 19 76  1  0  0  0
 19 77  1  0  0  0
 20 78  1  0  0  0
 20 79  1  0  0  0
 21 80  1  0  0  0
 23 81  1  0  0  0
 28 82  1  0  0  0
 30 83  1  0  0  0
 31 84  1  0  0  0
 32 85  1  0  0  0
 33 86  1  0  0  0
 34 87  1  0  0  0
 38 88  1  0  0  0
 40 89  1  0  0  0
 41 90  1  0  0  0
 46 91  1  0  0  0
 46 92  1  0  0  0
 47 93  1  0  0  0
 47 94  1  0  0  0
 53 95  1  0  0  0
 54 96  1  0  0  0
 55 97  1  0  0  0
 56 98  1  0  0  0
M  END
$$$$
