4lbl_ligand
  -I-interpret- 

 82 84  0  0  0  0  0  0  0  0999 V2000
    2.1780   -7.7780    3.7840 C   0  0  0  0  0
    2.3250   -8.9650    2.8540 C   0  0  0  0  0
    3.7500   -9.1780    2.3370 C   0  0  0  0  0
    4.6600   -9.8000    3.3990 C   0  0  0  0  0
    3.9590  -11.0230    3.9820 C   0  0  0  0  0
    2.6210  -10.6040    4.5830 C   0  0  0  0  0
    1.9220  -11.7910    5.2310 C   0  0  0  0  0
    0.4440  -11.5490    5.5240 C   0  0  0  0  0
   -0.0470  -12.5510    6.5720 C   0  0  0  0  0
    5.7990  -11.4310    5.6210 C   0  0  0  0  0
    6.1640   -9.9780    5.6050 C   0  0  0  0  0
    4.7360  -11.8290    4.9260 N   0  0  0  0  0
    2.8560   -6.7550    3.5580 O   0  0  0  0  0
    1.3790   -7.8840    4.7480 O   0  0  0  0  0
    5.9160  -10.1480    2.7960 O   0  0  0  0  0
    1.8140  -10.1150    3.5110 O   0  0  0  0  0
    2.0290  -12.9080    4.3440 O   0  0  0  0  0
    0.2530  -10.2060    5.9880 O   0  0  0  0  0
   -1.4790  -12.6360    6.5660 O   0  0  0  0  0
    6.4090  -12.2230    6.3200 O   0  0  0  0  0
   -6.5200  -10.5590    0.3160 C   0  0  0  0  0
   -5.0270  -10.4810    0.0000 C   0  0  0  0  0
   -4.2570  -10.1210    1.2690 C   0  0  0  0  0
   -4.6170  -11.1040    2.3720 C   0  0  0  0  0
   -3.8110  -10.9100    3.6550 C   0  0  0  0  0
   -6.7490  -11.4660    1.5290 C   0  0  0  0  0
   -8.1330  -11.5200    1.8780 O   0  0  0  0  0
   -7.1920  -11.0780   -0.8340 O   0  0  0  0  0
   -4.7570   -9.5700   -1.0840 O   0  0  0  0  0
   -2.8740  -10.2400    1.0040 O   0  0  0  0  0
   -6.0090  -10.9630    2.6400 O   0  0  0  0  0
   -4.1790   -9.6630    4.2560 O   0  0  0  0  0
   -2.1210   -9.1410    1.5110 C   0  0  0  0  0
   -0.6780   -9.5750    1.4210 C   0  0  0  0  0
    0.2430   -8.4390    1.8280 C   0  0  0  0  0
   -0.1000   -7.1860    1.0140 C   0  0  0  0  0
   -1.5950   -6.8580    1.1270 C   0  0  0  0  0
   -2.0500   -5.6510    0.3030 C   0  0  0  0  0
   -0.4300  -10.6970    2.2560 O   0  0  0  0  0
    1.5830   -8.8460    1.6090 O   0  0  0  0  0
    0.2850   -7.3680   -0.3280 O   0  0  0  0  0
   -2.3540   -7.9780    0.7340 O   0  0  0  0  0
   -3.4340   -5.4350    0.5320 O   0  0  0  0  0
    4.1614   -8.2065    2.0631 H   0  0  0  0  0
    3.7053   -9.8582    1.4865 H   0  0  0  0  0
    4.8582   -9.0957    4.2070 H   0  0  0  0  0
    3.8139  -11.6985    3.1390 H   0  0  0  0  0
    2.7778   -9.8450    5.3494 H   0  0  0  0  0
    2.4099  -11.9677    6.1896 H   0  0  0  0  0
   -0.1325  -11.6875    4.6094 H   0  0  0  0  0
    0.2806  -12.2177    7.5567 H   0  0  0  0  0
    0.3638  -13.5331    6.3380 H   0  0  0  0  0
    6.0573   -9.5668    6.6088 H   0  0  0  0  0
    7.1966   -9.8677    5.2737 H   0  0  0  0  0
    5.5028   -9.4461    4.9209 H   0  0  0  0  0
    4.4319  -12.7926    5.0649 H   0  0  0  0  0
    0.9682   -8.7514    4.7278 H   0  0  0  0  0
    6.3289   -9.3576    2.4404 H   0  0  0  0  0
    2.9545  -13.0733    4.1497 H   0  0  0  0  0
   -0.6783  -10.0610    6.1702 H   0  0  0  0  0
   -1.7637  -13.2687    7.2295 H   0  0  0  0  0
   -6.9109   -9.5702    0.5560 H   0  0  0  0  0
   -4.6853  -11.4580   -0.3417 H   0  0  0  0  0
   -4.5068   -9.1057    1.5769 H   0  0  0  0  0
   -4.3723  -12.1075    2.0238 H   0  0  0  0  0
   -2.7463  -10.9044    3.4217 H   0  0  0  0  0
   -4.0205  -11.7261    4.3465 H   0  0  0  0  0
   -6.4156  -12.4716    1.2725 H   0  0  0  0  0
   -8.2478  -12.0937    2.6391 H   0  0  0  0  0
   -8.1334  -11.1347   -0.6547 H   0  0  0  0  0
   -3.8124   -9.5472   -1.2536 H   0  0  0  0  0
   -3.6747   -9.5369    5.0630 H   0  0  0  0  0
   -2.4006   -8.8880    2.5337 H   0  0  0  0  0
   -0.4806   -9.8531    0.3857 H   0  0  0  0  0
    0.1158   -8.1976    2.8833 H   0  0  0  0  0
    0.4523   -6.3374    1.4176 H   0  0  0  0  0
   -1.7572   -6.5995    2.1734 H   0  0  0  0  0
   -1.8765   -5.8408   -0.7562 H   0  0  0  0  0
   -1.4847   -4.7675    0.5996 H   0  0  0  0  0
    0.4923  -10.9527    2.1809 H   0  0  0  0  0
    0.0675   -6.5803   -0.8318 H   0  0  0  0  0
   -3.7280   -4.6790    0.0185 H   0  0  0  0  0
  2  1  1  0  0  0
  1 13  2  0  0  0
  1 14  1  0  0  0
  2  3  1  0  0  0
  2 16  1  0  0  0
 40  2  1  0  0  0
  3  4  1  0  0  0
  4  5  1  0  0  0
  4 15  1  0  0  0
  6  5  1  0  0  0
  5 12  1  0  0  0
  6  7  1  0  0  0
 16  6  1  0  0  0
  7  8  1  0  0  0
  7 17  1  0  0  0
  8  9  1  0  0  0
  8 18  1  0  0  0
  9 19  1  0  0  0
 10 11  1  0  0  0
 12 10  1  0  0  0
 10 20  2  0  0  0
 22 21  1  0  0  0
 21 26  1  0  0  0
 21 28  1  0  0  0
 23 22  1  0  0  0
 22 29  1  0  0  0
 23 24  1  0  0  0
 30 23  1  0  0  0
 24 25  1  0  0  0
 24 31  1  0  0  0
 25 32  1  0  0  0
 26 27  1  0  0  0
 31 26  1  0  0  0
 33 30  1  0  0  0
 34 33  1  0  0  0
 33 42  1  0  0  0
 35 34  1  0  0  0
 34 39  1  0  0  0
 35 36  1  0  0  0
 35 40  1  0  0  0
 36 37  1  0  0  0
 36 41  1  0  0  0
 37 38  1  0  0  0
 37 42  1  0  0  0
 38 43  1  0  0  0
  3 44  1  0  0  0
  3 45  1  0  0  0
  4 46  1  0  0  0
  5 47  1  0  0  0
  6 48  1  0  0  0
  7 49  1  0  0  0
  8 50  1  0  0  0
  9 51  1  0  0  0
  9 52  1  0  0  0
 11 53  1  0  0  0
 11 54  1  0  0  0
 11 55  1  0  0  0
 12 56  1  0  0  0
 14 57  1  0  0  0
 15 58  1  0  0  0
 17 59  1  0  0  0
 18 60  1  0  0  0
 19 61  1  0  0  0
 21 62  1  0  0  0
 22 63  1  0  0  0
 23 64  1  0  0  0
 24 65  1  0  0  0
 25 66  1  0  0  0
 25 67  1  0  0  0
 26 68  1  0  0  0
 27 69  1  0  0  0
 28 70  1  0  0  0
 29 71  1  0  0  0
 32 72  1  0  0  0
 33 73  1  0  0  0
 34 74  1  0  0  0
 35 75  1  0  0  0
 36 76  1  0  0  0
 37 77  1  0  0  0
 38 78  1  0  0  0
 38 79  1  0  0  0
 39 80  1  0  0  0
 41 81  1  0  0  0
 43 82  1  0  0  0
M  END
$$$$
