2nqg_ligand
  -I-interpret- 

 82 83  0  0  0  0  0  0  0  0999 V2000
    5.9300    4.0790  -22.5620 C   0  0  0  0  0
    7.2660    4.8280  -22.6210 C   0  0  0  0  0
    8.5460    4.1020  -22.3080 O   0  0  0  0  0
    9.2830    4.8060  -21.3920 C   0  0  0  0  0
    8.6710    5.4580  -20.5380 O   0  0  0  0  0
   10.8430    4.7560  -21.3980 C   0  0  0  0  0
   11.4420    6.1980  -21.3220 C   0  0  0  0  0
   11.0790    6.9900  -22.4680 O   0  0  0  0  0
   12.9690    6.1880  -21.1610 C   0  0  0  0  0
   13.4760    6.0900  -20.0550 O   0  0  0  0  0
   13.6910    6.3070  -22.2720 N   0  0  0  0  0
   15.1800    6.3010  -22.2860 C   0  0  0  0  0
   15.6770    5.1940  -23.2520 C   0  0  0  0  0
   15.2680    3.7420  -22.8700 C   0  0  0  0  0
   15.6480    3.3190  -21.5080 C   0  0  0  0  0
   15.9020    3.0960  -20.4130 N   0  0  0  0  0
   15.7020    7.7070  -22.7100 C   0  0  0  0  0
   14.9440    8.4780  -23.3020 O   0  0  0  0  0
   16.9720    8.0670  -22.4210 N   0  0  0  0  0
   18.0500    7.3100  -21.7120 C   0  0  0  0  0
   18.7890    6.3290  -22.6730 C   0  0  0  0  0
   19.2720    4.9790  -22.0920 C   0  0  0  0  0
   19.8470    4.0220  -23.1850 C   0  0  0  0  0
   18.8280    3.8670  -24.2450 N   0  0  0  0  0
   18.5260    2.7900  -25.0060 C   0  0  0  0  0
   17.5220    2.9290  -25.8740 N   0  0  0  0  0
   19.1690    1.6160  -24.9330 N   0  0  0  0  0
   19.0170    8.3870  -21.1230 C   0  0  0  0  0
   20.2460    8.3080  -21.2450 O   0  0  0  0  0
   18.4060    9.3940  -20.4820 N   0  0  0  0  0
   19.1120   10.5320  -19.8480 C   0  0  0  0  0
   20.0930   10.0610  -18.7270 C   0  0  0  0  0
   19.7270    9.3290  -17.8030 O   0  0  0  0  0
   21.3500   10.5000  -18.8420 N   0  0  0  0  0
   18.0440   11.4950  -19.2960 C   0  0  0  0  0
   17.6310   12.5800  -20.3080 C   0  0  0  0  0
   16.9270   12.4230  -21.5100 C   0  0  0  0  0
   16.3880   11.3230  -22.1910 C   0  0  0  0  0
   15.7300   11.5170  -23.4100 C   0  0  0  0  0
   15.6050   12.7990  -23.9580 C   0  0  0  0  0
   16.1400   13.8980  -23.2820 C   0  0  0  0  0
   16.8010   13.7080  -22.0600 C   0  0  0  0  0
   17.3950   14.5620  -21.2150 N   0  0  0  0  0
   17.8870   13.8870  -20.1670 C   0  0  0  0  0
    5.9468    3.2521  -23.2720 H   0  0  0  0  0
    5.7762    3.6917  -21.5548 H   0  0  0  0  0
    5.1202    4.7624  -22.8174 H   0  0  0  0  0
    7.1870    5.5901  -21.8458 H   0  0  0  0  0
    7.3677    5.1245  -23.6650 H   0  0  0  0  0
   11.1770    4.2838  -22.3219 H   0  0  0  0  0
   11.1808    4.1879  -20.5313 H   0  0  0  0  0
   11.0096    6.6540  -20.4313 H   0  0  0  0  0
   10.1238    6.9929  -22.5640 H   0  0  0  0  0
   13.1993    6.4075  -23.1600 H   0  0  0  0  0
   15.5674    6.0847  -21.2904 H   0  0  0  0  0
   16.7663    5.2268  -23.2290 H   0  0  0  0  0
   15.2235    5.4003  -24.2215 H   0  0  0  0  0
   15.7890    3.0785  -23.5603 H   0  0  0  0  0
   14.1798    3.7008  -22.9180 H   0  0  0  0  0
   17.2369    9.0005  -22.7353 H   0  0  0  0  0
   17.6377    6.6827  -20.9217 H   0  0  0  0  0
   19.6930    6.8522  -22.9846 H   0  0  0  0  0
   18.0612    6.0713  -23.4424 H   0  0  0  0  0
   18.4144    4.4863  -21.6339 H   0  0  0  0  0
   20.0688    5.1882  -21.3782 H   0  0  0  0  0
   20.0833    3.0521  -22.7474 H   0  0  0  0  0
   20.7631    4.4386  -23.6037 H   0  0  0  0  0
   18.2674    4.6986  -24.4308 H   0  0  0  0  0
   17.0235    3.8165  -25.9393 H   0  0  0  0  0
   18.8890    0.8428  -25.5364 H   0  0  0  0  0
   19.9382    1.4959  -24.2740 H   0  0  0  0  0
   17.3876    9.3753  -20.4272 H   0  0  0  0  0
   19.7309   11.0394  -20.5880 H   0  0  0  0  0
   22.0494   10.2313  -18.1499 H   0  0  0  0  0
   21.6100   11.1038  -19.6219 H   0  0  0  0  0
   18.4673   11.9966  -18.4258 H   0  0  0  0  0
   17.1573   10.9069  -19.0594 H   0  0  0  0  0
   16.4811   10.3208  -21.7726 H   0  0  0  0  0
   15.3103   10.6611  -23.9386 H   0  0  0  0  0
   15.0917   12.9392  -24.9093 H   0  0  0  0  0
   16.0441   14.8990  -23.7026 H   0  0  0  0  0
   18.4163   14.3347  -19.3258 H   0  0  0  0  0
  1  2  1  0  0  0
  2  3  1  0  0  0
  3  4  1  0  0  0
  4  5  2  0  0  0
  4  6  1  0  0  0
  6  7  1  0  0  0
  7  8  1  0  0  0
  7  9  1  0  0  0
  9 10  2  0  0  0
  9 11  1  0  0  0
 11 12  1  0  0  0
 12 13  1  0  0  0
 12 17  1  0  0  0
 13 14  1  0  0  0
 14 15  1  0  0  0
 15 16  3  0  0  0
 17 18  2  0  0  0
 17 19  1  0  0  0
 19 20  1  0  0  0
 20 21  1  0  0  0
 20 28  1  0  0  0
 21 22  1  0  0  0
 22 23  1  0  0  0
 23 24  1  0  0  0
 24 25  1  0  0  0
 25 26  2  0  0  0
 25 27  1  0  0  0
 28 29  2  0  0  0
 28 30  1  0  0  0
 30 31  1  0  0  0
 31 32  1  0  0  0
 31 35  1  0  0  0
 32 33  2  0  0  0
 32 34  1  0  0  0
 35 36  1  0  0  0
 36 37  4  0  0  0
 36 44  4  0  0  0
 37 38  4  0  0  0
 37 42  4  0  0  0
 38 39  4  0  0  0
 39 40  4  0  0  0
 40 41  4  0  0  0
 41 42  4  0  0  0
 42 43  4  0  0  0
 43 44  4  0  0  0
  1 45  1  0  0  0
  1 46  1  0  0  0
  1 47  1  0  0  0
  2 48  1  0  0  0
  2 49  1  0  0  0
  6 50  1  0  0  0
  6 51  1  0  0  0
  7 52  1  0  0  0
  8 53  1  0  0  0
 11 54  1  0  0  0
 12 55  1  0  0  0
 13 56  1  0  0  0
 13 57  1  0  0  0
 14 58  1  0  0  0
 14 59  1  0  0  0
 19 60  1  0  0  0
 20 61  1  0  0  0
 21 62  1  0  0  0
 21 63  1  0  0  0
 22 64  1  0  0  0
 22 65  1  0  0  0
 23 66  1  0  0  0
 23 67  1  0  0  0
 24 68  1  0  0  0
 26 69  1  0  0  0
 27 70  1  0  0  0
 27 71  1  0  0  0
 30 72  1  0  0  0
 31 73  1  0  0  0
 34 74  1  0  0  0
 34 75  1  0  0  0
 35 76  1  0  0  0
 35 77  1  0  0  0
 38 78  1  0  0  0
 39 79  1  0  0  0
 40 80  1  0  0  0
 41 81  1  0  0  0
 44 82  1  0  0  0
M  END
$$$$
