1n8u_ligand
  -I-interpret- 

 39 38  0  0  0  0  0  0  0  0999 V2000
   15.5060    0.4920   -7.0240 O   0  0  0  0  0
   15.2670    0.3800   -5.6160 C   0  0  0  0  0
   16.4650    0.9730   -4.8880 C   0  0  0  0  0
   16.7210    0.3200   -3.5410 C   0  0  0  0  0
   18.1880    0.0880   -3.3740 C   0  0  0  0  0
   18.6120    0.0260   -1.9100 C   0  0  0  0  0
   18.1700   -1.2520   -1.2230 C   0  0  0  0  0
   18.8790   -1.4130    0.1190 C   0  0  0  0  0
   18.1810   -2.3990    1.0450 C   0  0  0  0  0
   18.8010   -2.3310    2.4370 C   0  0  0  0  0
   18.0880   -1.3300    3.3240 C   0  0  0  0  0
   18.2910   -1.5730    4.8090 C   0  0  0  0  0
   17.6030   -0.5430    5.6990 C   0  0  0  0  0
   18.1010    0.9010    5.3080 Br  0  0  0  0  0
   14.7611    0.1231   -7.5042 H   0  0  0  0  0
   15.1366   -0.6658   -5.3378 H   0  0  0  0  0
   14.3576    0.9159   -5.3442 H   0  0  0  0  0
   16.2584    2.0287   -4.7122 H   0  0  0  0  0
   17.3457    0.8106   -5.5093 H   0  0  0  0  0
   16.1934   -0.6325   -3.4916 H   0  0  0  0  0
   16.3624    0.9731   -2.7454 H   0  0  0  0  0
   18.7136    0.9219   -3.8394 H   0  0  0  0  0
   18.4293   -0.8708   -3.8330 H   0  0  0  0  0
   18.1438    0.8626   -1.3914 H   0  0  0  0  0
   19.7008    0.0635   -1.8762 H   0  0  0  0  0
   18.4215   -2.1004   -1.8595 H   0  0  0  0  0
   17.0946   -1.2070   -1.0512 H   0  0  0  0  0
   18.8833   -0.4406    0.6114 H   0  0  0  0  0
   19.8809   -1.7943   -0.0781 H   0  0  0  0  0
   18.2961   -3.4079    0.6488 H   0  0  0  0  0
   17.1230   -2.1448    1.1096 H   0  0  0  0  0
   19.8399   -2.0176    2.3338 H   0  0  0  0  0
   18.7180   -3.3157    2.8970 H   0  0  0  0  0
   17.0205   -1.4202    3.1229 H   0  0  0  0  0
   18.4970   -0.3455    3.0969 H   0  0  0  0  0
   19.3612   -1.5107    5.0060 H   0  0  0  0  0
   17.8582   -2.5459    5.0420 H   0  0  0  0  0
   17.8466   -0.7424    6.7426 H   0  0  0  0  0
   16.5235   -0.6058    5.5618 H   0  0  0  0  0
  1  2  1  0  0  0
  2  3  1  0  0  0
  3  4  1  0  0  0
  4  5  1  0  0  0
  5  6  1  0  0  0
  6  7  1  0  0  0
  7  8  1  0  0  0
  8  9  1  0  0  0
  9 10  1  0  0  0
 10 11  1  0  0  0
 11 12  1  0  0  0
 12 13  1  0  0  0
 13 14  1  0  0  0
  1 15  1  0  0  0
  2 16  1  0  0  0
  2 17  1  0  0  0
  3 18  1  0  0  0
  3 19  1  0  0  0
  4 20  1  0  0  0
  4 21  1  0  0  0
  5 22  1  0  0  0
  5 23  1  0  0  0
  6 24  1  0  0  0
  6 25  1  0  0  0
  7 26  1  0  0  0
  7 27  1  0  0  0
  8 28  1  0  0  0
  8 29  1  0  0  0
  9 30  1  0  0  0
  9 31  1  0  0  0
 10 32  1  0  0  0
 10 33  1  0  0  0
 11 34  1  0  0  0
 11 35  1  0  0  0
 12 36  1  0  0  0
 12 37  1  0  0  0
 13 38  1  0  0  0
 13 39  1  0  0  0
M  END
$$$$
