3prz_ligand
  -I-interpret- 

 31 33  0  0  0  0  0  0  0  0999 V2000
   45.0840   11.6540   28.1400 C   0  0  0  0  0
   47.0800   12.8710   28.6430 N   0  0  0  0  0
   47.6880   13.8510   29.3170 C   0  0  0  0  0
   49.0510   14.0620   29.0950 N   0  0  0  0  0
   47.0000   14.6500   30.2100 C   0  0  0  0  0
   45.6410   14.4230   30.3900 C   0  0  0  0  0
   44.9730   15.2460   31.2890 C   0  0  0  0  0
   45.0210   13.4490   29.7120 N   0  0  0  0  0
   45.7740   12.7280   28.8800 C   0  0  0  0  0
   46.9750   16.4670   31.7720 C   0  0  0  0  0
   45.6300   16.2520   31.9720 C   0  0  0  0  0
   47.6550   15.6570   30.8910 C   0  0  0  0  0
   43.5350   15.0910   31.5970 C   0  0  0  0  0
   43.0290   15.8360   32.4270 O   0  0  0  0  0
   42.8810   14.0770   30.9200 N   0  0  0  0  0
   41.5970   13.6710   31.2610 C   0  0  0  0  0
   40.8200   12.7810   30.4790 C   0  0  0  0  0
   39.6420   12.6310   31.1640 C   0  0  0  0  0
   39.7550   13.4130   32.2740 N   0  0  0  0  0
   40.9330   14.0460   32.3640 N   0  0  0  0  0
   45.1747   11.8361   27.0692 H   0  0  0  0  0
   45.5388   10.6946   28.3865 H   0  0  0  0  0
   44.0306   11.6407   28.4196 H   0  0  0  0  0
   49.5566   13.4747   28.4318 H   0  0  0  0  0
   49.5406   14.8034   29.5961 H   0  0  0  0  0
   47.4931   17.2658   32.3027 H   0  0  0  0  0
   45.0798   16.8791   32.6734 H   0  0  0  0  0
   48.7217   15.8121   30.7292 H   0  0  0  0  0
   43.3566   13.6129   30.1461 H   0  0  0  0  0
   41.0993   12.3149   29.5341 H   0  0  0  0  0
   38.7903   12.0133   30.8792 H   0  0  0  0  0
  9  1  1  0  0  0
  2  3  4  0  0  0
  2  9  4  0  0  0
  3  4  1  0  0  0
  3  5  4  0  0  0
  5  6  4  0  0  0
  5 12  4  0  0  0
  6  7  4  0  0  0
  6  8  4  0  0  0
  7 11  4  0  0  0
  7 13  1  0  0  0
  8  9  4  0  0  0
 11 10  4  0  0  0
 10 12  4  0  0  0
 13 14  2  0  0  0
 13 15  1  0  0  0
 15 16  1  0  0  0
 16 17  4  0  0  0
 16 20  4  0  0  0
 17 18  4  0  0  0
 18 19  4  0  0  0
 19 20  4  0  0  0
  1 21  1  0  0  0
  1 22  1  0  0  0
  1 23  1  0  0  0
  4 24  1  0  0  0
  4 25  1  0  0  0
 10 26  1  0  0  0
 11 27  1  0  0  0
 12 28  1  0  0  0
 15 29  1  0  0  0
 17 30  1  0  0  0
 18 31  1  0  0  0
M  END
$$$$
