6gu6_ligand
  -I-interpret- 

 57 60  0  0  0  0  0  0  0  0999 V2000
   23.8040   22.1230   -1.3320 C   0  0  0  0  0
   23.6830   24.5230   -1.7840 N   0  0  0  0  0
   24.9840   24.8500   -1.2390 C   0  0  0  0  0
   27.0660   23.6290   -1.9470 C   0  0  0  0  0
   28.4410   24.4750   -3.7080 C   0  0  0  0  0
   25.1920   19.8470   -0.2950 C   0  0  0  0  0
   25.6640   17.7860   -1.5250 C   0  0  0  0  0
   23.2550   18.3940   -1.0240 C   0  0  0  0  0
   21.1330   17.9010    0.2600 C   0  0  0  0  0
   17.8770   20.8080   -2.0380 C   0  0  0  0  0
   19.0040   20.9420   -3.0480 C   0  0  0  0  0
   20.0040   22.0250   -2.7670 C   0  0  0  0  0
   19.8990   23.3830   -2.9810 C   0  0  0  0  0
   21.0200   24.0400   -2.6850 N   0  0  0  0  0
   21.8680   23.0670   -2.2260 N   0  0  0  0  0
   21.2820   21.8090   -2.2720 C   0  0  0  0  0
   21.9330   20.7000   -1.8490 N   0  0  0  0  0
   23.1970   20.8580   -1.3830 C   0  0  0  0  0
   23.1320   23.2580   -1.7670 C   0  0  0  0  0
   26.1560   24.6510   -2.1710 C   0  0  0  0  0
   28.2140   23.5470   -2.7230 C   0  0  0  0  0
   27.5410   25.4520   -3.9350 N   0  0  0  0  0
   26.3870   25.5100   -3.2280 C   0  0  0  0  0
   27.7920   26.3560   -4.8590 O   0  0  0  0  0
   23.8760   19.7390   -0.9460 N   0  0  0  0  0
   25.9010   18.5230   -0.2510 C   0  0  0  0  0
   24.2140   17.3400   -1.5710 C   0  0  0  0  0
   22.6370   18.0120    0.3240 C   0  0  0  0  0
   20.5090   19.0930   -0.2030 O   0  0  0  0  0
   24.8187   22.2158   -0.9449 H   0  0  0  0  0
   23.1395   25.2752   -2.2072 H   0  0  0  0  0
   25.1429   24.1769   -0.3965 H   0  0  0  0  0
   24.9588   25.9129   -0.9987 H   0  0  0  0  0
   26.8806   22.8930   -1.1647 H   0  0  0  0  0
   29.3499   24.4219   -4.3073 H   0  0  0  0  0
   25.0415   20.1900    0.7286 H   0  0  0  0  0
   25.8025   20.5444   -0.8685 H   0  0  0  0  0
   26.3192   16.9164   -1.5755 H   0  0  0  0  0
   25.8768   18.4370   -2.3729 H   0  0  0  0  0
   22.4426   18.4361   -1.7495 H   0  0  0  0  0
   20.7703   17.7058    1.2692 H   0  0  0  0  0
   20.8876   17.1030   -0.4407 H   0  0  0  0  0
   18.2955   20.5910   -1.0552 H   0  0  0  0  0
   17.3148   21.7409   -1.9970 H   0  0  0  0  0
   17.2150   19.9963   -2.3397 H   0  0  0  0  0
   18.5369   21.1926   -4.0004 H   0  0  0  0  0
   19.5533   20.0008   -3.0243 H   0  0  0  0  0
   18.9959   23.8673   -3.3525 H   0  0  0  0  0
   28.9338   22.7469   -2.5502 H   0  0  0  0  0
   25.6291   26.2457   -3.4972 H   0  0  0  0  0
   25.5191   17.9353    0.5838 H   0  0  0  0  0
   26.9706   18.6891   -0.1223 H   0  0  0  0  0
   24.1188   16.4479   -0.9520 H   0  0  0  0  0
   23.9527   17.1591   -2.6136 H   0  0  0  0  0
   22.8862   18.7937    1.0417 H   0  0  0  0  0
   23.0340   17.0386    0.6121 H   0  0  0  0  0
   19.5575   18.9674   -0.2240 H   0  0  0  0  0
 18  1  4  0  0  0
  1 19  4  0  0  0
  2  3  1  0  0  0
 19  2  1  0  0  0
  3 20  1  0  0  0
 20  4  4  0  0  0
  4 21  4  0  0  0
 21  5  4  0  0  0
  5 22  4  0  0  0
 25  6  1  0  0  0
  6 26  1  0  0  0
 26  7  1  0  0  0
 27  7  1  0  0  0
 25  8  1  0  0  0
  8 27  1  0  0  0
  8 28  1  0  0  0
 28  9  1  0  0  0
  9 29  1  0  0  0
 11 10  1  0  0  0
 12 11  1  0  0  0
 12 13  4  0  0  0
 16 12  4  0  0  0
 14 13  4  0  0  0
 15 14  4  0  0  0
 16 15  4  0  0  0
 19 15  4  0  0  0
 17 16  4  0  0  0
 18 17  4  0  0  0
 18 25  1  0  0  0
 20 23  4  0  0  0
 22 23  4  0  0  0
 22 24  2  0  0  0
  1 30  1  0  0  0
  2 31  1  0  0  0
  3 32  1  0  0  0
  3 33  1  0  0  0
  4 34  1  0  0  0
  5 35  1  0  0  0
  6 36  1  0  0  0
  6 37  1  0  0  0
  7 38  1  0  0  0
  7 39  1  0  0  0
  8 40  1  0  0  0
  9 41  1  0  0  0
  9 42  1  0  0  0
 10 43  1  0  0  0
 10 44  1  0  0  0
 10 45  1  0  0  0
 11 46  1  0  0  0
 11 47  1  0  0  0
 13 48  1  0  0  0
 21 49  1  0  0  0
 23 50  1  0  0  0
 26 51  1  0  0  0
 26 52  1  0  0  0
 27 53  1  0  0  0
 27 54  1  0  0  0
 28 55  1  0  0  0
 28 56  1  0  0  0
 29 57  1  0  0  0
M  END
$$$$
