### 
### Created by X-TOOL on Wed Jan  1 15:39:37 2020
### 

@<TRIPOS>MOLECULE
6gu6_ligand
   57    60     1     0     0
SMALL
GAST_HUCK


@<TRIPOS>ATOM
      1 C10        23.8040   22.1230   -1.3320 C.2       1 1QK         0.0374
      2 N12        23.6830   24.5230   -1.7840 N.pl3     1 1QK        -0.2352
      3 C13        24.9840   24.8500   -1.2390 C.3       1 1QK         0.1336
      4 C15        27.0660   23.6290   -1.9470 C.ar      1 1QK         0.0560
      5 C17        28.4410   24.4750   -3.7080 C.ar      1 1QK         0.1196
      6 C22        25.1920   19.8470   -0.2950 C.3       1 1QK         0.0319
      7 C24        25.6640   17.7860   -1.5250 C.3       1 1QK        -0.0491
      8 C26        23.2550   18.3940   -1.0240 C.3       1 1QK         0.0448
      9 C28        21.1330   17.9010    0.2600 C.3       1 1QK         0.0463
     10 C01        17.8770   20.8080   -2.0380 C.3       1 1QK        -0.0633
     11 C02        19.0040   20.9420   -3.0480 C.3       1 1QK        -0.0449
     12 C03        20.0040   22.0250   -2.7670 C.2       1 1QK        -0.0335
     13 C04        19.8990   23.3830   -2.9810 C.2       1 1QK        -0.0253
     14 N05        21.0200   24.0400   -2.6850 N.2       1 1QK        -0.2274
     15 N06        21.8680   23.0670   -2.2260 N.pl3     1 1QK        -0.1272
     16 C07        21.2820   21.8090   -2.2720 C.2       1 1QK         0.1313
     17 N08        21.9330   20.7000   -1.8490 N.2       1 1QK        -0.2989
     18 C09        23.1970   20.8580   -1.3830 C.2       1 1QK         0.0873
     19 C11        23.1320   23.2580   -1.7670 C.2       1 1QK         0.2203
     20 C14        26.1560   24.6510   -2.1710 C.ar      1 1QK         0.1313
     21 C16        28.2140   23.5470   -2.7230 C.ar      1 1QK         0.0471
     22 N18        27.5410   25.4520   -3.9350 N.ar      1 1QK        -0.0824
     23 C19        26.3870   25.5100   -3.2280 C.ar      1 1QK         0.1504
     24 O20        27.7920   26.3560   -4.8590 O.2       1 1QK        -0.1658
     25 N21        23.8760   19.7390   -0.9460 N.pl3     1 1QK        -0.2902
     26 C23        25.9010   18.5230   -0.2510 C.3       1 1QK        -0.0324
     27 C25        24.2140   17.3400   -1.5710 C.3       1 1QK        -0.0295
     28 C27        22.6370   18.0120    0.3240 C.3       1 1QK        -0.0064
     29 O29        20.5090   19.0930   -0.2030 O.3       1 1QK        -0.3949
     30 H1         24.8178   22.2157   -0.9452 H         1 1QK         0.0368
     31 H2         23.1341   25.2826   -2.2114 H         1 1QK         0.2030
     32 H3         25.1469   24.2193   -0.3526 H         1 1QK         0.1090
     33 H4         24.9678   25.9080   -0.9383 H         1 1QK         0.1090
     34 H5         26.8816   22.8970   -1.1690 H         1 1QK         0.1051
     35 H6         29.3449   24.4222   -4.3040 H         1 1QK         0.1546
     36 H7         25.0520   20.2106    0.7337 H         1 1QK         0.0523
     37 H8         25.8096   20.5635   -0.8564 H         1 1QK         0.0523
     38 H9         26.3227   16.9063   -1.5710 H         1 1QK         0.0267
     39 H10        25.8745   18.4468   -2.3788 H         1 1QK         0.0267
     40 H11        22.4269   18.4640   -1.7446 H         1 1QK         0.0559
     41 H12        20.7545   17.6754    1.2679 H         1 1QK         0.0558
     42 H13        20.8704   17.0795   -0.4227 H         1 1QK         0.0558
     43 H14        17.2082   19.9891   -2.3414 H         1 1QK         0.0240
     44 H15        17.3087   21.7489   -1.9957 H         1 1QK         0.0240
     45 H16        18.2980   20.5889   -1.0457 H         1 1QK         0.0240
     46 H17        18.5544   21.1440   -4.0314 H         1 1QK         0.0312
     47 H18        19.5437   19.9841   -3.0814 H         1 1QK         0.0312
     48 H19        18.9967   23.8668   -3.3521 H         1 1QK         0.0579
     49 H20        28.9299   22.7513   -2.5512 H         1 1QK         0.1042
     50 H21        25.6333   26.2416   -3.4957 H         1 1QK         0.1437
     51 H22        25.5168   17.9298    0.5919 H         1 1QK         0.0285
     52 H23        26.9803   18.6899   -0.1201 H         1 1QK         0.0285
     53 H24        24.1086   16.4237   -0.9716 H         1 1QK         0.0288
     54 H25        23.9443   17.1276   -2.6160 H         1 1QK         0.0288
     55 H26        22.9027   18.7809    1.0644 H         1 1QK         0.0310
     56 H27        23.0491   17.0419    0.6387 H         1 1QK         0.0310
     57 H28        20.8223   19.2942   -1.0769 H         1 1QK         0.2094
@<TRIPOS>BOND
     1   18    1 1  
     2    1   19 2  
     3    2    3 1  
     4   19    2 1  
     5    3   20 1  
     6   20    4 ar 
     7    4   21 ar 
     8   21    5 ar 
     9    5   22 ar 
    10   25    6 1  
    11    6   26 1  
    12   26    7 1  
    13   27    7 1  
    14   25    8 1  
    15    8   27 1  
    16    8   28 1  
    17   28    9 1  
    18    9   29 1  
    19   11   10 1  
    20   12   11 1  
    21   12   13 1  
    22   16   12 2  
    23   14   13 2  
    24   15   14 1  
    25   16   15 1  
    26   19   15 1  
    27   17   16 1  
    28   18   17 2  
    29   18   25 1  
    30   20   23 ar 
    31   22   23 ar 
    32   22   24 2  
    33    1   30 1  
    34    2   31 1  
    35    3   32 1  
    36    3   33 1  
    37    4   34 1  
    38    5   35 1  
    39    6   36 1  
    40    6   37 1  
    41    7   38 1  
    42    7   39 1  
    43    8   40 1  
    44    9   41 1  
    45    9   42 1  
    46   10   43 1  
    47   10   44 1  
    48   10   45 1  
    49   11   46 1  
    50   11   47 1  
    51   13   48 1  
    52   21   49 1  
    53   23   50 1  
    54   26   51 1  
    55   26   52 1  
    56   27   53 1  
    57   27   54 1  
    58   28   55 1  
    59   28   56 1  
    60   29   57 1  
@<TRIPOS>SUBSTRUCTURE
     1 1QK         1

