2vex_ligand
  -I-interpret- 

 69 73  0  0  0  0  0  0  0  0999 V2000
   18.9950   16.6810   82.1540 C   0  0  0  0  0
   20.2680   17.3030   81.6540 C   0  0  0  0  0
   21.4180   16.6200   82.3030 C   0  0  0  0  0
   21.1440   15.3820   82.7140 N   0  0  0  0  0
   19.4000   14.9480   82.4380 S   0  0  0  0  0
   18.4540   14.5750   83.7760 O   0  0  0  0  0
   18.9890   14.1490   81.0150 O   0  0  0  0  0
   22.5230   17.1250   82.4980 O   0  0  0  0  0
   17.7650   16.8560   81.3000 C   0  0  0  0  0
   17.8460   16.6820   79.8450 C   0  0  0  0  0
   16.6380   16.8570   79.0200 C   0  0  0  0  0
   15.3600   17.2080   79.6630 C   0  0  0  0  0
   15.2900   17.3790   81.1110 C   0  0  0  0  0
   16.4930   17.2040   81.9310 C   0  0  0  0  0
   14.1240   17.3920   78.8300 C   0  0  0  0  0
   13.5670   18.8290   78.8950 C   0  0  0  0  0
   12.2370   18.8140   78.2660 N   0  0  0  0  0
   11.1250   20.1440   78.5230 S   0  0  0  0  0
    9.6070   19.4500   78.1370 O   0  0  0  0  0
   11.2840   20.6440   80.1270 O   0  0  0  0  0
   15.5360   20.5450   76.2350 C   0  0  0  0  0
   16.1730   21.1390   77.4810 C   0  0  0  0  0
   14.4770   19.6530   76.7170 N   0  0  0  0  0
   14.5280   19.7400   78.1270 C   0  0  0  0  0
   15.4680   20.6390   78.6820 N   0  0  0  0  0
   11.1460   22.3710   73.6980 F   0  0  0  0  0
   11.6060   22.4070   75.0680 C   0  0  0  0  0
   12.5110   23.4750   75.5080 C   0  0  0  0  0
   11.1750   21.3770   76.0070 C   0  0  0  0  0
   11.6440   21.4060   77.3840 C   0  0  0  0  0
   12.5510   22.4710   77.8310 C   0  0  0  0  0
   12.9830   23.5060   76.8910 C   0  0  0  0  0
   15.9070   19.0830   74.1930 C   0  0  0  0  0
   16.5360   19.6800   75.4400 C   0  0  0  0  0
   17.7290   17.6670   73.0160 C   0  0  0  0  0
   16.4500   17.7370   73.7390 C   0  0  0  0  0
   15.6860   16.5060   74.0060 C   0  0  0  0  0
   16.2010   15.2110   73.5460 C   0  0  0  0  0
   17.4800   15.1470   72.8190 C   0  0  0  0  0
   18.2420   16.3720   72.5560 C   0  0  0  0  0
   18.6832   17.2063   83.0568 H   0  0  0  0  0
   20.2822   18.3653   81.8978 H   0  0  0  0  0
   20.3342   17.1927   80.5716 H   0  0  0  0  0
   21.8299   14.7539   83.1328 H   0  0  0  0  0
   18.7960   16.4244   79.3767 H   0  0  0  0  0
   16.6897   16.7274   77.9390 H   0  0  0  0  0
   14.3422   17.6371   81.5834 H   0  0  0  0  0
   16.4388   17.3335   83.0119 H   0  0  0  0  0
   13.3581   16.7196   79.2165 H   0  0  0  0  0
   14.3864   17.1825   77.7930 H   0  0  0  0  0
   13.4775   19.1941   79.9181 H   0  0  0  0  0
   11.9613   18.0271   77.6785 H   0  0  0  0  0
   15.1817   21.3447   75.5846 H   0  0  0  0  0
   16.1001   22.2259   77.4432 H   0  0  0  0  0
   17.2219   20.8463   77.5274 H   0  0  0  0  0
   15.6210   20.8811   79.6610 H   0  0  0  0  0
   12.8307   24.2439   74.8047 H   0  0  0  0  0
   10.5017   20.5858   75.6770 H   0  0  0  0  0
   12.9023   22.4905   78.8626 H   0  0  0  0  0
   13.6551   24.2980   77.2213 H   0  0  0  0  0
   16.1172   19.7824   73.3838 H   0  0  0  0  0
   14.8563   18.9199   74.4327 H   0  0  0  0  0
   16.8636   18.8618   76.0813 H   0  0  0  0  0
   17.3662   20.3155   75.1319 H   0  0  0  0  0
   18.2958   18.5776   72.8220 H   0  0  0  0  0
   14.7396   16.5569   74.5444 H   0  0  0  0  0
   15.6380   14.2985   73.7421 H   0  0  0  0  0
   17.8617   14.1857   72.4751 H   0  0  0  0  0
   19.1891   16.3203   72.0190 H   0  0  0  0  0
  1  2  1  0  0  0
  1  5  1  0  0  0
  9  1  1  0  0  0
  2  3  1  0  0  0
  4  3  1  0  0  0
  3  8  2  0  0  0
  5  4  1  0  0  0
  5  6  2  0  0  0
  5  7  2  0  0  0
 10  9  4  0  0  0
 14  9  4  0  0  0
 11 10  4  0  0  0
 12 11  4  0  0  0
 12 13  4  0  0  0
 15 12  1  0  0  0
 13 14  4  0  0  0
 16 15  1  0  0  0
 17 16  1  0  0  0
 16 24  1  0  0  0
 18 17  1  0  0  0
 18 19  2  0  0  0
 18 20  2  0  0  0
 30 18  1  0  0  0
 22 21  1  0  0  0
 23 21  1  0  0  0
 21 34  1  0  0  0
 25 22  1  0  0  0
 24 23  2  0  0  0
 24 25  1  0  0  0
 27 26  1  0  0  0
 27 28  4  0  0  0
 29 27  4  0  0  0
 28 32  4  0  0  0
 29 30  4  0  0  0
 30 31  4  0  0  0
 31 32  4  0  0  0
 34 33  1  0  0  0
 33 36  1  0  0  0
 36 35  4  0  0  0
 35 40  4  0  0  0
 36 37  4  0  0  0
 37 38  4  0  0  0
 38 39  4  0  0  0
 39 40  4  0  0  0
  1 41  1  0  0  0
  2 42  1  0  0  0
  2 43  1  0  0  0
  4 44  1  0  0  0
 10 45  1  0  0  0
 11 46  1  0  0  0
 13 47  1  0  0  0
 14 48  1  0  0  0
 15 49  1  0  0  0
 15 50  1  0  0  0
 16 51  1  0  0  0
 17 52  1  0  0  0
 21 53  1  0  0  0
 22 54  1  0  0  0
 22 55  1  0  0  0
 25 56  1  0  0  0
 28 57  1  0  0  0
 29 58  1  0  0  0
 31 59  1  0  0  0
 32 60  1  0  0  0
 33 61  1  0  0  0
 33 62  1  0  0  0
 34 63  1  0  0  0
 34 64  1  0  0  0
 35 65  1  0  0  0
 37 66  1  0  0  0
 38 67  1  0  0  0
 39 68  1  0  0  0
 40 69  1  0  0  0
M  END
$$$$
