1py5_ligand
  -I-interpret- 

 32 35  0  0  0  0  0  0  0  0999 V2000
    4.6090    8.3280    5.5710 C   0  0  0  0  0
    5.3520    9.5570    6.0020 C   0  0  0  0  0
    5.4320    9.5820    7.3760 N   0  0  0  0  0
    4.7780    8.4320    7.8050 N   0  0  0  0  0
    4.2760    7.6560    6.7640 C   0  0  0  0  0
    4.2630    7.8460    4.1490 C   0  0  0  0  0
    5.9580   10.6290    5.1760 C   0  0  0  0  0
    7.2200   11.0770    5.6250 N   0  0  0  0  0
    7.9620   12.0110    5.0350 C   0  0  0  0  0
    7.4620   12.6140    3.8550 C   0  0  0  0  0
    6.1610   12.1990    3.3270 C   0  0  0  0  0
    5.3760   11.1980    3.9700 C   0  0  0  0  0
    2.8860    7.4780    3.6980 C   0  0  0  0  0
    2.7400    7.0350    2.2850 C   0  0  0  0  0
    3.8770    7.0140    1.4480 N   0  0  0  0  0
    5.1370    7.3470    1.8470 C   0  0  0  0  0
    5.3660    7.7760    3.1880 C   0  0  0  0  0
    1.6560    7.4710    4.5120 C   0  0  0  0  0
    0.3780    7.0750    3.9550 C   0  0  0  0  0
    0.2790    6.6680    2.5940 C   0  0  0  0  0
    1.4470    6.6570    1.7660 C   0  0  0  0  0
    3.7330    6.7152    6.8539 H   0  0  0  0  0
    8.9273   12.3037    5.4482 H   0  0  0  0  0
    8.0420   13.3820    3.3433 H   0  0  0  0  0
    5.7829   12.6678    2.4185 H   0  0  0  0  0
    4.4069   10.8808    3.5849 H   0  0  0  0  0
    5.9673    7.2857    1.1434 H   0  0  0  0  0
    6.3723    8.0546    3.5007 H   0  0  0  0  0
    1.7096    7.7711    5.5585 H   0  0  0  0  0
   -0.5134    7.0888    4.5821 H   0  0  0  0  0
   -0.6843    6.3654    2.1833 H   0  0  0  0  0
    1.3581    6.3569    0.7219 H   0  0  0  0  0
  1  2  4  0  0  0
  1  5  4  0  0  0
  1  6  1  0  0  0
  2  3  4  0  0  0
  2  7  1  0  0  0
  3  4  4  0  0  0
  4  5  4  0  0  0
  6 13  4  0  0  0
  6 17  4  0  0  0
  7  8  4  0  0  0
  7 12  4  0  0  0
  8  9  4  0  0  0
  9 10  4  0  0  0
 10 11  4  0  0  0
 11 12  4  0  0  0
 13 14  4  0  0  0
 13 18  4  0  0  0
 14 15  4  0  0  0
 14 21  4  0  0  0
 15 16  4  0  0  0
 16 17  4  0  0  0
 18 19  4  0  0  0
 19 20  4  0  0  0
 20 21  4  0  0  0
  5 22  1  0  0  0
  9 23  1  0  0  0
 10 24  1  0  0  0
 11 25  1  0  0  0
 12 26  1  0  0  0
 16 27  1  0  0  0
 17 28  1  0  0  0
 18 29  1  0  0  0
 19 30  1  0  0  0
 20 31  1  0  0  0
 21 32  1  0  0  0
M  END
$$$$
