6b4l_ligand
  -I-interpret- 

 44 47  0  0  0  0  0  0  0  0999 V2000
   13.5980  -12.6650   13.1730 C   0  0  0  0  0
   10.0970   -8.9290    9.1350 C   0  0  0  0  0
   12.0380   -5.8730    8.7370 C   0  0  0  0  0
   11.7320   -5.8890   11.4760 C   0  0  0  0  0
   12.8120  -10.3980   13.4890 C   0  0  0  0  0
   12.7380  -13.1360   14.1410 C   0  0  0  0  0
   11.1670   -6.9010   10.7130 C   0  0  0  0  0
   11.0120  -10.2060   15.3330 C   0  0  0  0  0
   10.4460   -7.9330   11.2920 C   0  0  0  0  0
    9.2330   -8.5480   13.2590 C   0  0  0  0  0
    9.4620  -11.0940   17.1780 C   0  0  0  0  0
   12.6040   -4.8730    9.5090 C   0  0  0  0  0
   12.4510   -4.8800   10.8780 C   0  0  0  0  0
   13.6270  -11.3220   12.8610 C   0  0  0  0  0
   10.7970   -7.9010    8.5500 C   0  0  0  0  0
    9.9200   -8.9500   10.5010 C   0  0  0  0  0
   11.3230   -6.8910    9.3350 C   0  0  0  0  0
   11.9490  -10.8500   14.4730 C   0  0  0  0  0
   11.9340  -12.2020   14.7680 C   0  0  0  0  0
   10.4560  -11.1880   16.1400 C   0  0  0  0  0
   10.7070   -8.7540   15.3440 C   0  0  0  0  0
    9.3480   -8.4090   14.7660 C   0  0  0  0  0
   11.0250  -12.3790   15.7760 N   0  0  0  0  0
    9.0320  -10.0900   17.7250 O   0  0  0  0  0
    9.0570  -12.3380   17.5130 O   0  0  0  0  0
   10.3520   -7.8890   12.6880 O   0  0  0  0  0
   14.2587  -13.3573   12.6512 H   0  0  0  0  0
    9.6824   -9.7268    8.5188 H   0  0  0  0  0
   12.1573   -5.8564    7.6537 H   0  0  0  0  0
   11.6050   -5.8935   12.5586 H   0  0  0  0  0
   12.8480   -9.3431   13.2169 H   0  0  0  0  0
   12.6936  -14.1938   14.4000 H   0  0  0  0  0
    8.3038   -8.1029   12.9032 H   0  0  0  0  0
    9.2198   -9.5993   12.9713 H   0  0  0  0  0
   13.1737   -4.0760    9.0312 H   0  0  0  0  0
   12.8968   -4.0910   11.4837 H   0  0  0  0  0
   14.3173  -10.9763   12.0915 H   0  0  0  0  0
   10.9374   -7.8817    7.4692 H   0  0  0  0  0
    9.3658   -9.7664   10.9641 H   0  0  0  0  0
   11.4574   -8.2598   14.7269 H   0  0  0  0  0
   10.7093   -8.4295   16.3846 H   0  0  0  0  0
    8.6357   -9.1105   15.2004 H   0  0  0  0  0
    9.1661   -7.3597   14.9984 H   0  0  0  0  0
    9.5147  -12.9805   16.9659 H   0  0  0  0  0
  6  1  4  0  0  0
 14  1  4  0  0  0
  2 15  4  0  0  0
 16  2  4  0  0  0
  3 12  4  0  0  0
 17  3  4  0  0  0
  7  4  4  0  0  0
  4 13  4  0  0  0
  5 14  4  0  0  0
 18  5  4  0  0  0
 19  6  4  0  0  0
  9  7  4  0  0  0
  7 17  4  0  0  0
  8 18  4  0  0  0
  8 20  4  0  0  0
 21  8  1  0  0  0
  9 16  4  0  0  0
 26  9  1  0  0  0
 22 10  1  0  0  0
 10 26  1  0  0  0
 20 11  1  0  0  0
 11 24  2  0  0  0
 11 25  1  0  0  0
 13 12  4  0  0  0
 17 15  4  0  0  0
 18 19  4  0  0  0
 23 19  4  0  0  0
 20 23  4  0  0  0
 21 22  1  0  0  0
  1 27  1  0  0  0
  2 28  1  0  0  0
  3 29  1  0  0  0
  4 30  1  0  0  0
  5 31  1  0  0  0
  6 32  1  0  0  0
 10 33  1  0  0  0
 10 34  1  0  0  0
 12 35  1  0  0  0
 13 36  1  0  0  0
 14 37  1  0  0  0
 15 38  1  0  0  0
 16 39  1  0  0  0
 21 40  1  0  0  0
 21 41  1  0  0  0
 22 42  1  0  0  0
 22 43  1  0  0  0
 25 44  1  0  0  0
M  END
$$$$
