6fni_ligand
  -I-interpret- 

 57 61  0  0  0  0  0  0  0  0999 V2000
   20.8770   96.0520    3.2010 C   0  0  0  0  0
   20.0500   95.1880    2.2560 C   0  0  0  0  0
   18.6520   95.2690    2.2920 C   0  0  0  0  0
   17.8910   94.4970    1.4420 C   0  0  0  0  0
   18.5100   93.6250    0.5700 C   0  0  0  0  0
   19.8990   93.5480    0.5110 C   0  0  0  0  0
   20.6660   94.3360    1.3730 C   0  0  0  0  0
   17.6120   92.7970   -0.3870 C   0  0  0  0  0
   16.4610   92.6910   -0.1690 O   0  0  0  0  0
   18.2700   92.2250   -1.5900 N   0  0  0  0  0
   17.5740   91.4870   -2.6250 C   0  0  0  0  0
   18.2430   90.5120   -3.3520 C   0  0  0  0  0
   17.5720   89.8420   -4.3670 C   0  0  0  0  0
   16.2630   90.1530   -4.6590 C   0  0  0  0  0
   15.6210   91.1320   -3.9560 C   0  0  0  0  0
   16.3030   91.8190   -2.9230 C   0  0  0  0  0
   14.1740   91.4870   -4.2580 C   0  0  0  0  0
   13.8340   90.9360   -5.4490 F   0  0  0  0  0
   14.0400   92.8460   -4.3190 F   0  0  0  0  0
   13.4030   91.0180   -3.2600 F   0  0  0  0  0
   17.9620   96.1890    3.2230 N   0  0  0  0  0
   17.6840   95.8010    4.6250 C   0  0  0  0  0
   18.1650   94.6830    5.1210 N   0  0  0  0  0
   17.9280   94.3120    6.3760 C   0  0  0  0  0
   17.1990   95.0610    7.2060 N   0  0  0  0  0
   16.6600   96.2400    6.7840 C   0  0  0  0  0
   16.8850   96.6350    5.4930 C   0  0  0  0  0
   16.2140   97.8740    5.3420 C   0  0  0  0  0
   15.6290   98.1710    6.5000 N   0  0  0  0  0
   15.8900   97.2000    7.3640 N   0  0  0  0  0
   15.4080   97.1900    8.7260 C   0  0  0  0  0
   18.5540   92.9720    6.8520 C   0  0  0  0  0
   19.1010   92.0890    5.8990 C   0  0  0  0  0
   19.6470   90.9520    6.2640 N   0  0  0  0  0
   19.6990   90.6060    7.5370 C   0  0  0  0  0
   19.1740   91.4390    8.5550 C   0  0  0  0  0
   18.5940   92.6450    8.2050 C   0  0  0  0  0
   20.6636   97.1037    3.0102 H   0  0  0  0  0
   20.6200   95.8090    4.2320 H   0  0  0  0  0
   21.9367   95.8589    3.0342 H   0  0  0  0  0
   16.8039   94.5747    1.4582 H   0  0  0  0  0
   20.3833   92.8795   -0.2008 H   0  0  0  0  0
   21.7539   94.2743    1.3444 H   0  0  0  0  0
   19.2756   92.3603   -1.6941 H   0  0  0  0  0
   19.2832   90.2748   -3.1289 H   0  0  0  0  0
   18.0845   89.0659   -4.9354 H   0  0  0  0  0
   15.7392   89.6179   -5.4511 H   0  0  0  0  0
   15.8014   92.6137   -2.3708 H   0  0  0  0  0
   17.6719   97.1093    2.8925 H   0  0  0  0  0
   16.1825   98.4784    4.4355 H   0  0  0  0  0
   14.7882   96.3074    8.8842 H   0  0  0  0  0
   16.2563   97.1673    9.4101 H   0  0  0  0  0
   14.8172   98.0878    8.9076 H   0  0  0  0  0
   19.0702   92.3543    4.8422 H   0  0  0  0  0
   20.1573   89.6558    7.8113 H   0  0  0  0  0
   19.2263   91.1339    9.6001 H   0  0  0  0  0
   18.1833   93.3148    8.9605 H   0  0  0  0  0
  1  2  1  0  0  0
  2  3  4  0  0  0
  2  7  4  0  0  0
  3  4  4  0  0  0
  3 21  1  0  0  0
  4  5  4  0  0  0
  5  6  4  0  0  0
  5  8  1  0  0  0
  6  7  4  0  0  0
  8  9  2  0  0  0
  8 10  1  0  0  0
 10 11  1  0  0  0
 11 12  4  0  0  0
 11 16  4  0  0  0
 12 13  4  0  0  0
 13 14  4  0  0  0
 14 15  4  0  0  0
 15 16  4  0  0  0
 15 17  1  0  0  0
 17 18  1  0  0  0
 17 19  1  0  0  0
 17 20  1  0  0  0
 21 22  1  0  0  0
 22 23  4  0  0  0
 22 27  4  0  0  0
 23 24  4  0  0  0
 24 25  4  0  0  0
 24 32  1  0  0  0
 25 26  4  0  0  0
 26 27  4  0  0  0
 26 30  4  0  0  0
 27 28  4  0  0  0
 28 29  4  0  0  0
 29 30  4  0  0  0
 30 31  1  0  0  0
 32 33  4  0  0  0
 32 37  4  0  0  0
 33 34  4  0  0  0
 34 35  4  0  0  0
 35 36  4  0  0  0
 36 37  4  0  0  0
  1 38  1  0  0  0
  1 39  1  0  0  0
  1 40  1  0  0  0
  4 41  1  0  0  0
  6 42  1  0  0  0
  7 43  1  0  0  0
 10 44  1  0  0  0
 12 45  1  0  0  0
 13 46  1  0  0  0
 14 47  1  0  0  0
 16 48  1  0  0  0
 21 49  1  0  0  0
 28 50  1  0  0  0
 31 51  1  0  0  0
 31 52  1  0  0  0
 31 53  1  0  0  0
 33 54  1  0  0  0
 35 55  1  0  0  0
 36 56  1  0  0  0
 37 57  1  0  0  0
M  END
$$$$
