### 
### Created by X-TOOL on Mon Sep 10 21:13:28 2018
### 

@<TRIPOS>MOLECULE
5a7i_ligand
   46    47     1     0     0
SMALL
GAST_HUCK


@<TRIPOS>ATOM
      1 C1         42.7910  -56.6230   15.0890 C.ar      1 B6K         0.0579
      2 C2         42.6410  -56.8960   16.4570 C.ar      1 B6K         0.0479
      3 C3         41.6910  -57.8140   16.9010 C.ar      1 B6K         0.2560
      4 O3         41.4720  -58.1250   18.2120 O.3       1 B6K        -0.1978
      5 P3         42.5400  -58.2310   19.4080 P.3       1 B6K         0.1631
      6 C4         40.8170  -58.4930   15.9190 C.ar      1 B6K         0.3243
      7 O4         39.8830  -59.4090   16.3080 O.3       1 B6K        -0.1451
      8 P4         40.2940  -60.9770   16.3480 P.3       1 B6K         0.1979
      9 C5         40.9820  -58.1820   14.4960 C.ar      1 B6K         0.2560
     10 O5         40.1800  -58.8550   13.6120 O.3       1 B6K        -0.1978
     11 P5         39.1430  -58.2150   12.5610 P.3       1 B6K         0.1631
     12 C6         41.9700  -57.2640   14.1290 C.ar      1 B6K         0.0479
     13 C14        43.8350  -55.6340   14.6460 C.ar      1 B6K         0.0579
     14 C15        44.1820  -54.5340   15.4490 C.ar      1 B6K         0.0479
     15 C16        45.1460  -53.5980   15.0550 C.ar      1 B6K         0.2560
     16 O16        45.4920  -52.5260   15.8470 O.3       1 B6K        -0.1978
     17 P16        44.5210  -51.2810   16.1830 P.3       1 B6K         0.1631
     18 C17        45.8420  -53.7980   13.7670 C.ar      1 B6K         0.3243
     19 O17        46.7770  -52.9070   13.3050 O.3       1 B6K        -0.1451
     20 P17        48.3370  -52.8740   13.6920 P.3       1 B6K         0.1979
     21 C18        45.4480  -54.9650   12.9490 C.ar      1 B6K         0.2560
     22 O18        46.0660  -55.1950   11.7450 O.3       1 B6K        -0.1978
     23 P18        47.2140  -56.3380   11.6060 P.3       1 B6K         0.1631
     24 C19        44.4730  -55.8350   13.4200 C.ar      1 B6K         0.0479
     25 O31        43.8690  -57.7780   18.8520 O.co2     1 B6K        -0.6278
     26 O32        42.5250  -59.6740   19.8620 O.co2     1 B6K        -0.6278
     27 O33        41.8630  -57.3030   20.3890 O.co2     1 B6K        -0.6278
     28 O41        40.7950  -61.2460   14.9420 O.co2     1 B6K        -0.6211
     29 O42        38.9690  -61.5880   16.7010 O.co2     1 B6K        -0.6211
     30 O43        41.3480  -61.2130   17.4090 O.co2     1 B6K        -0.6211
     31 O51        39.8940  -58.0890   11.2530 O.co2     1 B6K        -0.6278
     32 O52        38.0500  -59.2510   12.5190 O.co2     1 B6K        -0.6278
     33 O53        38.7150  -56.9250   13.2070 O.co2     1 B6K        -0.6278
     34 O61        44.2220  -50.6780   14.8230 O.co2     1 B6K        -0.6278
     35 O62        43.3660  -51.9110   16.9280 O.co2     1 B6K        -0.6278
     36 O63        45.3660  -50.4110   17.0870 O.co2     1 B6K        -0.6278
     37 O71        48.4490  -53.6720   14.9750 O.co2     1 B6K        -0.6211
     38 O72        48.9940  -53.4230   12.4450 O.co2     1 B6K        -0.6211
     39 O73        48.5790  -51.3970   13.8550 O.co2     1 B6K        -0.6211
     40 O81        47.4870  -56.2850   10.1190 O.co2     1 B6K        -0.6278
     41 O82        46.5910  -57.6020   12.1640 O.co2     1 B6K        -0.6278
     42 O83        48.3960  -55.9200   12.4450 O.co2     1 B6K        -0.6278
     43 H1         43.2714  -56.3869   17.1771 H         1 B6K         0.0784
     44 H2         42.1122  -57.0359   13.0789 H         1 B6K         0.0784
     45 H3         43.6870  -54.4060   16.4049 H         1 B6K         0.0784
     46 H4         44.1995  -56.6945   12.8188 H         1 B6K         0.0784
@<TRIPOS>BOND
     1    1    2 ar 
     2    1   12 ar 
     3    1   13 1  
     4    2    3 ar 
     5    3    4 1  
     6    3    6 ar 
     7    4    5 1  
     8    5   25 ar 
     9    5   26 ar 
    10    5   27 ar 
    11    6    7 1  
    12    6    9 ar 
    13    7    8 1  
    14    8   28 ar 
    15    8   29 ar 
    16    8   30 ar 
    17    9   10 1  
    18    9   12 ar 
    19   10   11 1  
    20   11   31 ar 
    21   11   32 ar 
    22   11   33 ar 
    23   13   14 ar 
    24   13   24 ar 
    25   14   15 ar 
    26   15   16 1  
    27   15   18 ar 
    28   16   17 1  
    29   17   34 ar 
    30   17   35 ar 
    31   17   36 ar 
    32   18   19 1  
    33   18   21 ar 
    34   19   20 1  
    35   20   37 ar 
    36   20   38 ar 
    37   20   39 ar 
    38   21   22 1  
    39   21   24 ar 
    40   22   23 1  
    41   23   40 ar 
    42   23   41 ar 
    43   23   42 ar 
    44    2   43 1  
    45   12   44 1  
    46   14   45 1  
    47   24   46 1  
@<TRIPOS>SUBSTRUCTURE
     1 B6K         1

