5a7i_ligand
  -I-interpret- 

 58 59  0  0  0  0  0  0  0  0999 V2000
   42.7910  -56.6230   15.0890 C   0  0  0  0  0
   42.6410  -56.8960   16.4570 C   0  0  0  0  0
   41.6910  -57.8140   16.9010 C   0  0  0  0  0
   41.4720  -58.1250   18.2120 O   0  0  0  0  0
   42.5400  -58.2310   19.4080 P   0  0  0  0  0
   40.8170  -58.4930   15.9190 C   0  0  0  0  0
   39.8830  -59.4090   16.3080 O   0  0  0  0  0
   40.2940  -60.9770   16.3480 P   0  0  0  0  0
   40.9820  -58.1820   14.4960 C   0  0  0  0  0
   40.1800  -58.8550   13.6120 O   0  0  0  0  0
   39.1430  -58.2150   12.5610 P   0  0  0  0  0
   41.9700  -57.2640   14.1290 C   0  0  0  0  0
   43.8350  -55.6340   14.6460 C   0  0  0  0  0
   44.1820  -54.5340   15.4490 C   0  0  0  0  0
   45.1460  -53.5980   15.0550 C   0  0  0  0  0
   45.4920  -52.5260   15.8470 O   0  0  0  0  0
   44.5210  -51.2810   16.1830 P   0  0  0  0  0
   45.8420  -53.7980   13.7670 C   0  0  0  0  0
   46.7770  -52.9070   13.3050 O   0  0  0  0  0
   48.3370  -52.8740   13.6920 P   0  0  0  0  0
   45.4480  -54.9650   12.9490 C   0  0  0  0  0
   46.0660  -55.1950   11.7450 O   0  0  0  0  0
   47.2140  -56.3380   11.6060 P   0  0  0  0  0
   44.4730  -55.8350   13.4200 C   0  0  0  0  0
   43.8690  -57.7780   18.8520 O   0  0  0  0  0
   42.5250  -59.6740   19.8620 O   0  0  0  0  0
   41.8630  -57.3030   20.3890 O   0  0  0  0  0
   40.7950  -61.2460   14.9420 O   0  0  0  0  0
   38.9690  -61.5880   16.7010 O   0  0  0  0  0
   41.3480  -61.2130   17.4090 O   0  0  0  0  0
   39.8940  -58.0890   11.2530 O   0  0  0  0  0
   38.0500  -59.2510   12.5190 O   0  0  0  0  0
   38.7150  -56.9250   13.2070 O   0  0  0  0  0
   44.2220  -50.6780   14.8230 O   0  0  0  0  0
   43.3660  -51.9110   16.9280 O   0  0  0  0  0
   45.3660  -50.4110   17.0870 O   0  0  0  0  0
   48.4490  -53.6720   14.9750 O   0  0  0  0  0
   48.9940  -53.4230   12.4450 O   0  0  0  0  0
   48.5790  -51.3970   13.8550 O   0  0  0  0  0
   47.4870  -56.2850   10.1190 O   0  0  0  0  0
   46.5910  -57.6020   12.1640 O   0  0  0  0  0
   48.3960  -55.9200   12.4450 O   0  0  0  0  0
   43.2749  -56.3841   17.1810 H   0  0  0  0  0
   42.1129  -57.0346   13.0730 H   0  0  0  0  0
   43.6843  -54.4053   16.4102 H   0  0  0  0  0
   44.1980  -56.6993   12.8155 H   0  0  0  0  0
   41.6541  -59.8923   20.2019 H   0  0  0  0  0
   41.0322  -57.6908   20.6736 H   0  0  0  0  0
   41.6436  -60.8146   14.8179 H   0  0  0  0  0
   42.1725  -60.8041   17.1359 H   0  0  0  0  0
   40.1185  -58.9642   10.9286 H   0  0  0  0  0
   38.3815  -60.0474   12.0978 H   0  0  0  0  0
   45.0283  -50.3119   14.4523 H   0  0  0  0  0
   46.0866  -50.0298   16.5801 H   0  0  0  0  0
   48.2824  -54.5991   14.7895 H   0  0  0  0  0
   48.8161  -54.3640   12.3788 H   0  0  0  0  0
   46.7017  -56.5607    9.6406 H   0  0  0  0  0
   45.8414  -57.8549   11.6202 H   0  0  0  0  0
  1  2  4  0  0  0
  1 12  4  0  0  0
  1 13  1  0  0  0
  2  3  4  0  0  0
  3  4  1  0  0  0
  3  6  4  0  0  0
  4  5  1  0  0  0
  5 25  2  0  0  0
  5 26  1  0  0  0
  5 27  1  0  0  0
  6  7  1  0  0  0
  6  9  4  0  0  0
  7  8  1  0  0  0
  8 28  1  0  0  0
  8 29  2  0  0  0
  8 30  1  0  0  0
  9 10  1  0  0  0
  9 12  4  0  0  0
 10 11  1  0  0  0
 11 31  1  0  0  0
 11 32  1  0  0  0
 11 33  2  0  0  0
 13 14  4  0  0  0
 13 24  4  0  0  0
 14 15  4  0  0  0
 15 16  1  0  0  0
 15 18  4  0  0  0
 16 17  1  0  0  0
 17 34  1  0  0  0
 17 35  2  0  0  0
 17 36  1  0  0  0
 18 19  1  0  0  0
 18 21  4  0  0  0
 19 20  1  0  0  0
 20 37  1  0  0  0
 20 38  1  0  0  0
 20 39  2  0  0  0
 21 22  1  0  0  0
 21 24  4  0  0  0
 22 23  1  0  0  0
 23 40  1  0  0  0
 23 41  1  0  0  0
 23 42  2  0  0  0
  2 43  1  0  0  0
 12 44  1  0  0  0
 14 45  1  0  0  0
 24 46  1  0  0  0
 26 47  1  0  0  0
 27 48  1  0  0  0
 28 49  1  0  0  0
 30 50  1  0  0  0
 31 51  1  0  0  0
 32 52  1  0  0  0
 34 53  1  0  0  0
 36 54  1  0  0  0
 37 55  1  0  0  0
 38 56  1  0  0  0
 40 57  1  0  0  0
 41 58  1  0  0  0
M  END
$$$$
