5wcl_ligand
  -I-interpret- 

 27 28  0  0  0  0  0  0  0  0999 V2000
    7.0480    3.6910    2.2460 C   0  0  0  0  0
   -0.7460    2.5670   -1.3110 C   0  0  0  0  0
   -0.8100    2.0090   -0.0390 C   0  0  0  0  0
    0.4350    3.1450   -1.7590 C   0  0  0  0  0
    5.6360    1.9160   -0.6540 C   0  0  0  0  0
    6.5630    2.4910    0.2080 C   0  0  0  0  0
    0.3090    2.0290    0.7820 C   0  0  0  0  0
    1.5540    3.1640   -0.9370 C   0  0  0  0  0
    4.2810    1.9580   -0.3480 C   0  0  0  0  0
    4.7750    3.1490    1.6840 C   0  0  0  0  0
    6.1310    3.1090    1.3770 C   0  0  0  0  0
    1.4940    2.6040    0.3350 C   0  0  0  0  0
    3.8470    2.5750    0.8210 C   0  0  0  0  0
    2.5560    2.6190    1.1360 N   0  0  0  0  0
    7.7472    2.9317    2.5963 H   0  0  0  0  0
    7.5942    4.4762    1.7233 H   0  0  0  0  0
    6.5187    4.1196    3.0970 H   0  0  0  0  0
   -1.6236    2.5508   -1.9573 H   0  0  0  0  0
   -1.7372    1.5567    0.3128 H   0  0  0  0  0
    0.4833    3.5836   -2.7557 H   0  0  0  0  0
    5.9723    1.4317   -1.5708 H   0  0  0  0  0
    7.6258    2.4576   -0.0316 H   0  0  0  0  0
    0.2590    1.5929    1.7797 H   0  0  0  0  0
    2.4803    3.6182   -1.2888 H   0  0  0  0  0
    3.5564    1.5064   -1.0256 H   0  0  0  0  0
    4.4389    3.6308    2.6022 H   0  0  0  0  0
    2.3507    2.6718    2.1337 H   0  0  0  0  0
 11  1  1  0  0  0
  3  2  4  0  0  0
  4  2  4  0  0  0
  7  3  4  0  0  0
  8  4  4  0  0  0
  5  6  4  0  0  0
  9  5  4  0  0  0
 11  6  4  0  0  0
 12  7  4  0  0  0
 12  8  4  0  0  0
 13  9  4  0  0  0
 10 11  4  0  0  0
 13 10  4  0  0  0
 14 12  1  0  0  0
 13 14  1  0  0  0
  1 15  1  0  0  0
  1 16  1  0  0  0
  1 17  1  0  0  0
  2 18  1  0  0  0
  3 19  1  0  0  0
  4 20  1  0  0  0
  5 21  1  0  0  0
  6 22  1  0  0  0
  7 23  1  0  0  0
  8 24  1  0  0  0
  9 25  1  0  0  0
 10 26  1  0  0  0
 14 27  1  0  0  0
M  END
$$$$
