6gih_ligand
  -I-interpret- 

 31 33  0  0  0  0  0  0  0  0999 V2000
 -131.6530 -190.5420  303.8320 N   0  0  0  0  0
 -134.1610 -186.5110  309.4000 C   0  0  0  0  0
 -132.6510 -187.5730  307.8500 C   0  0  0  0  0
 -133.5490 -187.3570  306.8040 C   0  0  0  0  0
 -134.7660 -186.7300  307.0890 C   0  0  0  0  0
 -133.4290 -186.8740  304.3460 C   0  0  0  0  0
 -133.1100 -187.2200  303.0390 C   0  0  0  0  0
 -132.5260 -188.4460  302.7550 C   0  0  0  0  0
 -132.2640 -189.3120  303.8140 C   0  0  0  0  0
 -131.6120 -191.0050  305.1240 C   0  0  0  0  0
 -132.1810 -190.1020  305.9600 C   0  0  0  0  0
 -131.8500 -187.4610  310.4190 Cl  0  0  0  0  0
 -132.9690 -187.1500  309.1220 C   0  0  0  0  0
 -135.0800 -186.3020  308.3740 C   0  0  0  0  0
 -136.3890 -185.6270  308.6370 C   0  0  0  0  0
 -137.0570 -186.0710  309.8350 N   0  3  0  0  0
 -133.1870 -187.7490  305.4120 C   0  0  0  0  0
 -132.5990 -188.9980  305.1440 C   0  0  0  0  0
 -134.3809 -186.1732  310.4127 H   0  0  0  0  0
 -131.7017 -188.0744  307.6614 H   0  0  0  0  0
 -135.4852 -186.5732  306.2851 H   0  0  0  0  0
 -133.8772 -185.9007  304.5459 H   0  0  0  0  0
 -133.3205 -186.5217  302.2290 H   0  0  0  0  0
 -132.2788 -188.7241  301.7305 H   0  0  0  0  0
 -131.1845 -191.9591  305.4324 H   0  0  0  0  0
 -132.2980 -190.1961  307.0396 H   0  0  0  0  0
 -137.0448 -185.8625  307.7988 H   0  0  0  0  0
 -136.1819 -184.5641  308.7611 H   0  0  0  0  0
 -137.9362 -185.5647  309.9402 H   0  0  0  0  0
 -137.2453 -187.0712  309.7671 H   0  0  0  0  0
 -136.4605 -185.8902  310.6424 H   0  0  0  0  0
  9  1  4  0  0  0
  1 10  4  0  0  0
 13  2  4  0  0  0
 14  2  4  0  0  0
  4  3  4  0  0  0
  3 13  4  0  0  0
  4  5  4  0  0  0
 17  4  1  0  0  0
  5 14  4  0  0  0
  7  6  4  0  0  0
  6 17  4  0  0  0
  8  7  4  0  0  0
  8  9  4  0  0  0
  9 18  4  0  0  0
 10 11  4  0  0  0
 11 18  4  0  0  0
 13 12  1  0  0  0
 14 15  1  0  0  0
 15 16  1  0  0  0
 17 18  4  0  0  0
  2 19  1  0  0  0
  3 20  1  0  0  0
  5 21  1  0  0  0
  6 22  1  0  0  0
  7 23  1  0  0  0
  8 24  1  0  0  0
 10 25  1  0  0  0
 11 26  1  0  0  0
 15 27  1  0  0  0
 15 28  1  0  0  0
 16 29  1  0  0  0
 16 30  1  0  0  0
 16 31  1  0  0  0
M  END
$$$$
