2rfh_ligand
  -I-interpret- 

 26 26  0  0  0  0  0  0  0  0999 V2000
    9.4810  -10.0730   20.3230 C   0  0  0  0  0
    8.3250   -9.3720   19.9800 C   0  0  0  0  0
    7.3870   -9.0520   20.9680 C   0  0  0  0  0
    7.6260   -9.4380   22.2870 C   0  0  0  0  0
    8.7860  -10.1290   22.6290 C   0  0  0  0  0
    9.7120  -10.4540   21.6420 C   0  0  0  0  0
   10.9970  -11.1850   22.0180 C   0  0  0  0  0
   11.9930  -10.0560   22.3860 C   0  0  0  0  0
   12.3720  -10.0180   23.8860 C   0  0  0  0  0
   12.2490   -8.9020   24.4010 O   0  0  0  0  0
   12.7620  -11.0540   24.4830 O   0  0  0  0  0
   13.2130   -9.9330   21.4600 C   0  0  0  0  0
   13.7850   -8.5830   21.6850 N   0  0  0  0  0
   14.8050   -8.6270   22.6940 O   0  0  0  0  0
   14.3580   -7.9680   20.5070 O   0  0  0  0  0
   10.2094  -10.3246   19.5522 H   0  0  0  0  0
    8.1527   -9.0744   18.9457 H   0  0  0  0  0
    6.4792   -8.5069   20.7096 H   0  0  0  0  0
    6.8961   -9.1959   23.0595 H   0  0  0  0  0
    8.9678  -10.4140   23.6652 H   0  0  0  0  0
   11.3671  -11.8061   21.2023 H   0  0  0  0  0
   10.8447  -11.8802   22.8436 H   0  0  0  0  0
   11.4173   -9.1496   22.1984 H   0  0  0  0  0
   12.7728  -11.7913   23.8683 H   0  0  0  0  0
   12.9236  -10.0632   20.4172 H   0  0  0  0  0
   13.9475  -10.7076   21.6806 H   0  0  0  0  0
  1  2  4  0  0  0
  1  6  4  0  0  0
  2  3  4  0  0  0
  3  4  4  0  0  0
  4  5  4  0  0  0
  5  6  4  0  0  0
  6  7  1  0  0  0
  7  8  1  0  0  0
  8  9  1  0  0  0
  8 12  1  0  0  0
  9 10  2  0  0  0
  9 11  1  0  0  0
 12 13  1  0  0  0
 13 14  2  0  0  0
 13 15  2  0  0  0
  1 16  1  0  0  0
  2 17  1  0  0  0
  3 18  1  0  0  0
  4 19  1  0  0  0
  5 20  1  0  0  0
  7 21  1  0  0  0
  7 22  1  0  0  0
  8 23  1  0  0  0
 11 24  1  0  0  0
 12 25  1  0  0  0
 12 26  1  0  0  0
M  END
$$$$
