5y24_ligand
  -I-interpret- 

 82 82  0  0  0  0  0  0  0  0999 V2000
  -84.3620  128.0370  231.7610 N   0  3  0  0  0
  -83.1180  127.6170  232.3750 C   0  0  0  0  0
  -82.3560  126.6200  231.5230 C   0  0  0  0  0
  -82.6180  126.5120  230.3270 O   0  0  0  0  0
  -81.4420  125.8750  232.1590 N   0  0  0  0  0
  -80.5790  124.9050  231.4760 C   0  0  0  0  0
  -81.1220  123.5060  231.6900 C   0  0  0  0  0
  -81.2490  123.0770  232.8530 O   0  0  0  0  0
  -79.1570  124.9850  232.0220 C   0  0  0  0  0
  -78.1600  124.0270  231.3520 C   0  0  0  0  0
  -76.5070  123.9570  232.1000 S   0  0  0  0  0
  -76.8140  122.9560  233.5550 C   0  0  0  0  0
  -81.4420  122.7520  230.6450 N   0  0  0  0  0
  -81.9250  121.3870  230.8680 C   0  0  0  0  0
  -80.7920  120.5010  231.3540 C   0  0  0  0  0
  -79.6480  120.6550  230.9420 O   0  0  0  0  0
  -82.4460  120.9590  229.4890 C   0  0  0  0  0
  -81.6650  121.7670  228.5170 C   0  0  0  0  0
  -81.2780  123.0640  229.2050 C   0  0  0  0  0
  -81.1110  119.6060  232.2850 N   0  0  0  0  0
  -80.1640  118.6370  232.8140 C   0  0  0  0  0
  -80.8260  117.2780  232.8100 C   0  0  0  0  0
  -82.0510  117.1850  232.9300 O   0  0  0  0  0
  -79.7440  118.9310  234.2670 C   0  0  0  0  0
  -78.7810  120.0690  234.4780 C   0  0  0  0  0
  -78.6460  120.2960  236.0070 C   0  0  0  0  0
  -77.4010  120.9420  236.3890 N   0  0  0  0  0
  -77.3270  122.1940  236.8220 C   0  0  0  0  0
  -76.1640  122.7050  237.1610 N   0  0  0  0  0
  -78.4260  122.9340  236.8860 N   0  0  0  0  0
  -80.0070  116.2280  232.7160 N   0  0  0  0  0
  -80.5390  114.8780  232.7800 C   0  0  0  0  0
  -79.4280  113.8480  232.7940 C   0  0  0  0  0
  -78.2740  114.1340  232.4650 O   0  0  0  0  0
  -79.8140  112.6290  233.1430 N   0  0  0  0  0
  -78.9020  111.4960  233.1480 C   0  0  0  0  0
  -79.6820  110.2150  232.9620 C   0  0  0  0  0
  -79.1280  109.1880  232.5630 O   0  0  0  0  0
  -78.1160  111.4420  234.4470 C   0  0  0  0  0
  -80.8860  110.1910  233.2430 O   0  0  0  0  0
  -84.8331  128.7042  232.3720 H   0  0  0  0  0
  -84.1645  128.4777  230.8625 H   0  0  0  0  0
  -84.9607  127.2237  231.6179 H   0  0  0  0  0
  -83.3572  127.1351  233.3230 H   0  0  0  0  0
  -82.4909  128.4996  232.5011 H   0  0  0  0  0
  -81.3412  125.9878  233.1677 H   0  0  0  0  0
  -80.5633  125.1360  230.4109 H   0  0  0  0  0
  -79.2046  124.7090  233.0754 H   0  0  0  0  0
  -78.8005  125.9978  231.8341 H   0  0  0  0  0
  -78.0219  124.3895  230.3334 H   0  0  0  0  0
  -78.5832  123.0269  231.4463 H   0  0  0  0  0
  -77.5522  123.4511  234.1859 H   0  0  0  0  0
  -77.1910  121.9798  233.2499 H   0  0  0  0  0
  -75.8848  122.8306  234.1108 H   0  0  0  0  0
  -82.6972  121.3143  231.6338 H   0  0  0  0  0
  -83.5177  121.1317  229.3899 H   0  0  0  0  0
  -82.3172  119.8896  229.3219 H   0  0  0  0  0
  -82.2604  121.9714  227.6271 H   0  0  0  0  0
  -80.7745  121.2242  228.1999 H   0  0  0  0  0
  -80.2651  123.3824  228.9585 H   0  0  0  0  0
  -81.8925  123.9061  228.8866 H   0  0  0  0  0
  -82.0653  119.5989  232.6451 H   0  0  0  0  0
  -79.2745  118.6828  232.1857 H   0  0  0  0  0
  -79.2306  118.0355  234.6172 H   0  0  0  0  0
  -80.6575  119.2106  234.7919 H   0  0  0  0  0
  -79.1491  120.9723  233.9916 H   0  0  0  0  0
  -77.8105  119.8301  234.0430 H   0  0  0  0  0
  -78.6684  119.3176  236.4869 H   0  0  0  0  0
  -79.4623  120.9495  236.3147 H   0  0  0  0  0
  -76.5374  120.4035  236.3204 H   0  0  0  0  0
  -75.3184  122.1389  237.0912 H   0  0  0  0  0
  -78.3707  123.9032  237.1991 H   0  0  0  0  0
  -79.3264  122.5338  236.6221 H   0  0  0  0  0
  -79.0044  116.3743  232.5989 H   0  0  0  0  0
  -81.1589  114.7075  231.8998 H   0  0  0  0  0
  -81.1176  114.7764  233.6981 H   0  0  0  0  0
  -80.7850  112.4802  233.4178 H   0  0  0  0  0
  -78.1959  111.6136  232.3260 H   0  0  0  0  0
  -77.5382  112.3595  234.5590 H   0  0  0  0  0
  -78.8067  111.3416  235.2842 H   0  0  0  0  0
  -77.4411  110.5863  234.4265 H   0  0  0  0  0
  -81.1626  111.0625  233.5354 H   0  0  0  0  0
  1  2  1  0  0  0
  2  3  1  0  0  0
  3  4  2  0  0  0
  3  5  1  0  0  0
  5  6  1  0  0  0
  6  7  1  0  0  0
  6  9  1  0  0  0
  7  8  2  0  0  0
  7 13  1  0  0  0
  9 10  1  0  0  0
 10 11  1  0  0  0
 11 12  1  0  0  0
 13 14  1  0  0  0
 13 19  1  0  0  0
 14 15  1  0  0  0
 14 17  1  0  0  0
 15 16  2  0  0  0
 15 20  1  0  0  0
 17 18  1  0  0  0
 18 19  1  0  0  0
 20 21  1  0  0  0
 21 22  1  0  0  0
 21 24  1  0  0  0
 22 23  2  0  0  0
 22 31  1  0  0  0
 24 25  1  0  0  0
 25 26  1  0  0  0
 26 27  1  0  0  0
 27 28  1  0  0  0
 28 29  2  0  0  0
 28 30  1  0  0  0
 31 32  1  0  0  0
 32 33  1  0  0  0
 33 34  2  0  0  0
 33 35  1  0  0  0
 35 36  1  0  0  0
 36 37  1  0  0  0
 36 39  1  0  0  0
 37 38  2  0  0  0
 37 40  1  0  0  0
  1 41  1  0  0  0
  1 42  1  0  0  0
  1 43  1  0  0  0
  2 44  1  0  0  0
  2 45  1  0  0  0
  5 46  1  0  0  0
  6 47  1  0  0  0
  9 48  1  0  0  0
  9 49  1  0  0  0
 10 50  1  0  0  0
 10 51  1  0  0  0
 12 52  1  0  0  0
 12 53  1  0  0  0
 12 54  1  0  0  0
 14 55  1  0  0  0
 17 56  1  0  0  0
 17 57  1  0  0  0
 18 58  1  0  0  0
 18 59  1  0  0  0
 19 60  1  0  0  0
 19 61  1  0  0  0
 20 62  1  0  0  0
 21 63  1  0  0  0
 24 64  1  0  0  0
 24 65  1  0  0  0
 25 66  1  0  0  0
 25 67  1  0  0  0
 26 68  1  0  0  0
 26 69  1  0  0  0
 27 70  1  0  0  0
 29 71  1  0  0  0
 30 72  1  0  0  0
 30 73  1  0  0  0
 31 74  1  0  0  0
 32 75  1  0  0  0
 32 76  1  0  0  0
 35 77  1  0  0  0
 36 78  1  0  0  0
 39 79  1  0  0  0
 39 80  1  0  0  0
 39 81  1  0  0  0
 40 82  1  0  0  0
M  END
$$$$
