### 
### Created by X-TOOL on Mon Sep 10 21:12:56 2018
### 

@<TRIPOS>MOLECULE
2cll_ligand
   31    31     1     0     0
SMALL
GAST_HUCK


@<TRIPOS>ATOM
      1 C1         51.2100   23.6300   14.9810 C.ar      1 F9F         0.1006
      2 C2         49.9820   23.4890   15.8260 C.ar      1 F9F        -0.0310
      3 C3         49.2180   24.6890   15.9940 C.ar      1 F9F        -0.0441
      4 C4         49.5730   25.9100   15.4160 C.ar      1 F9F         0.0969
      5 C5         50.8630   26.0010   14.5500 C.ar      1 F9F        -0.0441
      6 C6         51.6310   24.8360   14.3760 C.ar      1 F9F        -0.0310
      7 O7         52.0680   22.5910   14.6990 O.3       1 F9F        -0.2256
      8 C8         51.5890   21.2500   14.6450 C.3       1 F9F         0.5464
      9 F9F        52.5570   20.4460   14.1890 F         1 F9F        -0.1400
     10 F10        50.5440   21.0950   13.8210 F         1 F9F        -0.1400
     11 F11        51.2340   20.7760   15.8540 F         1 F9F        -0.1400
     12 S12        48.5290   27.3230   15.6800 S.o2      1 F9F         0.0634
     13 N13        49.1470   28.6690   14.7930 N.am      1 F9F        -0.2461
     14 C14        49.2120   28.5640   13.2910 C.3       1 F9F         0.0542
     15 C15        47.9460   28.8470   12.6220 C.3       1 F9F         0.0951
     16 O16        48.0020   28.4110   11.2390 O.3       1 F9F        -0.2745
     17 P17        48.2620   29.5100   10.0110 P.3       1 F9F         0.2007
     18 O18        49.4750   30.4190   10.3990 O.co2     1 F9F        -0.5537
     19 O19        48.5430   28.7030    8.7770 O.co2     1 F9F        -0.5537
     20 O20        46.9450   30.2700    9.8790 O.co2     1 F9F        -0.5537
     21 O21        48.6040   27.5890   17.0940 O.2       1 F9F        -0.1517
     22 O22        47.2280   26.9330   15.1680 O.2       1 F9F        -0.1517
     23 H1         49.6922   22.5472   16.2778 H         1 F9F         0.0542
     24 H2         48.3199   24.6474   16.5997 H         1 F9F         0.0608
     25 H3         51.1615   26.9376   14.0931 H         1 F9F         0.0608
     26 H4         52.5380   24.8626   13.7830 H         1 F9F         0.0542
     27 H5         49.4537   29.4964   15.2634 H         1 F9F         0.1672
     28 H6         49.5211   27.5415   13.0285 H         1 F9F         0.0501
     29 H7         49.9637   29.2794   12.9262 H         1 F9F         0.0501
     30 H8         47.7519   29.9292   12.6542 H         1 F9F         0.0628
     31 H9         47.1347   28.3134   13.1387 H         1 F9F         0.0628
@<TRIPOS>BOND
     1    1    2 ar 
     2    1    6 ar 
     3    1    7 1  
     4    2    3 ar 
     5    3    4 ar 
     6    4    5 ar 
     7    4   12 1  
     8    5    6 ar 
     9    7    8 1  
    10    8    9 1  
    11    8   10 1  
    12    8   11 1  
    13   12   13 am 
    14   12   21 2  
    15   12   22 2  
    16   13   14 1  
    17   14   15 1  
    18   15   16 1  
    19   16   17 1  
    20   17   18 ar 
    21   17   19 ar 
    22   17   20 ar 
    23    2   23 1  
    24    3   24 1  
    25    5   25 1  
    26    6   26 1  
    27   13   27 1  
    28   14   28 1  
    29   14   29 1  
    30   15   30 1  
    31   15   31 1  
@<TRIPOS>SUBSTRUCTURE
     1 F9F         1

