2cll_ligand
  -I-interpret- 

 33 33  0  0  0  0  0  0  0  0999 V2000
   51.2100   23.6300   14.9810 C   0  0  0  0  0
   49.9820   23.4890   15.8260 C   0  0  0  0  0
   49.2180   24.6890   15.9940 C   0  0  0  0  0
   49.5730   25.9100   15.4160 C   0  0  0  0  0
   50.8630   26.0010   14.5500 C   0  0  0  0  0
   51.6310   24.8360   14.3760 C   0  0  0  0  0
   52.0680   22.5910   14.6990 O   0  0  0  0  0
   51.5890   21.2500   14.6450 C   0  0  0  0  0
   52.5570   20.4460   14.1890 F   0  0  0  0  0
   50.5440   21.0950   13.8210 F   0  0  0  0  0
   51.2340   20.7760   15.8540 F   0  0  0  0  0
   48.5290   27.3230   15.6800 S   0  0  0  0  0
   49.1470   28.6690   14.7930 N   0  0  0  0  0
   49.2120   28.5640   13.2910 C   0  0  0  0  0
   47.9460   28.8470   12.6220 C   0  0  0  0  0
   48.0020   28.4110   11.2390 O   0  0  0  0  0
   48.2620   29.5100   10.0110 P   0  0  0  0  0
   49.4750   30.4190   10.3990 O   0  0  0  0  0
   48.5430   28.7030    8.7770 O   0  0  0  0  0
   46.9450   30.2700    9.8790 O   0  0  0  0  0
   48.6040   27.5890   17.0940 O   0  0  0  0  0
   47.2280   26.9330   15.1680 O   0  0  0  0  0
   49.6906   22.5420   16.2803 H   0  0  0  0  0
   48.3150   24.6472   16.6030 H   0  0  0  0  0
   51.1632   26.9428   14.0906 H   0  0  0  0  0
   52.5431   24.8628   13.7797 H   0  0  0  0  0
   49.4599   29.5130   15.2728 H   0  0  0  0  0
   49.4831   27.5362   13.0497 H   0  0  0  0  0
   49.9334   29.3045   12.9456 H   0  0  0  0  0
   47.7594   29.9205   12.6505 H   0  0  0  0  0
   47.1451   28.3123   13.1327 H   0  0  0  0  0
   49.2591   30.9183   11.1900 H   0  0  0  0  0
   46.7880   30.7772   10.6788 H   0  0  0  0  0
  1  2  4  0  0  0
  1  6  4  0  0  0
  1  7  1  0  0  0
  2  3  4  0  0  0
  3  4  4  0  0  0
  4  5  4  0  0  0
  4 12  1  0  0  0
  5  6  4  0  0  0
  7  8  1  0  0  0
  8  9  1  0  0  0
  8 10  1  0  0  0
  8 11  1  0  0  0
 12 13  1  0  0  0
 12 21  2  0  0  0
 12 22  2  0  0  0
 13 14  1  0  0  0
 14 15  1  0  0  0
 15 16  1  0  0  0
 16 17  1  0  0  0
 17 18  1  0  0  0
 17 19  2  0  0  0
 17 20  1  0  0  0
  2 23  1  0  0  0
  3 24  1  0  0  0
  5 25  1  0  0  0
  6 26  1  0  0  0
 13 27  1  0  0  0
 14 28  1  0  0  0
 14 29  1  0  0  0
 15 30  1  0  0  0
 15 31  1  0  0  0
 18 32  1  0  0  0
 20 33  1  0  0  0
M  END
$$$$
