4c5w_ligand
  -I-interpret- 

 26 25  0  0  0  0  0  0  0  0999 V2000
   22.5500   31.9820   87.7510 N   0  3  0  0  0
   23.9350   31.6850   87.2940 C   0  0  0  0  0
   20.9210   26.5240   88.5520 O   0  0  0  0  0
   21.5770   27.4570   88.0510 C   0  0  0  0  0
   22.8290   27.4880   88.0170 O   0  0  0  0  0
   20.7650   28.5440   87.3940 C   0  0  0  0  0
   21.8650   30.7030   88.0860 C   0  0  0  0  0
   22.5740   32.8170   88.9830 C   0  0  0  0  0
   21.8550   32.7430   86.6970 C   0  0  0  0  0
   21.5580   29.7670   86.9280 C   0  0  0  0  0
   24.4772   31.1745   88.0899 H   0  0  0  0  0
   23.8960   31.0463   86.4116 H   0  0  0  0  0
   24.4425   32.6175   87.0470 H   0  0  0  0  0
   23.1164   28.2966   87.5867 H   0  0  0  0  0
   20.0576   28.8994   88.1433 H   0  0  0  0  0
   20.3204   28.1034   86.5016 H   0  0  0  0  0
   20.9002   30.9819   88.5096 H   0  0  0  0  0
   22.5485   30.1589   88.7379 H   0  0  0  0  0
   21.5522   33.0076   89.3112 H   0  0  0  0  0
   23.1165   32.2893   89.7675 H   0  0  0  0  0
   23.0709   33.7634   88.7694 H   0  0  0  0  0
   21.8069   32.1424   85.7887 H   0  0  0  0  0
   20.8450   32.9826   87.0296 H   0  0  0  0  0
   22.4010   33.6648   86.4961 H   0  0  0  0  0
   20.9604   30.3082   86.1945 H   0  0  0  0  0
   22.5003   29.4259   86.4994 H   0  0  0  0  0
  1  2  1  0  0  0
  7  1  1  0  0  0
  1  8  1  0  0  0
  1  9  1  0  0  0
  4  3  2  0  0  0
  4  5  1  0  0  0
  6  4  1  0  0  0
 10  6  1  0  0  0
  7 10  1  0  0  0
  2 11  1  0  0  0
  2 12  1  0  0  0
  2 13  1  0  0  0
  5 14  1  0  0  0
  6 15  1  0  0  0
  6 16  1  0  0  0
  7 17  1  0  0  0
  7 18  1  0  0  0
  8 19  1  0  0  0
  8 20  1  0  0  0
  8 21  1  0  0  0
  9 22  1  0  0  0
  9 23  1  0  0  0
  9 24  1  0  0  0
 10 25  1  0  0  0
 10 26  1  0  0  0
M  END
$$$$
