4r5t_ligand
  -I-interpret- 

 44 45  0  0  0  0  0  0  0  0999 V2000
   15.6660    7.8450    8.5610 C   0  0  0  0  0
   16.3970    8.9100    9.3960 C   0  0  0  0  0
   16.6820   10.1230    8.5020 C   0  0  0  0  0
   17.7160    8.3020    9.9090 C   0  0  0  0  0
   15.5390    9.2980   10.5070 O   0  0  0  0  0
   15.9850   10.2920   11.3530 C   0  0  0  0  0
   17.1490   10.6880   11.3340 O   0  0  0  0  0
   15.1270   10.8510   12.2190 N   0  0  0  0  0
   13.7220   10.4130   12.2900 C   0  0  0  0  0
   12.8410   11.2050   11.3010 C   0  0  0  0  0
   11.8210   10.7080   10.8380 O   0  0  0  0  0
   13.2790   12.4120   10.9420 N   0  0  0  0  0
   12.3520   13.2020    9.9300 O   0  0  0  0  0
   13.2460   10.5090   13.5980 C   0  0  0  0  0
   13.4890    9.4530   14.4710 C   0  0  0  0  0
   13.0330    9.5130   15.7840 C   0  0  0  0  0
   12.5400   11.6280   14.0380 C   0  0  0  0  0
   12.0780   11.6920   15.3550 C   0  0  0  0  0
   12.3310   10.6330   16.2260 C   0  0  0  0  0
   11.8900   10.6700   17.4780 N   0  0  0  0  0
   11.2810   11.5790   17.9910 N   0  0  0  0  0
   10.9890   11.2730   19.2570 C   0  0  0  0  0
   11.4710   10.0590   19.4930 C   0  0  0  0  0
   12.0430    9.6770   18.3590 C   0  0  0  0  0
   15.4526    6.9782    9.1865 H   0  0  0  0  0
   14.7320    8.2601    8.1823 H   0  0  0  0  0
   16.2972    7.5446    7.7246 H   0  0  0  0  0
   15.7425   10.5127    8.1102 H   0  0  0  0  0
   17.1810   10.8951    9.0876 H   0  0  0  0  0
   17.3243    9.8203    7.6750 H   0  0  0  0  0
   18.2409    9.0376   10.5185 H   0  0  0  0  0
   17.4981    7.4192   10.5101 H   0  0  0  0  0
   18.3391    8.0204    9.0602 H   0  0  0  0  0
   15.4528   11.5923   12.8393 H   0  0  0  0  0
   13.6725    9.3651   11.9939 H   0  0  0  0  0
   14.1532   12.8007   11.2957 H   0  0  0  0  0
   12.7485   14.0537    9.7327 H   0  0  0  0  0
   14.0378    8.5769   14.1254 H   0  0  0  0  0
   13.2246    8.6849   16.4664 H   0  0  0  0  0
   12.3482   12.4542   13.3534 H   0  0  0  0  0
   11.5231   12.5646   15.6995 H   0  0  0  0  0
   10.4534   11.9039   19.9664 H   0  0  0  0  0
   11.4096    9.4945   20.4234 H   0  0  0  0  0
   12.5459    8.7269   18.1787 H   0  0  0  0  0
  1  2  1  0  0  0
  2  3  1  0  0  0
  2  4  1  0  0  0
  2  5  1  0  0  0
  5  6  1  0  0  0
  6  7  2  0  0  0
  6  8  1  0  0  0
  8  9  1  0  0  0
  9 10  1  0  0  0
  9 14  1  0  0  0
 10 11  2  0  0  0
 10 12  1  0  0  0
 12 13  1  0  0  0
 14 15  4  0  0  0
 14 17  4  0  0  0
 15 16  4  0  0  0
 16 19  4  0  0  0
 17 18  4  0  0  0
 18 19  4  0  0  0
 19 20  1  0  0  0
 20 21  4  0  0  0
 20 24  4  0  0  0
 21 22  4  0  0  0
 22 23  4  0  0  0
 23 24  4  0  0  0
  1 25  1  0  0  0
  1 26  1  0  0  0
  1 27  1  0  0  0
  3 28  1  0  0  0
  3 29  1  0  0  0
  3 30  1  0  0  0
  4 31  1  0  0  0
  4 32  1  0  0  0
  4 33  1  0  0  0
  8 34  1  0  0  0
  9 35  1  0  0  0
 12 36  1  0  0  0
 13 37  1  0  0  0
 15 38  1  0  0  0
 16 39  1  0  0  0
 17 40  1  0  0  0
 18 41  1  0  0  0
 22 42  1  0  0  0
 23 43  1  0  0  0
 24 44  1  0  0  0
M  END
$$$$
