3dp3_ligand
  -I-interpret- 

 43 44  0  0  0  0  0  0  0  0999 V2000
  -21.4840   15.4610   11.9790 C   0  0  0  0  0
  -20.3780   14.5230   11.5300 C   0  0  0  0  0
  -20.5190   14.2380   10.0410 C   0  0  0  0  0
  -20.3990   13.2470   12.3480 C   0  0  0  0  0
  -19.0340   15.1800   11.7590 C   0  0  0  0  0
  -17.8800   14.4220   11.6830 C   0  0  0  0  0
  -16.6400   14.9980   11.8880 C   0  0  0  0  0
  -18.9650   16.5280   12.0410 C   0  0  0  0  0
  -17.7190   17.1060   12.2510 C   0  0  0  0  0
  -16.5620   16.3460   12.1740 C   0  0  0  0  0
  -15.2230   17.0320   12.4160 C   0  0  0  0  0
  -15.1730   17.9280   13.2530 O   0  0  0  0  0
  -14.1810   16.6030   11.6920 N   0  0  0  0  0
  -13.0750   17.1240   11.8340 N   0  0  0  0  0
  -12.9560   18.1170   12.6960 C   0  0  0  0  0
  -11.7680   18.7680   13.0040 C   0  0  0  0  0
  -10.5460   18.3060   12.5310 C   0  0  0  0  0
   -9.3770   18.9640   12.8760 C   0  0  0  0  0
   -7.7320   18.3260   12.2260 Br  0  0  0  0  0
   -9.4280   20.0830   13.6930 C   0  0  0  0  0
   -8.2870   20.7310   14.0320 O   0  0  0  0  0
  -10.6530   20.5480   14.1680 C   0  0  0  0  0
  -10.7640   22.0730   15.2830 Br  0  0  0  0  0
  -11.8180   19.8850   13.8230 C   0  0  0  0  0
  -13.0080   20.3430   14.2880 O   0  0  0  0  0
  -21.3632   15.6818   13.0395 H   0  0  0  0  0
  -21.4291   16.3862   11.4054 H   0  0  0  0  0
  -22.4510   14.9861   11.8133 H   0  0  0  0  0
  -20.4590   15.1742    9.4859 H   0  0  0  0  0
  -19.7165   13.5729    9.7221 H   0  0  0  0  0
  -21.4821   13.7636    9.8528 H   0  0  0  0  0
  -19.5912   12.5931   12.0196 H   0  0  0  0  0
  -20.2654   13.4904   13.4020 H   0  0  0  0  0
  -21.3555   12.7432   12.2085 H   0  0  0  0  0
  -17.9488   13.3575   11.4588 H   0  0  0  0  0
  -15.7345   14.3946   11.8245 H   0  0  0  0  0
  -19.8721   17.1297   12.0982 H   0  0  0  0  0
  -17.6504   18.1697   12.4790 H   0  0  0  0  0
  -13.2085   17.6356   13.6408 H   0  0  0  0  0
  -13.5373   18.9074   12.2212 H   0  0  0  0  0
  -10.5073   17.4262   11.8887 H   0  0  0  0  0
   -8.4999   21.4771   14.5973 H   0  0  0  0  0
  -12.8597   21.1174   14.8356 H   0  0  0  0  0
  1  2  1  0  0  0
  2  3  1  0  0  0
  2  4  1  0  0  0
  2  5  1  0  0  0
  5  6  4  0  0  0
  5  8  4  0  0  0
  6  7  4  0  0  0
  7 10  4  0  0  0
  8  9  4  0  0  0
  9 10  4  0  0  0
 10 11  1  0  0  0
 11 12  2  0  0  0
 11 13  1  0  0  0
 13 14  2  0  0  0
 14 15  1  0  0  0
 15 16  1  0  0  0
 16 17  4  0  0  0
 16 24  4  0  0  0
 17 18  4  0  0  0
 18 19  1  0  0  0
 18 20  4  0  0  0
 20 21  1  0  0  0
 20 22  4  0  0  0
 22 23  1  0  0  0
 22 24  4  0  0  0
 24 25  1  0  0  0
  1 26  1  0  0  0
  1 27  1  0  0  0
  1 28  1  0  0  0
  3 29  1  0  0  0
  3 30  1  0  0  0
  3 31  1  0  0  0
  4 32  1  0  0  0
  4 33  1  0  0  0
  4 34  1  0  0  0
  6 35  1  0  0  0
  7 36  1  0  0  0
  8 37  1  0  0  0
  9 38  1  0  0  0
 15 39  1  0  0  0
 15 40  1  0  0  0
 17 41  1  0  0  0
 21 42  1  0  0  0
 25 43  1  0  0  0
M  END
$$$$
