5fbn_ligand
  -I-interpret- 

 70 75  0  0  0  0  0  0  0  0999 V2000
  -21.8500   35.9800  -17.1610 O   0  0  0  0  0
  -21.0530   36.8740  -17.1660 C   0  0  0  0  0
  -21.7180   38.2150  -16.8500 C   0  0  0  0  0
  -22.2250   38.9690  -18.1110 C   0  0  0  0  0
  -21.0170   39.0970  -15.7590 C   0  0  0  0  0
  -22.2790   39.0830  -15.0160 O   0  0  0  0  0
  -22.9230   38.0750  -15.8600 C   0  0  0  0  0
  -19.6740   36.5860  -17.4180 N   0  0  0  0  0
  -18.5510   37.5830  -17.4750 C   0  0  0  0  0
  -18.2290   37.7060  -18.9590 C   0  0  0  0  0
  -17.6390   36.3420  -19.3670 C   0  0  0  0  0
  -19.2010   35.2060  -17.7490 C   0  0  0  0  0
  -18.6560   35.2120  -19.1890 C   0  0  0  0  0
  -17.9880   33.8910  -19.4720 C   0  0  0  0  0
  -18.6380   32.8300  -19.9250 N   0  0  0  0  0
  -19.9340   32.6380  -20.3020 C   0  0  0  0  0
  -20.3160   31.4320  -20.7960 C   0  0  0  0  0
  -17.7350   31.8100  -20.0640 C   0  0  0  0  0
  -18.2030   30.5670  -20.5430 C   0  0  0  0  0
  -17.3500   29.5230  -20.6500 N   0  0  0  0  0
  -19.4780   30.3940  -20.9010 N   0  0  0  0  0
  -16.7260   33.5690  -19.2890 N   0  0  0  0  0
  -16.5010   32.3170  -19.6390 C   0  0  0  0  0
  -15.1570   31.6970  -19.5960 C   0  0  0  0  0
  -14.5810   31.2640  -20.7920 C   0  0  0  0  0
  -14.4050   31.6500  -18.4300 C   0  0  0  0  0
  -13.1620   31.0920  -18.4780 C   0  0  0  0  0
  -12.5860   30.6170  -19.6870 C   0  0  0  0  0
  -13.3070   30.7230  -20.8620 C   0  0  0  0  0
  -11.2310   30.0370  -19.6570 C   0  0  0  0  0
  -10.4860   30.2120  -20.6000 O   0  0  0  0  0
  -10.9010   29.3270  -18.5420 N   0  0  0  0  0
   -9.6890   28.6940  -18.2780 C   0  0  0  0  0
   -9.6010   28.1090  -17.0530 N   0  0  0  0  0
   -8.6030   28.6610  -19.1830 C   0  0  0  0  0
   -7.4160   28.0330  -18.8400 C   0  0  0  0  0
   -6.2540   28.0310  -19.8420 C   0  0  0  0  0
   -6.1670   29.2430  -20.4560 F   0  0  0  0  0
   -6.4970   27.0760  -20.7820 F   0  0  0  0  0
   -5.0490   27.7750  -19.2530 F   0  0  0  0  0
   -7.3660   27.4210  -17.5860 C   0  0  0  0  0
   -8.4750   27.4810  -16.7230 C   0  0  0  0  0
  -23.0313   38.3997  -18.5735 H   0  0  0  0  0
  -22.5933   39.9530  -17.8208 H   0  0  0  0  0
  -21.4047   39.0813  -18.8199 H   0  0  0  0  0
  -20.5247   40.0339  -16.0198 H   0  0  0  0  0
  -20.0829   38.7836  -15.2929 H   0  0  0  0  0
  -23.2134   37.1043  -15.4581 H   0  0  0  0  0
  -23.9509   38.1977  -16.2012 H   0  0  0  0  0
  -17.6871   37.2606  -16.8938 H   0  0  0  0  0
  -18.8307   38.5406  -17.0358 H   0  0  0  0  0
  -17.5269   38.5178  -19.1493 H   0  0  0  0  0
  -19.1180   37.9470  -19.5419 H   0  0  0  0  0
  -16.7789   36.1346  -18.7303 H   0  0  0  0  0
  -17.3576   36.3894  -20.4190 H   0  0  0  0  0
  -20.0260   34.4986  -17.6652 H   0  0  0  0  0
  -18.4171   34.9036  -17.0546 H   0  0  0  0  0
  -19.4831   35.3680  -19.8816 H   0  0  0  0  0
  -20.6586   33.4468  -20.2076 H   0  0  0  0  0
  -21.3487   31.3042  -21.1206 H   0  0  0  0  0
  -16.3714   29.6348  -20.3850 H   0  0  0  0  0
  -17.6853   28.6238  -20.9957 H   0  0  0  0  0
  -15.1591   31.3556  -21.7115 H   0  0  0  0  0
  -14.7998   32.0506  -17.4963 H   0  0  0  0  0
  -12.5888   31.0071  -17.5548 H   0  0  0  0  0
  -12.8873   30.3920  -21.8119 H   0  0  0  0  0
  -11.6198   29.2508  -17.8224 H   0  0  0  0  0
   -8.7003   29.1342  -20.1601 H   0  0  0  0  0
   -6.4638   26.8946  -17.2746 H   0  0  0  0  0
   -8.4099   26.9958  -15.7491 H   0  0  0  0  0
  1  2  2  0  0  0
  2  3  1  0  0  0
  2  8  1  0  0  0
  3  4  1  0  0  0
  3  5  1  0  0  0
  3  7  1  0  0  0
  5  6  1  0  0  0
  6  7  1  0  0  0
  8  9  1  0  0  0
  8 12  1  0  0  0
  9 10  1  0  0  0
 10 11  1  0  0  0
 11 13  1  0  0  0
 12 13  1  0  0  0
 13 14  1  0  0  0
 14 15  4  0  0  0
 14 22  4  0  0  0
 15 16  4  0  0  0
 15 18  4  0  0  0
 16 17  4  0  0  0
 17 21  4  0  0  0
 18 19  4  0  0  0
 18 23  4  0  0  0
 19 20  1  0  0  0
 19 21  4  0  0  0
 22 23  4  0  0  0
 23 24  1  0  0  0
 24 25  4  0  0  0
 24 26  4  0  0  0
 25 29  4  0  0  0
 26 27  4  0  0  0
 27 28  4  0  0  0
 28 29  4  0  0  0
 28 30  1  0  0  0
 30 31  2  0  0  0
 30 32  1  0  0  0
 32 33  1  0  0  0
 33 34  4  0  0  0
 33 35  4  0  0  0
 34 42  4  0  0  0
 35 36  4  0  0  0
 36 37  1  0  0  0
 36 41  4  0  0  0
 37 38  1  0  0  0
 37 39  1  0  0  0
 37 40  1  0  0  0
 41 42  4  0  0  0
  4 43  1  0  0  0
  4 44  1  0  0  0
  4 45  1  0  0  0
  5 46  1  0  0  0
  5 47  1  0  0  0
  7 48  1  0  0  0
  7 49  1  0  0  0
  9 50  1  0  0  0
  9 51  1  0  0  0
 10 52  1  0  0  0
 10 53  1  0  0  0
 11 54  1  0  0  0
 11 55  1  0  0  0
 12 56  1  0  0  0
 12 57  1  0  0  0
 13 58  1  0  0  0
 16 59  1  0  0  0
 17 60  1  0  0  0
 20 61  1  0  0  0
 20 62  1  0  0  0
 25 63  1  0  0  0
 26 64  1  0  0  0
 27 65  1  0  0  0
 29 66  1  0  0  0
 32 67  1  0  0  0
 35 68  1  0  0  0
 41 69  1  0  0  0
 42 70  1  0  0  0
M  END
$$$$
