3uih_ligand
  -I-interpret- 

 63 63  0  0  0  0  0  0  0  0999 V2000
  -35.2590  -14.1610   -1.7040 N   0  3  0  0  0
  -34.6140  -13.8480   -0.4430 C   0  0  0  0  0
  -35.3390  -12.7240    0.2490 C   0  0  0  0  0
  -36.4560  -12.3890   -0.1070 O   0  0  0  0  0
  -33.1850  -13.4810   -0.6610 C   0  0  0  0  0
  -34.6960  -12.1380    1.2450 N   0  0  0  0  0
  -35.3220  -11.0840    2.0160 C   0  0  0  0  0
  -34.3210  -10.0620    2.4790 C   0  0  0  0  0
  -33.1270  -10.2510    2.3560 O   0  0  0  0  0
  -36.0130  -11.6470    3.2590 C   0  0  0  0  0
  -37.3510  -12.2480    2.8940 C   0  0  0  0  0
  -35.1240  -12.6660    3.9430 C   0  0  0  0  0
  -34.8310   -8.9800    3.0380 N   0  0  0  0  0
  -34.0020   -7.8750    3.5000 C   0  0  0  0  0
  -33.0490   -8.2530    4.6140 C   0  0  0  0  0
  -33.4290   -8.9140    5.5650 O   0  0  0  0  0
  -35.0310   -6.8820    4.0090 C   0  0  0  0  0
  -36.1850   -7.0990    3.1400 C   0  0  0  0  0
  -36.2210   -8.5610    2.8260 C   0  0  0  0  0
  -31.8080   -7.8160    4.4890 N   0  0  0  0  0
  -30.7960   -8.0630    5.4930 C   0  0  0  0  0
  -31.3600   -7.8710    6.8840 C   0  0  0  0  0
  -30.6170   -7.5920    7.8210 O   0  0  0  0  0
  -29.6440   -7.0920    5.3260 C   0  0  0  0  0
  -28.5820   -7.3500    6.3830 C   0  0  0  0  0
  -30.1450   -5.6790    5.4410 C   0  0  0  0  0
  -27.2930   -6.6380    6.1070 C   0  0  0  0  0
  -32.5650   -7.9930    7.0860 O   0  0  0  0  0
  -36.2336  -14.4090   -1.5337 H   0  0  0  0  0
  -35.2162  -13.3473   -2.3176 H   0  0  0  0  0
  -34.7792  -14.9460   -2.1443 H   0  0  0  0  0
  -34.6506  -14.7338    0.1911 H   0  0  0  0  0
  -33.1316  -12.5858   -1.2806 H   0  0  0  0  0
  -32.7101  -13.2876    0.3008 H   0  0  0  0  0
  -32.6726  -14.3023   -1.1620 H   0  0  0  0  0
  -33.7464  -12.4323    1.4732 H   0  0  0  0  0
  -36.0498  -10.6153    1.3536 H   0  0  0  0  0
  -36.1910  -10.8312    3.9596 H   0  0  0  0  0
  -37.9852  -11.4789    2.4532 H   0  0  0  0  0
  -37.2020  -13.0538    2.1753 H   0  0  0  0  0
  -37.8273  -12.6432    3.7913 H   0  0  0  0  0
  -34.9127  -13.4831    3.2532 H   0  0  0  0  0
  -34.1900  -12.1896    4.2409 H   0  0  0  0  0
  -35.6321  -13.0556    4.8251 H   0  0  0  0  0
  -33.3528   -7.5028    2.7074 H   0  0  0  0  0
  -34.6701   -5.8542    3.9704 H   0  0  0  0  0
  -35.2697   -7.0348    5.0615 H   0  0  0  0  0
  -36.0994   -6.5088    2.2276 H   0  0  0  0  0
  -37.1054   -6.7858    3.6328 H   0  0  0  0  0
  -36.9267   -9.1092    3.4501 H   0  0  0  0  0
  -36.5742   -8.7669    1.8156 H   0  0  0  0  0
  -31.5547   -7.2858    3.6552 H   0  0  0  0  0
  -30.4541   -9.0903    5.3670 H   0  0  0  0  0
  -29.7128   -7.5322    7.5041 H   0  0  0  0  0
  -29.2027   -7.2368    4.3399 H   0  0  0  0  0
  -28.3745   -8.4200    6.3898 H   0  0  0  0  0
  -28.9659   -6.9829    7.3348 H   0  0  0  0  0
  -30.8875   -5.4938    4.6648 H   0  0  0  0  0
  -30.5987   -5.5344    6.4215 H   0  0  0  0  0
  -29.3107   -4.9881    5.3198 H   0  0  0  0  0
  -26.8937   -6.9704    5.1488 H   0  0  0  0  0
  -27.4728   -5.5634    6.0740 H   0  0  0  0  0
  -26.5780   -6.8639    6.8981 H   0  0  0  0  0
  1  2  1  0  0  0
  2  3  1  0  0  0
  2  5  1  0  0  0
  3  4  2  0  0  0
  3  6  1  0  0  0
  6  7  1  0  0  0
  7  8  1  0  0  0
  7 10  1  0  0  0
  8  9  2  0  0  0
  8 13  1  0  0  0
 10 11  1  0  0  0
 10 12  1  0  0  0
 13 14  1  0  0  0
 13 19  1  0  0  0
 14 15  1  0  0  0
 14 17  1  0  0  0
 15 16  2  0  0  0
 15 20  1  0  0  0
 17 18  1  0  0  0
 18 19  1  0  0  0
 20 21  1  0  0  0
 21 22  1  0  0  0
 21 24  1  0  0  0
 22 23  1  0  0  0
 22 28  2  0  0  0
 24 25  1  0  0  0
 24 26  1  0  0  0
 25 27  1  0  0  0
  1 29  1  0  0  0
  1 30  1  0  0  0
  1 31  1  0  0  0
  2 32  1  0  0  0
  5 33  1  0  0  0
  5 34  1  0  0  0
  5 35  1  0  0  0
  6 36  1  0  0  0
  7 37  1  0  0  0
 10 38  1  0  0  0
 11 39  1  0  0  0
 11 40  1  0  0  0
 11 41  1  0  0  0
 12 42  1  0  0  0
 12 43  1  0  0  0
 12 44  1  0  0  0
 14 45  1  0  0  0
 17 46  1  0  0  0
 17 47  1  0  0  0
 18 48  1  0  0  0
 18 49  1  0  0  0
 19 50  1  0  0  0
 19 51  1  0  0  0
 20 52  1  0  0  0
 21 53  1  0  0  0
 23 54  1  0  0  0
 24 55  1  0  0  0
 25 56  1  0  0  0
 25 57  1  0  0  0
 26 58  1  0  0  0
 26 59  1  0  0  0
 26 60  1  0  0  0
 27 61  1  0  0  0
 27 62  1  0  0  0
 27 63  1  0  0  0
M  END
$$$$
