2cmb_ligand
  -I-interpret- 

 77 81  0  0  0  0  0  0  0  0999 V2000
   12.1090   34.7750   14.6540 C   0  0  0  0  0
   11.4890   34.8390   13.4000 C   0  0  0  0  0
   12.2520   35.1000   12.2530 C   0  0  0  0  0
   13.6370   35.2890   12.3590 C   0  0  0  0  0
   14.2580   35.2140   13.6130 C   0  0  0  0  0
   13.4930   34.9630   14.7600 C   0  0  0  0  0
   15.7630   35.3870   13.7280 C   0  0  0  0  0
   16.2280   33.9220   13.6550 C   0  0  0  0  0
   15.6280   33.0430   14.2720 O   0  0  0  0  0
   17.3090   33.6690   12.9150 N   0  0  0  0  0
   17.8290   32.2930   12.9130 C   0  0  0  0  0
   19.2070   32.3860   13.5310 C   0  0  0  0  0
   20.0390   33.1740   13.0870 O   0  0  0  0  0
   19.4480   31.5810   14.5730 N   0  0  0  0  0
   20.7900   31.6630   15.1500 C   0  0  0  0  0
   21.8200   30.7320   14.4940 C   0  0  0  0  0
   22.9450   31.1490   14.2010 O   0  0  0  0  0
   20.6330   31.3440   16.6410 C   0  0  0  0  0
   21.4050   29.4750   14.2970 N   0  0  0  0  0
   18.5380   30.3450   11.4180 C   0  0  0  0  0
   17.7440   29.2300   11.7190 C   0  0  0  0  0
   18.2910   27.9440   11.6660 C   0  0  0  0  0
   19.6370   27.7920   11.3100 C   0  0  0  0  0
   20.4420   28.8960   11.0070 C   0  0  0  0  0
   19.8840   30.1790   11.0630 C   0  0  0  0  0
   17.9320   31.7530   11.4790 C   0  0  0  0  0
   25.4900   31.5340   19.7980 C   0  0  0  0  0
   26.8490   31.2240   19.5100 C   0  0  0  0  0
   27.5610   31.3300   20.8210 C   0  0  0  0  0
   26.8440   31.6780   21.9060 N   0  0  0  0  0
   25.3420   31.8850   21.4740 S   0  0  0  0  0
   24.9180   33.2260   21.6930 O   0  0  0  0  0
   24.4740   30.9430   22.1140 O   0  0  0  0  0
   28.7580   31.0540   20.8700 O   0  0  0  0  0
   24.2650   31.4950   18.9610 C   0  0  0  0  0
   23.6730   30.2640   18.6620 C   0  0  0  0  0
   22.4980   30.2170   17.9060 C   0  0  0  0  0
   21.9110   31.4000   17.4470 C   0  0  0  0  0
   22.5040   32.6370   17.7380 C   0  0  0  0  0
   23.6840   32.6860   18.4980 C   0  0  0  0  0
    7.9750   33.6630   12.9000 C   0  0  0  0  0
    9.4150   33.3630   12.8390 C   0  0  0  0  0
   10.0140   34.5970   13.2780 C   0  0  0  0  0
    8.8840   35.7510   13.6390 S   0  0  0  0  0
    7.5520   34.9050   13.3100 N   0  0  0  0  0
    7.2440   32.7400   12.5470 O   0  0  0  0  0
    9.0120   36.8900   12.7770 O   0  0  0  0  0
    8.9470   36.1200   15.0230 O   0  0  0  0  0
   11.5151   34.5791   15.5468 H   0  0  0  0  0
   11.7678   35.1560   11.2780 H   0  0  0  0  0
   14.2298   35.4939   11.4676 H   0  0  0  0  0
   13.9757   34.9140   15.7361 H   0  0  0  0  0
   16.0812   35.9082   14.6309 H   0  0  0  0  0
   16.1952   36.0277   12.9593 H   0  0  0  0  0
   17.7591   34.4041   12.3697 H   0  0  0  0  0
   17.1744   31.6164   13.4624 H   0  0  0  0  0
   18.7385   30.9483   14.9426 H   0  0  0  0  0
   21.1904   32.6619   14.9765 H   0  0  0  0  0
   20.2658   30.3198   16.7058 H   0  0  0  0  0
   19.9672   32.1010   17.0554 H   0  0  0  0  0
   22.0344   28.7897   13.8791 H   0  0  0  0  0
   20.4593   29.2023   14.5648 H   0  0  0  0  0
   16.6982   29.3654   11.9949 H   0  0  0  0  0
   17.6787   27.0727   11.8984 H   0  0  0  0  0
   20.0672   26.7914   11.2680 H   0  0  0  0  0
   21.4877   28.7591   10.7315 H   0  0  0  0  0
   20.4969   31.0498   10.8303 H   0  0  0  0  0
   18.5827   32.4219   10.9157 H   0  0  0  0  0
   16.9238   31.7013   11.0679 H   0  0  0  0  0
   27.2784   30.9651   18.5422 H   0  0  0  0  0
   27.2116   31.7893   22.8509 H   0  0  0  0  0
   24.1282   29.3401   19.0188 H   0  0  0  0  0
   22.0386   29.2562   17.6739 H   0  0  0  0  0
   22.0498   33.5590   17.3749 H   0  0  0  0  0
   24.1471   33.6456   18.7276 H   0  0  0  0  0
    9.9055   32.4377   12.5369 H   0  0  0  0  0
    6.5875   35.2270   13.3901 H   0  0  0  0  0
  2  1  4  0  0  0
  1  6  4  0  0  0
  2  3  4  0  0  0
 43  2  1  0  0  0
  3  4  4  0  0  0
  4  5  4  0  0  0
  6  5  4  0  0  0
  5  7  1  0  0  0
  7  8  1  0  0  0
  8  9  2  0  0  0
  8 10  1  0  0  0
 10 11  1  0  0  0
 11 12  1  0  0  0
 11 26  1  0  0  0
 12 13  2  0  0  0
 12 14  1  0  0  0
 14 15  1  0  0  0
 15 16  1  0  0  0
 15 18  1  0  0  0
 16 17  2  0  0  0
 16 19  1  0  0  0
 18 38  1  0  0  0
 20 21  4  0  0  0
 20 25  4  0  0  0
 26 20  1  0  0  0
 21 22  4  0  0  0
 22 23  4  0  0  0
 24 23  4  0  0  0
 25 24  4  0  0  0
 27 28  2  0  0  0
 27 31  1  0  0  0
 35 27  1  0  0  0
 28 29  1  0  0  0
 30 29  1  0  0  0
 29 34  2  0  0  0
 31 30  1  0  0  0
 31 32  2  0  0  0
 31 33  2  0  0  0
 36 35  4  0  0  0
 40 35  4  0  0  0
 37 36  4  0  0  0
 38 37  4  0  0  0
 38 39  4  0  0  0
 39 40  4  0  0  0
 42 41  1  0  0  0
 41 45  1  0  0  0
 41 46  2  0  0  0
 42 43  2  0  0  0
 43 44  1  0  0  0
 44 45  1  0  0  0
 44 47  2  0  0  0
 44 48  2  0  0  0
  1 49  1  0  0  0
  3 50  1  0  0  0
  4 51  1  0  0  0
  6 52  1  0  0  0
  7 53  1  0  0  0
  7 54  1  0  0  0
 10 55  1  0  0  0
 11 56  1  0  0  0
 14 57  1  0  0  0
 15 58  1  0  0  0
 18 59  1  0  0  0
 18 60  1  0  0  0
 19 61  1  0  0  0
 19 62  1  0  0  0
 21 63  1  0  0  0
 22 64  1  0  0  0
 23 65  1  0  0  0
 24 66  1  0  0  0
 25 67  1  0  0  0
 26 68  1  0  0  0
 26 69  1  0  0  0
 28 70  1  0  0  0
 30 71  1  0  0  0
 36 72  1  0  0  0
 37 73  1  0  0  0
 39 74  1  0  0  0
 40 75  1  0  0  0
 42 76  1  0  0  0
 45 77  1  0  0  0
M  END
$$$$
