2rg6_ligand
  -I-interpret- 

 60 63  0  0  0  0  0  0  0  0999 V2000
   -4.1490   -4.9920   28.0210 C   0  0  0  0  0
   -3.6380   -6.1710   27.4910 C   0  0  0  0  0
   -3.6950   -3.7650   27.5510 C   0  0  0  0  0
   -3.5900    1.0930   14.4390 C   0  0  0  0  0
   -2.6720   -6.1310   26.4850 C   0  0  0  0  0
   -2.7260   -3.7200   26.5460 C   0  0  0  0  0
   -4.6910    0.6260   15.1780 C   0  0  0  0  0
   -2.0950    0.0630   16.0180 C   0  0  0  0  0
   -1.9470   -1.4280   22.4870 C   0  0  0  0  0
   -2.2910    0.8050   14.8620 C   0  0  0  0  0
   -1.9730   -2.7090   21.9890 C   0  0  0  0  0
   -2.1980   -4.9020   26.0020 C   0  0  0  0  0
   -4.4940   -0.1120   16.3520 C   0  0  0  0  0
   -2.2510   -2.6200   20.5870 C   0  0  0  0  0
   -3.1750   -0.4030   16.7560 C   0  0  0  0  0
   -2.3760   -1.2650   20.3060 C   0  0  0  0  0
   -2.4830    1.3880   20.4350 C   0  0  0  0  0
   -2.6650   -0.5100   19.1040 C   0  0  0  0  0
   -1.0740    1.2360   14.1270 C   0  0  0  0  0
   -1.7760   -3.9320   22.7500 C   0  0  0  0  0
   -5.6870   -0.5940   17.1420 C   0  0  0  0  0
   -2.3710   -3.7830   19.6720 C   0  0  0  0  0
    0.2820   -4.9080   25.4190 C   0  0  0  0  0
    0.2640    2.3180   11.4950 C   0  0  0  0  0
   -1.1530   -4.8910   24.9120 C   0  0  0  0  0
   -2.2350    0.7860   21.5600 N   0  0  0  0  0
   -2.6850    0.7920   19.2080 N   0  0  0  0  0
   -2.1950   -0.5660   21.4620 N   0  0  0  0  0
   -2.9010   -1.1470   17.9130 N   0  0  0  0  0
   -1.3410   -3.7480   24.0350 N   0  0  0  0  0
   -1.2510    2.2630   13.2350 N   0  0  0  0  0
   -0.0240    0.6130   14.2640 O   0  0  0  0  0
   -1.9690   -5.0280   22.2500 O   0  0  0  0  0
   -0.0020    2.7890   12.8200 O   0  0  0  0  0
   -4.9054   -5.0295   28.8049 H   0  0  0  0  0
   -3.9938   -7.1317   27.8632 H   0  0  0  0  0
   -4.0945   -2.8397   27.9660 H   0  0  0  0  0
   -3.7506    1.6804   13.5350 H   0  0  0  0  0
   -2.2828   -7.0613   26.0713 H   0  0  0  0  0
   -2.3753   -2.7553   26.1794 H   0  0  0  0  0
   -5.7035    0.8394   14.8354 H   0  0  0  0  0
   -1.0806   -0.1568   16.3509 H   0  0  0  0  0
   -1.7600   -1.1498   23.5242 H   0  0  0  0  0
   -2.5369    2.4763   20.4645 H   0  0  0  0  0
   -6.2798    0.2630   17.4617 H   0  0  0  0  0
   -6.2964   -1.2458   16.5160 H   0  0  0  0  0
   -5.3430   -1.1460   18.0167 H   0  0  0  0  0
   -1.4348   -4.3412   19.6713 H   0  0  0  0  0
   -3.1805   -4.4290   20.0119 H   0  0  0  0  0
   -2.5855   -3.4296   18.6635 H   0  0  0  0  0
    0.4576   -4.0285   26.0385 H   0  0  0  0  0
    0.4465   -5.8090   26.0100 H   0  0  0  0  0
    0.9660   -4.8986   24.5703 H   0  0  0  0  0
    0.2982    1.2285   11.4981 H   0  0  0  0  0
   -0.5266    2.6561   10.8251 H   0  0  0  0  0
    1.2222    2.7119   11.1563 H   0  0  0  0  0
   -1.3001   -5.8222   24.3649 H   0  0  0  0  0
   -2.8772   -2.1657   17.8682 H   0  0  0  0  0
   -1.1485   -2.8066   24.3774 H   0  0  0  0  0
   -2.1579    2.6019   12.9141 H   0  0  0  0  0
  2  1  4  0  0  0
  3  1  4  0  0  0
  5  2  4  0  0  0
  6  3  4  0  0  0
  4  7  4  0  0  0
 10  4  4  0  0  0
 12  5  4  0  0  0
 12  6  4  0  0  0
  7 13  4  0  0  0
 10  8  4  0  0  0
  8 15  4  0  0  0
  9 11  4  0  0  0
 28  9  4  0  0  0
 19 10  1  0  0  0
 14 11  4  0  0  0
 11 20  1  0  0  0
 25 12  1  0  0  0
 15 13  4  0  0  0
 13 21  1  0  0  0
 16 14  4  0  0  0
 14 22  1  0  0  0
 15 29  1  0  0  0
 18 16  4  0  0  0
 16 28  4  0  0  0
 17 26  4  0  0  0
 27 17  4  0  0  0
 18 27  4  0  0  0
 29 18  1  0  0  0
 31 19  1  0  0  0
 19 32  2  0  0  0
 20 30  1  0  0  0
 20 33  2  0  0  0
 25 23  1  0  0  0
 34 24  1  0  0  0
 30 25  1  0  0  0
 28 26  4  0  0  0
 31 34  1  0  0  0
  1 35  1  0  0  0
  2 36  1  0  0  0
  3 37  1  0  0  0
  4 38  1  0  0  0
  5 39  1  0  0  0
  6 40  1  0  0  0
  7 41  1  0  0  0
  8 42  1  0  0  0
  9 43  1  0  0  0
 17 44  1  0  0  0
 21 45  1  0  0  0
 21 46  1  0  0  0
 21 47  1  0  0  0
 22 48  1  0  0  0
 22 49  1  0  0  0
 22 50  1  0  0  0
 23 51  1  0  0  0
 23 52  1  0  0  0
 23 53  1  0  0  0
 24 54  1  0  0  0
 24 55  1  0  0  0
 24 56  1  0  0  0
 25 57  1  0  0  0
 29 58  1  0  0  0
 30 59  1  0  0  0
 31 60  1  0  0  0
M  END
$$$$
