3bgb_ligand
  -I-interpret- 

 75 76  0  0  0  0  0  0  0  0999 V2000
   13.4870  -18.6170  -17.9370 N   0  3  0  0  0
   12.3890  -18.1910  -18.8500 C   0  0  0  0  0
   11.1410  -17.6480  -18.1310 C   0  0  0  0  0
    9.1060  -19.1030  -18.8250 C   0  0  0  0  0
    8.9960  -17.6440  -20.9120 C   0  0  0  0  0
    9.4260  -17.7770  -15.3940 C   0  0  0  0  0
    7.6470  -16.2860  -14.7590 C   0  0  0  0  0
    9.9050  -15.9360  -13.9170 C   0  0  0  0  0
   14.3970  -22.2320  -15.7470 C   0  0  0  0  0
   13.7870  -22.0200  -13.2770 C   0  0  0  0  0
   14.9750  -24.5300  -18.7430 C   0  0  0  0  0
   14.3760  -19.6080  -18.6030 C   0  0  0  0  0
   14.9670  -20.6810  -17.6800 C   0  0  0  0  0
   14.1930  -21.7880  -17.1510 N   0  0  0  0  0
   13.1130  -22.5420  -18.1440 S   0  0  0  0  0
   12.4210  -23.4820  -17.2740 O   0  0  0  0  0
   12.3090  -21.6700  -18.9570 O   0  0  0  0  0
   14.2180  -23.4470  -19.2050 C   0  0  0  0  0
   14.2920  -23.0550  -20.5450 C   0  0  0  0  0
   15.1540  -23.7260  -21.4150 C   0  0  0  0  0
   15.9320  -24.7900  -20.9530 C   0  0  0  0  0
   16.8150  -25.4410  -21.8430 N   0  0  0  0  0
   15.8090  -25.2190  -19.6270 C   0  0  0  0  0
   14.1520  -21.2360  -14.5670 C   0  0  0  0  0
   15.4300  -20.3810  -14.3150 C   0  0  0  0  0
   10.0890  -18.6200  -17.8590 N   0  0  0  0  0
    9.9690  -19.2140  -16.3060 S   0  0  0  0  0
    8.8840  -20.1610  -16.3150 O   0  0  0  0  0
   11.2840  -19.5210  -15.8610 O   0  0  0  0  0
   10.3350  -17.0830  -14.5910 C   0  0  0  0  0
    8.5660  -15.5450  -14.0100 C   0  0  0  0  0
    8.1300  -14.3980  -13.3090 N   0  0  0  0  0
    8.0860  -17.4030  -15.4800 C   0  0  0  0  0
    9.4880  -19.0040  -20.3330 C   0  0  0  0  0
    8.8550  -20.1690  -21.1360 C   0  0  0  0  0
   13.0766  -19.0485  -17.1089 H   0  0  0  0  0
   14.0398  -17.7980  -17.6838 H   0  0  0  0  0
   12.0778  -19.0727  -19.4102 H   0  0  0  0  0
   12.7808  -17.3822  -19.4668 H   0  0  0  0  0
   10.7049  -16.9015  -18.7948 H   0  0  0  0  0
   11.4799  -17.2832  -17.1614 H   0  0  0  0  0
    8.2280  -18.4696  -18.6982 H   0  0  0  0  0
    8.9831  -20.1661  -18.6183 H   0  0  0  0  0
    9.2925  -17.5674  -21.9581 H   0  0  0  0  0
    7.9100  -17.5897  -20.8359 H   0  0  0  0  0
    9.4425  -16.8267  -20.3457 H   0  0  0  0  0
    6.5965  -15.9962  -14.7815 H   0  0  0  0  0
   10.6081  -15.3513  -13.3238 H   0  0  0  0  0
   15.4596  -22.4675  -15.6879 H   0  0  0  0  0
   13.6548  -23.0165  -15.5993 H   0  0  0  0  0
   12.8812  -22.6010  -13.4505 H   0  0  0  0  0
   14.6061  -22.6905  -13.0169 H   0  0  0  0  0
   13.6184  -21.3168  -12.4614 H   0  0  0  0  0
   14.9140  -24.8344  -17.6981 H   0  0  0  0  0
   15.2178  -19.0483  -19.0107 H   0  0  0  0  0
   13.7651  -20.1308  -19.3389 H   0  0  0  0  0
   15.2339  -20.1174  -16.7860 H   0  0  0  0  0
   15.7017  -21.1754  -18.3155 H   0  0  0  0  0
   13.6799  -22.2297  -20.9088 H   0  0  0  0  0
   15.2199  -23.4182  -22.4586 H   0  0  0  0  0
   16.8801  -25.1330  -22.8132 H   0  0  0  0  0
   17.3875  -26.2191  -21.5154 H   0  0  0  0  0
   16.3644  -26.0916  -19.2833 H   0  0  0  0  0
   13.3261  -20.5757  -14.8315 H   0  0  0  0  0
   16.2616  -21.0387  -14.0623 H   0  0  0  0  0
   15.6718  -19.8171  -15.2159 H   0  0  0  0  0
   15.2474  -19.6911  -13.4911 H   0  0  0  0  0
   11.3633  -17.4305  -14.4916 H   0  0  0  0  0
    7.1507  -14.1158  -13.3516 H   0  0  0  0  0
    8.7946  -13.8523  -12.7604 H   0  0  0  0  0
    7.3911  -17.9710  -16.0986 H   0  0  0  0  0
   10.5726  -19.0688  -20.4200 H   0  0  0  0  0
    7.7691  -20.1133  -21.0598 H   0  0  0  0  0
    9.1516  -20.0909  -22.1820 H   0  0  0  0  0
    9.2008  -21.1192  -20.7290 H   0  0  0  0  0
  2  1  1  0  0  0
  1 12  1  0  0  0
  3  2  1  0  0  0
 26  3  1  0  0  0
 26  4  1  0  0  0
  4 34  1  0  0  0
 34  5  1  0  0  0
 27  6  1  0  0  0
  6 30  4  0  0  0
  6 33  4  0  0  0
  7 31  4  0  0  0
 33  7  4  0  0  0
 30  8  4  0  0  0
  8 31  4  0  0  0
 14  9  1  0  0  0
  9 24  1  0  0  0
 24 10  1  0  0  0
 18 11  4  0  0  0
 11 23  4  0  0  0
 12 13  1  0  0  0
 13 14  1  0  0  0
 14 15  1  0  0  0
 15 16  2  0  0  0
 15 17  2  0  0  0
 15 18  1  0  0  0
 18 19  4  0  0  0
 19 20  4  0  0  0
 20 21  4  0  0  0
 21 22  1  0  0  0
 23 21  4  0  0  0
 24 25  1  0  0  0
 26 27  1  0  0  0
 27 28  2  0  0  0
 27 29  2  0  0  0
 31 32  1  0  0  0
 34 35  1  0  0  0
  1 36  1  0  0  0
  1 37  1  0  0  0
  2 38  1  0  0  0
  2 39  1  0  0  0
  3 40  1  0  0  0
  3 41  1  0  0  0
  4 42  1  0  0  0
  4 43  1  0  0  0
  5 44  1  0  0  0
  5 45  1  0  0  0
  5 46  1  0  0  0
  7 47  1  0  0  0
  8 48  1  0  0  0
  9 49  1  0  0  0
  9 50  1  0  0  0
 10 51  1  0  0  0
 10 52  1  0  0  0
 10 53  1  0  0  0
 11 54  1  0  0  0
 12 55  1  0  0  0
 12 56  1  0  0  0
 13 57  1  0  0  0
 13 58  1  0  0  0
 19 59  1  0  0  0
 20 60  1  0  0  0
 22 61  1  0  0  0
 22 62  1  0  0  0
 23 63  1  0  0  0
 24 64  1  0  0  0
 25 65  1  0  0  0
 25 66  1  0  0  0
 25 67  1  0  0  0
 30 68  1  0  0  0
 32 69  1  0  0  0
 32 70  1  0  0  0
 33 71  1  0  0  0
 34 72  1  0  0  0
 35 73  1  0  0  0
 35 74  1  0  0  0
 35 75  1  0  0  0
M  END
$$$$
