### 
### Created by X-TOOL on Mon Sep 10 21:13:25 2018
### 

@<TRIPOS>MOLECULE
3wuu_ligand
  202   206     1     0     0
SMALL
GAST_HUCK


@<TRIPOS>ATOM
      1 N         -26.3780   41.7050  -35.0580 N.4       1 ASP         0.2391
      2 CA        -25.0410   41.9350  -34.5200 C.3       1 ASP         0.0764
      3 C         -24.2920   40.6160  -34.3540 C.2       1 ASP         0.2284
      4 O         -24.1150   40.1320  -33.2350 O.2       1 ASP        -0.3906
      5 CB        -25.1210   42.6570  -33.1770 C.3       1 ASP         0.0607
      6 CG        -23.7880   43.2400  -32.7510 C.2       1 ASP         0.0425
      7 OD1       -22.7620   42.5330  -32.8470 O.co2     1 ASP        -0.5686
      8 OD2       -23.7630   44.4150  -32.3310 O.co2     1 ASP        -0.5686
      9 N         -23.8250   40.0580  -35.4650 N.am      1 LEU        -0.2609
     10 CA        -23.3410   38.6850  -35.4760 C.3       1 LEU         0.1313
     11 C         -22.0120   38.5200  -36.2020 C.2       1 LEU         0.2039
     12 O         -21.9560   38.4600  -37.4320 O.2       1 LEU        -0.3944
     13 CB        -24.3970   37.7580  -36.0880 C.3       1 LEU        -0.0101
     14 CG        -24.1370   36.2500  -36.0430 C.3       1 LEU        -0.0425
     15 CD1       -23.5660   35.8840  -34.6950 C.3       1 LEU        -0.0625
     16 CD2       -25.4020   35.4700  -36.3860 C.3       1 LEU        -0.0625
     17 N         -20.9470   38.4560  -35.4130 N.am      1 ALA        -0.2640
     18 CA        -19.6110   38.1320  -35.8870 C.3       1 ALA         0.1282
     19 C         -18.8620   37.8260  -34.6020 C.2       1 ALA         0.2036
     20 O         -19.1410   38.4260  -33.5650 O.2       1 ALA        -0.3944
     21 CB        -18.9920   39.2980  -36.6150 C.3       1 ALA        -0.0244
     22 N         -17.9250   36.8880  -34.6540 N.am      1 VAL        -0.2635
     23 CA        -17.3690   36.3210  -33.4300 C.3       1 VAL         0.1332
     24 C         -16.0110   36.9080  -33.0450 C.2       1 VAL         0.2039
     25 O         -15.1960   37.2220  -33.9110 O.2       1 VAL        -0.3944
     26 CB        -17.2620   34.7980  -33.5400 C.3       1 VAL        -0.0063
     27 CG1       -17.0460   34.1880  -32.1830 C.3       1 VAL        -0.0584
     28 CG2       -18.5250   34.2240  -34.1490 C.3       1 VAL        -0.0584
     29 N         -15.7800   37.0480  -31.7390 N.am      1 GLY        -0.2664
     30 CA        -14.4940   37.4790  -31.2150 C.3       1 GLY         0.1203
     31 C         -13.8910   36.4110  -30.3200 C.2       1 GLY         0.2032
     32 O         -14.5080   35.3700  -30.0950 O.2       1 GLY        -0.3945
     33 N         -12.6790   36.6580  -29.8040 N.am      1 PRO        -0.2501
     34 CA        -11.9750   35.7080  -28.9340 C.3       1 PRO         0.1340
     35 C         -12.5990   35.6510  -27.5390 C.2       1 PRO         0.2066
     36 O         -13.2710   36.6030  -27.1380 O.2       1 PRO        -0.3942
     37 CB        -10.5640   36.2930  -28.8620 C.3       1 PRO        -0.0104
     38 CG        -10.7610   37.7560  -29.0650 C.3       1 PRO        -0.0281
     39 CD        -11.9000   37.8870  -30.0300 C.3       1 PRO         0.0369
     40 N         -12.3890   34.5400  -26.8110 N.am      1 PRO        -0.2498
     41 CA        -12.9130   34.3780  -25.4490 C.3       1 PRO         0.1338
     42 C         -12.3770   35.4290  -24.4790 C.2       1 PRO         0.2042
     43 O         -13.0960   35.8390  -23.5690 O.2       1 PRO        -0.3944
     44 CB        -12.4300   32.9780  -25.0470 C.3       1 PRO        -0.0104
     45 CG        -11.3190   32.6580  -25.9920 C.3       1 PRO        -0.0281
     46 CD        -11.6790   33.3360  -27.2710 C.3       1 PRO         0.0369
     47 N         -11.1340   35.8580  -24.6720 N.am      1 SER        -0.2616
     48 CA        -10.5750   36.9510  -23.8820 C.3       1 SER         0.1539
     49 C          -9.4060   37.6010  -24.6070 C.2       1 SER         0.2062
     50 O          -9.1330   37.2990  -25.7690 O.2       1 SER        -0.3943
     51 CB        -10.1180   36.4570  -22.5070 C.3       1 SER         0.0843
     52 OG         -8.8790   35.7780  -22.5950 O.3       1 SER        -0.3903
     53 N          -8.7180   38.4980  -23.9140 N.am      1 LEU        -0.2636
     54 CA         -7.5470   39.1530  -24.4740 C.3       1 LEU         0.1312
     55 C          -6.2850   38.5880  -23.8340 C.2       1 LEU         0.2040
     56 O          -5.1690   38.8640  -24.2760 O.2       1 LEU        -0.3944
     57 CB         -7.6320   40.6660  -24.2710 C.3       1 LEU        -0.0101
     58 CG         -8.1800   41.4930  -25.4380 C.3       1 LEU        -0.0425
     59 CD1        -9.3840   40.8280  -26.0870 C.3       1 LEU        -0.0625
     60 CD2        -8.5380   42.8900  -24.9570 C.3       1 LEU        -0.0625
     61 N          -6.4790   37.7910  -22.7890 N.am      1 ASN        -0.2616
     62 CA         -5.3850   37.0930  -22.1290 C.3       1 ASN         0.1476
     63 C          -5.4830   35.6000  -22.3990 C.2       1 ASN         0.2064
     64 O          -6.5440   35.1010  -22.7740 O.2       1 ASN        -0.3942
     65 CB         -5.4060   37.3480  -20.6190 C.3       1 ASN         0.0773
     66 CG         -5.0650   38.7830  -20.2620 C.2       1 ASN         0.1780
     67 OD1        -3.9020   39.1860  -20.3070 O.2       1 ASN        -0.3970
     68 ND2        -6.0780   39.5590  -19.8910 N.am      1 ASN        -0.3007
     69 N          -4.3810   34.8840  -22.2060 N.am      1 TYR        -0.2620
     70 CA         -4.3840   33.4430  -22.4160 C.3       1 TYR         0.1392
     71 C          -4.0160   32.6830  -21.1350 C.2       1 TYR         0.2082
     72 O          -3.0400   33.0240  -20.4640 O.2       1 TYR        -0.3940
     73 CB         -3.4570   33.0620  -23.5720 C.3       1 TYR         0.0164
     74 CG         -3.7250   31.6780  -24.1060 C.ar      1 TYR        -0.0493
     75 CD1        -2.9540   30.5980  -23.7050 C.ar      1 TYR        -0.0685
     76 CD2        -4.7610   31.4490  -25.0020 C.ar      1 TYR        -0.0685
     77 CE1        -3.1990   29.3310  -24.1850 C.ar      1 TYR        -0.0398
     78 CE2        -5.0140   30.1870  -25.4890 C.ar      1 TYR        -0.0398
     79 CZ         -4.2290   29.1300  -25.0760 C.ar      1 TYR         0.0805
     80 OH         -4.4760   27.8650  -25.5530 O.3       1 TYR        -0.3376
     81 N          -4.7940   31.6440  -20.7980 N.am      1 PRO        -0.2497
     82 CA         -5.9600   31.1990  -21.5650 C.3       1 PRO         0.1338
     83 C          -7.2610   31.8580  -21.1230 C.2       1 PRO         0.2039
     84 O          -8.1610   31.9920  -21.9500 O.2       1 PRO        -0.3944
     85 CB         -6.0120   29.7050  -21.2640 C.3       1 PRO        -0.0104
     86 CG         -5.4620   29.5890  -19.8790 C.3       1 PRO        -0.0281
     87 CD         -4.4460   30.7000  -19.7200 C.3       1 PRO         0.0369
     88 N          -7.3660   32.2490  -19.8530 N.am      1 GLY        -0.2664
     89 CA         -8.6410   32.6710  -19.2930 C.3       1 GLY         0.1201
     90 C          -9.4770   31.4650  -18.8880 C.2       1 GLY         0.2003
     91 O         -10.4860   31.6010  -18.1930 O.2       1 GLY        -0.3947
     92 N          -9.0240   30.2890  -19.3320 N.am      1 TYR        -0.2681
     93 CA         -9.6590   28.9820  -19.1080 C.3       1 TYR         0.1025
     94 C         -11.1840   28.9990  -18.9670 C.2       1 TYR         0.0619
     95 O         -11.9040   29.1780  -19.9500 O.co2     1 TYR        -0.5665
     96 CB         -8.9980   28.2410  -17.9330 C.3       1 TYR         0.0108
     97 CG         -9.8130   28.2110  -16.6600 C.ar      1 TYR        -0.0499
     98 CD1       -10.6320   27.1250  -16.3600 C.ar      1 TYR        -0.0686
     99 CD2        -9.7580   29.2610  -15.7520 C.ar      1 TYR        -0.0686
    100 CE1       -11.3790   27.0920  -15.1960 C.ar      1 TYR        -0.0398
    101 CE2       -10.5010   29.2360  -14.5830 C.ar      1 TYR        -0.0398
    102 CZ        -11.3080   28.1490  -14.3100 C.ar      1 TYR         0.0805
    103 OH        -12.0470   28.1220  -13.1500 O.3       1 TYR        -0.3376
    104 OXT       -11.7150   28.8340  -17.8680 O.co2     1 TYR        -0.5665
    105 H1        -26.8554   42.5869  -35.1600 H         1 ASP         0.2016
    106 H2        -26.8965   41.1132  -34.4280 H         1 ASP         0.2016
    107 H3        -26.3056   41.2562  -35.9577 H         1 ASP         0.2016
    108 H4        -24.4849   42.5681  -35.2271 H         1 ASP         0.1117
    109 H5        -25.4539   41.9412  -32.4109 H         1 ASP         0.0512
    110 H6        -25.8533   43.4738  -33.2586 H         1 ASP         0.0512
    111 H7        -23.8054   40.5914  -36.3106 H         1 LEU         0.1885
    112 H8        -23.1854   38.3815  -34.4302 H         1 LEU         0.0800
    113 H9        -24.5077   38.0401  -37.1454 H         1 LEU         0.0315
    114 H10       -25.3429   37.9435  -35.5580 H         1 LEU         0.0315
    115 H11       -23.3821   36.0077  -36.8055 H         1 LEU         0.0298
    116 H12       -23.3776   34.8009  -34.6584 H         1 LEU         0.0232
    117 H13       -24.2823   36.1584  -33.9066 H         1 LEU         0.0232
    118 H14       -22.6218   36.4258  -34.5373 H         1 LEU         0.0232
    119 H15       -25.7673   35.7809  -37.3759 H         1 LEU         0.0232
    120 H16       -26.1745   35.6732  -35.6297 H         1 LEU         0.0232
    121 H17       -25.1766   34.3934  -36.3999 H         1 LEU         0.0232
    122 H18       -21.0700   38.6409  -34.4380 H         1 ALA         0.1883
    123 H19       -19.6297   37.2555  -36.5513 H         1 ALA         0.0797
    124 H20       -17.9847   39.0218  -36.9601 H         1 ALA         0.0277
    125 H21       -18.9231   40.1600  -35.9352 H         1 ALA         0.0277
    126 H22       -19.6164   39.5629  -37.4810 H         1 ALA         0.0277
    127 H23       -17.5963   36.5661  -35.5419 H         1 VAL         0.1883
    128 H24       -18.0706   36.5539  -32.6155 H         1 VAL         0.0802
    129 H25       -16.4070   34.5485  -34.1855 H         1 VAL         0.0343
    130 H26       -16.9714   33.0948  -32.2801 H         1 VAL         0.0234
    131 H27       -17.8929   34.4410  -31.5282 H         1 VAL         0.0234
    132 H28       -16.1156   34.5817  -31.7478 H         1 VAL         0.0234
    133 H29       -18.6874   34.6675  -35.1424 H         1 VAL         0.0234
    134 H30       -19.3826   34.4546  -33.5000 H         1 VAL         0.0234
    135 H31       -18.4220   33.1332  -34.2468 H         1 VAL         0.0234
    136 H32       -16.5193   36.8490  -31.0957 H         1 GLY         0.1881
    137 H33       -14.6329   38.4015  -30.6322 H         1 GLY         0.0763
    138 H34       -13.8100   37.6747  -32.0539 H         1 GLY         0.0763
    139 H35       -11.9674   34.7003  -29.3751 H         1 PRO         0.0802
    140 H36        -9.9268   35.8721  -29.6537 H         1 PRO         0.0313
    141 H37       -10.1091   36.0936  -27.8805 H         1 PRO         0.0313
    142 H38        -9.8508   38.2102  -29.4836 H         1 PRO         0.0287
    143 H39       -11.0094   38.2446  -28.1113 H         1 PRO         0.0287
    144 H40       -12.5019   38.7810  -29.8100 H         1 PRO         0.0524
    145 H41       -11.5346   37.9369  -31.0663 H         1 PRO         0.0524
    146 H42       -14.0120   34.4252  -25.4545 H         1 PRO         0.0802
    147 H43       -13.2445   32.2457  -25.1479 H         1 PRO         0.0313
    148 H44       -12.0648   32.9796  -24.0094 H         1 PRO         0.0313
    149 H45       -11.2418   31.5709  -26.1412 H         1 PRO         0.0287
    150 H46       -10.3635   33.0441  -25.6075 H         1 PRO         0.0287
    151 H47       -10.7795   33.6014  -27.8459 H         1 PRO         0.0524
    152 H48       -12.3331   32.7006  -27.8861 H         1 PRO         0.0524
    153 H49       -10.5695   35.4228  -25.3734 H         1 SER         0.1884
    154 H50       -11.3602   37.7076  -23.7371 H         1 SER         0.0823
    155 H51       -10.8759   35.7703  -22.1019 H         1 SER         0.0606
    156 H52       -10.0076   37.3199  -21.8337 H         1 SER         0.0606
    157 H53        -8.2197   36.3680  -22.9409 H         1 SER         0.2097
    158 H54        -9.0109   38.7290  -22.9862 H         1 LEU         0.1883
    159 H55        -7.5130   38.9489  -25.5544 H         1 LEU         0.0800
    160 H56        -6.6167   41.0296  -24.0542 H         1 LEU         0.0315
    161 H57        -8.2803   40.8485  -23.4013 H         1 LEU         0.0315
    162 H58        -7.3890   41.5794  -26.1975 H         1 LEU         0.0298
    163 H59        -9.7447   41.4529  -26.9173 H         1 LEU         0.0232
    164 H60       -10.1844   40.7110  -25.3416 H         1 LEU         0.0232
    165 H61        -9.0937   39.8392  -26.4716 H         1 LEU         0.0232
    166 H62        -7.6564   43.3545  -24.4912 H         1 LEU         0.0232
    167 H63        -9.3517   42.8266  -24.2195 H         1 LEU         0.0232
    168 H64        -8.8649   43.4997  -25.8122 H         1 LEU         0.0232
    169 H65        -7.4091   37.6661  -22.4436 H         1 ASN         0.1885
    170 H66        -4.4337   37.4663  -22.5360 H         1 ASN         0.0826
    171 H67        -4.6730   36.6826  -20.1396 H         1 ASN         0.0551
    172 H68        -6.4124   37.1203  -20.2377 H         1 ASN         0.0551
    173 H69        -5.9122   40.5138  -19.6444 H         1 ASN         0.1814
    174 H70        -7.0061   39.1881  -19.8584 H         1 ASN         0.1814
    175 H71        -3.5402   35.3394  -21.9133 H         1 TYR         0.1885
    176 H72        -5.4064   33.1483  -22.6949 H         1 TYR         0.0821
    177 H73        -2.4168   33.1061  -23.2171 H         1 TYR         0.0453
    178 H74        -3.5971   33.7863  -24.3879 H         1 TYR         0.0453
    179 H75        -2.1442   30.7537  -23.0014 H         1 TYR         0.0530
    180 H76        -5.3808   32.2783  -25.3232 H         1 TYR         0.0530
    181 H77        -2.5851   28.4975  -23.8635 H         1 TYR         0.0525
    182 H78        -5.8235   30.0246  -26.1914 H         1 TYR         0.0525
    183 H79        -5.3579   27.6045  -25.3146 H         1 TYR         0.2458
    184 H80        -5.8083   31.3843  -22.6386 H         1 PRO         0.0802
    185 H81        -5.3929   29.1417  -21.9777 H         1 PRO         0.0313
    186 H82        -7.0471   29.3349  -21.3046 H         1 PRO         0.0313
    187 H83        -4.9780   28.6105  -19.7440 H         1 PRO         0.0287
    188 H84        -6.2685   29.7042  -19.1399 H         1 PRO         0.0287
    189 H85        -4.5382   31.1785  -18.7338 H         1 PRO         0.0524
    190 H86        -3.4226   30.3176  -19.8478 H         1 PRO         0.0524
    191 H87        -6.5514   32.2524  -19.2729 H         1 GLY         0.1881
    192 H88        -9.1906   33.2547  -20.0462 H         1 GLY         0.0763
    193 H89        -8.4569   33.2965  -18.4071 H         1 GLY         0.0763
    194 H90        -8.1774   30.2987  -19.8642 H         1 TYR         0.1877
    195 H91        -9.4501   28.3898  -20.0111 H         1 TYR         0.0747
    196 H92        -8.0397   28.7344  -17.7136 H         1 TYR         0.0446
    197 H93        -8.8129   27.2025  -18.2447 H         1 TYR         0.0446
    198 H94       -10.6850   26.2911  -17.0506 H         1 TYR         0.0530
    199 H95        -9.1231   30.1142  -15.9617 H         1 TYR         0.0530
    200 H96       -12.0161   26.2418  -14.9807 H         1 TYR         0.0525
    201 H97       -10.4492   30.0650  -13.8865 H         1 TYR         0.0525
    202 H98       -12.5446   27.3136  -13.1116 H         1 TYR         0.2458
@<TRIPOS>BOND
     1    1    2 1  
     2    2    3 1  
     3    2    5 1  
     4    3    4 2  
     5    3    9 am 
     6    5    6 1  
     7    6    7 ar 
     8    6    8 ar 
     9    9   10 1  
    10   10   11 1  
    11   10   13 1  
    12   11   12 2  
    13   11   17 am 
    14   13   14 1  
    15   14   15 1  
    16   14   16 1  
    17   17   18 1  
    18   18   19 1  
    19   18   21 1  
    20   19   20 2  
    21   19   22 am 
    22   22   23 1  
    23   23   24 1  
    24   23   26 1  
    25   24   25 2  
    26   24   29 am 
    27   26   27 1  
    28   26   28 1  
    29   29   30 1  
    30   30   31 1  
    31   31   32 2  
    32   31   33 am 
    33   33   34 1  
    34   33   39 1  
    35   34   35 1  
    36   34   37 1  
    37   35   36 2  
    38   35   40 am 
    39   37   38 1  
    40   38   39 1  
    41   40   41 1  
    42   40   46 1  
    43   41   42 1  
    44   41   44 1  
    45   42   43 2  
    46   42   47 am 
    47   44   45 1  
    48   45   46 1  
    49   47   48 1  
    50   48   49 1  
    51   48   51 1  
    52   49   50 2  
    53   49   53 am 
    54   51   52 1  
    55   53   54 1  
    56   54   55 1  
    57   54   57 1  
    58   55   56 2  
    59   55   61 am 
    60   57   58 1  
    61   58   59 1  
    62   58   60 1  
    63   61   62 1  
    64   62   63 1  
    65   62   65 1  
    66   63   64 2  
    67   63   69 am 
    68   65   66 1  
    69   66   67 2  
    70   66   68 am 
    71   69   70 1  
    72   70   71 1  
    73   70   73 1  
    74   71   72 2  
    75   71   81 am 
    76   73   74 1  
    77   74   75 ar 
    78   74   76 ar 
    79   75   77 ar 
    80   76   78 ar 
    81   77   79 ar 
    82   78   79 ar 
    83   79   80 1  
    84   81   82 1  
    85   81   87 1  
    86   82   83 1  
    87   82   85 1  
    88   83   84 2  
    89   83   88 am 
    90   85   86 1  
    91   86   87 1  
    92   88   89 1  
    93   89   90 1  
    94   90   91 2  
    95   90   92 am 
    96   92   93 1  
    97   93   94 1  
    98   93   96 1  
    99   94   95 ar 
   100   94  104 ar 
   101   96   97 1  
   102   97   98 ar 
   103   97   99 ar 
   104   98  100 ar 
   105   99  101 ar 
   106  100  102 ar 
   107  101  102 ar 
   108  102  103 1  
   109    1  105 1  
   110    1  106 1  
   111    1  107 1  
   112    2  108 1  
   113    5  109 1  
   114    5  110 1  
   115    9  111 1  
   116   10  112 1  
   117   13  113 1  
   118   13  114 1  
   119   14  115 1  
   120   15  116 1  
   121   15  117 1  
   122   15  118 1  
   123   16  119 1  
   124   16  120 1  
   125   16  121 1  
   126   17  122 1  
   127   18  123 1  
   128   21  124 1  
   129   21  125 1  
   130   21  126 1  
   131   22  127 1  
   132   23  128 1  
   133   26  129 1  
   134   27  130 1  
   135   27  131 1  
   136   27  132 1  
   137   28  133 1  
   138   28  134 1  
   139   28  135 1  
   140   29  136 1  
   141   30  137 1  
   142   30  138 1  
   143   34  139 1  
   144   37  140 1  
   145   37  141 1  
   146   38  142 1  
   147   38  143 1  
   148   39  144 1  
   149   39  145 1  
   150   41  146 1  
   151   44  147 1  
   152   44  148 1  
   153   45  149 1  
   154   45  150 1  
   155   46  151 1  
   156   46  152 1  
   157   47  153 1  
   158   48  154 1  
   159   51  155 1  
   160   51  156 1  
   161   52  157 1  
   162   53  158 1  
   163   54  159 1  
   164   57  160 1  
   165   57  161 1  
   166   58  162 1  
   167   59  163 1  
   168   59  164 1  
   169   59  165 1  
   170   60  166 1  
   171   60  167 1  
   172   60  168 1  
   173   61  169 1  
   174   62  170 1  
   175   65  171 1  
   176   65  172 1  
   177   68  173 1  
   178   68  174 1  
   179   69  175 1  
   180   70  176 1  
   181   73  177 1  
   182   73  178 1  
   183   75  179 1  
   184   76  180 1  
   185   77  181 1  
   186   78  182 1  
   187   80  183 1  
   188   82  184 1  
   189   85  185 1  
   190   85  186 1  
   191   86  187 1  
   192   86  188 1  
   193   87  189 1  
   194   87  190 1  
   195   88  191 1  
   196   89  192 1  
   197   89  193 1  
   198   92  194 1  
   199   93  195 1  
   200   96  196 1  
   201   96  197 1  
   202   98  198 1  
   203   99  199 1  
   204  100  200 1  
   205  101  201 1  
   206  103  202 1  
@<TRIPOS>SUBSTRUCTURE
     1 ASP         1

