3wuu_ligand
  -I-interpret- 

204208  0  0  0  0  0  0  0  0999 V2000
  -26.3780   41.7050  -35.0580 N   0  3  0  0  0
  -25.0410   41.9350  -34.5200 C   0  0  0  0  0
  -24.2920   40.6160  -34.3540 C   0  0  0  0  0
  -24.1150   40.1320  -33.2350 O   0  0  0  0  0
  -25.1210   42.6570  -33.1770 C   0  0  0  0  0
  -23.7880   43.2400  -32.7510 C   0  0  0  0  0
  -22.7620   42.5330  -32.8470 O   0  0  0  0  0
  -23.7630   44.4150  -32.3310 O   0  0  0  0  0
  -23.8250   40.0580  -35.4650 N   0  0  0  0  0
  -23.3410   38.6850  -35.4760 C   0  0  0  0  0
  -22.0120   38.5200  -36.2020 C   0  0  0  0  0
  -21.9560   38.4600  -37.4320 O   0  0  0  0  0
  -24.3970   37.7580  -36.0880 C   0  0  0  0  0
  -24.1370   36.2500  -36.0430 C   0  0  0  0  0
  -23.5660   35.8840  -34.6950 C   0  0  0  0  0
  -25.4020   35.4700  -36.3860 C   0  0  0  0  0
  -20.9470   38.4560  -35.4130 N   0  0  0  0  0
  -19.6110   38.1320  -35.8870 C   0  0  0  0  0
  -18.8620   37.8260  -34.6020 C   0  0  0  0  0
  -19.1410   38.4260  -33.5650 O   0  0  0  0  0
  -18.9920   39.2980  -36.6150 C   0  0  0  0  0
  -17.9250   36.8880  -34.6540 N   0  0  0  0  0
  -17.3690   36.3210  -33.4300 C   0  0  0  0  0
  -16.0110   36.9080  -33.0450 C   0  0  0  0  0
  -15.1960   37.2220  -33.9110 O   0  0  0  0  0
  -17.2620   34.7980  -33.5400 C   0  0  0  0  0
  -17.0460   34.1880  -32.1830 C   0  0  0  0  0
  -18.5250   34.2240  -34.1490 C   0  0  0  0  0
  -15.7800   37.0480  -31.7390 N   0  0  0  0  0
  -14.4940   37.4790  -31.2150 C   0  0  0  0  0
  -13.8910   36.4110  -30.3200 C   0  0  0  0  0
  -14.5080   35.3700  -30.0950 O   0  0  0  0  0
  -12.6790   36.6580  -29.8040 N   0  0  0  0  0
  -11.9750   35.7080  -28.9340 C   0  0  0  0  0
  -12.5990   35.6510  -27.5390 C   0  0  0  0  0
  -13.2710   36.6030  -27.1380 O   0  0  0  0  0
  -10.5640   36.2930  -28.8620 C   0  0  0  0  0
  -10.7610   37.7560  -29.0650 C   0  0  0  0  0
  -11.9000   37.8870  -30.0300 C   0  0  0  0  0
  -12.3890   34.5400  -26.8110 N   0  0  0  0  0
  -12.9130   34.3780  -25.4490 C   0  0  0  0  0
  -12.3770   35.4290  -24.4790 C   0  0  0  0  0
  -13.0960   35.8390  -23.5690 O   0  0  0  0  0
  -12.4300   32.9780  -25.0470 C   0  0  0  0  0
  -11.3190   32.6580  -25.9920 C   0  0  0  0  0
  -11.6790   33.3360  -27.2710 C   0  0  0  0  0
  -11.1340   35.8580  -24.6720 N   0  0  0  0  0
  -10.5750   36.9510  -23.8820 C   0  0  0  0  0
   -9.4060   37.6010  -24.6070 C   0  0  0  0  0
   -9.1330   37.2990  -25.7690 O   0  0  0  0  0
  -10.1180   36.4570  -22.5070 C   0  0  0  0  0
   -8.8790   35.7780  -22.5950 O   0  0  0  0  0
   -8.7180   38.4980  -23.9140 N   0  0  0  0  0
   -7.5470   39.1530  -24.4740 C   0  0  0  0  0
   -6.2850   38.5880  -23.8340 C   0  0  0  0  0
   -5.1690   38.8640  -24.2760 O   0  0  0  0  0
   -7.6320   40.6660  -24.2710 C   0  0  0  0  0
   -8.1800   41.4930  -25.4380 C   0  0  0  0  0
   -9.3840   40.8280  -26.0870 C   0  0  0  0  0
   -8.5380   42.8900  -24.9570 C   0  0  0  0  0
   -6.4790   37.7910  -22.7890 N   0  0  0  0  0
   -5.3850   37.0930  -22.1290 C   0  0  0  0  0
   -5.4830   35.6000  -22.3990 C   0  0  0  0  0
   -6.5440   35.1010  -22.7740 O   0  0  0  0  0
   -5.4060   37.3480  -20.6190 C   0  0  0  0  0
   -5.0650   38.7830  -20.2620 C   0  0  0  0  0
   -3.9020   39.1860  -20.3070 O   0  0  0  0  0
   -6.0780   39.5590  -19.8910 N   0  0  0  0  0
   -4.3810   34.8840  -22.2060 N   0  0  0  0  0
   -4.3840   33.4430  -22.4160 C   0  0  0  0  0
   -4.0160   32.6830  -21.1350 C   0  0  0  0  0
   -3.0400   33.0240  -20.4640 O   0  0  0  0  0
   -3.4570   33.0620  -23.5720 C   0  0  0  0  0
   -3.7250   31.6780  -24.1060 C   0  0  0  0  0
   -2.9540   30.5980  -23.7050 C   0  0  0  0  0
   -4.7610   31.4490  -25.0020 C   0  0  0  0  0
   -3.1990   29.3310  -24.1850 C   0  0  0  0  0
   -5.0140   30.1870  -25.4890 C   0  0  0  0  0
   -4.2290   29.1300  -25.0760 C   0  0  0  0  0
   -4.4760   27.8650  -25.5530 O   0  0  0  0  0
   -4.7940   31.6440  -20.7980 N   0  0  0  0  0
   -5.9600   31.1990  -21.5650 C   0  0  0  0  0
   -7.2610   31.8580  -21.1230 C   0  0  0  0  0
   -8.1610   31.9920  -21.9500 O   0  0  0  0  0
   -6.0120   29.7050  -21.2640 C   0  0  0  0  0
   -5.4620   29.5890  -19.8790 C   0  0  0  0  0
   -4.4460   30.7000  -19.7200 C   0  0  0  0  0
   -7.3660   32.2490  -19.8530 N   0  0  0  0  0
   -8.6410   32.6710  -19.2930 C   0  0  0  0  0
   -9.4770   31.4650  -18.8880 C   0  0  0  0  0
  -10.4860   31.6010  -18.1930 O   0  0  0  0  0
   -9.0240   30.2890  -19.3320 N   0  0  0  0  0
   -9.6590   28.9820  -19.1080 C   0  0  0  0  0
  -11.1840   28.9990  -18.9670 C   0  0  0  0  0
  -11.9040   29.1780  -19.9500 O   0  0  0  0  0
   -8.9980   28.2410  -17.9330 C   0  0  0  0  0
   -9.8130   28.2110  -16.6600 C   0  0  0  0  0
  -10.6320   27.1250  -16.3600 C   0  0  0  0  0
   -9.7580   29.2610  -15.7520 C   0  0  0  0  0
  -11.3790   27.0920  -15.1960 C   0  0  0  0  0
  -10.5010   29.2360  -14.5830 C   0  0  0  0  0
  -11.3080   28.1490  -14.3100 C   0  0  0  0  0
  -12.0470   28.1220  -13.1500 O   0  0  0  0  0
  -11.7150   28.8340  -17.8680 O   0  0  0  0  0
  -26.3044   41.2226  -35.9537 H   0  0  0  0  0
  -26.9121   41.1320  -34.4047 H   0  0  0  0  0
  -26.8486   42.6002  -35.1903 H   0  0  0  0  0
  -24.4964   42.5612  -35.2267 H   0  0  0  0  0
  -25.4273   41.9318  -32.4231 H   0  0  0  0  0
  -25.8303   43.4784  -33.2785 H   0  0  0  0  0
  -23.0013   41.6686  -33.1892 H   0  0  0  0  0
  -23.8050   40.6021  -36.3275 H   0  0  0  0  0
  -23.1626   38.4097  -34.4365 H   0  0  0  0  0
  -24.4310   38.0154  -37.1466 H   0  0  0  0  0
  -25.2991   37.9150  -35.4967 H   0  0  0  0  0
  -23.4018   35.9763  -36.7998 H   0  0  0  0  0
  -22.6305   36.4216  -34.5400 H   0  0  0  0  0
  -24.2767   36.1564  -33.9147 H   0  0  0  0  0
  -23.3798   34.8106  -34.6600 H   0  0  0  0  0
  -26.1837   35.7134  -35.6664 H   0  0  0  0  0
  -25.7329   35.7397  -37.3889 H   0  0  0  0  0
  -25.1903   34.4015  -36.3469 H   0  0  0  0  0
  -21.0725   38.6446  -34.4185 H   0  0  0  0  0
  -19.5956   37.3086  -36.6011 H   0  0  0  0  0
  -19.6116   39.5595  -37.4728 H   0  0  0  0  0
  -18.9244   40.1514  -35.9403 H   0  0  0  0  0
  -17.9940   39.0231  -36.9564 H   0  0  0  0  0
  -17.5897   36.5597  -35.5596 H   0  0  0  0  0
  -18.0651   36.5892  -32.6353 H   0  0  0  0  0
  -16.4120   34.5627  -34.1805 H   0  0  0  0  0
  -16.1239   34.5790  -31.7529 H   0  0  0  0  0
  -17.8858   34.4395  -31.5352 H   0  0  0  0  0
  -16.9723   33.1049  -32.2805 H   0  0  0  0  0
  -19.3779   34.4766  -33.5190 H   0  0  0  0  0
  -18.6701   34.6437  -35.1445 H   0  0  0  0  0
  -18.4325   33.1403  -34.2201 H   0  0  0  0  0
  -16.5341   36.8450  -31.0828 H   0  0  0  0  0
  -14.6395   38.3870  -30.6297 H   0  0  0  0  0
  -13.8174   37.6609  -32.0500 H   0  0  0  0  0
  -12.0112   34.6861  -29.3115 H   0  0  0  0  0
   -9.9017   35.8603  -29.6118 H   0  0  0  0  0
  -10.0764   36.0725  -27.9124 H   0  0  0  0  0
   -9.8577   38.2268  -29.4529 H   0  0  0  0  0
  -10.9800   38.2601  -28.1237 H   0  0  0  0  0
  -12.4863   38.7913  -29.8667 H   0  0  0  0  0
  -11.5655   37.9878  -31.0625 H   0  0  0  0  0
  -13.9958   34.4986  -25.4166 H   0  0  0  0  0
  -13.2331   32.2436  -25.1085 H   0  0  0  0  0
  -12.0949   32.9516  -24.0101 H   0  0  0  0  0
  -11.2060   31.5823  -26.1273 H   0  0  0  0  0
  -10.3580   33.0046  -25.6120 H   0  0  0  0  0
  -10.8112   33.5648  -27.8896 H   0  0  0  0  0
  -12.2840   32.7108  -27.9277 H   0  0  0  0  0
  -10.5583   35.4141  -25.3874 H   0  0  0  0  0
  -11.3622   37.6923  -23.7445 H   0  0  0  0  0
  -10.8668   35.7671  -22.1178 H   0  0  0  0  0
   -9.9978   37.3180  -21.8494 H   0  0  0  0  0
   -8.6162   35.4795  -21.7212 H   0  0  0  0  0
   -9.0167   38.7336  -22.9676 H   0  0  0  0  0
   -7.5096   38.9607  -25.5462 H   0  0  0  0  0
   -6.6069   41.0047  -24.1211 H   0  0  0  0  0
   -8.3278   40.8174  -23.4457 H   0  0  0  0  0
   -7.4004   41.5608  -26.1968 H   0  0  0  0  0
   -9.0951   39.8483  -26.4676 H   0  0  0  0  0
  -10.1763   40.7127  -25.3474 H   0  0  0  0  0
   -9.7405   41.4481  -26.9095 H   0  0  0  0  0
   -9.2958   42.8211  -24.1766 H   0  0  0  0  0
   -7.6470   43.3750  -24.5583 H   0  0  0  0  0
   -8.9270   43.4720  -25.7925 H   0  0  0  0  0
   -7.4277   37.6636  -22.4367 H   0  0  0  0  0
   -4.4459   37.4734  -22.5309 H   0  0  0  0  0
   -4.6572   36.7022  -20.1603 H   0  0  0  0  0
   -6.4147   37.1445  -20.2594 H   0  0  0  0  0
   -5.9074   40.5299  -19.6292 H   0  0  0  0  0
   -7.0262   39.1837  -19.8681 H   0  0  0  0  0
   -3.5234   35.3485  -21.9075 H   0  0  0  0  0
   -5.3990   33.1495  -22.6837 H   0  0  0  0  0
   -2.4331   33.0827  -23.1988 H   0  0  0  0  0
   -3.6267   33.7706  -24.3827 H   0  0  0  0  0
   -2.1397   30.7545  -22.9975 H   0  0  0  0  0
   -5.3843   32.2829  -25.3250 H   0  0  0  0  0
   -2.5817   28.4929  -23.8617 H   0  0  0  0  0
   -5.8280   30.0237  -26.1953 H   0  0  0  0  0
   -5.2199   27.8924  -26.1592 H   0  0  0  0  0
   -5.8641   31.4532  -22.6206 H   0  0  0  0  0
   -5.4387   29.1208  -21.9838 H   0  0  0  0  0
   -7.0235   29.3059  -21.3390 H   0  0  0  0  0
   -4.9989   28.6143  -19.7253 H   0  0  0  0  0
   -6.2555   29.6792  -19.1372 H   0  0  0  0  0
   -4.4835   31.1615  -18.7332 H   0  0  0  0  0
   -3.4197   30.3406  -19.7954 H   0  0  0  0  0
   -6.5352   32.2525  -19.2613 H   0  0  0  0  0
   -9.1856   33.2400  -20.0466 H   0  0  0  0  0
   -8.4529   33.2817  -18.4099 H   0  0  0  0  0
   -8.1605   30.2989  -19.8748 H   0  0  0  0  0
   -9.4827   28.4322  -20.0325 H   0  0  0  0  0
   -8.0745   28.7729  -17.7040 H   0  0  0  0  0
   -8.8655   27.2057  -18.2473 H   0  0  0  0  0
  -10.6853   26.2865  -17.0544 H   0  0  0  0  0
   -9.1195   30.1189  -15.9629 H   0  0  0  0  0
  -12.0196   26.2371  -14.9795 H   0  0  0  0  0
  -10.4490   30.0696  -13.8826 H   0  0  0  0  0
  -11.8850   28.9253  -12.6499 H   0  0  0  0  0
  -11.0358   28.7076  -17.2014 H   0  0  0  0  0
  1  2  1  0  0  0
  2  3  1  0  0  0
  2  5  1  0  0  0
  3  4  2  0  0  0
  3  9  1  0  0  0
  5  6  1  0  0  0
  6  7  1  0  0  0
  6  8  2  0  0  0
  9 10  1  0  0  0
 10 11  1  0  0  0
 10 13  1  0  0  0
 11 12  2  0  0  0
 11 17  1  0  0  0
 13 14  1  0  0  0
 14 15  1  0  0  0
 14 16  1  0  0  0
 17 18  1  0  0  0
 18 19  1  0  0  0
 18 21  1  0  0  0
 19 20  2  0  0  0
 19 22  1  0  0  0
 22 23  1  0  0  0
 23 24  1  0  0  0
 23 26  1  0  0  0
 24 25  2  0  0  0
 24 29  1  0  0  0
 26 27  1  0  0  0
 26 28  1  0  0  0
 29 30  1  0  0  0
 30 31  1  0  0  0
 31 32  2  0  0  0
 31 33  1  0  0  0
 33 34  1  0  0  0
 33 39  1  0  0  0
 34 35  1  0  0  0
 34 37  1  0  0  0
 35 36  2  0  0  0
 35 40  1  0  0  0
 37 38  1  0  0  0
 38 39  1  0  0  0
 40 41  1  0  0  0
 40 46  1  0  0  0
 41 42  1  0  0  0
 41 44  1  0  0  0
 42 43  2  0  0  0
 42 47  1  0  0  0
 44 45  1  0  0  0
 45 46  1  0  0  0
 47 48  1  0  0  0
 48 49  1  0  0  0
 48 51  1  0  0  0
 49 50  2  0  0  0
 49 53  1  0  0  0
 51 52  1  0  0  0
 53 54  1  0  0  0
 54 55  1  0  0  0
 54 57  1  0  0  0
 55 56  2  0  0  0
 55 61  1  0  0  0
 57 58  1  0  0  0
 58 59  1  0  0  0
 58 60  1  0  0  0
 61 62  1  0  0  0
 62 63  1  0  0  0
 62 65  1  0  0  0
 63 64  2  0  0  0
 63 69  1  0  0  0
 65 66  1  0  0  0
 66 67  2  0  0  0
 66 68  1  0  0  0
 69 70  1  0  0  0
 70 71  1  0  0  0
 70 73  1  0  0  0
 71 72  2  0  0  0
 71 81  1  0  0  0
 73 74  1  0  0  0
 74 75  4  0  0  0
 74 76  4  0  0  0
 75 77  4  0  0  0
 76 78  4  0  0  0
 77 79  4  0  0  0
 78 79  4  0  0  0
 79 80  1  0  0  0
 81 82  1  0  0  0
 81 87  1  0  0  0
 82 83  1  0  0  0
 82 85  1  0  0  0
 83 84  2  0  0  0
 83 88  1  0  0  0
 85 86  1  0  0  0
 86 87  1  0  0  0
 88 89  1  0  0  0
 89 90  1  0  0  0
 90 91  2  0  0  0
 90 92  1  0  0  0
 92 93  1  0  0  0
 93 94  1  0  0  0
 93 96  1  0  0  0
 94 95  2  0  0  0
 94104  1  0  0  0
 96 97  1  0  0  0
 97 98  4  0  0  0
 97 99  4  0  0  0
 98100  4  0  0  0
 99101  4  0  0  0
100102  4  0  0  0
101102  4  0  0  0
102103  1  0  0  0
  1105  1  0  0  0
  1106  1  0  0  0
  1107  1  0  0  0
  2108  1  0  0  0
  5109  1  0  0  0
  5110  1  0  0  0
  7111  1  0  0  0
  9112  1  0  0  0
 10113  1  0  0  0
 13114  1  0  0  0
 13115  1  0  0  0
 14116  1  0  0  0
 15117  1  0  0  0
 15118  1  0  0  0
 15119  1  0  0  0
 16120  1  0  0  0
 16121  1  0  0  0
 16122  1  0  0  0
 17123  1  0  0  0
 18124  1  0  0  0
 21125  1  0  0  0
 21126  1  0  0  0
 21127  1  0  0  0
 22128  1  0  0  0
 23129  1  0  0  0
 26130  1  0  0  0
 27131  1  0  0  0
 27132  1  0  0  0
 27133  1  0  0  0
 28134  1  0  0  0
 28135  1  0  0  0
 28136  1  0  0  0
 29137  1  0  0  0
 30138  1  0  0  0
 30139  1  0  0  0
 34140  1  0  0  0
 37141  1  0  0  0
 37142  1  0  0  0
 38143  1  0  0  0
 38144  1  0  0  0
 39145  1  0  0  0
 39146  1  0  0  0
 41147  1  0  0  0
 44148  1  0  0  0
 44149  1  0  0  0
 45150  1  0  0  0
 45151  1  0  0  0
 46152  1  0  0  0
 46153  1  0  0  0
 47154  1  0  0  0
 48155  1  0  0  0
 51156  1  0  0  0
 51157  1  0  0  0
 52158  1  0  0  0
 53159  1  0  0  0
 54160  1  0  0  0
 57161  1  0  0  0
 57162  1  0  0  0
 58163  1  0  0  0
 59164  1  0  0  0
 59165  1  0  0  0
 59166  1  0  0  0
 60167  1  0  0  0
 60168  1  0  0  0
 60169  1  0  0  0
 61170  1  0  0  0
 62171  1  0  0  0
 65172  1  0  0  0
 65173  1  0  0  0
 68174  1  0  0  0
 68175  1  0  0  0
 69176  1  0  0  0
 70177  1  0  0  0
 73178  1  0  0  0
 73179  1  0  0  0
 75180  1  0  0  0
 76181  1  0  0  0
 77182  1  0  0  0
 78183  1  0  0  0
 80184  1  0  0  0
 82185  1  0  0  0
 85186  1  0  0  0
 85187  1  0  0  0
 86188  1  0  0  0
 86189  1  0  0  0
 87190  1  0  0  0
 87191  1  0  0  0
 88192  1  0  0  0
 89193  1  0  0  0
 89194  1  0  0  0
 92195  1  0  0  0
 93196  1  0  0  0
 96197  1  0  0  0
 96198  1  0  0  0
 98199  1  0  0  0
 99200  1  0  0  0
100201  1  0  0  0
101202  1  0  0  0
103203  1  0  0  0
104204  1  0  0  0
M  END
$$$$
