2q7m_ligand
  -I-interpret- 

 76 80  0  0  0  0  0  0  0  0999 V2000
   60.8710   52.3110   42.5250 C   0  0  0  0  0
   62.0850   53.1430   42.0480 C   0  0  0  0  0
   62.4080   54.1130   43.1190 C   0  0  0  0  0
   61.8280   55.2120   43.2380 O   0  0  0  0  0
   63.2610   53.9310   44.0160 O   0  0  0  0  0
   61.7560   53.7760   40.6490 C   0  0  0  0  0
   62.1750   55.1520   40.3200 C   0  0  0  0  0
   64.4250   54.9360   41.0680 C   0  0  0  0  0
   64.8740   54.2090   39.9380 C   0  0  0  0  0
   64.5890   54.6640   38.6280 C   0  0  0  0  0
   65.0420   53.9000   37.5650 C   0  0  0  0  0
   65.5680   53.0760   40.2830 C   0  0  0  0  0
   66.0210   52.3170   39.2430 C   0  0  0  0  0
   65.7570   52.7470   37.9470 C   0  0  0  0  0
   64.6280   57.7940   40.2020 C   0  0  0  0  0
   64.4750   59.0980   39.7300 C   0  0  0  0  0
   62.2240   57.2770   39.6440 C   0  0  0  0  0
   62.0740   58.6130   39.1520 C   0  0  0  0  0
   65.6630   63.2260   38.3100 C   0  0  0  0  0
   66.5430   61.4110   36.3470 C   0  0  0  0  0
   66.9780   60.4840   35.3540 C   0  0  0  0  0
   68.1110   60.8440   34.5560 C   0  0  0  0  0
   68.7750   62.0880   34.7470 C   0  0  0  0  0
   68.3450   63.0240   35.7330 C   0  0  0  0  0
   66.7780   63.5630   37.5090 C   0  0  0  0  0
   67.2260   62.6690   36.5300 C   0  0  0  0  0
   65.4620   61.1220   37.1440 N   0  0  0  0  0
   65.0220   61.9880   38.1060 C   0  0  0  0  0
   63.8920   61.7330   39.0070 C   0  0  0  0  0
   63.1060   60.6680   38.7670 O   0  0  0  0  0
   63.2230   59.4900   39.2130 C   0  0  0  0  0
   63.4820   56.9350   40.1480 C   0  0  0  0  0
   61.3720   56.1170   39.7540 C   0  0  0  0  0
   59.7040   55.8150   39.2760 S   0  0  0  0  0
   60.0020   55.4790   37.4530 C   0  0  0  0  0
   59.2290   54.2720   36.9390 C   0  0  0  0  0
   59.5480   56.6850   36.6060 C   0  0  0  0  0
   61.4550   55.2530   36.9980 C   0  0  0  0  0
   63.2430   52.1320   41.9190 C   0  0  0  0  0
   63.3780   55.6570   40.5300 N   0  0  0  0  0
   66.3990   51.6950   36.8440 Cl  0  0  0  0  0
   60.6492   51.5390   41.7882 H   0  0  0  0  0
   61.1051   51.8450   43.4822 H   0  0  0  0  0
   60.0065   52.9649   42.6395 H   0  0  0  0  0
   63.6816   53.0777   43.8876 H   0  0  0  0  0
   60.6671   53.8191   40.6279 H   0  0  0  0  0
   62.3071   53.1558   39.9421 H   0  0  0  0  0
   65.1962   55.5578   41.5227 H   0  0  0  0  0
   64.1351   54.3042   41.9076 H   0  0  0  0  0
   64.0312   55.5855   38.4613 H   0  0  0  0  0
   64.8613   54.1672   36.5238 H   0  0  0  0  0
   65.7461   52.7998   41.3223 H   0  0  0  0  0
   66.5760   51.3965   39.4237 H   0  0  0  0  0
   65.5814   57.4424   40.5962 H   0  0  0  0  0
   65.3077   59.8007   39.7603 H   0  0  0  0  0
   61.1240   58.9586   38.7443 H   0  0  0  0  0
   65.3041   63.9145   39.0750 H   0  0  0  0  0
   66.4651   59.5334   35.2076 H   0  0  0  0  0
   68.4701   60.1553   33.7912 H   0  0  0  0  0
   69.6349   62.3318   34.1232 H   0  0  0  0  0
   68.8568   63.9767   35.8694 H   0  0  0  0  0
   67.2871   64.5159   37.6534 H   0  0  0  0  0
   63.2392   62.5990   38.8969 H   0  0  0  0  0
   64.3423   61.5406   39.9808 H   0  0  0  0  0
   59.5319   53.3846   37.4947 H   0  0  0  0  0
   58.1609   54.4410   37.0759 H   0  0  0  0  0
   59.4428   54.1295   35.8797 H   0  0  0  0  0
   58.4844   56.8607   36.7671 H   0  0  0  0  0
   60.1126   57.5689   36.9027 H   0  0  0  0  0
   59.7272   56.4749   35.5516 H   0  0  0  0  0
   62.0483   56.1378   37.2284 H   0  0  0  0  0
   61.8682   54.3906   37.5210 H   0  0  0  0  0
   61.4738   55.0711   35.9234 H   0  0  0  0  0
   62.9564   51.3395   41.2276 H   0  0  0  0  0
   64.1290   52.6425   41.5414 H   0  0  0  0  0
   63.4589   51.7021   42.8971 H   0  0  0  0  0
  2  1  1  0  0  0
  2  3  1  0  0  0
  6  2  1  0  0  0
  2 39  1  0  0  0
  3  4  2  0  0  0
  3  5  1  0  0  0
  7  6  1  0  0  0
 33  7  4  0  0  0
  7 40  4  0  0  0
  8  9  1  0  0  0
 40  8  1  0  0  0
  9 10  4  0  0  0
  9 12  4  0  0  0
 10 11  4  0  0  0
 11 14  4  0  0  0
 12 13  4  0  0  0
 13 14  4  0  0  0
 14 41  1  0  0  0
 16 15  4  0  0  0
 15 32  4  0  0  0
 31 16  4  0  0  0
 18 17  4  0  0  0
 17 32  4  0  0  0
 17 33  4  0  0  0
 31 18  4  0  0  0
 19 25  4  0  0  0
 28 19  4  0  0  0
 20 21  4  0  0  0
 20 26  4  0  0  0
 27 20  4  0  0  0
 21 22  4  0  0  0
 22 23  4  0  0  0
 24 23  4  0  0  0
 26 24  4  0  0  0
 25 26  4  0  0  0
 28 27  4  0  0  0
 29 28  1  0  0  0
 30 29  1  0  0  0
 30 31  1  0  0  0
 32 40  4  0  0  0
 33 34  1  0  0  0
 34 35  1  0  0  0
 35 36  1  0  0  0
 35 37  1  0  0  0
 35 38  1  0  0  0
  1 42  1  0  0  0
  1 43  1  0  0  0
  1 44  1  0  0  0
  5 45  1  0  0  0
  6 46  1  0  0  0
  6 47  1  0  0  0
  8 48  1  0  0  0
  8 49  1  0  0  0
 10 50  1  0  0  0
 11 51  1  0  0  0
 12 52  1  0  0  0
 13 53  1  0  0  0
 15 54  1  0  0  0
 16 55  1  0  0  0
 18 56  1  0  0  0
 19 57  1  0  0  0
 21 58  1  0  0  0
 22 59  1  0  0  0
 23 60  1  0  0  0
 24 61  1  0  0  0
 25 62  1  0  0  0
 29 63  1  0  0  0
 29 64  1  0  0  0
 36 65  1  0  0  0
 36 66  1  0  0  0
 36 67  1  0  0  0
 37 68  1  0  0  0
 37 69  1  0  0  0
 37 70  1  0  0  0
 38 71  1  0  0  0
 38 72  1  0  0  0
 38 73  1  0  0  0
 39 74  1  0  0  0
 39 75  1  0  0  0
 39 76  1  0  0  0
M  END
$$$$
