6r1c_ligand
  -I-interpret- 

 46 47  0  0  0  0  0  0  0  0999 V2000
   22.6220   13.8800   26.3470 C   0  0  0  0  0
   32.6700   19.7290   30.0200 C   0  0  0  0  0
   24.9890   15.2680   28.2450 C   0  0  0  0  0
   25.5370   16.7200   30.0230 C   0  0  0  0  0
   29.3110   16.5160   30.1990 C   0  0  0  0  0
   26.9920   17.0380   29.8330 C   0  0  0  0  0
   27.3820   18.1520   29.1110 C   0  0  0  0  0
   28.7230   18.4460   28.9350 C   0  0  0  0  0
   29.7050   17.6310   29.4770 C   0  0  0  0  0
   27.9700   16.2230   30.3750 C   0  0  0  0  0
   31.1660   17.9510   29.2860 C   0  0  0  0  0
   22.1080   12.7260   25.8250 N   0  0  0  0  0
   24.3790   14.0980   28.0110 N   0  0  0  0  0
   24.0790   13.6440   26.6810 C   0  0  0  0  0
   31.4860   19.3450   29.5550 N   0  0  0  0  0
   23.0150   11.6930   25.7970 C   0  0  0  0  0
   24.2520   12.1280   26.5300 C   0  0  0  0  0
   22.8130   10.6190   25.2570 O   0  0  0  0  0
   22.0100   14.9190   26.5130 O   0  0  0  0  0
   25.2700   15.3750   29.5520 O   0  0  0  0  0
   25.2470   16.1000   27.4050 O   0  0  0  0  0
   32.7970   19.8090   31.5190 C   0  0  0  0  0
   33.6120   20.0050   29.2800 O   0  0  0  0  0
   31.8080   18.9120   32.2250 C   0  0  0  0  0
   32.3590   17.5590   32.6400 C   0  0  0  0  0
   33.5760   17.3440   32.4810 O   0  0  0  0  0
   31.5680   16.7230   33.1220 O   0  5  0  0  0
   24.9334   17.4294   29.4569 H   0  0  0  0  0
   25.2850   16.7909   31.0811 H   0  0  0  0  0
   30.0666   15.8616   30.6337 H   0  0  0  0  0
   26.6252   18.8049   28.6762 H   0  0  0  0  0
   29.0104   19.3286   28.3636 H   0  0  0  0  0
   27.6812   15.3410   30.9466 H   0  0  0  0  0
   31.4154   17.7494   28.2443 H   0  0  0  0  0
   31.7331   17.3399   29.9882 H   0  0  0  0  0
   21.1484   12.6399   25.4900 H   0  0  0  0  0
   24.1190   13.5103   28.8031 H   0  0  0  0  0
   24.7624   14.1949   26.0348 H   0  0  0  0  0
   30.7742   20.0543   29.3799 H   0  0  0  0  0
   24.3606   11.6265   27.4917 H   0  0  0  0  0
   25.1640   11.8674   25.9929 H   0  0  0  0  0
   32.5979   20.8371   31.8215 H   0  0  0  0  0
   33.8018   19.4862   31.7916 H   0  0  0  0  0
   30.9963   18.7214   31.5229 H   0  0  0  0  0
   31.5104   19.4264   33.1388 H   0  0  0  0  0
   30.6854   17.0994   33.1518 H   0  0  0  0  0
  1 12  1  0  0  0
 14  1  1  0  0  0
  1 19  2  0  0  0
 15  2  1  0  0  0
  2 22  1  0  0  0
  2 23  2  0  0  0
 13  3  1  0  0  0
  3 20  1  0  0  0
  3 21  2  0  0  0
  4  6  1  0  0  0
 20  4  1  0  0  0
  5  9  4  0  0  0
 10  5  4  0  0  0
  6  7  4  0  0  0
  6 10  4  0  0  0
  7  8  4  0  0  0
  8  9  4  0  0  0
  9 11  1  0  0  0
 11 15  1  0  0  0
 12 16  1  0  0  0
 13 14  1  0  0  0
 14 17  1  0  0  0
 17 16  1  0  0  0
 16 18  2  0  0  0
 22 24  1  0  0  0
 24 25  1  0  0  0
 25 26  2  0  0  0
 25 27  1  0  0  0
  4 28  1  0  0  0
  4 29  1  0  0  0
  5 30  1  0  0  0
  7 31  1  0  0  0
  8 32  1  0  0  0
 10 33  1  0  0  0
 11 34  1  0  0  0
 11 35  1  0  0  0
 12 36  1  0  0  0
 13 37  1  0  0  0
 14 38  1  0  0  0
 15 39  1  0  0  0
 17 40  1  0  0  0
 17 41  1  0  0  0
 22 42  1  0  0  0
 22 43  1  0  0  0
 24 44  1  0  0  0
 24 45  1  0  0  0
 27 46  1  0  0  0
M  END
$$$$
