3qs1_ligand
  -I-interpret- 

 86 90  0  0  0  0  0  0  0  0999 V2000
   28.5280   -9.3920    5.4040 N   0  0  0  0  0
   27.1050   -9.3590    5.1740 C   0  0  0  0  0
   26.4820   -7.1280    4.8490 O   0  0  0  0  0
   26.6110   -8.8180    6.4830 C   0  0  0  0  0
   24.6260   -8.1800    3.7310 O   0  0  0  0  0
   26.7490   -9.9230    7.4770 C   0  0  0  0  0
   27.5400   -9.7200    8.5940 C   0  0  0  0  0
   27.6630  -10.7760    9.4900 C   0  0  0  0  0
   27.0230  -12.0090    9.2890 C   0  0  0  0  0
   26.2410  -12.2000    8.1690 C   0  0  0  0  0
   26.1060  -11.1540    7.2540 C   0  0  0  0  0
   26.8630   -8.3050    4.1510 C   0  0  0  0  0
   25.6600   -8.6800    3.3770 C   0  0  0  0  0
   22.7290  -11.2970    2.3470 N   0  0  0  0  0
   20.3950  -11.4020    2.0880 O   0  0  0  0  0
   22.2390  -12.6000    2.7870 C   0  0  0  0  0
   21.9910  -12.6520    4.2410 C   0  0  0  0  0
   22.8860  -12.2670    5.2690 C   0  0  0  0  0
   22.5000  -12.3570    6.6050 C   0  0  0  0  0
   20.8230  -12.7470    2.2600 C   0  0  0  0  0
   20.7400  -13.1300    4.5220 C   0  0  0  0  0
   20.3310  -13.2160    5.8540 C   0  0  0  0  0
   21.2100  -12.8280    6.8790 C   0  0  0  0  0
   19.9440  -13.4530    3.2930 C   0  0  0  0  0
   35.6540   -9.1960    6.4880 C   0  0  0  0  0
   28.5210  -11.5000    4.7240 O   0  0  0  0  0
   35.1240   -8.6250    5.3630 C   0  0  0  0  0
   31.4350   -9.4070    5.7420 O   0  0  0  0  0
   33.7520   -8.6890    5.1180 C   0  0  0  0  0
   33.3390   -8.0120    3.8320 C   0  0  0  0  0
   32.6130  -10.6470    8.1890 C   0  0  0  0  0
   32.8370   -9.3490    5.9850 C   0  0  0  0  0
   33.4190   -9.9210    7.1360 C   0  0  0  0  0
   34.7940   -9.8360    7.3650 C   0  0  0  0  0
   29.1760  -10.5310    5.1600 C   0  0  0  0  0
   30.7000  -10.6160    5.4420 C   0  0  0  0  0
   26.9640  -10.1850    1.8880 C   0  0  0  0  0
   25.7550   -9.5310    2.3720 N   0  0  0  0  0
   24.7520  -12.0550    2.2050 O   0  0  0  0  0
   26.5730  -10.6960    0.2830 S   0  0  0  0  0
   25.0570   -9.8080    0.1470 C   0  0  0  0  0
   24.1620  -10.3470   -0.9860 C   0  0  0  0  0
   25.3390   -8.3460   -0.1640 C   0  0  0  0  0
   24.5660   -9.8620    1.6130 C   0  0  0  0  0
   24.0040  -11.1560    2.0800 C   0  0  0  0  0
   29.0242   -8.5680    5.7434 H   0  0  0  0  0
   26.6581  -10.3031    4.8626 H   0  0  0  0  0
   27.2195   -6.8197    5.3806 H   0  0  0  0  0
   25.5742   -8.4912    6.4040 H   0  0  0  0  0
   27.1881   -7.9448    6.7873 H   0  0  0  0  0
   28.0465   -8.7700    8.7647 H   0  0  0  0  0
   28.2780  -10.6417   10.3798 H   0  0  0  0  0
   27.1436  -12.8127   10.0154 H   0  0  0  0  0
   25.7368  -13.1517    8.0010 H   0  0  0  0  0
   25.4977  -11.2924    6.3601 H   0  0  0  0  0
   27.7445   -8.1774    3.5226 H   0  0  0  0  0
   22.0889  -10.5089    2.2490 H   0  0  0  0  0
   19.4956  -11.3940    1.7523 H   0  0  0  0  0
   22.9771  -13.3334    2.4623 H   0  0  0  0  0
   23.8799  -11.8991    5.0143 H   0  0  0  0  0
   23.1785  -12.0708    7.4086 H   0  0  0  0  0
   20.7652  -13.3366    1.3450 H   0  0  0  0  0
   19.3339  -13.5826    6.0977 H   0  0  0  0  0
   20.8790  -12.8954    7.9153 H   0  0  0  0  0
   19.7792  -14.5154    3.1132 H   0  0  0  0  0
   18.9036  -13.1287    3.3158 H   0  0  0  0  0
   36.7243   -9.1484    6.6886 H   0  0  0  0  0
   35.7777   -8.1171    4.6540 H   0  0  0  0  0
   33.6158   -6.9585    3.8723 H   0  0  0  0  0
   33.8443   -8.4899    2.9928 H   0  0  0  0  0
   32.2599   -8.1009    3.7064 H   0  0  0  0  0
   31.8743   -9.9665    8.6125 H   0  0  0  0  0
   32.1062  -11.4981    7.7341 H   0  0  0  0  0
   33.2794  -10.9980    8.9769 H   0  0  0  0  0
   35.2053  -10.2898    8.2667 H   0  0  0  0  0
   30.7818  -11.2217    6.3445 H   0  0  0  0  0
   31.1344  -10.9812    4.5114 H   0  0  0  0  0
   27.2554  -11.0224    2.5220 H   0  0  0  0  0
   27.8234   -9.5147    1.9037 H   0  0  0  0  0
   24.6898  -10.2619   -1.9359 H   0  0  0  0  0
   23.9246  -11.3932   -0.7932 H   0  0  0  0  0
   23.2408   -9.7657   -1.0274 H   0  0  0  0  0
   25.9383   -7.9144    0.6376 H   0  0  0  0  0
   25.8837   -8.2746   -1.1054 H   0  0  0  0  0
   24.3963   -7.8050   -0.2463 H   0  0  0  0  0
   23.7200   -9.1857    1.7350 H   0  0  0  0  0
  2  1  1  0  0  0
  1 35  1  0  0  0
  2  4  1  0  0  0
 12  2  1  0  0  0
 12  3  1  0  0  0
  4  6  1  0  0  0
 13  5  2  0  0  0
  6  7  4  0  0  0
  6 11  4  0  0  0
  7  8  4  0  0  0
  8  9  4  0  0  0
 10  9  4  0  0  0
 11 10  4  0  0  0
 13 12  1  0  0  0
 38 13  1  0  0  0
 14 16  1  0  0  0
 45 14  1  0  0  0
 20 15  1  0  0  0
 16 17  1  0  0  0
 16 20  1  0  0  0
 17 18  4  0  0  0
 17 21  4  0  0  0
 18 19  4  0  0  0
 19 23  4  0  0  0
 20 24  1  0  0  0
 21 22  4  0  0  0
 24 21  1  0  0  0
 22 23  4  0  0  0
 27 25  4  0  0  0
 34 25  4  0  0  0
 35 26  2  0  0  0
 29 27  4  0  0  0
 28 32  1  0  0  0
 36 28  1  0  0  0
 29 30  1  0  0  0
 32 29  4  0  0  0
 33 31  1  0  0  0
 32 33  4  0  0  0
 33 34  4  0  0  0
 35 36  1  0  0  0
 38 37  1  0  0  0
 40 37  1  0  0  0
 44 38  1  0  0  0
 45 39  2  0  0  0
 41 40  1  0  0  0
 41 42  1  0  0  0
 41 43  1  0  0  0
 44 41  1  0  0  0
 44 45  1  0  0  0
  1 46  1  0  0  0
  2 47  1  0  0  0
  3 48  1  0  0  0
  4 49  1  0  0  0
  4 50  1  0  0  0
  7 51  1  0  0  0
  8 52  1  0  0  0
  9 53  1  0  0  0
 10 54  1  0  0  0
 11 55  1  0  0  0
 12 56  1  0  0  0
 14 57  1  0  0  0
 15 58  1  0  0  0
 16 59  1  0  0  0
 18 60  1  0  0  0
 19 61  1  0  0  0
 20 62  1  0  0  0
 22 63  1  0  0  0
 23 64  1  0  0  0
 24 65  1  0  0  0
 24 66  1  0  0  0
 25 67  1  0  0  0
 27 68  1  0  0  0
 30 69  1  0  0  0
 30 70  1  0  0  0
 30 71  1  0  0  0
 31 72  1  0  0  0
 31 73  1  0  0  0
 31 74  1  0  0  0
 34 75  1  0  0  0
 36 76  1  0  0  0
 36 77  1  0  0  0
 37 78  1  0  0  0
 37 79  1  0  0  0
 42 80  1  0  0  0
 42 81  1  0  0  0
 42 82  1  0  0  0
 43 83  1  0  0  0
 43 84  1  0  0  0
 43 85  1  0  0  0
 44 86  1  0  0  0
M  END
$$$$
