2qh6_ligand
  -I-interpret- 

 55 58  0  0  0  0  0  0  0  0999 V2000
  -16.0730    3.9730   33.6620 C   0  0  0  0  0
  -17.2540    3.8790   34.4220 C   0  0  0  0  0
  -17.1130    3.6530   35.7880 C   0  0  0  0  0
  -18.1940    3.4970   36.5770 O   0  0  0  0  0
  -15.8600    3.5390   36.3760 C   0  0  0  0  0
  -14.6990    3.6560   35.6230 C   0  0  0  0  0
  -14.8030    3.8830   34.2630 C   0  0  0  0  0
  -13.6380    3.9870   33.4980 C   0  0  0  0  0
  -13.4640    4.5750   32.0950 C   0  0  0  0  0
  -12.5590    3.4780   31.6400 O   0  0  0  0  0
  -12.5480    5.7600   31.7890 C   0  0  0  0  0
  -12.6430    6.6620   32.9420 C   0  0  0  0  0
  -12.2660    6.2250   34.0400 O   0  0  0  0  0
  -13.1080    7.9340   32.7610 O   0  0  0  0  0
  -12.7630    8.4750   31.5050 C   0  0  0  0  0
  -13.1080    9.8940   32.0030 C   0  0  0  0  0
  -11.1350    5.0980   31.7920 C   0  0  0  0  0
   -9.9520    6.0270   32.2700 C   0  0  0  0  0
  -10.1730    7.1660   32.6550 O   0  0  0  0  0
   -8.6030    5.7210   32.2390 O   0  0  0  0  0
   -8.3160    4.3640   32.6660 C   0  0  0  0  0
   -8.9470    3.3810   31.6630 C   0  0  0  0  0
  -11.4580    3.7470   32.5370 C   0  0  0  0  0
  -12.3680    3.4740   33.7830 C   0  0  0  0  0
  -11.9400    2.6520   34.8160 C   0  0  0  0  0
  -10.9410    2.9990   35.7150 C   0  0  0  0  0
  -10.4770    2.0760   36.6680 C   0  0  0  0  0
  -11.0180    0.7990   36.7040 C   0  0  0  0  0
  -10.5710   -0.0600   37.6360 O   0  0  0  0  0
  -12.0050    0.4200   35.7810 C   0  0  0  0  0
  -12.4450    1.3430   34.8350 C   0  0  0  0  0
  -16.1432    4.1187   32.5841 H   0  0  0  0  0
  -18.2365    3.9789   33.9607 H   0  0  0  0  0
  -17.9097    3.3514   37.4823 H   0  0  0  0  0
  -15.7865    3.3544   37.4477 H   0  0  0  0  0
  -13.7211    3.5702   36.0967 H   0  0  0  0  0
  -14.4424    4.8829   31.7263 H   0  0  0  0  0
  -12.7725    6.3031   30.8710 H   0  0  0  0  0
  -13.2384    8.0897   30.6030 H   0  0  0  0  0
  -11.7773    8.2759   31.0845 H   0  0  0  0  0
  -14.1554    9.9278   32.3027 H   0  0  0  0  0
  -12.4764   10.1418   32.8561 H   0  0  0  0  0
  -12.9350   10.6113   31.2007 H   0  0  0  0  0
  -10.6816    4.9023   30.8203 H   0  0  0  0  0
   -8.7321    4.1946   33.6591 H   0  0  0  0  0
   -7.2376    4.2101   32.7037 H   0  0  0  0  0
  -10.0252    3.5377   31.6320 H   0  0  0  0  0
   -8.5249    3.5532   30.6729 H   0  0  0  0  0
   -8.7360    2.3586   31.9765 H   0  0  0  0  0
  -10.4867    3.3228   32.7915 H   0  0  0  0  0
  -10.5109    4.0000   35.6815 H   0  0  0  0  0
   -9.6973    2.3616   37.3741 H   0  0  0  0  0
  -11.0299   -0.8981   37.5434 H   0  0  0  0  0
  -12.4230   -0.5864   35.8042 H   0  0  0  0  0
  -13.1918    1.0443   34.0994 H   0  0  0  0  0
  1  2  4  0  0  0
  1  7  4  0  0  0
  2  3  4  0  0  0
  3  4  1  0  0  0
  3  5  4  0  0  0
  5  6  4  0  0  0
  6  7  4  0  0  0
  7  8  1  0  0  0
  8  9  1  0  0  0
  8 24  2  0  0  0
  9 10  1  0  0  0
  9 11  1  0  0  0
 10 23  1  0  0  0
 11 12  1  0  0  0
 11 17  1  0  0  0
 12 13  2  0  0  0
 12 14  1  0  0  0
 14 15  1  0  0  0
 15 16  1  0  0  0
 17 18  1  0  0  0
 17 23  1  0  0  0
 18 19  2  0  0  0
 18 20  1  0  0  0
 20 21  1  0  0  0
 21 22  1  0  0  0
 23 24  1  0  0  0
 24 25  1  0  0  0
 25 26  4  0  0  0
 25 31  4  0  0  0
 26 27  4  0  0  0
 27 28  4  0  0  0
 28 29  1  0  0  0
 28 30  4  0  0  0
 30 31  4  0  0  0
  1 32  1  0  0  0
  2 33  1  0  0  0
  4 34  1  0  0  0
  5 35  1  0  0  0
  6 36  1  0  0  0
  9 37  1  0  0  0
 11 38  1  0  0  0
 15 39  1  0  0  0
 15 40  1  0  0  0
 16 41  1  0  0  0
 16 42  1  0  0  0
 16 43  1  0  0  0
 17 44  1  0  0  0
 21 45  1  0  0  0
 21 46  1  0  0  0
 22 47  1  0  0  0
 22 48  1  0  0  0
 22 49  1  0  0  0
 23 50  1  0  0  0
 26 51  1  0  0  0
 27 52  1  0  0  0
 29 53  1  0  0  0
 30 54  1  0  0  0
 31 55  1  0  0  0
M  END
$$$$
