### 
### Created by X-TOOL on Mon Sep 10 21:13:20 2018
### 

@<TRIPOS>MOLECULE
4yik_ligand
   49    52     1     0     0
SMALL
GAST_HUCK


@<TRIPOS>ATOM
      1 CAV        -4.8530   22.7670   29.0410 C.ar      1 2O2        -0.0333
      2 CAW        -4.6420   21.4780   28.6220 C.ar      1 2O2        -0.0322
      3 CAX        -3.6970   20.7230   29.2960 C.ar      1 2O2        -0.0340
      4 CAY        -2.9810   21.2270   30.3760 C.ar      1 2O2        -0.0322
      5 CAZ        -3.2070   22.5400   30.8090 C.ar      1 2O2        -0.0333
      6 CAU        -4.1700   23.3030   30.1310 C.ar      1 2O2         0.0228
      7 CAB        -4.5190   24.7490   30.5300 C.3       1 2O2         0.2365
      8 PAA        -5.8180   24.6920   31.8760 P.3       1 2O2         0.0922
      9 OBB        -5.0310   24.1270   33.0990 O.co2     1 2O2        -0.5660
     10 OBC        -6.4330   26.1470   32.0900 O.co2     1 2O2        -0.5660
     11 OBA        -6.8710   23.6810   31.5610 O.co2     1 2O2        -0.5660
     12 OAH        -4.9710   25.3550   29.3110 O.3       1 2O2        -0.3659
     13 OAD        -3.3590   25.4070   30.9660 O.3       1 2O2        -0.3694
     14 CAC        -3.4730   26.8550   31.0480 C.3       1 2O2         0.0697
     15 CAE        -4.0730   27.4390   29.9090 C.3       1 2O2         0.1102
     16 OAF        -3.0820   27.5930   28.8950 O.3       1 2O2        -0.3346
     17 CAG        -5.1720   26.7500   29.2800 C.3       1 2O2         0.0859
     18 CAI        -5.0860   27.2570   27.8380 C.3       1 2O2         0.0363
     19 CAJ        -3.6180   27.8430   27.7310 C.3       1 2O2         0.1993
     20 N1         -2.8240   27.0890   26.7200 N.am      1 2O2        -0.1206
     21 C6         -3.2200   25.7910   26.2030 C.2       1 2O2         0.1365
     22 C2         -1.7250   27.6550   26.2450 C.2       1 2O2         0.3654
     23 O2         -1.3770   28.7560   26.6650 O.2       1 2O2        -0.3637
     24 N3         -1.0180   27.0960   25.2850 N.am      1 2O2        -0.1712
     25 C4         -1.3570   25.8600   24.7690 C.2       1 2O2         0.2379
     26 O4         -0.6440   25.4400   23.8720 O.2       1 2O2        -0.3818
     27 C5         -2.4630   25.1710   25.2140 C.2       1 2O2         0.1202
     28 CAR        -2.7030   23.9100   24.5910 C.2       1 2O2        -0.0139
     29 CAS        -2.9770   22.7280   25.2270 C.2       1 2O2        -0.0077
     30 PBD        -3.1210   21.2030   24.4470 P.3       1 2O2        -0.0363
     31 OBF        -4.7110   20.7800   24.6450 O.co2     1 2O2        -0.6801
     32 OBG        -2.8980   21.2980   22.8410 O.co2     1 2O2        -0.6801
     33 OBE        -2.1970   20.1520   25.0290 O.co2     1 2O2        -0.6801
     34 H1         -5.5692   23.3843   28.5108 H         1 2O2         0.0852
     35 H2         -5.1979   21.0632   27.7889 H         1 2O2         0.0698
     36 H3         -3.5094   19.7060   28.9711 H         1 2O2         0.0856
     37 H4         -2.2502   20.6060   30.8814 H         1 2O2         0.0698
     38 H5         -2.6538   22.9547   31.6439 H         1 2O2         0.0852
     39 H6         -2.4642   27.2776   31.1653 H         1 2O2         0.0577
     40 H7         -4.0809   27.1070   31.9294 H         1 2O2         0.0577
     41 H8         -4.4388   28.4302   30.2152 H         1 2O2         0.0646
     42 H9         -6.1341   27.0054   29.7481 H         1 2O2         0.0615
     43 H10        -5.8353   28.0407   27.6527 H         1 2O2         0.0350
     44 H11        -5.2323   26.4335   27.1236 H         1 2O2         0.0350
     45 H12        -3.6299   28.9184   27.5002 H         1 2O2         0.1038
     46 H13        -4.1122   25.3015   26.5906 H         1 2O2         0.1588
     47 H14        -0.2193   27.5759   24.9220 H         1 2O2         0.2276
     48 H15        -2.6646   23.8847   23.5030 H         1 2O2         0.0798
     49 H16        -3.1137   22.7567   26.3070 H         1 2O2         0.0786
@<TRIPOS>BOND
     1    1    2 ar 
     2    1    6 ar 
     3    2    3 ar 
     4    3    4 ar 
     5    4    5 ar 
     6    5    6 ar 
     7    6    7 1  
     8    7    8 1  
     9    7   12 1  
    10    7   13 1  
    11    8    9 ar 
    12    8   10 ar 
    13    8   11 ar 
    14   12   17 1  
    15   13   14 1  
    16   14   15 1  
    17   15   16 1  
    18   15   17 1  
    19   16   19 1  
    20   17   18 1  
    21   18   19 1  
    22   19   20 1  
    23   20   21 1  
    24   20   22 am 
    25   21   27 2  
    26   22   23 2  
    27   22   24 am 
    28   24   25 am 
    29   25   26 2  
    30   25   27 1  
    31   27   28 1  
    32   28   29 2  
    33   29   30 1  
    34   30   31 ar 
    35   30   32 ar 
    36   30   33 ar 
    37    1   34 1  
    38    2   35 1  
    39    3   36 1  
    40    4   37 1  
    41    5   38 1  
    42   14   39 1  
    43   14   40 1  
    44   15   41 1  
    45   17   42 1  
    46   18   43 1  
    47   18   44 1  
    48   19   45 1  
    49   21   46 1  
    50   24   47 1  
    51   28   48 1  
    52   29   49 1  
@<TRIPOS>SUBSTRUCTURE
     1 2O2         1

