4yik_ligand
  -I-interpret- 

 53 56  0  0  0  0  0  0  0  0999 V2000
   -4.8530   22.7670   29.0410 C   0  0  0  0  0
   -4.6420   21.4780   28.6220 C   0  0  0  0  0
   -3.6970   20.7230   29.2960 C   0  0  0  0  0
   -2.9810   21.2270   30.3760 C   0  0  0  0  0
   -3.2070   22.5400   30.8090 C   0  0  0  0  0
   -4.1700   23.3030   30.1310 C   0  0  0  0  0
   -4.5190   24.7490   30.5300 C   0  0  0  0  0
   -5.8180   24.6920   31.8760 P   0  0  0  0  0
   -5.0310   24.1270   33.0990 O   0  0  0  0  0
   -6.4330   26.1470   32.0900 O   0  0  0  0  0
   -6.8710   23.6810   31.5610 O   0  0  0  0  0
   -4.9710   25.3550   29.3110 O   0  0  0  0  0
   -3.3590   25.4070   30.9660 O   0  0  0  0  0
   -3.4730   26.8550   31.0480 C   0  0  0  0  0
   -4.0730   27.4390   29.9090 C   0  0  0  0  0
   -3.0820   27.5930   28.8950 O   0  0  0  0  0
   -5.1720   26.7500   29.2800 C   0  0  0  0  0
   -5.0860   27.2570   27.8380 C   0  0  0  0  0
   -3.6180   27.8430   27.7310 C   0  0  0  0  0
   -2.8240   27.0890   26.7200 N   0  0  0  0  0
   -3.2200   25.7910   26.2030 C   0  0  0  0  0
   -1.7250   27.6550   26.2450 C   0  0  0  0  0
   -1.3770   28.7560   26.6650 O   0  0  0  0  0
   -1.0180   27.0960   25.2850 N   0  0  0  0  0
   -1.3570   25.8600   24.7690 C   0  0  0  0  0
   -0.6440   25.4400   23.8720 O   0  0  0  0  0
   -2.4630   25.1710   25.2140 C   0  0  0  0  0
   -2.7030   23.9100   24.5910 C   0  0  0  0  0
   -2.9770   22.7280   25.2270 C   0  0  0  0  0
   -3.1210   21.2030   24.4470 P   0  0  0  0  0
   -4.7110   20.7800   24.6450 O   0  0  0  0  0
   -2.8980   21.2980   22.8410 O   0  0  0  0  0
   -2.1970   20.1520   25.0290 O   0  0  0  0  0
   -5.5731   23.3877   28.5079 H   0  0  0  0  0
   -5.2010   21.0609   27.7843 H   0  0  0  0  0
   -3.5083   19.7004   28.9693 H   0  0  0  0  0
   -2.2462   20.6025   30.8841 H   0  0  0  0  0
   -2.6508   22.9570   31.6485 H   0  0  0  0  0
   -4.3370   24.7434   33.3440 H   0  0  0  0  0
   -5.7266   26.7656   32.2897 H   0  0  0  0  0
   -2.4639   27.2589   31.1300 H   0  0  0  0  0
   -4.1049   27.0857   31.9057 H   0  0  0  0  0
   -4.4932   28.3609   30.3111 H   0  0  0  0  0
   -6.1323   26.9303   29.7632 H   0  0  0  0  0
   -5.8483   28.0032   27.6141 H   0  0  0  0  0
   -5.2725   26.4685   27.1088 H   0  0  0  0  0
   -3.6345   28.8970   27.4538 H   0  0  0  0  0
   -4.1130   25.3010   26.5910 H   0  0  0  0  0
   -0.2034   27.5855   24.9147 H   0  0  0  0  0
   -2.6646   23.8847   23.5020 H   0  0  0  0  0
   -3.1139   22.7567   26.3080 H   0  0  0  0  0
   -5.2717   21.4620   24.2681 H   0  0  0  0  0
   -3.4849   21.9645   22.4764 H   0  0  0  0  0
  1  2  4  0  0  0
  1  6  4  0  0  0
  2  3  4  0  0  0
  3  4  4  0  0  0
  4  5  4  0  0  0
  5  6  4  0  0  0
  6  7  1  0  0  0
  7  8  1  0  0  0
  7 12  1  0  0  0
  7 13  1  0  0  0
  8  9  1  0  0  0
  8 10  1  0  0  0
  8 11  2  0  0  0
 12 17  1  0  0  0
 13 14  1  0  0  0
 14 15  1  0  0  0
 15 16  1  0  0  0
 15 17  1  0  0  0
 16 19  1  0  0  0
 17 18  1  0  0  0
 18 19  1  0  0  0
 19 20  1  0  0  0
 20 21  1  0  0  0
 20 22  1  0  0  0
 21 27  2  0  0  0
 22 23  2  0  0  0
 22 24  1  0  0  0
 24 25  1  0  0  0
 25 26  2  0  0  0
 25 27  1  0  0  0
 27 28  1  0  0  0
 28 29  2  0  0  0
 29 30  1  0  0  0
 30 31  1  0  0  0
 30 32  1  0  0  0
 30 33  2  0  0  0
  1 34  1  0  0  0
  2 35  1  0  0  0
  3 36  1  0  0  0
  4 37  1  0  0  0
  5 38  1  0  0  0
  9 39  1  0  0  0
 10 40  1  0  0  0
 14 41  1  0  0  0
 14 42  1  0  0  0
 15 43  1  0  0  0
 17 44  1  0  0  0
 18 45  1  0  0  0
 18 46  1  0  0  0
 19 47  1  0  0  0
 21 48  1  0  0  0
 24 49  1  0  0  0
 28 50  1  0  0  0
 29 51  1  0  0  0
 31 52  1  0  0  0
 32 53  1  0  0  0
M  END
$$$$
