5cxh_ligand
  -I-interpret- 

 49 52  0  0  0  0  0  0  0  0999 V2000
    3.3970    0.5520   14.3940 C   0  0  0  0  0
    3.2010   -0.5320   15.1970 C   0  0  0  0  0
    1.9480   -1.1110   15.3160 C   0  0  0  0  0
    2.0350    5.0430   13.8590 C   0  0  0  0  0
    4.0050    5.1180   12.6830 C   0  0  0  0  0
    3.0060    4.7340   11.6390 C   0  0  0  0  0
    1.7450    4.4710   12.4710 C   0  0  0  0  0
    1.3670    2.9570   12.4790 C   0  0  0  0  0
    0.8410    2.4130   11.1140 C   0  0  0  0  0
   -1.4530   -0.2940   14.0710 C   0  0  0  0  0
   -2.7800   -0.6550   14.1980 C   0  0  0  0  0
   -3.1060   -1.7240   14.9950 C   0  0  0  0  0
   -2.0930   -2.4070   15.6700 C   0  0  0  0  0
   -0.7750   -2.0510   15.5540 C   0  0  0  0  0
   -3.7150    1.2430   12.9990 C   0  0  0  0  0
   -4.8920   -2.8510   16.1880 C   0  0  0  0  0
    0.9290   -0.5190   14.5860 C   0  0  0  0  0
    1.1510    0.5610   13.8270 N   0  0  0  0  0
    2.3320    1.1250   13.6980 C   0  0  0  0  0
   -0.4510   -1.0090   14.6990 C   0  0  0  0  0
    5.0550    1.1340   14.3630 S   0  0  0  0  0
    5.3450   -0.1930   15.4900 C   0  0  0  0  0
    4.3450   -0.8660   15.7650 N   0  0  0  0  0
    3.4080    5.2540   13.8430 N   0  0  0  0  0
    5.1330    5.2890   12.4660 O   0  0  0  0  0
    2.5080    2.2310   12.9170 O   0  0  0  0  0
   -4.4460   -2.0540   15.1160 O   0  0  0  0  0
   -3.8040   -0.0120   13.5720 O   0  0  0  0  0
    1.7734   -1.9821   15.9475 H   0  0  0  0  0
    1.7249    4.3722   14.6602 H   0  0  0  0  0
    1.4745    5.9560   14.0598 H   0  0  0  0  0
    3.3154    3.8728   11.0468 H   0  0  0  0  0
    2.8647    5.5022   10.8787 H   0  0  0  0  0
    0.8654    4.9562   12.0478 H   0  0  0  0  0
    0.5252    2.8251   13.1588 H   0  0  0  0  0
    1.6235    2.5069   10.3611 H   0  0  0  0  0
    0.5651    1.3643   11.2243 H   0  0  0  0  0
   -0.0317    2.9892   10.8067 H   0  0  0  0  0
   -1.1908    0.5721   13.4633 H   0  0  0  0  0
   -2.3586   -3.2493   16.3089 H   0  0  0  0  0
   -0.0023   -2.5729   16.1186 H   0  0  0  0  0
   -3.4382    1.9706   13.7620 H   0  0  0  0  0
   -2.9575    1.2303   12.2153 H   0  0  0  0  0
   -4.6794    1.5141   12.5695 H   0  0  0  0  0
   -4.3892   -3.8175   16.1543 H   0  0  0  0  0
   -4.6618   -2.3529   17.1298 H   0  0  0  0  0
   -5.9691   -2.9973   16.1067 H   0  0  0  0  0
    6.3285   -0.4027   15.9105 H   0  0  0  0  0
    3.9239    5.5013   14.6875 H   0  0  0  0  0
  1  2  4  0  0  0
 19  1  4  0  0  0
  1 21  4  0  0  0
  2  3  4  0  0  0
  2 23  4  0  0  0
 17  3  4  0  0  0
  7  4  1  0  0  0
  4 24  1  0  0  0
  6  5  1  0  0  0
  5 24  1  0  0  0
  5 25  2  0  0  0
  7  6  1  0  0  0
  8  7  1  0  0  0
  8  9  1  0  0  0
 26  8  1  0  0  0
 10 11  4  0  0  0
 20 10  4  0  0  0
 11 12  4  0  0  0
 11 28  1  0  0  0
 13 12  4  0  0  0
 12 27  1  0  0  0
 14 13  4  0  0  0
 20 14  4  0  0  0
 28 15  1  0  0  0
 27 16  1  0  0  0
 18 17  4  0  0  0
 17 20  1  0  0  0
 19 18  4  0  0  0
 19 26  1  0  0  0
 21 22  4  0  0  0
 22 23  4  0  0  0
  3 29  1  0  0  0
  4 30  1  0  0  0
  4 31  1  0  0  0
  6 32  1  0  0  0
  6 33  1  0  0  0
  7 34  1  0  0  0
  8 35  1  0  0  0
  9 36  1  0  0  0
  9 37  1  0  0  0
  9 38  1  0  0  0
 10 39  1  0  0  0
 13 40  1  0  0  0
 14 41  1  0  0  0
 15 42  1  0  0  0
 15 43  1  0  0  0
 15 44  1  0  0  0
 16 45  1  0  0  0
 16 46  1  0  0  0
 16 47  1  0  0  0
 22 48  1  0  0  0
 24 49  1  0  0  0
M  END
$$$$
