1o48_ligand
  -I-interpret- 

 78 81  0  0  0  0  0  0  0  0999 V2000
   19.0180   25.2650   19.5650 C   0  0  0  0  0
   17.6520   24.9090   19.3890 C   0  0  0  0  0
   16.8230   25.6810   18.5460 C   0  0  0  0  0
   17.4120   26.7520   17.7840 C   0  0  0  0  0
   18.8340   27.0580   17.8510 C   0  0  0  0  0
   19.6220   26.3270   18.8080 C   0  0  0  0  0
   19.8470   24.4880   20.6190 C   0  0  0  0  0
   19.6000   25.0830   22.0150 C   0  0  0  0  0
   20.3030   24.2510   23.0760 C   0  0  0  0  0
   19.6080   23.2240   23.5300 N   0  0  0  0  0
   21.4340   24.5430   23.4610 O   0  0  0  0  0
   20.0370   26.4980   22.0200 N   0  0  0  0  0
   19.3900   27.3850   22.8110 C   0  0  0  0  0
   18.4100   27.0780   23.4990 O   0  0  0  0  0
   19.9870   28.8260   22.7870 C   0  0  0  0  0
   20.2910   22.2440   24.3590 C   0  0  0  0  0
   21.3620   21.4210   23.5300 C   0  0  0  0  0
   22.1650   20.5580   24.2570 N   0  0  0  0  0
   21.4630   21.5680   22.3020 O   0  0  0  0  0
   22.0180   20.2790   25.6930 C   0  0  0  0  0
   20.7200   19.5960   26.0560 C   0  0  0  0  0
   23.1790   19.6830   23.5820 C   0  0  0  0  0
   22.5560   18.3030   23.3220 C   0  0  0  0  0
   19.5640   20.5780   26.2040 C   0  0  0  0  0
   19.1950   21.3400   24.9190 C   0  0  0  0  0
   21.4050   18.2670   22.4350 C   0  0  0  0  0
   20.7220   17.0590   22.2680 C   0  0  0  0  0
   21.2760   15.8760   22.8910 C   0  0  0  0  0
   22.4610   15.8860   23.7320 C   0  0  0  0  0
   23.0610   17.1320   23.9890 C   0  0  0  0  0
   20.5670   14.5840   22.5790 C   0  0  0  0  0
   19.1380   14.5620   22.3830 C   0  0  0  0  0
   18.5180   13.3350   22.1240 C   0  0  0  0  0
   19.2670   12.1240   22.1060 C   0  0  0  0  0
   20.6550   12.1450   22.2830 C   0  0  0  0  0
   21.3340   13.3780   22.4640 C   0  0  0  0  0
   19.5240   27.9820   16.8640 C   0  0  0  0  0
   20.0090   29.1550   17.2750 O   0  0  0  0  0
   19.6160   27.6680   15.7090 O   0  0  0  0  0
   16.4750   27.4870   16.8220 C   0  0  0  0  0
   15.3310   28.2450   17.4900 C   0  0  0  0  0
   14.5580   28.8060   16.5620 O   0  0  0  0  0
   15.1400   28.3530   18.6620 O   0  0  0  0  0
   17.2449   24.0396   19.9053 H   0  0  0  0  0
   15.7561   25.4701   18.4732 H   0  0  0  0  0
   20.6721   26.5776   18.9580 H   0  0  0  0  0
   20.9064   24.5672   20.3750 H   0  0  0  0  0
   19.5458   23.4405   20.6146 H   0  0  0  0  0
   18.5369   25.0583   22.2545 H   0  0  0  0  0
   18.6184   23.1210   23.3051 H   0  0  0  0  0
   20.8158   26.8001   21.4346 H   0  0  0  0  0
   19.2271   29.5270   22.4417 H   0  0  0  0  0
   20.3079   29.1017   23.7915 H   0  0  0  0  0
   20.8417   28.8526   22.1110 H   0  0  0  0  0
   20.8541   22.7253   25.1586 H   0  0  0  0  0
   22.0357   21.2372   26.2122 H   0  0  0  0  0
   22.8277   19.6066   25.9765 H   0  0  0  0  0
   20.8603   19.0955   27.0141 H   0  0  0  0  0
   20.4701   18.9015   25.2539 H   0  0  0  0  0
   24.0553   19.5758   24.2213 H   0  0  0  0  0
   23.4816   20.1334   22.6367 H   0  0  0  0  0
   19.8744   21.3238   26.9358 H   0  0  0  0  0
   18.6881   19.9948   26.4883 H   0  0  0  0  0
   18.9917   20.5873   24.1573 H   0  0  0  0  0
   18.3547   21.9872   25.1703 H   0  0  0  0  0
   21.0805   19.1654   21.9098 H   0  0  0  0  0
   19.8012   17.0095   21.6869 H   0  0  0  0  0
   22.8688   14.9644   24.1473 H   0  0  0  0  0
   23.8971   17.2096   24.6839 H   0  0  0  0  0
   18.5543   15.4810   22.4355 H   0  0  0  0  0
   17.4453   13.3055   21.9331 H   0  0  0  0  0
   18.7554   11.1737   21.9532 H   0  0  0  0  0
   21.2167   11.2109   22.2818 H   0  0  0  0  0
   22.4224   13.4078   22.5148 H   0  0  0  0  0
   19.8556   29.2508   18.2178 H   0  0  0  0  0
   16.0204   26.7288   16.1843 H   0  0  0  0  0
   17.0794   28.2272   16.2977 H   0  0  0  0  0
   14.8967   28.5881   15.6906 H   0  0  0  0  0
  1  2  4  0  0  0
  1  6  4  0  0  0
  1  7  1  0  0  0
  2  3  4  0  0  0
  3  4  4  0  0  0
  4  5  4  0  0  0
  4 40  1  0  0  0
  5  6  4  0  0  0
  5 37  1  0  0  0
  7  8  1  0  0  0
  8  9  1  0  0  0
  8 12  1  0  0  0
  9 10  1  0  0  0
  9 11  2  0  0  0
 10 16  1  0  0  0
 12 13  1  0  0  0
 13 14  2  0  0  0
 13 15  1  0  0  0
 16 17  1  0  0  0
 16 25  1  0  0  0
 17 18  1  0  0  0
 17 19  2  0  0  0
 18 20  1  0  0  0
 18 22  1  0  0  0
 20 21  1  0  0  0
 21 24  1  0  0  0
 22 23  1  0  0  0
 23 26  4  0  0  0
 23 30  4  0  0  0
 24 25  1  0  0  0
 26 27  4  0  0  0
 27 28  4  0  0  0
 28 29  4  0  0  0
 28 31  1  0  0  0
 29 30  4  0  0  0
 31 32  4  0  0  0
 31 36  4  0  0  0
 32 33  4  0  0  0
 33 34  4  0  0  0
 34 35  4  0  0  0
 35 36  4  0  0  0
 37 38  1  0  0  0
 37 39  2  0  0  0
 40 41  1  0  0  0
 41 42  1  0  0  0
 41 43  2  0  0  0
  2 44  1  0  0  0
  3 45  1  0  0  0
  6 46  1  0  0  0
  7 47  1  0  0  0
  7 48  1  0  0  0
  8 49  1  0  0  0
 10 50  1  0  0  0
 12 51  1  0  0  0
 15 52  1  0  0  0
 15 53  1  0  0  0
 15 54  1  0  0  0
 16 55  1  0  0  0
 20 56  1  0  0  0
 20 57  1  0  0  0
 21 58  1  0  0  0
 21 59  1  0  0  0
 22 60  1  0  0  0
 22 61  1  0  0  0
 24 62  1  0  0  0
 24 63  1  0  0  0
 25 64  1  0  0  0
 25 65  1  0  0  0
 26 66  1  0  0  0
 27 67  1  0  0  0
 29 68  1  0  0  0
 30 69  1  0  0  0
 32 70  1  0  0  0
 33 71  1  0  0  0
 34 72  1  0  0  0
 35 73  1  0  0  0
 36 74  1  0  0  0
 38 75  1  0  0  0
 40 76  1  0  0  0
 40 77  1  0  0  0
 42 78  1  0  0  0
M  END
$$$$
