5v40_ligand
  -I-interpret- 

 47 49  0  0  0  0  0  0  0  0999 V2000
    8.0010   25.2860    4.1540 C   0  0  0  0  0
    7.5010   26.5200    4.9090 C   0  0  0  0  0
    6.2330   26.1770    5.5410 O   0  0  0  0  0
    5.8040   26.9890    6.5350 C   0  0  0  0  0
    6.1980   28.1390    6.4900 O   0  0  0  0  0
    4.5250   26.6720    7.1980 C   0  0  0  0  0
    4.0130   25.3910    7.4310 C   0  0  0  0  0
    2.8410   25.4940    8.0410 O   0  0  0  0  0
    2.4860   26.7650    8.2430 C   0  0  0  0  0
    3.4930   27.6120    7.7350 C   0  0  0  0  0
    3.3050   29.0040    7.8680 C   0  0  0  0  0
    2.1410   29.4630    8.4650 C   0  0  0  0  0
    1.1730   28.6100    8.9570 C   0  0  0  0  0
    1.3490   27.2650    8.8500 C   0  0  0  0  0
    1.9360   30.7860    8.6010 O   0  0  0  0  0
    4.2730   30.0650    7.3880 C   0  0  0  0  0
    5.3620   30.2990    8.3730 N   0  3  0  0  0
    4.9320   30.8420    9.6740 C   0  0  0  0  0
    6.4730   31.1000    7.8090 C   0  0  0  0  0
    4.5760   24.0510    7.1510 C   0  0  0  0  0
    5.9500   23.8190    7.0700 C   0  0  0  0  0
    6.4390   22.5470    6.8340 C   0  0  0  0  0
    5.5600   21.4860    6.7200 C   0  0  0  0  0
    4.1980   21.6970    6.8320 C   0  0  0  0  0
    3.6990   22.9710    7.0560 C   0  0  0  0  0
    8.1394   24.4636    4.8558 H   0  0  0  0  0
    7.2678   25.0017    3.3992 H   0  0  0  0  0
    8.9505   25.5171    3.6712 H   0  0  0  0  0
    7.3655   27.3540    4.2204 H   0  0  0  0  0
    8.2285   26.8212    5.6627 H   0  0  0  0  0
    0.2751   29.0109    9.4273 H   0  0  0  0  0
    0.5947   26.5829    9.2422 H   0  0  0  0  0
    1.0903   30.9352    9.0302 H   0  0  0  0  0
    3.7237   30.9969    7.2543 H   0  0  0  0  0
    4.7208   29.7252    6.4541 H   0  0  0  0  0
    5.7045   29.3594    8.5736 H   0  0  0  0  0
    4.4420   31.8035    9.5209 H   0  0  0  0  0
    4.2347   30.1480   10.1433 H   0  0  0  0  0
    5.8024   30.9746   10.3165 H   0  0  0  0  0
    6.8995   30.5758    6.9538 H   0  0  0  0  0
    6.0937   32.0707    7.4895 H   0  0  0  0  0
    7.2405   31.2409    8.5701 H   0  0  0  0  0
    6.6451   24.6493    7.1941 H   0  0  0  0  0
    7.5122   22.3818    6.7384 H   0  0  0  0  0
    5.9415   20.4807    6.5414 H   0  0  0  0  0
    3.5113   20.8551    6.7435 H   0  0  0  0  0
    2.6251   23.1278    7.1575 H   0  0  0  0  0
  1  2  1  0  0  0
  2  3  1  0  0  0
  3  4  1  0  0  0
  4  5  2  0  0  0
  4  6  1  0  0  0
  6  7  4  0  0  0
  6 10  4  0  0  0
  7  8  4  0  0  0
  7 20  1  0  0  0
  8  9  4  0  0  0
  9 10  4  0  0  0
  9 14  4  0  0  0
 10 11  4  0  0  0
 11 12  4  0  0  0
 11 16  1  0  0  0
 12 13  4  0  0  0
 12 15  1  0  0  0
 13 14  4  0  0  0
 16 17  1  0  0  0
 17 18  1  0  0  0
 17 19  1  0  0  0
 20 21  4  0  0  0
 20 25  4  0  0  0
 21 22  4  0  0  0
 22 23  4  0  0  0
 23 24  4  0  0  0
 24 25  4  0  0  0
  1 26  1  0  0  0
  1 27  1  0  0  0
  1 28  1  0  0  0
  2 29  1  0  0  0
  2 30  1  0  0  0
 13 31  1  0  0  0
 14 32  1  0  0  0
 15 33  1  0  0  0
 16 34  1  0  0  0
 16 35  1  0  0  0
 17 36  1  0  0  0
 18 37  1  0  0  0
 18 38  1  0  0  0
 18 39  1  0  0  0
 19 40  1  0  0  0
 19 41  1  0  0  0
 19 42  1  0  0  0
 21 43  1  0  0  0
 22 44  1  0  0  0
 23 45  1  0  0  0
 24 46  1  0  0  0
 25 47  1  0  0  0
M  END
$$$$
