2lzg_ligand
  -I-interpret- 

 52 55  0  0  0  0  0  0  0  0999 V2000
    8.1380    3.4730    0.7650 C   0  0  0  0  0
    7.0500    3.7920   -0.0390 C   0  0  0  0  0
    5.9270    2.9720   -0.0460 C   0  0  0  0  0
    5.8960    1.8300    0.7460 C   0  0  0  0  0
    6.9850    1.5120    1.5520 C   0  0  0  0  0
    8.1050    2.3350    1.5650 C   0  0  0  0  0
    9.1700    2.0410    2.4100 C   0  0  0  0  0
   10.4080    1.7920    1.6370 N   0  0  0  0  0
   12.5850    1.9630    1.3510 O   0  0  0  0  0
   11.6080    2.2300    2.0500 C   0  0  0  0  0
   12.2480    6.3480    4.2400 O   0  0  0  0  0
   11.8000    2.9630    3.2180 C   0  0  0  0  0
   10.6370    2.8370    4.1920 C   0  0  0  0  0
    9.3740    3.1630    3.4130 C   0  0  0  0  0
    8.2610    3.2700    4.2420 C   0  0  0  0  0
    8.1450    2.4840    5.3840 C   0  0  0  0  0
    7.2470    4.1630    3.9160 C   0  0  0  0  0
    6.1210    4.2700    4.7250 C   0  0  0  0  0
   13.2110    4.4610    4.9260 O   0  0  0  0  0
    6.0070    3.4840    5.8660 C   0  0  0  0  0
    7.0210    2.5910    6.1950 C   0  0  0  0  0
   10.3510    0.8780    0.4730 C   0  0  0  0  0
   10.5030    1.7340   -0.7870 C   0  0  0  0  0
   11.7970    1.3100   -1.4730 C   0  0  0  0  0
   10.5050    1.4180   -2.2680 C   0  0  0  0  0
   12.0490    4.4300    2.8530 C   0  0  0  0  0
   12.5340    5.1370    4.1210 C   0  0  0  0  0
    4.5530    3.3980   -0.9980 Cl  0  0  0  0  0
    4.8610    5.3710    4.3070 Cl  0  0  0  0  0
    9.0186    4.1154    0.7688 H   0  0  0  0  0
    7.0771    4.6847   -0.6639 H   0  0  0  0  0
    5.0185    1.1835    0.7357 H   0  0  0  0  0
    6.9596    0.6169    2.1735 H   0  0  0  0  0
    8.9312    1.1290    2.9572 H   0  0  0  0  0
   12.6695    2.5535    3.7322 H   0  0  0  0  0
   10.7604    3.5194    5.0330 H   0  0  0  0  0
   10.5869    1.8305    4.6074 H   0  0  0  0  0
    9.4870    4.1284    2.9197 H   0  0  0  0  0
    8.9377    1.7823    5.6436 H   0  0  0  0  0
    7.3347    4.7817    3.0229 H   0  0  0  0  0
   13.2845    3.5600    4.6029 H   0  0  0  0  0
    5.1251    3.5675    6.5011 H   0  0  0  0  0
    6.9344    1.9744    7.0896 H   0  0  0  0  0
    9.4044    0.3378    0.4567 H   0  0  0  0  0
   11.1474    0.1360    0.5298 H   0  0  0  0  0
    9.9277    2.5355   -0.3235 H   0  0  0  0  0
   12.6111    0.6010   -1.3228 H   0  0  0  0  0
   12.8339    1.6385   -1.5438 H   0  0  0  0  0
   10.1553    1.8671   -3.1976 H   0  0  0  0  0
    9.9302    0.8189   -2.9742 H   0  0  0  0  0
   11.1349    4.8932    2.4815 H   0  0  0  0  0
   12.7948    4.5070    2.0619 H   0  0  0  0  0
  1  2  4  0  0  0
  6  1  4  0  0  0
  2  3  4  0  0  0
  4  3  4  0  0  0
  3 28  1  0  0  0
  5  4  4  0  0  0
  6  5  4  0  0  0
  7  6  1  0  0  0
  8  7  1  0  0  0
 14  7  1  0  0  0
 10  8  1  0  0  0
  8 22  1  0  0  0
 10  9  2  0  0  0
 12 10  1  0  0  0
 27 11  2  0  0  0
 12 13  1  0  0  0
 26 12  1  0  0  0
 13 14  1  0  0  0
 14 15  1  0  0  0
 15 16  4  0  0  0
 15 17  4  0  0  0
 16 21  4  0  0  0
 17 18  4  0  0  0
 18 20  4  0  0  0
 18 29  1  0  0  0
 27 19  1  0  0  0
 21 20  4  0  0  0
 22 23  1  0  0  0
 23 24  1  0  0  0
 23 25  1  0  0  0
 25 24  1  0  0  0
 26 27  1  0  0  0
  1 30  1  0  0  0
  2 31  1  0  0  0
  4 32  1  0  0  0
  5 33  1  0  0  0
  7 34  1  0  0  0
 12 35  1  0  0  0
 13 36  1  0  0  0
 13 37  1  0  0  0
 14 38  1  0  0  0
 16 39  1  0  0  0
 17 40  1  0  0  0
 19 41  1  0  0  0
 20 42  1  0  0  0
 21 43  1  0  0  0
 22 44  1  0  0  0
 22 45  1  0  0  0
 23 46  1  0  0  0
 24 47  1  0  0  0
 24 48  1  0  0  0
 25 49  1  0  0  0
 25 50  1  0  0  0
 26 51  1  0  0  0
 26 52  1  0  0  0
M  END
$$$$
