5kat_ligand
  -I-interpret- 

 45 48  0  0  0  0  0  0  0  0999 V2000
  -15.8290  -13.1260   -8.4580 P   0  0  0  0  0
  -14.5440  -12.3050   -9.4450 C   0  0  0  0  0
  -13.4780  -11.6670   -8.8350 C   0  0  0  0  0
  -12.5090  -11.0490   -9.6120 C   0  0  0  0  0
  -12.6040  -11.0680  -10.9950 C   0  0  0  0  0
  -13.6700  -11.7070  -11.6040 C   0  0  0  0  0
  -14.6390  -12.3260  -10.8300 C   0  0  0  0  0
  -17.3290  -12.0910   -8.4970 C   0  0  0  0  0
  -17.2670  -10.8070   -9.0230 C   0  0  0  0  0
  -18.4010  -10.0080   -9.0560 C   0  0  0  0  0
  -19.6020  -10.4900   -8.5610 C   0  0  0  0  0
  -19.6660  -11.7710   -8.0340 C   0  0  0  0  0
  -18.5320  -12.5700   -8.0010 C   0  0  0  0  0
  -16.1040  -14.7470   -9.2360 C   0  0  0  0  0
  -15.2640  -15.8120   -8.9520 C   0  0  0  0  0
  -15.4640  -17.0480   -9.5490 C   0  0  0  0  0
  -16.5070  -17.2190  -10.4430 C   0  0  0  0  0
  -17.3370  -16.1520  -10.7380 C   0  0  0  0  0
  -17.1390  -14.9200  -10.1350 C   0  0  0  0  0
  -16.0590  -12.7860   -5.7000 C   0  0  0  0  0
  -15.6700  -12.9460   -4.3780 C   0  0  0  0  0
  -14.5220  -13.6590   -4.0760 C   0  0  0  0  0
  -13.7650  -14.2120   -5.0960 C   0  0  0  0  0
  -14.1550  -14.0520   -6.4170 C   0  0  0  0  0
  -15.3040  -13.3390   -6.7260 C   0  0  0  0  0
  -13.4001  -11.6502   -7.7479 H   0  0  0  0  0
  -11.6690  -10.5461   -9.1329 H   0  0  0  0  0
  -11.8407  -10.5806  -11.6015 H   0  0  0  0  0
  -13.7474  -11.7234  -12.6911 H   0  0  0  0  0
  -15.4777  -12.8305  -11.3098 H   0  0  0  0  0
  -16.3230  -10.4251   -9.4117 H   0  0  0  0  0
  -18.3470   -9.0016   -9.4712 H   0  0  0  0  0
  -20.4940   -9.8640   -8.5858 H   0  0  0  0  0
  -20.6102  -12.1516   -7.6444 H   0  0  0  0  0
  -18.5870  -13.5758   -7.5845 H   0  0  0  0  0
  -14.4385  -15.6772   -8.2531 H   0  0  0  0  0
  -14.8021  -17.8818   -9.3150 H   0  0  0  0  0
  -16.6735  -18.1888  -10.9119 H   0  0  0  0  0
  -18.1524  -16.2813  -11.4497 H   0  0  0  0  0
  -17.8006  -14.0863  -10.3702 H   0  0  0  0  0
  -16.9624  -12.2230   -5.9347 H   0  0  0  0  0
  -16.2678  -12.5106   -3.5773 H   0  0  0  0  0
  -14.2146  -13.7849   -3.0379 H   0  0  0  0  0
  -12.8613  -14.7738   -4.8597 H   0  0  0  0  0
  -13.5560  -14.4885   -7.2162 H   0  0  0  0  0
  1  2  1  0  0  0
  1  8  1  0  0  0
  1 14  1  0  0  0
 25  1  1  0  0  0
  2  3  4  0  0  0
  2  7  4  0  0  0
  3  4  4  0  0  0
  4  5  4  0  0  0
  6  5  4  0  0  0
  7  6  4  0  0  0
  8  9  4  0  0  0
  8 13  4  0  0  0
  9 10  4  0  0  0
 10 11  4  0  0  0
 12 11  4  0  0  0
 13 12  4  0  0  0
 14 15  4  0  0  0
 14 19  4  0  0  0
 15 16  4  0  0  0
 16 17  4  0  0  0
 18 17  4  0  0  0
 19 18  4  0  0  0
 20 21  4  0  0  0
 20 25  4  0  0  0
 21 22  4  0  0  0
 22 23  4  0  0  0
 23 24  4  0  0  0
 24 25  4  0  0  0
  3 26  1  0  0  0
  4 27  1  0  0  0
  5 28  1  0  0  0
  6 29  1  0  0  0
  7 30  1  0  0  0
  9 31  1  0  0  0
 10 32  1  0  0  0
 11 33  1  0  0  0
 12 34  1  0  0  0
 13 35  1  0  0  0
 15 36  1  0  0  0
 16 37  1  0  0  0
 17 38  1  0  0  0
 18 39  1  0  0  0
 19 40  1  0  0  0
 20 41  1  0  0  0
 21 42  1  0  0  0
 22 43  1  0  0  0
 23 44  1  0  0  0
 24 45  1  0  0  0
M  END
$$$$
