2ddf_ligand
  -I-interpret- 

 67 66  0  0  0  0  0  0  0  0999 V2000
    6.6900    6.1150   24.3260 N   0  0  0  0  0
    6.9540    8.2940   28.8890 C   0  0  0  0  0
    7.7780    3.6270   25.0580 O   0  0  0  0  0
    6.5750   -0.5610   25.2380 N   0  0  0  0  0
    5.9330    7.1070   24.7930 C   0  0  0  0  0
    6.6690   13.0290   24.9480 O   0  0  0  0  0
    6.0960    4.8380   23.9740 C   0  0  0  0  0
    6.2860    4.5320   22.4680 C   0  0  0  0  0
    5.5240    5.5360   21.5980 C   0  0  0  0  0
    5.8050    3.1130   22.1060 C   0  0  0  0  0
    6.5750    3.7070   24.8370 C   0  0  0  0  0
    6.0000    1.6660   26.0770 C   0  0  0  0  0
    5.2280    1.4980   27.3760 C   0  0  0  0  0
    6.0920   11.7800   24.8010 N   0  0  0  0  0
    6.7270   10.7850   24.2030 C   0  0  0  0  0
    7.8230   10.8830   23.6990 O   0  0  0  0  0
    5.9850    9.4640   24.1220 C   0  0  0  0  0
    6.6540    8.4200   25.0290 C   0  0  0  0  0
    6.5220    8.8400   26.4960 C   0  0  0  0  0
    7.2290    7.8710   27.4360 C   0  0  0  0  0
    8.7250    7.8040   27.1640 C   0  0  0  0  0
    4.7530    7.0060   25.0140 O   0  0  0  0  0
    7.7630    4.5700   22.0520 C   0  0  0  0  0
    5.6560    2.8510   25.2970 N   0  0  0  0  0
    5.7250    0.4590   25.2010 C   0  0  0  0  0
    4.7490    0.4090   24.4670 O   0  0  0  0  0
    6.3620   -1.7420   24.3930 C   0  0  0  0  0
    6.6190   -1.4500   22.9170 C   0  0  0  0  0
    5.3400   -1.2050   22.2540 N   0  3  0  0  0
    7.6944    6.2539   24.2150 H   0  0  0  0  0
    7.3307    9.3042   29.0495 H   0  0  0  0  0
    5.8803    8.2713   29.0757 H   0  0  0  0  0
    7.4567    7.6052   29.5679 H   0  0  0  0  0
    7.3831   -0.5232   25.8593 H   0  0  0  0  0
    6.0568   13.6114   25.4037 H   0  0  0  0  0
    5.0273    4.9277   24.1689 H   0  0  0  0  0
    4.4607    5.4844   21.8324 H   0  0  0  0  0
    5.8931    6.5419   21.7982 H   0  0  0  0  0
    5.6778    5.2938   20.5464 H   0  0  0  0  0
    6.3741    2.3807   22.6787 H   0  0  0  0  0
    4.7455    3.0182   22.3437 H   0  0  0  0  0
    5.9565    2.9402   21.0405 H   0  0  0  0  0
    7.0450    1.7729   26.3681 H   0  0  0  0  0
    5.4118    2.3579   28.0202 H   0  0  0  0  0
    4.1625    1.4273   27.1574 H   0  0  0  0  0
    5.5582    0.5888   27.8784 H   0  0  0  0  0
    5.1517   11.6220   25.1634 H   0  0  0  0  0
    6.0061    9.1066   23.0925 H   0  0  0  0  0
    4.9562    9.6131   24.4498 H   0  0  0  0  0
    7.7163    8.3263   24.8034 H   0  0  0  0  0
    5.4627    8.8504   26.7525 H   0  0  0  0  0
    6.9817    9.8216   26.6111 H   0  0  0  0  0
    6.8358    6.8691   27.2636 H   0  0  0  0  0
    8.8922    7.4698   26.1401 H   0  0  0  0  0
    9.1625    8.7929   27.3008 H   0  0  0  0  0
    9.1879    7.1015   27.8570 H   0  0  0  0  0
    8.1699    5.5614   22.2512 H   0  0  0  0  0
    8.3191    3.8262   22.6226 H   0  0  0  0  0
    7.8452    4.3493   20.9878 H   0  0  0  0  0
    4.6732    3.0339   25.0942 H   0  0  0  0  0
    5.3229   -2.0529   24.5009 H   0  0  0  0  0
    7.0594   -2.5167   24.7115 H   0  0  0  0  0
    7.1172   -2.3017   22.4539 H   0  0  0  0  0
    7.2584   -0.5725   22.8206 H   0  0  0  0  0
    5.5025   -1.0088   21.2663 H   0  0  0  0  0
    4.7476   -2.0304   22.3450 H   0  0  0  0  0
    4.8803   -0.4054   22.6896 H   0  0  0  0  0
  5  1  1  0  0  0
  1  7  1  0  0  0
 20  2  1  0  0  0
 11  3  2  0  0  0
 25  4  1  0  0  0
  4 27  1  0  0  0
 18  5  1  0  0  0
  5 22  2  0  0  0
 14  6  1  0  0  0
  7  8  1  0  0  0
  7 11  1  0  0  0
  8  9  1  0  0  0
  8 10  1  0  0  0
  8 23  1  0  0  0
 11 24  1  0  0  0
 12 13  1  0  0  0
 24 12  1  0  0  0
 12 25  1  0  0  0
 15 14  1  0  0  0
 15 16  2  0  0  0
 17 15  1  0  0  0
 18 17  1  0  0  0
 19 18  1  0  0  0
 19 20  1  0  0  0
 20 21  1  0  0  0
 25 26  2  0  0  0
 27 28  1  0  0  0
 28 29  1  0  0  0
  1 30  1  0  0  0
  2 31  1  0  0  0
  2 32  1  0  0  0
  2 33  1  0  0  0
  4 34  1  0  0  0
  6 35  1  0  0  0
  7 36  1  0  0  0
  9 37  1  0  0  0
  9 38  1  0  0  0
  9 39  1  0  0  0
 10 40  1  0  0  0
 10 41  1  0  0  0
 10 42  1  0  0  0
 12 43  1  0  0  0
 13 44  1  0  0  0
 13 45  1  0  0  0
 13 46  1  0  0  0
 14 47  1  0  0  0
 17 48  1  0  0  0
 17 49  1  0  0  0
 18 50  1  0  0  0
 19 51  1  0  0  0
 19 52  1  0  0  0
 20 53  1  0  0  0
 21 54  1  0  0  0
 21 55  1  0  0  0
 21 56  1  0  0  0
 23 57  1  0  0  0
 23 58  1  0  0  0
 23 59  1  0  0  0
 24 60  1  0  0  0
 27 61  1  0  0  0
 27 62  1  0  0  0
 28 63  1  0  0  0
 28 64  1  0  0  0
 29 65  1  0  0  0
 29 66  1  0  0  0
 29 67  1  0  0  0
M  END
$$$$
