6df1_ligand
  -I-interpret- 

 49 49  0  0  0  0  0  0  0  0999 V2000
    8.1620   20.1830   10.9150 N   0  3  0  0  0
    8.9800   21.2400   10.3700 C   0  0  0  0  0
    8.8230   21.4290    8.8780 C   0  0  0  0  0
    9.1910   20.5850    8.1220 O   0  0  0  0  0
   10.4150   20.9520   10.6930 C   0  0  0  0  0
   11.2300   22.1620   11.0200 C   0  0  0  0  0
   10.4710   23.0760   11.9510 C   0  0  0  0  0
   12.5090   21.7000   11.6680 C   0  0  0  0  0
    8.2640   22.5590    8.4850 N   0  0  0  0  0
    8.0660   22.8940    7.1010 C   0  0  0  0  0
    8.9380   24.0700    6.8180 C   0  0  0  0  0
    9.7650   23.9500    5.9200 O   0  0  0  0  0
    6.6210   23.2490    6.7860 C   0  0  0  0  0
    6.4870   23.5910    5.3330 C   0  0  0  0  0
    6.5360   24.9000    4.9450 C   0  0  0  0  0
    6.3220   22.6180    4.3850 C   0  0  0  0  0
    6.4300   25.2500    3.6380 C   0  0  0  0  0
    6.2170   22.9590    3.0630 C   0  0  0  0  0
    6.2690   24.2800    2.6840 C   0  0  0  0  0
    6.1490   24.5760    1.3790 O   0  0  0  0  0
    6.6940   25.8340    0.6720 P   0  0  0  0  0
    6.5560   25.4710   -0.7010 O   0  0  0  0  0
    5.8770   26.9330    1.1290 O   0  0  0  0  0
    8.0510   25.9040    1.1130 O   0  0  0  0  0
    8.7650   25.0720    7.5040 O   0  0  0  0  0
    7.1821   20.3684   10.7011 H   0  0  0  0  0
    8.4390   19.2927   10.5013 H   0  0  0  0  0
    8.2890   20.1435   11.9263 H   0  0  0  0  0
    8.6460   22.1708   10.8283 H   0  0  0  0  0
   10.8575   20.4987    9.8060 H   0  0  0  0  0
   10.4219   20.3137   11.5765 H   0  0  0  0  0
   11.4483   22.7223   10.1109 H   0  0  0  0  0
   10.2317   22.5398   12.8693 H   0  0  0  0  0
   11.0856   23.9450   12.1858 H   0  0  0  0  0
    9.5496   23.4009   11.4678 H   0  0  0  0  0
   13.1294   22.5651   11.9020 H   0  0  0  0  0
   12.2755   21.1599   12.5855 H   0  0  0  0  0
   13.0444   21.0418   10.9837 H   0  0  0  0  0
    7.9589   23.2242    9.1955 H   0  0  0  0  0
    8.3147   22.0315    6.4826 H   0  0  0  0  0
    9.6977   23.0710    5.5399 H   0  0  0  0  0
    6.3217   24.1075    7.3872 H   0  0  0  0  0
    5.9822   22.3962    7.0158 H   0  0  0  0  0
    6.6625   25.6772    5.6986 H   0  0  0  0  0
    6.2741   21.5705    4.6825 H   0  0  0  0  0
    6.4728   26.2999    3.3481 H   0  0  0  0  0
    6.0919   22.1816    2.3093 H   0  0  0  0  0
    6.0479   27.0916    2.0603 H   0  0  0  0  0
    8.0726   26.1517    2.0402 H   0  0  0  0  0
  1  2  1  0  0  0
  2  3  1  0  0  0
  2  5  1  0  0  0
  3  4  2  0  0  0
  3  9  1  0  0  0
  5  6  1  0  0  0
  6  7  1  0  0  0
  6  8  1  0  0  0
  9 10  1  0  0  0
 10 11  1  0  0  0
 10 13  1  0  0  0
 11 12  1  0  0  0
 11 25  2  0  0  0
 13 14  1  0  0  0
 14 15  4  0  0  0
 14 16  4  0  0  0
 15 17  4  0  0  0
 16 18  4  0  0  0
 17 19  4  0  0  0
 18 19  4  0  0  0
 19 20  1  0  0  0
 20 21  1  0  0  0
 21 22  2  0  0  0
 21 23  1  0  0  0
 21 24  1  0  0  0
  1 26  1  0  0  0
  1 27  1  0  0  0
  1 28  1  0  0  0
  2 29  1  0  0  0
  5 30  1  0  0  0
  5 31  1  0  0  0
  6 32  1  0  0  0
  7 33  1  0  0  0
  7 34  1  0  0  0
  7 35  1  0  0  0
  8 36  1  0  0  0
  8 37  1  0  0  0
  8 38  1  0  0  0
  9 39  1  0  0  0
 10 40  1  0  0  0
 12 41  1  0  0  0
 13 42  1  0  0  0
 13 43  1  0  0  0
 15 44  1  0  0  0
 16 45  1  0  0  0
 17 46  1  0  0  0
 18 47  1  0  0  0
 23 48  1  0  0  0
 24 49  1  0  0  0
M  END
$$$$
