### 
### Created by X-TOOL on Wed Jan  1 15:39:37 2020
### 

@<TRIPOS>MOLECULE
6df1_ligand
   46    46     1     0     0
SMALL
GAST_HUCK


@<TRIPOS>ATOM
      1 N           8.1620   20.1830   10.9150 N.4       1 LEU         0.2379
      2 CA          8.9800   21.2400   10.3700 C.3       1 LEU         0.0652
      3 C           8.8230   21.4290    8.8780 C.2       1 LEU         0.2264
      4 O           9.1910   20.5850    8.1220 O.2       1 LEU        -0.3908
      5 CB         10.4150   20.9520   10.6930 C.3       1 LEU         0.0102
      6 CG         11.2300   22.1620   11.0200 C.3       1 LEU        -0.0394
      7 CD1        10.4710   23.0760   11.9510 C.3       1 LEU        -0.0623
      8 CD2        12.5090   21.7000   11.6680 C.3       1 LEU        -0.0623
      9 N           8.2640   22.5590    8.4850 N.am      1 PTR        -0.2637
     10 CA          8.0660   22.8940    7.1010 C.3       1 PTR         0.1104
     11 C           8.9380   24.0700    6.8180 C.2       1 PTR         0.0635
     12 O           9.7650   23.9500    5.9200 O.co2     1 PTR        -0.5663
     13 CB          6.6210   23.2490    6.7860 C.3       1 PTR         0.0345
     14 CG          6.4870   23.5910    5.3330 C.ar      1 PTR        -0.0010
     15 CD1         6.5360   24.9000    4.9450 C.ar      1 PTR        -0.0239
     16 CD2         6.3220   22.6180    4.3850 C.ar      1 PTR        -0.0239
     17 CE1         6.4300   25.2500    3.6380 C.ar      1 PTR         0.0115
     18 CE2         6.2170   22.9590    3.0630 C.ar      1 PTR         0.0115
     19 CZ          6.2690   24.2800    2.6840 C.ar      1 PTR         0.1728
     20 OH          6.1490   24.5760    1.3790 O.3       1 PTR        -0.2040
     21 P           6.6940   25.8340    0.6720 P.3       1 PTR         0.1348
     22 O1P         6.5560   25.4710   -0.7010 O.co2     1 PTR        -0.6653
     23 O2P         5.8770   26.9330    1.1290 O.co2     1 PTR        -0.6653
     24 O3P         8.0510   25.9040    1.1130 O.co2     1 PTR        -0.6653
     25 OXT         8.7650   25.0720    7.5040 O.co2     1 PTR        -0.5663
     26 H1          8.3183   20.1155   11.9085 H         1 LEU         0.2015
     27 H2          8.4063   19.3089   10.4764 H         1 LEU         0.2015
     28 H3          7.1902   20.3864   10.7408 H         1 LEU         0.2015
     29 H4          8.6885   22.1808   10.8598 H         1 LEU         0.1098
     30 H5         10.8703   20.4555    9.8234 H         1 LEU         0.0348
     31 H6         10.4433   20.2741   11.5588 H         1 LEU         0.0348
     32 H7         11.4637   22.7078   10.0940 H         1 LEU         0.0299
     33 H8         11.0858   23.9590   12.1797 H         1 LEU         0.0232
     34 H9         10.2388   22.5396   12.8829 H         1 LEU         0.0232
     35 H10         9.5353   23.3956   11.4690 H         1 LEU         0.0232
     36 H11        13.0503   21.0357   10.9783 H         1 LEU         0.0232
     37 H12        12.2747   21.1547   12.5941 H         1 LEU         0.0232
     38 H13        13.1360   22.5722   11.9047 H         1 LEU         0.0232
     39 H14         7.9649   23.2112    9.1816 H         1 PTR         0.1879
     40 H15         8.3669   22.0424    6.4731 H         1 PTR         0.0766
     41 H16         6.3165   24.1136    7.3941 H         1 PTR         0.0577
     42 H17         5.9747   22.3902    7.0200 H         1 PTR         0.0577
     43 H18         6.6618   25.6730    5.6945 H         1 PTR         0.0703
     44 H19         6.2744   21.5763    4.6809 H         1 PTR         0.0703
     45 H20         6.4726   26.2941    3.3497 H         1 PTR         0.0736
     46 H21         6.0926   22.1859    2.3134 H         1 PTR         0.0736
@<TRIPOS>BOND
     1    1    2 1  
     2    2    3 1  
     3    2    5 1  
     4    3    4 2  
     5    3    9 am 
     6    5    6 1  
     7    6    7 1  
     8    6    8 1  
     9    9   10 1  
    10   10   11 1  
    11   10   13 1  
    12   11   12 ar 
    13   11   25 ar 
    14   13   14 1  
    15   14   15 ar 
    16   14   16 ar 
    17   15   17 ar 
    18   16   18 ar 
    19   17   19 ar 
    20   18   19 ar 
    21   19   20 1  
    22   20   21 1  
    23   21   22 ar 
    24   21   23 ar 
    25   21   24 ar 
    26    1   26 1  
    27    1   27 1  
    28    1   28 1  
    29    2   29 1  
    30    5   30 1  
    31    5   31 1  
    32    6   32 1  
    33    7   33 1  
    34    7   34 1  
    35    7   35 1  
    36    8   36 1  
    37    8   37 1  
    38    8   38 1  
    39    9   39 1  
    40   10   40 1  
    41   13   41 1  
    42   13   42 1  
    43   15   43 1  
    44   16   44 1  
    45   17   45 1  
    46   18   46 1  
@<TRIPOS>SUBSTRUCTURE
     1 LEU         1

