### 
### Created by X-TOOL on Mon Sep 10 21:13:25 2018
### 

@<TRIPOS>MOLECULE
4wx7_ligand
   54    55     1     0     0
SMALL
GAST_HUCK


@<TRIPOS>ATOM
      1 C1         33.6190   51.4690  -15.5630 C.ar      1 3VJ         0.1159
      2 C2         33.5810   50.2490  -14.8360 C.ar      1 3VJ         0.0598
      3 C3         33.1940   49.0590  -15.4970 C.ar      1 3VJ        -0.0318
      4 C12        32.4020   47.7780  -17.5580 C.2       1 3VJ         0.2002
      5 C13        35.5130   47.0430  -13.2640 C.ar      1 3VJ        -0.0251
      6 C14        35.2300   45.7310  -12.9000 C.ar      1 3VJ         0.0699
      7 C15        34.3840   45.4290  -11.8230 C.ar      1 3VJ        -0.0056
      8 C16        33.8100   46.4870  -11.1070 C.ar      1 3VJ         0.0699
      9 C17        34.1070   47.8160  -11.4770 C.ar      1 3VJ        -0.0251
     10 C22        31.1480   46.5520  -19.3100 C.3       1 3VJ         0.1195
     11 C23        29.8470   46.9510  -19.9400 C.2       1 3VJ         0.2013
     12 C26        29.5910   45.2390  -21.7900 C.3       1 3VJ         0.0897
     13 C27        34.0530   53.9780  -15.5580 C.3       1 3VJ         0.0625
     14 C28        36.4970   49.6750  -13.9590 C.3       1 3VJ        -0.0771
     15 C29        35.8020   50.3710  -11.6940 C.3       1 3VJ        -0.0771
     16 C30        28.3740   44.3880  -21.8270 C.2       1 3VJ         0.0176
     17 C4         32.8290   49.0610  -16.8640 C.ar      1 3VJ         0.0448
     18 C5         32.8560   50.2850  -17.5440 C.ar      1 3VJ        -0.0456
     19 C6         33.2450   51.4750  -16.9250 C.ar      1 3VJ        -0.0203
     20 C7         34.0200   50.2200  -13.3910 C.2       1 3VJ         0.1198
     21 C8         35.3110   49.5660  -12.9290 C.3       1 3VJ         0.0215
     22 O9         33.3750   50.7350  -12.5070 O.2       1 3VJ        -0.3517
     23 C10        34.9790   48.1150  -12.5440 C.ar      1 3VJ        -0.0397
     24 O11        33.9910   52.6670  -14.9130 O.3       1 3VJ        -0.3121
     25 CL1        35.9470   44.4600  -13.8510 Cl        1 3VJ        -0.0625
     26 CL2        32.7700   46.1810   -9.7330 Cl        1 3VJ        -0.0625
     27 N20        31.5660   47.7870  -18.6170 N.am      1 3VJ        -0.2691
     28 O21        32.8190   46.7270  -17.1180 O.2       1 3VJ        -0.3894
     29 O24        29.3260   47.9030  -19.4160 O.2       1 3VJ        -0.3946
     30 N25        29.2380   46.4150  -21.0190 N.am      1 3VJ        -0.2653
     31 N31        27.9660   43.9560  -22.8750 N.2       1 3VJ        -0.3621
     32 H1         33.1769   48.1265  -14.9445 H         1 3VJ         0.0697
     33 H2         36.1550   47.2363  -14.1158 H         1 3VJ         0.0856
     34 H3         34.1790   44.3999  -11.5509 H         1 3VJ         0.0870
     35 H4         33.6517   48.6304  -10.9251 H         1 3VJ         0.0856
     36 H5         31.8838   46.2568  -20.0725 H         1 3VJ         0.0763
     37 H6         31.0067   45.7260  -18.5975 H         1 3VJ         0.0763
     38 H7         29.8868   45.5262  -22.8098 H         1 3VJ         0.0803
     39 H8         30.4188   44.7000  -21.3061 H         1 3VJ         0.0803
     40 H9         34.3701   54.7332  -14.8238 H         1 3VJ         0.0584
     41 H10        33.0593   54.2416  -15.9492 H         1 3VJ         0.0584
     42 H11        34.7763   53.9454  -16.3861 H         1 3VJ         0.0584
     43 H12        36.6839   50.7336  -14.1922 H         1 3VJ         0.0132
     44 H13        36.2321   49.1376  -14.8815 H         1 3VJ         0.0132
     45 H14        37.4035   49.2301  -13.5229 H         1 3VJ         0.0132
     46 H15        35.0287   50.3505  -10.9119 H         1 3VJ         0.0132
     47 H16        35.9974   51.4125  -11.9892 H         1 3VJ         0.0132
     48 H17        36.7274   49.9199  -11.3065 H         1 3VJ         0.0132
     49 H18        27.8482   44.1536  -20.9026 H         1 3VJ         0.1222
     50 H19        32.5646   50.3097  -18.5878 H         1 3VJ         0.0680
     51 H20        33.2599   52.4009  -17.4885 H         1 3VJ         0.0570
     52 H21        31.2158   48.6643  -18.9453 H         1 3VJ         0.1871
     53 H22        28.4225   46.9012  -21.3331 H         1 3VJ         0.1894
     54 H23        27.1397   43.3790  -22.8948 H         1 3VJ         0.1054
@<TRIPOS>BOND
     1    2    1 ar 
     2    1   19 ar 
     3    1   24 1  
     4    2    3 ar 
     5   20    2 1  
     6    3   17 ar 
     7   17    4 1  
     8    4   27 am 
     9    4   28 2  
    10    5    6 ar 
    11   23    5 ar 
    12    6    7 ar 
    13    6   25 1  
    14    8    7 ar 
    15    9    8 ar 
    16    8   26 1  
    17   23    9 ar 
    18   10   11 1  
    19   27   10 1  
    20   11   29 2  
    21   11   30 am 
    22   12   16 1  
    23   30   12 1  
    24   24   13 1  
    25   21   14 1  
    26   21   15 1  
    27   16   31 2  
    28   17   18 ar 
    29   19   18 ar 
    30   21   20 1  
    31   20   22 2  
    32   21   23 1  
    33    3   32 1  
    34    5   33 1  
    35    7   34 1  
    36    9   35 1  
    37   10   36 1  
    38   10   37 1  
    39   12   38 1  
    40   12   39 1  
    41   13   40 1  
    42   13   41 1  
    43   13   42 1  
    44   14   43 1  
    45   14   44 1  
    46   14   45 1  
    47   15   46 1  
    48   15   47 1  
    49   15   48 1  
    50   16   49 1  
    51   18   50 1  
    52   19   51 1  
    53   27   52 1  
    54   30   53 1  
    55   31   54 1  
@<TRIPOS>SUBSTRUCTURE
     1 3VJ         1

