4wx7_ligand
  -I-interpret- 

 54 55  0  0  0  0  0  0  0  0999 V2000
   33.6190   51.4690  -15.5630 C   0  0  0  0  0
   33.5810   50.2490  -14.8360 C   0  0  0  0  0
   33.1940   49.0590  -15.4970 C   0  0  0  0  0
   32.4020   47.7780  -17.5580 C   0  0  0  0  0
   35.5130   47.0430  -13.2640 C   0  0  0  0  0
   35.2300   45.7310  -12.9000 C   0  0  0  0  0
   34.3840   45.4290  -11.8230 C   0  0  0  0  0
   33.8100   46.4870  -11.1070 C   0  0  0  0  0
   34.1070   47.8160  -11.4770 C   0  0  0  0  0
   31.1480   46.5520  -19.3100 C   0  0  0  0  0
   29.8470   46.9510  -19.9400 C   0  0  0  0  0
   29.5910   45.2390  -21.7900 C   0  0  0  0  0
   34.0530   53.9780  -15.5580 C   0  0  0  0  0
   36.4970   49.6750  -13.9590 C   0  0  0  0  0
   35.8020   50.3710  -11.6940 C   0  0  0  0  0
   28.3740   44.3880  -21.8270 C   0  0  0  0  0
   32.8290   49.0610  -16.8640 C   0  0  0  0  0
   32.8560   50.2850  -17.5440 C   0  0  0  0  0
   33.2450   51.4750  -16.9250 C   0  0  0  0  0
   34.0200   50.2200  -13.3910 C   0  0  0  0  0
   35.3110   49.5660  -12.9290 C   0  0  0  0  0
   33.3750   50.7350  -12.5070 O   0  0  0  0  0
   34.9790   48.1150  -12.5440 C   0  0  0  0  0
   33.9910   52.6670  -14.9130 O   0  0  0  0  0
   35.9470   44.4600  -13.8510 Cl  0  0  0  0  0
   32.7700   46.1810   -9.7330 Cl  0  0  0  0  0
   31.5660   47.7870  -18.6170 N   0  0  0  0  0
   32.8190   46.7270  -17.1180 O   0  0  0  0  0
   29.3260   47.9030  -19.4160 O   0  0  0  0  0
   29.2380   46.4150  -21.0190 N   0  0  0  0  0
   27.9660   43.9560  -22.8750 N   0  0  0  0  0
   33.1768   48.1214  -14.9414 H   0  0  0  0  0
   36.1586   47.2373  -14.1205 H   0  0  0  0  0
   34.1779   44.3942  -11.5494 H   0  0  0  0  0
   33.6492   48.6349  -10.9221 H   0  0  0  0  0
   31.8823   46.2027  -20.0359 H   0  0  0  0  0
   31.0508   45.6995  -18.6377 H   0  0  0  0  0
   29.9121   45.5100  -22.7958 H   0  0  0  0  0
   30.4283   44.7083  -21.3367 H   0  0  0  0  0
   34.7700   53.9444  -16.3783 H   0  0  0  0  0
   33.0678   54.2379  -15.9452 H   0  0  0  0  0
   34.3673   54.7254  -14.8295 H   0  0  0  0  0
   36.6737   50.7237  -14.1980 H   0  0  0  0  0
   37.3974   49.2440  -13.5213 H   0  0  0  0  0
   36.2379   49.1325  -14.8682 H   0  0  0  0  0
   36.7190   49.9231  -11.3111 H   0  0  0  0  0
   35.9953   51.4027  -11.9878 H   0  0  0  0  0
   35.0350   50.3499  -10.9198 H   0  0  0  0  0
   27.8477   44.1534  -20.9017 H   0  0  0  0  0
   32.5630   50.3098  -18.5936 H   0  0  0  0  0
   33.2599   52.4061  -17.4916 H   0  0  0  0  0
   31.2088   48.6818  -18.9519 H   0  0  0  0  0
   28.4062   46.9109  -21.3393 H   0  0  0  0  0
   28.4567   44.1741  -23.7422 H   0  0  0  0  0
  2  1  4  0  0  0
  1 19  4  0  0  0
  1 24  1  0  0  0
  2  3  4  0  0  0
 20  2  1  0  0  0
  3 17  4  0  0  0
 17  4  1  0  0  0
  4 27  1  0  0  0
  4 28  2  0  0  0
  5  6  4  0  0  0
 23  5  4  0  0  0
  6  7  4  0  0  0
  6 25  1  0  0  0
  8  7  4  0  0  0
  9  8  4  0  0  0
  8 26  1  0  0  0
 23  9  4  0  0  0
 10 11  1  0  0  0
 27 10  1  0  0  0
 11 29  2  0  0  0
 11 30  1  0  0  0
 12 16  1  0  0  0
 30 12  1  0  0  0
 24 13  1  0  0  0
 21 14  1  0  0  0
 21 15  1  0  0  0
 16 31  2  0  0  0
 17 18  4  0  0  0
 19 18  4  0  0  0
 21 20  1  0  0  0
 20 22  2  0  0  0
 21 23  1  0  0  0
  3 32  1  0  0  0
  5 33  1  0  0  0
  7 34  1  0  0  0
  9 35  1  0  0  0
 10 36  1  0  0  0
 10 37  1  0  0  0
 12 38  1  0  0  0
 12 39  1  0  0  0
 13 40  1  0  0  0
 13 41  1  0  0  0
 13 42  1  0  0  0
 14 43  1  0  0  0
 14 44  1  0  0  0
 14 45  1  0  0  0
 15 46  1  0  0  0
 15 47  1  0  0  0
 15 48  1  0  0  0
 16 49  1  0  0  0
 18 50  1  0  0  0
 19 51  1  0  0  0
 27 52  1  0  0  0
 30 53  1  0  0  0
 31 54  1  0  0  0
M  END
$$$$
