1xnx_ligand
  -I-interpret- 

 50 53  0  0  0  0  0  0  0  0999 V2000
   13.2040   26.3340   77.7700 O   0  0  0  0  0
   11.9670   26.3850   77.0590 C   0  0  0  0  0
   12.2530   27.1930   75.7730 C   0  0  0  0  0
   12.3650   28.7020   76.0320 C   0  0  0  0  0
   10.9860   26.9480   78.1110 C   0  0  0  0  0
   11.2160   28.4660   78.3170 C   0  0  0  0  0
   10.1940   28.9870   79.3460 C   0  0  0  0  0
   11.3020   29.3260   76.9900 C   0  0  0  0  0
    9.9350   29.2260   76.2150 C   0  0  0  0  0
   11.5190   30.8630   77.2590 C   0  0  0  0  0
   11.6170   31.7630   76.0000 C   0  0  0  0  0
   10.4320   31.3510   78.3060 C   0  0  0  0  0
   10.3320   30.4930   79.5950 C   0  0  0  0  0
   10.6110   32.8710   78.5900 C   0  0  0  0  0
    9.7350   33.6390   79.5780 C   0  0  0  0  0
   10.7240   33.7830   77.3240 C   0  0  0  0  0
   11.7670   33.2680   76.3070 C   0  0  0  0  0
    9.3690   33.9500   76.5540 C   0  0  0  0  0
   10.8660   35.0740   78.1100 C   0  0  0  0  0
   10.3450   35.0090   79.3560 C   0  0  0  0  0
   13.8899   25.9914   77.1923 H   0  0  0  0  0
   11.5174   25.4655   76.6844 H   0  0  0  0  0
   11.4221   27.0327   75.0860 H   0  0  0  0  0
   13.2061   26.8517   75.3691 H   0  0  0  0  0
   12.2207   29.1853   75.0657 H   0  0  0  0  0
   13.3310   28.8544   76.5133 H   0  0  0  0  0
   11.1522   26.4347   79.0581 H   0  0  0  0  0
    9.9657   26.7905   77.7613 H   0  0  0  0  0
   12.2206   28.5970   78.7192 H   0  0  0  0  0
   10.3724   28.4713   80.2896 H   0  0  0  0  0
    9.1946   28.8002   78.9532 H   0  0  0  0  0
    9.1377   29.6399   76.8323 H   0  0  0  0  0
   10.0046   29.7885   75.2840 H   0  0  0  0  0
    9.7197   28.1806   75.9941 H   0  0  0  0  0
   12.5167   30.9780   77.6825 H   0  0  0  0  0
   10.6877   31.6397   75.4439 H   0  0  0  0  0
   12.5092   31.4560   75.4543 H   0  0  0  0  0
    9.4590   31.1978   77.8391 H   0  0  0  0  0
   11.2584   30.6413   80.1499 H   0  0  0  0  0
    9.4335   30.8130   80.1226 H   0  0  0  0  0
   11.5510   32.7043   79.1161 H   0  0  0  0  0
    9.7466   33.2749   80.6053 H   0  0  0  0  0
    8.6597   33.5661   79.4153 H   0  0  0  0  0
   11.6197   33.8135   75.3749 H   0  0  0  0  0
   12.7560   33.4221   76.7385 H   0  0  0  0  0
    9.0174   32.9726   76.2237 H   0  0  0  0  0
    8.6290   34.3989   77.2166 H   0  0  0  0  0
    9.5216   34.5943   75.6881 H   0  0  0  0  0
   11.3426   35.9682   77.7082 H   0  0  0  0  0
   10.3611   35.8167   80.0877 H   0  0  0  0  0
  1  2  1  0  0  0
  2  3  1  0  0  0
  2  5  1  0  0  0
  3  4  1  0  0  0
  4  8  1  0  0  0
  5  6  1  0  0  0
  6  7  1  0  0  0
  6  8  1  0  0  0
  7 13  1  0  0  0
  8  9  1  0  0  0
  8 10  1  0  0  0
 10 11  1  0  0  0
 10 12  1  0  0  0
 11 17  1  0  0  0
 12 13  1  0  0  0
 12 14  1  0  0  0
 14 15  1  0  0  0
 14 16  1  0  0  0
 15 20  1  0  0  0
 16 17  1  0  0  0
 16 18  1  0  0  0
 16 19  1  0  0  0
 19 20  2  0  0  0
  1 21  1  0  0  0
  2 22  1  0  0  0
  3 23  1  0  0  0
  3 24  1  0  0  0
  4 25  1  0  0  0
  4 26  1  0  0  0
  5 27  1  0  0  0
  5 28  1  0  0  0
  6 29  1  0  0  0
  7 30  1  0  0  0
  7 31  1  0  0  0
  9 32  1  0  0  0
  9 33  1  0  0  0
  9 34  1  0  0  0
 10 35  1  0  0  0
 11 36  1  0  0  0
 11 37  1  0  0  0
 12 38  1  0  0  0
 13 39  1  0  0  0
 13 40  1  0  0  0
 14 41  1  0  0  0
 15 42  1  0  0  0
 15 43  1  0  0  0
 17 44  1  0  0  0
 17 45  1  0  0  0
 18 46  1  0  0  0
 18 47  1  0  0  0
 18 48  1  0  0  0
 19 49  1  0  0  0
 20 50  1  0  0  0
M  END
$$$$
