6sdd_ligand
  -I-interpret- 

 55 58  0  0  0  0  0  0  0  0999 V2000
   -9.5880   -4.7460    7.1810 C   0  0  0  0  0
  -11.2320   -6.5110    7.0760 C   0  0  0  0  0
  -14.0200   -6.0400   13.1730 C   0  0  0  0  0
  -14.4580   -6.5540   14.3830 C   0  0  0  0  0
   -8.5980   -5.6440    6.8120 C   0  0  0  0  0
  -10.2480   -7.4120    6.7080 C   0  0  0  0  0
  -17.1580   -8.3910   15.1180 C   0  0  0  0  0
  -15.8280   -4.4460   13.1800 C   0  0  0  0  0
  -17.7320   -9.6420   15.2660 C   0  0  0  0  0
  -10.9090   -5.1760    7.3180 C   0  0  0  0  0
  -14.6980   -4.9870   12.5650 C   0  0  0  0  0
  -15.5840   -6.0200   15.0010 C   0  0  0  0  0
  -16.6660   -7.7670   16.2590 C   0  0  0  0  0
   -8.9560   -6.9540    6.5860 C   0  0  0  0  0
  -16.2420   -4.9770   14.3790 C   0  0  0  0  0
  -16.7660   -8.4100   17.4970 C   0  0  0  0  0
  -17.3650   -9.6770   17.5480 C   0  0  0  0  0
  -13.1850   -2.2840    7.1050 C   0  0  0  0  0
  -12.2340   -3.1940    6.8320 C   0  0  0  0  0
  -13.6570   -3.4660    9.2400 C   0  0  0  0  0
  -13.9300   -2.4020    8.3310 C   0  0  0  0  0
  -12.6180   -4.4460    8.9290 C   0  0  0  0  0
  -14.4480   -3.5370   10.5040 C   0  0  0  0  0
  -16.3450   -0.9920    6.6320 C   0  0  0  0  0
  -15.2390   -0.4600    7.5050 C   0  0  0  0  0
  -17.8430  -10.2850   16.4390 N   0  0  0  0  0
  -11.9420   -4.2450    7.6980 N   0  0  0  0  0
  -17.4740  -10.3190   18.7140 N   0  0  0  0  0
  -14.1340   -4.5740   11.3320 N   0  0  0  0  0
  -12.3140   -5.3950    9.6510 O   0  0  0  0  0
  -15.3140   -2.7040   10.7640 O   0  0  0  0  0
  -16.0680   -6.5060   16.2150 O   0  0  0  0  0
  -14.8840   -1.4440    8.5400 O   0  0  0  0  0
   -7.9890   -7.8360    6.2240 F   0  0  0  0  0
  -17.3370   -4.4630   14.9860 F   0  0  0  0  0
  -16.1530   -7.6340   18.9050 Cl  0  0  0  0  0
   -9.3342   -3.7020    7.3645 H   0  0  0  0  0
  -12.2642   -6.8463    7.1772 H   0  0  0  0  0
  -13.1376   -6.4635   12.6934 H   0  0  0  0  0
  -13.9194   -7.3779   14.8512 H   0  0  0  0  0
   -7.5626   -5.3209    6.7036 H   0  0  0  0  0
  -10.4902   -8.4579    6.5196 H   0  0  0  0  0
  -17.0940   -7.9119   14.1411 H   0  0  0  0  0
  -16.3707   -3.6203   12.7198 H   0  0  0  0  0
  -18.1180  -10.1358   14.3742 H   0  0  0  0  0
  -13.3887   -1.4700    6.4093 H   0  0  0  0  0
  -11.6726   -3.1064    5.9018 H   0  0  0  0  0
  -16.0148   -1.9120    6.1496 H   0  0  0  0  0
  -17.2232   -1.1964    7.2445 H   0  0  0  0  0
  -16.5947   -0.2513    5.8723 H   0  0  0  0  0
  -15.5777    0.4566    7.9879 H   0  0  0  0  0
  -14.3629   -0.2628    6.8873 H   0  0  0  0  0
  -17.1214   -9.8878   19.5685 H   0  0  0  0  0
  -17.9098  -11.2405   18.7500 H   0  0  0  0  0
  -13.3591   -5.1527   11.0079 H   0  0  0  0  0
  1  5  4  0  0  0
 10  1  4  0  0  0
  2  6  4  0  0  0
 10  2  4  0  0  0
  3  4  4  0  0  0
 11  3  4  0  0  0
  4 12  4  0  0  0
  5 14  4  0  0  0
  6 14  4  0  0  0
  7  9  4  0  0  0
 13  7  4  0  0  0
 11  8  4  0  0  0
  8 15  4  0  0  0
  9 26  4  0  0  0
 27 10  1  0  0  0
 29 11  1  0  0  0
 15 12  4  0  0  0
 12 32  1  0  0  0
 13 16  4  0  0  0
 32 13  1  0  0  0
 14 34  1  0  0  0
 15 35  1  0  0  0
 16 17  4  0  0  0
 16 36  1  0  0  0
 17 26  4  0  0  0
 17 28  1  0  0  0
 18 19  2  0  0  0
 21 18  1  0  0  0
 19 27  1  0  0  0
 21 20  2  0  0  0
 20 22  1  0  0  0
 20 23  1  0  0  0
 33 21  1  0  0  0
 22 27  1  0  0  0
 22 30  2  0  0  0
 23 29  1  0  0  0
 23 31  2  0  0  0
 25 24  1  0  0  0
 25 33  1  0  0  0
  1 37  1  0  0  0
  2 38  1  0  0  0
  3 39  1  0  0  0
  4 40  1  0  0  0
  5 41  1  0  0  0
  6 42  1  0  0  0
  7 43  1  0  0  0
  8 44  1  0  0  0
  9 45  1  0  0  0
 18 46  1  0  0  0
 19 47  1  0  0  0
 24 48  1  0  0  0
 24 49  1  0  0  0
 24 50  1  0  0  0
 25 51  1  0  0  0
 25 52  1  0  0  0
 28 53  1  0  0  0
 28 54  1  0  0  0
 29 55  1  0  0  0
M  END
$$$$
