4hhz_ligand
  -I-interpret- 

 70 74  0  0  0  0  0  0  0  0999 V2000
  -34.9940   53.5700  -63.3930 O   0  0  0  0  0
  -35.4420   53.4960  -64.6590 C   0  0  0  0  0
  -35.5980   52.0180  -65.0170 N   0  3  0  0  0
  -36.2780   51.8500  -66.2980 C   0  0  0  0  0
  -37.6960   52.4870  -66.2440 C   0  0  0  0  0
  -37.7110   53.9110  -65.7010 C   0  0  0  0  0
  -36.6490   54.3570  -64.9250 C   0  0  0  0  0
  -36.6970   55.7420  -64.4020 C   0  0  0  0  0
  -37.7860   56.5620  -64.6590 C   0  0  0  0  0
  -38.8680   56.0880  -65.4270 C   0  0  0  0  0
  -38.8050   54.7110  -65.9500 C   0  0  0  0  0
  -39.9360   54.2050  -66.7560 C   0  0  0  0  0
  -39.5170   53.3210  -67.8590 C   0  0  0  0  0
  -38.5820   52.2510  -67.4910 N   0  3  0  0  0
  -39.0830   50.9360  -67.7440 C   0  0  0  0  0
  -38.8220   50.3780  -69.1310 C   0  0  0  0  0
  -38.8270   49.1730  -69.3270 O   0  0  0  0  0
  -38.5750   51.3370  -70.1850 N   0  0  0  0  0
  -38.3670   50.9460  -71.5320 C   0  0  0  0  0
  -39.0370   51.9220  -72.3390 C   0  0  0  0  0
  -36.8840   51.0110  -71.9150 C   0  0  0  0  0
  -36.4010   52.0790  -71.9620 O   0  0  0  0  0
  -36.1160   49.8080  -72.2550 N   0  0  0  0  0
  -34.6900   49.9260  -72.6350 C   0  0  0  0  0
  -34.2450   48.9980  -73.7070 C   0  0  0  0  0
  -36.6540   48.4790  -72.2260 C   0  0  0  0  0
  -36.1850   47.6100  -73.3550 C   0  0  0  0  0
  -35.4110   48.3980  -74.3680 C   0  0  0  0  0
  -35.0380   47.6390  -75.6660 C   0  0  0  0  0
  -33.8140   47.8800  -76.3360 C   0  0  0  0  0
  -33.5050   47.2120  -77.5040 C   0  0  0  0  0
  -34.4040   46.2870  -78.0230 C   0  0  0  0  0
  -34.1300   45.6540  -79.1210 F   0  0  0  0  0
  -35.6020   46.0570  -77.3820 C   0  0  0  0  0
  -35.9160   46.7500  -76.1900 C   0  0  0  0  0
  -34.2278   53.0005  -63.2921 H   0  0  0  0  0
  -34.7107   53.9323  -65.3394 H   0  0  0  0  0
  -36.1555   51.5659  -64.2923 H   0  0  0  0  0
  -34.6695   51.6013  -65.0857 H   0  0  0  0  0
  -36.3739   50.7858  -66.5131 H   0  0  0  0  0
  -35.6961   52.3424  -67.0771 H   0  0  0  0  0
  -38.2134   51.9021  -65.4835 H   0  0  0  0  0
  -35.8660   56.1217  -63.8076 H   0  0  0  0  0
  -37.8047   57.5781  -64.2648 H   0  0  0  0  0
  -39.7301   56.7235  -65.6294 H   0  0  0  0  0
  -40.4377   55.0665  -67.1968 H   0  0  0  0  0
  -40.5781   53.6240  -66.0941 H   0  0  0  0  0
  -38.9987   53.9510  -68.5819 H   0  0  0  0  0
  -40.4198   52.8320  -68.2249 H   0  0  0  0  0
  -37.8297   52.3204  -68.1763 H   0  0  0  0  0
  -40.1661   50.9962  -67.6379 H   0  0  0  0  0
  -38.5692   50.2741  -67.0469 H   0  0  0  0  0
  -38.5495   52.3295  -69.9512 H   0  0  0  0  0
  -38.7271   49.9267  -71.6716 H   0  0  0  0  0
  -40.0985   51.9294  -72.0916 H   0  0  0  0  0
  -38.6106   52.9063  -72.1454 H   0  0  0  0  0
  -38.9098   51.6703  -73.3919 H   0  0  0  0  0
  -34.1071   49.6823  -71.7468 H   0  0  0  0  0
  -34.5494   50.9372  -73.0167 H   0  0  0  0  0
  -33.6361   48.2080  -73.2674 H   0  0  0  0  0
  -33.6620   49.5527  -74.4422 H   0  0  0  0  0
  -37.7372   48.5654  -72.3112 H   0  0  0  0  0
  -36.3205   48.0140  -71.2983 H   0  0  0  0  0
  -37.0580   47.1793  -73.8455 H   0  0  0  0  0
  -35.5341   46.8360  -72.9482 H   0  0  0  0  0
  -36.0767   49.1777  -74.7381 H   0  0  0  0  0
  -33.1077   48.6012  -75.9248 H   0  0  0  0  0
  -32.5628   47.4084  -78.0157 H   0  0  0  0  0
  -36.3099   45.3385  -77.7952 H   0  0  0  0  0
  -36.8678   46.5683  -75.6909 H   0  0  0  0  0
  1  2  1  0  0  0
  2  3  1  0  0  0
  2  7  1  0  0  0
  3  4  1  0  0  0
  4  5  1  0  0  0
  5  6  1  0  0  0
  5 14  1  0  0  0
  6  7  4  0  0  0
  6 11  4  0  0  0
  7  8  4  0  0  0
  8  9  4  0  0  0
  9 10  4  0  0  0
 10 11  4  0  0  0
 11 12  1  0  0  0
 12 13  1  0  0  0
 13 14  1  0  0  0
 14 15  1  0  0  0
 15 16  1  0  0  0
 16 17  2  0  0  0
 16 18  1  0  0  0
 18 19  1  0  0  0
 19 20  1  0  0  0
 19 21  1  0  0  0
 21 22  2  0  0  0
 21 23  1  0  0  0
 23 24  1  0  0  0
 23 26  1  0  0  0
 24 25  1  0  0  0
 25 28  1  0  0  0
 26 27  1  0  0  0
 27 28  1  0  0  0
 28 29  1  0  0  0
 29 30  4  0  0  0
 29 35  4  0  0  0
 30 31  4  0  0  0
 31 32  4  0  0  0
 32 33  1  0  0  0
 32 34  4  0  0  0
 34 35  4  0  0  0
  1 36  1  0  0  0
  2 37  1  0  0  0
  3 38  1  0  0  0
  3 39  1  0  0  0
  4 40  1  0  0  0
  4 41  1  0  0  0
  5 42  1  0  0  0
  8 43  1  0  0  0
  9 44  1  0  0  0
 10 45  1  0  0  0
 12 46  1  0  0  0
 12 47  1  0  0  0
 13 48  1  0  0  0
 13 49  1  0  0  0
 14 50  1  0  0  0
 15 51  1  0  0  0
 15 52  1  0  0  0
 18 53  1  0  0  0
 19 54  1  0  0  0
 20 55  1  0  0  0
 20 56  1  0  0  0
 20 57  1  0  0  0
 24 58  1  0  0  0
 24 59  1  0  0  0
 25 60  1  0  0  0
 25 61  1  0  0  0
 26 62  1  0  0  0
 26 63  1  0  0  0
 27 64  1  0  0  0
 27 65  1  0  0  0
 28 66  1  0  0  0
 30 67  1  0  0  0
 31 68  1  0  0  0
 34 69  1  0  0  0
 35 70  1  0  0  0
M  END
$$$$
