1ilq_ligand
  -I-interpret- 

270276  0  0  0  0  0  0  0  0999 V2000
    7.7710   18.6340   -0.1480 C   0  0  0  0  0
    8.4090   17.7620   -0.7310 O   0  0  0  0  0
    6.9980   18.2970    1.1220 C   0  0  0  0  0
    7.7080   19.9050   -0.5650 N   0  0  0  0  0
    8.3230   20.4200   -1.7870 C   0  0  0  0  0
    9.8080   20.0610   -1.8860 C   0  0  0  0  0
   10.3030   19.7320   -2.9620 O   0  0  0  0  0
    8.1450   21.9440   -1.8470 C   0  0  0  0  0
    6.6720   22.3520   -1.9490 C   0  0  0  0  0
    6.4120   24.1440   -2.0240 S   0  0  0  0  0
    4.6030   24.1910   -2.1100 C   0  0  0  0  0
   10.5060   20.1260   -0.7470 N   0  0  0  0  0
   11.9370   19.8850   -0.6060 C   0  0  0  0  0
   12.3510   18.4520   -0.9710 C   0  0  0  0  0
   13.5430   18.1890   -1.1160 O   0  0  0  0  0
   12.3520   20.2250    0.8290 C   0  0  0  0  0
   11.9300   21.5850    1.3010 C   0  0  0  0  0
   12.6370   22.7260    1.1460 C   0  0  0  0  0
   10.6830   21.9780    1.9500 C   0  0  0  0  0
   11.9260   23.7940    1.6540 N   0  0  0  0  0
   10.7070   23.3880    2.1570 C   0  0  0  0  0
    9.5260   21.2870    2.3740 C   0  0  0  0  0
    9.6400   24.0770    2.7540 C   0  0  0  0  0
    8.4460   21.9700    2.9650 C   0  0  0  0  0
    8.5010   23.3610    3.1560 C   0  0  0  0  0
   11.3850   17.5360   -1.1250 N   0  0  0  0  0
   11.5970   16.1570   -1.5470 C   0  0  0  0  0
   12.3870   16.0500   -2.8550 C   0  0  0  0  0
   13.1220   15.0810   -3.0320 O   0  0  0  0  0
   10.2300   15.4830   -1.6940 C   0  0  0  0  0
   10.3200   14.0690   -2.2590 C   0  0  0  0  0
   10.7250   13.1720   -1.4880 O   0  0  0  0  0
    9.9820   13.9140   -3.4540 O   0  0  0  0  0
   12.2380   17.0230   -3.7640 N   0  0  0  0  0
   12.8600   17.0270   -5.0710 C   0  0  0  0  0
   14.3840   17.1350   -4.9810 C   0  0  0  0  0
   14.9820   17.1290   -3.9060 O   0  0  0  0  0
   12.2540   18.1660   -5.9150 C   0  0  0  0  0
   12.9430   19.5200   -5.8020 C   0  0  0  0  0
   13.1850   20.1030   -4.5430 C   0  0  0  0  0
   13.4490   20.1420   -6.9610 C   0  0  0  0  0
   13.9110   21.3020   -4.4450 C   0  0  0  0  0
   14.1850   21.3350   -6.8620 C   0  0  0  0  0
   14.4150   21.9160   -5.6040 C   0  0  0  0  0
   14.9930   17.2490   -6.1570 N   0  0  0  0  0
   16.4170   17.4440   -6.3620 C   0  0  0  0  0
   16.6010   18.3940   -7.5390 C   0  0  0  0  0
   15.8910   18.2920   -8.5380 O   0  0  0  0  0
   17.1150   16.1060   -6.6430 C   0  0  0  0  0
   17.1020   15.1860   -5.4260 C   0  0  0  0  0
   17.8850   15.4700   -4.4930 O   0  0  0  0  0
   16.3140   14.2170   -5.4470 O   0  0  0  0  0
   17.5600   19.3170   -7.4200 N   0  0  0  0  0
   17.9240   20.2570   -8.4710 C   0  0  0  0  0
   18.7870   19.5400   -9.5140 C   0  0  0  0  0
   19.9860   19.7940   -9.6200 O   0  0  0  0  0
   18.6490   21.4630   -7.8580 C   0  0  0  0  0
   17.7480   22.2350   -6.8970 C   0  0  0  0  0
   17.0480   23.1490   -7.3840 O   0  0  0  0  0
   17.7760   21.8960   -5.6930 O   0  0  0  0  0
   14.3920   15.0000  -10.1870 C   0  0  0  0  0
   14.5210   14.9840   -8.9650 O   0  0  0  0  0
   15.3350   14.1890  -11.0700 C   0  0  0  0  0
   16.1820   15.0870  -11.9800 C   0  0  0  0  0
   17.1080   15.9890  -11.1560 C   0  0  0  0  0
   17.8510   16.9720  -12.0670 C   0  0  0  0  0
   18.8490   17.8300  -11.2820 C   0  0  0  0  0
   18.1670   18.6370  -10.2830 N   0  0  0  0  0
   13.4520   15.7090  -10.8220 N   0  0  0  0  0
   12.5170   16.6080  -10.1660 C   0  0  0  0  0
   11.0800   16.2670  -10.5780 C   0  0  0  0  0
   10.7290   16.4350  -11.7450 O   0  0  0  0  0
   12.8800   18.0720  -10.4610 C   0  0  0  0  0
   13.1710   18.4120  -11.9290 C   0  0  0  0  0
   13.5370   20.1640  -12.2290 S   0  0  0  0  0
   15.0940   20.3520  -11.3240 C   0  0  0  0  0
   10.2390   15.7870   -9.6440 N   0  0  0  0  0
    8.8070   15.5850   -9.8380 C   0  0  0  0  0
    8.0650   16.8650  -10.2660 C   0  0  0  0  0
    8.6810   17.9180  -10.4270 O   0  0  0  0  0
    8.3010   15.0300   -8.5000 C   0  0  0  0  0
    9.5180   14.2970   -7.9610 C   0  0  0  0  0
   10.6360   15.2540   -8.3530 C   0  0  0  0  0
    6.7380   16.7890  -10.4570 N   0  0  0  0  0
    5.9340   17.8550  -11.0290 C   0  0  0  0  0
    6.0310   19.2200  -10.3550 C   0  0  0  0  0
    6.0930   19.3230   -9.1300 O   0  0  0  0  0
    4.4890   17.3680  -10.9650 C   0  0  0  0  0
    4.6020   15.8540  -10.9400 C   0  0  0  0  0
    5.9120   15.6210  -10.2040 C   0  0  0  0  0
    6.0200   20.2560  -11.2020 N   0  0  0  0  0
    5.8950   21.6600  -10.8300 C   0  0  0  0  0
    4.4960   22.1340  -11.2580 C   0  0  0  0  0
    4.2860   23.3080  -11.5580 O   0  0  0  0  0
    7.0090   22.4670  -11.5040 C   0  0  0  0  0
    3.5480   21.1880  -11.2830 N   0  0  0  0  0
    2.1580   21.2840  -11.7030 C   0  0  0  0  0
    1.4500   20.1350  -10.9920 C   0  0  0  0  0
    2.1160   19.1780  -10.5990 O   0  0  0  0  0
    2.0390   21.0650  -13.2180 C   0  0  0  0  0
    2.8000   22.1080  -14.0320 C   0  0  0  0  0
    2.2600   23.2270  -14.1700 O   0  0  0  0  0
    3.9090   21.7670  -14.5000 O   0  0  0  0  0
    0.1270   20.1900  -10.8150 N   0  0  0  0  0
   -0.5620   19.0990  -10.1420 C   0  0  0  0  0
   -2.0680   19.0960  -10.3900 C   0  0  0  0  0
   -2.8200   19.8670   -9.7990 O   0  0  0  0  0
   -0.1980   19.0390   -8.6520 C   0  0  0  0  0
   -0.2850   20.3940   -7.9350 C   0  0  0  0  0
    0.0620   20.2560   -6.4580 C   0  0  0  0  0
   -0.8640   19.9330   -5.6830 O   0  0  0  0  0
    1.2480   20.4750   -6.1280 O   0  0  0  0  0
   -2.4860   18.1920  -11.2800 N   0  0  0  0  0
   -3.8720   17.8520  -11.5530 C   0  0  0  0  0
   -3.8760   16.3610  -11.8970 C   0  0  0  0  0
   -4.4630   15.9360  -12.8890 O   0  0  0  0  0
   -4.4280   18.7420  -12.6740 C   0  0  0  0  0
   -5.9150   18.4880  -12.9250 C   0  0  0  0  0
   -6.6910   18.6470  -11.9580 O   0  0  0  0  0
   -6.2530   18.1390  -14.0770 O   0  0  0  0  0
   -3.1870   15.5740  -11.0590 N   0  0  0  0  0
   -2.9090   14.1610  -11.2670 C   0  0  0  0  0
   -3.3040   13.4040   -9.9930 C   0  0  0  0  0
   -2.5170   12.6220   -9.4620 O   0  0  0  0  0
   -1.4090   13.9900  -11.5790 C   0  0  0  0  0
   -0.7900   15.0390  -12.4910 C   0  0  0  0  0
   -1.2930   15.2500  -13.7900 C   0  0  0  0  0
    0.2980   15.8110  -12.0310 C   0  0  0  0  0
   -0.6780   16.1950  -14.6310 C   0  0  0  0  0
    0.8930   16.7720  -12.8640 C   0  0  0  0  0
    0.4060   16.9620  -14.1670 C   0  0  0  0  0
    0.9870   17.8930  -14.9780 O   0  0  0  0  0
   -4.5240   13.6580   -9.5020 N   0  0  0  0  0
   -5.0220   13.1800   -8.2180 C   0  0  0  0  0
   -6.1460   12.1520   -8.4130 C   0  0  0  0  0
   -7.3180   12.5140   -8.3260 O   0  0  0  0  0
   -5.5050   14.3840   -7.4010 C   0  0  0  0  0
   -4.4340   15.2780   -7.1750 O   0  0  0  0  0
   -5.8190   10.8740   -8.6720 N   0  0  0  0  0
   -6.7980    9.8070   -8.8290 C   0  0  0  0  0
   -7.4340    9.4580   -7.4790 C   0  0  0  0  0
   -6.8870    9.7700   -6.4220 O   0  0  0  0  0
   -6.0110    8.6250   -9.3990 C   0  0  0  0  0
   -4.6280    8.8310   -8.7930 C   0  0  0  0  0
   -4.4750   10.3460   -8.8160 C   0  0  0  0  0
   -8.5970    8.8050   -7.5060 N   0  0  0  0  0
    6.2547   17.5310    0.9009 H   0  0  0  0  0
    7.6892   17.9266    1.8790 H   0  0  0  0  0
    6.4993   19.1933    1.4909 H   0  0  0  0  0
    7.1905   20.5652    0.0153 H   0  0  0  0  0
    7.8219   19.9509   -2.6337 H   0  0  0  0  0
    8.6603   22.3106   -2.7348 H   0  0  0  0  0
    8.5515   22.3689   -0.9292 H   0  0  0  0  0
    6.1714   21.9885   -1.0516 H   0  0  0  0  0
    6.2809   21.9281   -2.8739 H   0  0  0  0  0
    4.2688   23.6556   -2.9987 H   0  0  0  0  0
    4.1859   23.7180   -1.2210 H   0  0  0  0  0
    4.2698   25.2275   -2.1619 H   0  0  0  0  0
    9.9905   20.3659    0.0998 H   0  0  0  0  0
   12.4568   20.5285   -1.3159 H   0  0  0  0  0
   13.4415   20.2047    0.8564 H   0  0  0  0  0
   11.8644   19.4990    1.4797 H   0  0  0  0  0
   13.6235   22.7930    0.6873 H   0  0  0  0  0
    9.4685   20.2066    2.2413 H   0  0  0  0  0
    9.6948   25.1553    2.9038 H   0  0  0  0  0
    7.5607   21.4157    3.2767 H   0  0  0  0  0
    7.6615   23.8830    3.6151 H   0  0  0  0  0
   10.4265   17.8265   -0.9318 H   0  0  0  0  0
   12.1976   15.6558   -0.7879 H   0  0  0  0  0
    9.6382   16.0805   -2.3874 H   0  0  0  0  0
    9.7844   15.4161   -0.7015 H   0  0  0  0  0
    9.7109   14.7587   -3.8209 H   0  0  0  0  0
   11.6452   17.8158   -3.5180 H   0  0  0  0  0
   12.6557   16.0746   -5.5602 H   0  0  0  0  0
   11.2366   18.3089   -5.5509 H   0  0  0  0  0
   12.3500   17.8596   -6.9566 H   0  0  0  0  0
   12.8074   19.6220   -3.6407 H   0  0  0  0  0
   13.2686   19.6956   -7.9389 H   0  0  0  0  0
   14.0833   21.7561   -3.4692 H   0  0  0  0  0
   14.5774   21.8095   -7.7614 H   0  0  0  0  0
   14.9840   22.8425   -5.5269 H   0  0  0  0  0
   14.4072   17.1946   -6.9903 H   0  0  0  0  0
   16.8648   17.8665   -5.4625 H   0  0  0  0  0
   18.1534   16.3119   -6.9028 H   0  0  0  0  0
   16.5815   15.6073   -7.4522 H   0  0  0  0  0
   18.3806   16.2597   -4.7219 H   0  0  0  0  0
   18.0691   19.3662   -6.5375 H   0  0  0  0  0
   17.0304   20.6298   -8.9717 H   0  0  0  0  0
   18.9439   22.1332   -8.6655 H   0  0  0  0  0
   19.5121   21.0982   -7.3013 H   0  0  0  0  0
   18.3940   21.1701   -5.5804 H   0  0  0  0  0
   14.7336   13.5342  -11.7006 H   0  0  0  0  0
   16.0083   13.6260  -10.4236 H   0  0  0  0  0
   15.5146   15.7164  -12.5687 H   0  0  0  0  0
   16.7930   14.4545  -12.6240 H   0  0  0  0  0
   17.8374   15.3673  -10.6368 H   0  0  0  0  0
   16.5085   16.5529  -10.4413 H   0  0  0  0  0
   17.1178   17.6338  -12.5281 H   0  0  0  0  0
   18.4028   16.3991  -12.8123 H   0  0  0  0  0
   19.3631   18.4938  -11.9772 H   0  0  0  0  0
   19.5560   17.1716  -10.7773 H   0  0  0  0  0
   17.1625   18.5080  -10.1618 H   0  0  0  0  0
   13.3870   15.6122  -11.8353 H   0  0  0  0  0
   12.5854   16.4758   -9.0862 H   0  0  0  0  0
   13.7996   18.2753   -9.9122 H   0  0  0  0  0
   12.0112   18.6655  -10.1764 H   0  0  0  0  0
   12.2744   18.1687  -12.4991 H   0  0  0  0  0
   14.0545   17.8444  -12.2213 H   0  0  0  0  0
   14.9325   20.1148  -10.2725 H   0  0  0  0  0
   15.8390   19.6740  -11.7405 H   0  0  0  0  0
   15.4445   21.3800  -11.4162 H   0  0  0  0  0
    8.6147   14.8969  -10.6612 H   0  0  0  0  0
    7.4297   14.3843   -8.6096 H   0  0  0  0  0
    7.9399   15.8072   -7.8265 H   0  0  0  0  0
    9.6392   13.2912   -8.3633 H   0  0  0  0  0
    9.4697   14.0920   -6.8915 H   0  0  0  0  0
   10.7695   16.0437   -7.6137 H   0  0  0  0  0
   11.6007   14.7491   -8.4038 H   0  0  0  0  0
    6.3120   18.0363  -12.0351 H   0  0  0  0  0
    3.8999   17.7209  -11.8115 H   0  0  0  0  0
    3.9649   17.7541  -10.0907 H   0  0  0  0  0
    4.5933   15.4132  -11.9369 H   0  0  0  0  0
    3.7527   15.3750  -10.4528 H   0  0  0  0  0
    5.7419   15.4862   -9.1358 H   0  0  0  0  0
    6.4014   14.7124  -10.5547 H   0  0  0  0  0
    6.1068   20.0445  -12.1961 H   0  0  0  0  0
    6.0019   21.8015   -9.7545 H   0  0  0  0  0
    7.9780   22.0887  -11.1783 H   0  0  0  0  0
    6.9239   22.3679  -12.5861 H   0  0  0  0  0
    6.9150   23.5166  -11.2255 H   0  0  0  0  0
    3.8433   20.2664  -10.9608 H   0  0  0  0  0
    1.7377   22.2616  -11.4672 H   0  0  0  0  0
    0.9845   21.1412  -13.4830 H   0  0  0  0  0
    2.4656   20.0885  -13.4472 H   0  0  0  0  0
    4.0943   20.8585  -14.2513 H   0  0  0  0  0
   -0.3998   20.9961  -11.1513 H   0  0  0  0  0
   -0.2017   18.1745  -10.5931 H   0  0  0  0  0
    0.8365   18.7024   -8.5844 H   0  0  0  0  0
   -0.9123   18.3711   -8.1705 H   0  0  0  0  0
   -1.3049   20.7689   -8.0202 H   0  0  0  0  0
    0.4249   21.0797   -8.3976 H   0  0  0  0  0
    1.7587   20.7050   -6.9077 H   0  0  0  0  0
   -1.7709   17.6980  -11.8138 H   0  0  0  0  0
   -4.5271   18.0308  -10.7003 H   0  0  0  0  0
   -3.8843   18.5140  -13.5908 H   0  0  0  0  0
   -4.3065   19.7828  -12.3740 H   0  0  0  0  0
   -5.4744   18.0887  -14.6363 H   0  0  0  0  0
   -2.8279   16.0008  -10.2050 H   0  0  0  0  0
   -3.4794   13.7622  -12.1059 H   0  0  0  0  0
   -1.3127   13.0377  -12.1004 H   0  0  0  0  0
   -0.8881   14.0700  -10.6249 H   0  0  0  0  0
   -2.1551   14.6833  -14.1418 H   0  0  0  0  0
    0.6795   15.6601  -11.0211 H   0  0  0  0  0
   -1.0436   16.3338  -15.6484 H   0  0  0  0  0
    1.7299   17.3683  -12.5004 H   0  0  0  0  0
    1.7057   18.3217  -14.5076 H   0  0  0  0  0
   -5.1515   14.2285  -10.0688 H   0  0  0  0  0
   -4.2204   12.6757   -7.6784 H   0  0  0  0  0
   -5.8885   14.0353   -6.4422 H   0  0  0  0  0
   -6.2909   14.8993   -7.9533 H   0  0  0  0  0
   -4.7469   16.0275   -6.6632 H   0  0  0  0  0
   -7.6200   10.0922   -9.4855 H   0  0  0  0  0
   -6.0020    8.6021  -10.4887 H   0  0  0  0  0
   -6.4486    7.6586   -9.1488 H   0  0  0  0  0
   -3.8412    8.3157   -9.3439 H   0  0  0  0  0
   -4.5351    8.4093   -7.7922 H   0  0  0  0  0
   -3.8216   10.6935   -8.0157 H   0  0  0  0  0
   -4.0093   10.6863   -9.7409 H   0  0  0  0  0
   -9.0590    8.5497   -6.6332 H   0  0  0  0  0
   -9.0243    8.5610   -8.3995 H   0  0  0  0  0
  1  2  2  0  0  0
  1  3  1  0  0  0
  4  1  1  0  0  0
  5  4  1  0  0  0
  6  5  1  0  0  0
  5  8  1  0  0  0
  6  7  2  0  0  0
 12  6  1  0  0  0
  8  9  1  0  0  0
  9 10  1  0  0  0
 10 11  1  0  0  0
 13 12  1  0  0  0
 14 13  1  0  0  0
 13 16  1  0  0  0
 14 15  2  0  0  0
 26 14  1  0  0  0
 16 17  1  0  0  0
 17 18  4  0  0  0
 17 19  4  0  0  0
 18 20  4  0  0  0
 19 21  4  0  0  0
 19 22  4  0  0  0
 21 20  4  0  0  0
 21 23  4  0  0  0
 22 24  4  0  0  0
 23 25  4  0  0  0
 24 25  4  0  0  0
 27 26  1  0  0  0
 28 27  1  0  0  0
 27 30  1  0  0  0
 28 29  2  0  0  0
 34 28  1  0  0  0
 30 31  1  0  0  0
 31 32  2  0  0  0
 31 33  1  0  0  0
 35 34  1  0  0  0
 36 35  1  0  0  0
 35 38  1  0  0  0
 36 37  2  0  0  0
 45 36  1  0  0  0
 38 39  1  0  0  0
 39 40  4  0  0  0
 39 41  4  0  0  0
 40 42  4  0  0  0
 41 43  4  0  0  0
 42 44  4  0  0  0
 43 44  4  0  0  0
 46 45  1  0  0  0
 47 46  1  0  0  0
 46 49  1  0  0  0
 47 48  2  0  0  0
 53 47  1  0  0  0
 49 50  1  0  0  0
 50 51  1  0  0  0
 50 52  2  0  0  0
 54 53  1  0  0  0
 55 54  1  0  0  0
 54 57  1  0  0  0
 55 56  2  0  0  0
 68 55  1  0  0  0
 57 58  1  0  0  0
 58 59  2  0  0  0
 58 60  1  0  0  0
 61 62  2  0  0  0
 63 61  1  0  0  0
 61 69  1  0  0  0
 64 63  1  0  0  0
 65 64  1  0  0  0
 66 65  1  0  0  0
 67 66  1  0  0  0
 67 68  1  0  0  0
 69 70  1  0  0  0
 70 71  1  0  0  0
 70 73  1  0  0  0
 71 72  2  0  0  0
 71 77  1  0  0  0
 73 74  1  0  0  0
 74 75  1  0  0  0
 75 76  1  0  0  0
 77 78  1  0  0  0
 77 83  1  0  0  0
 78 79  1  0  0  0
 78 81  1  0  0  0
 79 80  2  0  0  0
 79 84  1  0  0  0
 81 82  1  0  0  0
 82 83  1  0  0  0
 84 85  1  0  0  0
 84 90  1  0  0  0
 85 86  1  0  0  0
 85 88  1  0  0  0
 86 87  2  0  0  0
 86 91  1  0  0  0
 88 89  1  0  0  0
 89 90  1  0  0  0
 91 92  1  0  0  0
 92 93  1  0  0  0
 92 95  1  0  0  0
 93 94  2  0  0  0
 93 96  1  0  0  0
 96 97  1  0  0  0
 97 98  1  0  0  0
 97100  1  0  0  0
 98 99  2  0  0  0
 98104  1  0  0  0
100101  1  0  0  0
101102  2  0  0  0
101103  1  0  0  0
104105  1  0  0  0
105106  1  0  0  0
105108  1  0  0  0
106107  2  0  0  0
106113  1  0  0  0
108109  1  0  0  0
109110  1  0  0  0
110111  2  0  0  0
110112  1  0  0  0
113114  1  0  0  0
114115  1  0  0  0
114117  1  0  0  0
115116  2  0  0  0
115121  1  0  0  0
117118  1  0  0  0
118119  2  0  0  0
118120  1  0  0  0
121122  1  0  0  0
122123  1  0  0  0
122125  1  0  0  0
123124  2  0  0  0
123133  1  0  0  0
125126  1  0  0  0
126127  4  0  0  0
126128  4  0  0  0
127129  4  0  0  0
128130  4  0  0  0
129131  4  0  0  0
130131  4  0  0  0
131132  1  0  0  0
133134  1  0  0  0
134135  1  0  0  0
134137  1  0  0  0
135136  2  0  0  0
135139  1  0  0  0
137138  1  0  0  0
139140  1  0  0  0
139145  1  0  0  0
140141  1  0  0  0
140143  1  0  0  0
141142  2  0  0  0
141146  1  0  0  0
143144  1  0  0  0
144145  1  0  0  0
  3147  1  0  0  0
  3148  1  0  0  0
  3149  1  0  0  0
  4150  1  0  0  0
  5151  1  0  0  0
  8152  1  0  0  0
  8153  1  0  0  0
  9154  1  0  0  0
  9155  1  0  0  0
 11156  1  0  0  0
 11157  1  0  0  0
 11158  1  0  0  0
 12159  1  0  0  0
 13160  1  0  0  0
 16161  1  0  0  0
 16162  1  0  0  0
 18163  1  0  0  0
 22164  1  0  0  0
 23165  1  0  0  0
 24166  1  0  0  0
 25167  1  0  0  0
 26168  1  0  0  0
 27169  1  0  0  0
 30170  1  0  0  0
 30171  1  0  0  0
 33172  1  0  0  0
 34173  1  0  0  0
 35174  1  0  0  0
 38175  1  0  0  0
 38176  1  0  0  0
 40177  1  0  0  0
 41178  1  0  0  0
 42179  1  0  0  0
 43180  1  0  0  0
 44181  1  0  0  0
 45182  1  0  0  0
 46183  1  0  0  0
 49184  1  0  0  0
 49185  1  0  0  0
 51186  1  0  0  0
 53187  1  0  0  0
 54188  1  0  0  0
 57189  1  0  0  0
 57190  1  0  0  0
 60191  1  0  0  0
 63192  1  0  0  0
 63193  1  0  0  0
 64194  1  0  0  0
 64195  1  0  0  0
 65196  1  0  0  0
 65197  1  0  0  0
 66198  1  0  0  0
 66199  1  0  0  0
 67200  1  0  0  0
 67201  1  0  0  0
 68202  1  0  0  0
 69203  1  0  0  0
 70204  1  0  0  0
 73205  1  0  0  0
 73206  1  0  0  0
 74207  1  0  0  0
 74208  1  0  0  0
 76209  1  0  0  0
 76210  1  0  0  0
 76211  1  0  0  0
 78212  1  0  0  0
 81213  1  0  0  0
 81214  1  0  0  0
 82215  1  0  0  0
 82216  1  0  0  0
 83217  1  0  0  0
 83218  1  0  0  0
 85219  1  0  0  0
 88220  1  0  0  0
 88221  1  0  0  0
 89222  1  0  0  0
 89223  1  0  0  0
 90224  1  0  0  0
 90225  1  0  0  0
 91226  1  0  0  0
 92227  1  0  0  0
 95228  1  0  0  0
 95229  1  0  0  0
 95230  1  0  0  0
 96231  1  0  0  0
 97232  1  0  0  0
100233  1  0  0  0
100234  1  0  0  0
103235  1  0  0  0
104236  1  0  0  0
105237  1  0  0  0
108238  1  0  0  0
108239  1  0  0  0
109240  1  0  0  0
109241  1  0  0  0
112242  1  0  0  0
113243  1  0  0  0
114244  1  0  0  0
117245  1  0  0  0
117246  1  0  0  0
120247  1  0  0  0
121248  1  0  0  0
122249  1  0  0  0
125250  1  0  0  0
125251  1  0  0  0
127252  1  0  0  0
128253  1  0  0  0
129254  1  0  0  0
130255  1  0  0  0
132256  1  0  0  0
133257  1  0  0  0
134258  1  0  0  0
137259  1  0  0  0
137260  1  0  0  0
138261  1  0  0  0
140262  1  0  0  0
143263  1  0  0  0
143264  1  0  0  0
144265  1  0  0  0
144266  1  0  0  0
145267  1  0  0  0
145268  1  0  0  0
146269  1  0  0  0
146270  1  0  0  0
M  END
$$$$
