### 
### Created by X-TOOL on Mon Sep 10 21:12:46 2018
### 

@<TRIPOS>MOLECULE
1ilq_ligand
  265   271     1     0     0
SMALL
GAST_HUCK


@<TRIPOS>ATOM
      1 C           7.7710   18.6340   -0.1480 C.2       1 ACE         0.1751
      2 O           8.4090   17.7620   -0.7310 O.2       1 ACE        -0.3972
      3 CH3         6.9980   18.2970    1.1220 C.3       1 ACE         0.0258
      4 N           7.7080   19.9050   -0.5650 N.am      1 MET        -0.2658
      5 CA          8.3230   20.4200   -1.7870 C.3       1 MET         0.1316
      6 C           9.8080   20.0610   -1.8860 C.2       1 MET         0.2040
      7 O          10.3030   19.7320   -2.9620 O.2       1 MET        -0.3944
      8 CB          8.1450   21.9440   -1.8470 C.3       1 MET        -0.0034
      9 CG          6.6720   22.3520   -1.9490 C.3       1 MET        -0.0024
     10 SD          6.4120   24.1440   -2.0240 S.3       1 MET        -0.1639
     11 CE          4.6030   24.1910   -2.1100 C.3       1 MET        -0.0181
     12 N          10.5060   20.1260   -0.7470 N.am      1 TRP        -0.2627
     13 CA         11.9370   19.8850   -0.6060 C.3       1 TRP         0.1352
     14 C          12.3510   18.4520   -0.9710 C.2       1 TRP         0.2052
     15 O          13.5430   18.1890   -1.1160 O.2       1 TRP        -0.3942
     16 CB         12.3520   20.2250    0.8290 C.3       1 TRP         0.0042
     17 CG         11.9300   21.5850    1.3010 C.2       1 TRP        -0.0418
     18 CD1        12.6370   22.7260    1.1460 C.2       1 TRP         0.0167
     19 CD2        10.6830   21.9780    1.9500 C.ar      1 TRP        -0.0214
     20 NE1        11.9260   23.7940    1.6540 N.pl3     1 TRP        -0.2890
     21 CE2        10.7070   23.3880    2.1570 C.ar      1 TRP         0.0603
     22 CE3         9.5260   21.2870    2.3740 C.ar      1 TRP        -0.0747
     23 CZ2         9.6400   24.0770    2.7540 C.ar      1 TRP        -0.0443
     24 CZ3         8.4460   21.9700    2.9650 C.ar      1 TRP        -0.0792
     25 CH2         8.5010   23.3610    3.1560 C.ar      1 TRP        -0.0768
     26 N          11.3850   17.5360   -1.1250 N.am      1 ASP        -0.2621
     27 CA         11.5970   16.1570   -1.5470 C.3       1 ASP         0.1423
     28 C          12.3870   16.0500   -2.8550 C.2       1 ASP         0.2057
     29 O          13.1220   15.0810   -3.0320 O.2       1 ASP        -0.3943
     30 CB         10.2300   15.4830   -1.6940 C.3       1 ASP         0.0406
     31 CG         10.3200   14.0690   -2.2590 C.2       1 ASP         0.0393
     32 OD1        10.7250   13.1720   -1.4880 O.co2     1 ASP        -0.5688
     33 OD2         9.9820   13.9140   -3.4540 O.co2     1 ASP        -0.5688
     34 N          12.2380   17.0230   -3.7640 N.am      1 PHE        -0.2618
     35 CA         12.8600   17.0270   -5.0710 C.3       1 PHE         0.1404
     36 C          14.3840   17.1350   -4.9810 C.2       1 PHE         0.2060
     37 O          14.9820   17.1290   -3.9060 O.2       1 PHE        -0.3942
     38 CB         12.2540   18.1660   -5.9150 C.3       1 PHE         0.0214
     39 CG         12.9430   19.5200   -5.8020 C.ar      1 PHE        -0.0386
     40 CD1        13.1850   20.1030   -4.5430 C.ar      1 PHE        -0.0601
     41 CD2        13.4490   20.1420   -6.9610 C.ar      1 PHE        -0.0601
     42 CE1        13.9110   21.3020   -4.4450 C.ar      1 PHE        -0.0686
     43 CE2        14.1850   21.3350   -6.8620 C.ar      1 PHE        -0.0686
     44 CZ         14.4150   21.9160   -5.6040 C.ar      1 PHE        -0.0687
     45 N          14.9930   17.2490   -6.1570 N.am      1 ASP        -0.2620
     46 CA         16.4170   17.4440   -6.3620 C.3       1 ASP         0.1423
     47 C          16.6010   18.3940   -7.5390 C.2       1 ASP         0.2057
     48 O          15.8910   18.2920   -8.5380 O.2       1 ASP        -0.3943
     49 CB         17.1150   16.1060   -6.6430 C.3       1 ASP         0.0406
     50 CG         17.1020   15.1860   -5.4260 C.2       1 ASP         0.0393
     51 OD1        17.8850   15.4700   -4.4930 O.co2     1 ASP        -0.5688
     52 OD2        16.3140   14.2170   -5.4470 O.co2     1 ASP        -0.5688
     53 N          17.5600   19.3170   -7.4200 N.am      1 ASP        -0.2621
     54 CA         17.9240   20.2570   -8.4710 C.3       1 ASP         0.1421
     55 C          18.7870   19.5400   -9.5140 C.2       1 ASP         0.2034
     56 O          19.9860   19.7940   -9.6200 O.2       1 ASP        -0.3944
     57 CB         18.6490   21.4630   -7.8580 C.3       1 ASP         0.0406
     58 CG         17.7480   22.2350   -6.8970 C.2       1 ASP         0.0393
     59 OD1        17.0480   23.1490   -7.3840 O.co2     1 ASP        -0.5688
     60 OD2        17.7760   21.8960   -5.6930 O.co2     1 ASP        -0.5688
     61 C1         14.3920   15.0000  -10.1870 C.2       1 ACA         0.1782
     62 O1         14.5210   14.9840   -8.9650 O.2       1 ACA        -0.3969
     63 C2         15.3350   14.1890  -11.0700 C.3       1 ACA         0.0374
     64 C3         16.1820   15.0870  -11.9800 C.3       1 ACA        -0.0360
     65 C4         17.1080   15.9890  -11.1560 C.3       1 ACA        -0.0492
     66 C5         17.8510   16.9720  -12.0670 C.3       1 ACA        -0.0326
     67 C6         18.8490   17.8300  -11.2820 C.3       1 ACA         0.0310
     68 N6         18.1670   18.6370  -10.2830 N.am      1 ACA        -0.2850
     69 N          13.4520   15.7090  -10.8220 N.am      1 MET        -0.2656
     70 CA         12.5170   16.6080  -10.1660 C.3       1 MET         0.1318
     71 C          11.0800   16.2670  -10.5780 C.2       1 MET         0.2064
     72 O          10.7290   16.4350  -11.7450 O.2       1 MET        -0.3942
     73 CB         12.8800   18.0720  -10.4610 C.3       1 MET        -0.0034
     74 CG         13.1710   18.4120  -11.9290 C.3       1 MET        -0.0024
     75 SD         13.5370   20.1640  -12.2290 S.3       1 MET        -0.1639
     76 CE         15.0940   20.3520  -11.3240 C.3       1 MET        -0.0181
     77 N          10.2390   15.7870   -9.6440 N.am      1 PRO        -0.2498
     78 CA          8.8070   15.5850   -9.8380 C.3       1 PRO         0.1340
     79 C           8.0650   16.8650  -10.2660 C.2       1 PRO         0.2066
     80 O           8.6810   17.9180  -10.4270 O.2       1 PRO        -0.3942
     81 CB          8.3010   15.0300   -8.5000 C.3       1 PRO        -0.0104
     82 CG          9.5180   14.2970   -7.9610 C.3       1 PRO        -0.0281
     83 CD         10.6360   15.2540   -8.3530 C.3       1 PRO         0.0369
     84 N           6.7380   16.7890  -10.4570 N.am      1 PRO        -0.2498
     85 CA          5.9340   17.8550  -11.0290 C.3       1 PRO         0.1338
     86 C           6.0310   19.2200  -10.3550 C.2       1 PRO         0.2041
     87 O           6.0930   19.3230   -9.1300 O.2       1 PRO        -0.3944
     88 CB          4.4890   17.3680  -10.9650 C.3       1 PRO        -0.0104
     89 CG          4.6020   15.8540  -10.9400 C.3       1 PRO        -0.0281
     90 CD          5.9120   15.6210  -10.2040 C.3       1 PRO         0.0369
     91 N           6.0200   20.2560  -11.2020 N.am      1 ALA        -0.2640
     92 CA          5.8950   21.6600  -10.8300 C.3       1 ALA         0.1282
     93 C           4.4960   22.1340  -11.2580 C.2       1 ALA         0.2037
     94 O           4.2860   23.3080  -11.5580 O.2       1 ALA        -0.3944
     95 CB          7.0090   22.4670  -11.5040 C.3       1 ALA        -0.0244
     96 N           3.5480   21.1880  -11.2830 N.am      1 ASP        -0.2622
     97 CA          2.1580   21.2840  -11.7030 C.3       1 ASP         0.1423
     98 C           1.4500   20.1350  -10.9920 C.2       1 ASP         0.2056
     99 O           2.1160   19.1780  -10.5990 O.2       1 ASP        -0.3943
    100 CB          2.0390   21.0650  -13.2180 C.3       1 ASP         0.0406
    101 CG          2.8000   22.1080  -14.0320 C.2       1 ASP         0.0393
    102 OD1         2.2600   23.2270  -14.1700 O.co2     1 ASP        -0.5688
    103 OD2         3.9090   21.7670  -14.5000 O.co2     1 ASP        -0.5688
    104 N           0.1270   20.1900  -10.8150 N.am      1 GLU        -0.2635
    105 CA         -0.5620   19.0990  -10.1420 C.3       1 GLU         0.1325
    106 C          -2.0680   19.0960  -10.3900 C.2       1 GLU         0.2041
    107 O          -2.8200   19.8670   -9.7990 O.2       1 GLU        -0.3944
    108 CB         -0.1980   19.0390   -8.6520 C.3       1 GLU        -0.0008
    109 CG         -0.2850   20.3940   -7.9350 C.3       1 GLU         0.0044
    110 CD          0.0620   20.2560   -6.4580 C.2       1 GLU         0.0350
    111 OE1        -0.8640   19.9330   -5.6830 O.co2     1 GLU        -0.5690
    112 OE2         1.2480   20.4750   -6.1280 O.co2     1 GLU        -0.5690
    113 N          -2.4860   18.1920  -11.2800 N.am      1 ASP        -0.2622
    114 CA         -3.8720   17.8520  -11.5530 C.3       1 ASP         0.1423
    115 C          -3.8760   16.3610  -11.8970 C.2       1 ASP         0.2057
    116 O          -4.4630   15.9360  -12.8890 O.2       1 ASP        -0.3943
    117 CB         -4.4280   18.7420  -12.6740 C.3       1 ASP         0.0406
    118 CG         -5.9150   18.4880  -12.9250 C.2       1 ASP         0.0393
    119 OD1        -6.6910   18.6470  -11.9580 O.co2     1 ASP        -0.5688
    120 OD2        -6.2530   18.1390  -14.0770 O.co2     1 ASP        -0.5688
    121 N          -3.1870   15.5740  -11.0590 N.am      1 TYR        -0.2620
    122 CA         -2.9090   14.1610  -11.2670 C.3       1 TYR         0.1390
    123 C          -3.3040   13.4040   -9.9930 C.2       1 TYR         0.2058
    124 O          -2.5170   12.6220   -9.4620 O.2       1 TYR        -0.3942
    125 CB         -1.4090   13.9900  -11.5790 C.3       1 TYR         0.0163
    126 CG         -0.7900   15.0390  -12.4910 C.ar      1 TYR        -0.0493
    127 CD1        -1.2930   15.2500  -13.7900 C.ar      1 TYR        -0.0685
    128 CD2         0.2980   15.8110  -12.0310 C.ar      1 TYR        -0.0685
    129 CE1        -0.6780   16.1950  -14.6310 C.ar      1 TYR        -0.0398
    130 CE2         0.8930   16.7720  -12.8640 C.ar      1 TYR        -0.0398
    131 CZ          0.4060   16.9620  -14.1670 C.ar      1 TYR         0.0805
    132 OH          0.9870   17.8930  -14.9780 O.3       1 TYR        -0.3376
    133 N          -4.5240   13.6580   -9.5020 N.am      1 SER        -0.2614
    134 CA         -5.0220   13.1800   -8.2180 C.3       1 SER         0.1541
    135 C          -6.1460   12.1520   -8.4130 C.2       1 SER         0.2087
    136 O          -7.3180   12.5140   -8.3260 O.2       1 SER        -0.3941
    137 CB         -5.5050   14.3840   -7.4010 C.3       1 SER         0.0843
    138 OG         -4.4340   15.2780   -7.1750 O.3       1 SER        -0.3903
    139 N          -5.8190   10.8740   -8.6720 N.am      1 PRO        -0.2498
    140 CA         -6.7980    9.8070   -8.8290 C.3       1 PRO         0.1334
    141 C          -7.4340    9.4580   -7.4790 C.2       1 PRO         0.1994
    142 O          -6.8870    9.7700   -6.4220 O.2       1 PRO        -0.3947
    143 CB         -6.0110    8.6250   -9.3990 C.3       1 PRO        -0.0104
    144 CG         -4.6280    8.8310   -8.7930 C.3       1 PRO        -0.0281
    145 CD         -4.4750   10.3460   -8.8160 C.3       1 PRO         0.0369
    146 N          -8.5970    8.8050   -7.5060 N.am      1 NH2        -0.2990
    147 H1          6.4942   19.2008    1.4953 H         1 ACE         0.0467
    148 H2          7.6945   17.9231    1.8869 H         1 ACE         0.0467
    149 H3          6.2475   17.5240    0.9002 H         1 ACE         0.0467
    150 H4          7.2007   20.5523    0.0039 H         1 MET         0.1882
    151 H5          7.8051   19.9714   -2.6475 H         1 MET         0.0800
    152 H6          8.6807   22.3287   -2.7274 H         1 MET         0.0320
    153 H7          8.5726   22.3866   -0.9353 H         1 MET         0.0320
    154 H8          6.1423   21.9615   -1.0676 H         1 MET         0.0378
    155 H9          6.2499   21.9021   -2.8597 H         1 MET         0.0378
    156 H10         4.2655   25.2366   -2.1624 H         1 MET         0.0340
    157 H11         4.1807   23.7140   -1.2133 H         1 MET         0.0340
    158 H12         4.2644   23.6511   -3.0065 H         1 MET         0.0340
    159 H13        10.0006   20.3612    0.0832 H         1 TRP         0.1884
    160 H14        12.4641   20.5658   -1.2906 H         1 TRP         0.0815
    161 H15        13.4487   20.1665    0.8909 H         1 TRP         0.0397
    162 H16        11.9063   19.4764    1.5005 H         1 TRP         0.0397
    163 H17        13.6226   22.7929    0.6877 H         1 TRP         0.0795
    164 H18        12.2617   24.7678    1.6573 H         1 TRP         0.2216
    165 H19         9.4688   20.2126    2.2420 H         1 TRP         0.0540
    166 H20         9.6945   25.1493    2.9030 H         1 TRP         0.0541
    167 H21         7.5656   21.4187    3.2750 H         1 TRP         0.0510
    168 H22         7.6661   23.8801    3.6126 H         1 TRP         0.0530
    169 H23        10.4453   17.8208   -0.9356 H         1 ASP         0.1884
    170 H24        12.1672   15.6380   -0.7625 H         1 ASP         0.0819
    171 H25         9.6101   16.0913   -2.3690 H         1 ASP         0.0478
    172 H26         9.7546   15.4349   -0.7032 H         1 ASP         0.0478
    173 H27        11.6569   17.8002   -3.5228 H         1 PHE         0.1885
    174 H28        12.6237   16.0727   -5.5644 H         1 PHE         0.0823
    175 H29        11.2066   18.2944   -5.6045 H         1 PHE         0.0474
    176 H30        12.2885   17.8579   -6.9704 H         1 PHE         0.0474
    177 H31        12.8095   19.6246   -3.6456 H         1 PHE         0.0557
    178 H32        13.2696   19.6980   -7.9335 H         1 PHE         0.0557
    179 H33        14.0824   21.7536   -3.4746 H         1 PHE         0.0599
    180 H34        14.5752   21.8069   -7.7565 H         1 PHE         0.0599
    181 H35        14.9809   22.8374   -5.5274 H         1 PHE         0.0559
    182 H36        14.4187   17.1957   -6.9739 H         1 ASP         0.1884
    183 H37        16.8566   17.8919   -5.4586 H         1 ASP         0.0819
    184 H38        18.1591   16.3033   -6.9274 H         1 ASP         0.0478
    185 H39        16.5975   15.6033   -7.4733 H         1 ASP         0.0478
    186 H40        18.0591   19.3652   -6.5548 H         1 ASP         0.1884
    187 H41        17.0077   20.6155   -8.9628 H         1 ASP         0.0819
    188 H42        18.9672   22.1367   -8.6672 H         1 ASP         0.0478
    189 H43        19.5329   21.1063   -7.3090 H         1 ASP         0.0478
    190 H44        14.7387   13.5095  -11.6967 H         1 ACA         0.0502
    191 H45        16.0061   13.6007  -10.4270 H         1 ACA         0.0502
    192 H46        15.5141   15.7161  -12.5867 H         1 ACA         0.0290
    193 H47        16.7919   14.4548  -12.6420 H         1 ACA         0.0290
    194 H48        17.8406   15.3651  -10.6231 H         1 ACA         0.0267
    195 H49        16.5083   16.5538  -10.4271 H         1 ACA         0.0267
    196 H50        17.1173   17.6327  -12.5519 H         1 ACA         0.0285
    197 H51        18.3964   16.4037  -12.8348 H         1 ACA         0.0285
    198 H52        19.3800   18.4940  -11.9799 H         1 ACA         0.0520
    199 H53        19.5730   17.1715  -10.7798 H         1 ACA         0.0520
    200 H54        17.1822   18.5105  -10.1642 H         1 ACA         0.1851
    201 H55        13.3882   15.6141  -11.8154 H         1 MET         0.1883
    202 H56        12.5999   16.4555   -9.0798 H         1 MET         0.0800
    203 H57        13.7765   18.3210   -9.8742 H         1 MET         0.0320
    204 H58        12.0394   18.7000  -10.1307 H         1 MET         0.0320
    205 H59        12.2906   18.1362  -12.5280 H         1 MET         0.0378
    206 H60        14.0373   17.8180  -12.2554 H         1 MET         0.0378
    207 H61        15.4488   21.3891  -11.4163 H         1 MET         0.0340
    208 H62        15.8468   19.6683  -11.7434 H         1 MET         0.0340
    209 H63        14.9324   20.1129  -10.2625 H         1 MET         0.0340
    210 H64         8.6528   14.8317  -10.6246 H         1 PRO         0.0802
    211 H65         7.4571   14.3406   -8.6502 H         1 PRO         0.0313
    212 H66         7.9954   15.8420   -7.8238 H         1 PRO         0.0313
    213 H67         9.6418   13.3145   -8.4398 H         1 PRO         0.0287
    214 H68         9.4611   14.1687   -6.8700 H         1 PRO         0.0287
    215 H69        10.7299   16.0626   -7.6132 H         1 PRO         0.0524
    216 H70        11.5931   14.7179   -8.4338 H         1 PRO         0.0524
    217 H71         6.2343   17.9832  -12.0794 H         1 PRO         0.0802
    218 H72         3.9261   17.7018  -11.8491 H         1 PRO         0.0313
    219 H73         3.9939   17.7365  -10.0545 H         1 PRO         0.0313
    220 H74         4.6431   15.4437  -11.9598 H         1 PRO         0.0287
    221 H75         3.7580   15.4034  -10.3972 H         1 PRO         0.0287
    222 H76         5.7279   15.5117   -9.1250 H         1 PRO         0.0524
    223 H77         6.4066   14.7154  -10.5852 H         1 PRO         0.0524
    224 H78         6.1051   20.0487  -12.1766 H         1 ALA         0.1883
    225 H79         5.9927   21.7641   -9.7393 H         1 ALA         0.0797
    226 H80         6.9152   23.5265  -11.2237 H         1 ALA         0.0277
    227 H81         6.9242   22.3678  -12.5962 H         1 ALA         0.0277
    228 H82         7.9875   22.0862  -11.1761 H         1 ALA         0.0277
    229 H83         3.8375   20.2844  -10.9671 H         1 ASP         0.1884
    230 H84         1.7274   22.2565  -11.4224 H         1 ASP         0.0819
    231 H85         0.9758   21.1103  -13.4965 H         1 ASP         0.0478
    232 H86         2.4397   20.0698  -13.4611 H         1 ASP         0.0478
    233 H87        -0.3895   20.9803  -11.1447 H         1 GLU         0.1883
    234 H88        -0.1799   18.1701  -10.5905 H         1 GLU         0.0801
    235 H89         0.8326   18.6652   -8.5620 H         1 GLU         0.0330
    236 H90        -0.8864   18.3396   -8.1552 H         1 GLU         0.0330
    237 H91        -1.3089   20.7849   -8.0285 H         1 GLU         0.0433
    238 H92         0.4197   21.0954   -8.4056 H         1 GLU         0.0433
    239 H93        -1.7849   17.7076  -11.8033 H         1 ASP         0.1884
    240 H94        -4.4798   18.0149  -10.6508 H         1 ASP         0.0819
    241 H95        -3.8715   18.5354  -13.6001 H         1 ASP         0.0478
    242 H96        -4.2909   19.7961  -12.3912 H         1 ASP         0.0478
    243 H97        -2.8350   15.9924  -10.2218 H         1 TYR         0.1885
    244 H98        -3.5008   13.7838  -12.1140 H         1 TYR         0.0821
    245 H99        -1.2751   13.0084  -12.0570 H         1 TYR         0.0453
    246 H100       -0.8629   14.0106  -10.6244 H         1 TYR         0.0453
    247 H101       -2.1504   14.6864  -14.1399 H         1 TYR         0.0530
    248 H102        0.6774   15.6609  -11.0267 H         1 TYR         0.0530
    249 H103       -1.0416   16.3330  -15.6428 H         1 TYR         0.0525
    250 H104        1.7253   17.3650  -12.5024 H         1 TYR         0.0525
    251 H105        0.5453   17.8985  -15.8190 H         1 TYR         0.2458
    252 H106       -5.1392   14.2173  -10.0577 H         1 SER         0.1884
    253 H107       -4.1979   12.6925   -7.6766 H         1 SER         0.0823
    254 H108       -5.8972   14.0343   -6.4346 H         1 SER         0.0606
    255 H109       -6.3017   14.9030   -7.9540 H         1 SER         0.0606
    256 H110       -4.7436   16.0197   -6.6685 H         1 SER         0.2097
    257 H111       -7.5877   10.1117   -9.5315 H         1 PRO         0.0802
    258 H112       -5.9740    8.6641  -10.4977 H         1 PRO         0.0313
    259 H113       -6.4463    7.6663   -9.0806 H         1 PRO         0.0313
    260 H114       -3.8516    8.3446   -9.4018 H         1 PRO         0.0287
    261 H115       -4.5838    8.4434   -7.7645 H         1 PRO         0.0287
    262 H116       -3.8392   10.6808   -7.9831 H         1 PRO         0.0524
    263 H117       -4.0335   10.6733   -9.7689 H         1 PRO         0.0524
    264 H118       -9.0504    8.5556   -6.6503 H         1 NH2         0.1815
    265 H119       -9.0154    8.5649   -8.3820 H         1 NH2         0.1815
@<TRIPOS>BOND
     1    1    2 2  
     2    1    3 1  
     3    4    1 am 
     4    5    4 1  
     5    6    5 1  
     6    5    8 1  
     7    6    7 2  
     8   12    6 am 
     9    8    9 1  
    10    9   10 1  
    11   10   11 1  
    12   13   12 1  
    13   14   13 1  
    14   13   16 1  
    15   14   15 2  
    16   26   14 am 
    17   16   17 1  
    18   17   18 2  
    19   17   19 1  
    20   18   20 1  
    21   19   21 ar 
    22   19   22 ar 
    23   21   20 1  
    24   21   23 ar 
    25   22   24 ar 
    26   23   25 ar 
    27   24   25 ar 
    28   27   26 1  
    29   28   27 1  
    30   27   30 1  
    31   28   29 2  
    32   34   28 am 
    33   30   31 1  
    34   31   32 ar 
    35   31   33 ar 
    36   35   34 1  
    37   36   35 1  
    38   35   38 1  
    39   36   37 2  
    40   45   36 am 
    41   38   39 1  
    42   39   40 ar 
    43   39   41 ar 
    44   40   42 ar 
    45   41   43 ar 
    46   42   44 ar 
    47   43   44 ar 
    48   46   45 1  
    49   47   46 1  
    50   46   49 1  
    51   47   48 2  
    52   53   47 am 
    53   49   50 1  
    54   50   51 ar 
    55   50   52 ar 
    56   54   53 1  
    57   55   54 1  
    58   54   57 1  
    59   55   56 2  
    60   68   55 am 
    61   57   58 1  
    62   58   59 ar 
    63   58   60 ar 
    64   61   62 2  
    65   63   61 1  
    66   61   69 am 
    67   64   63 1  
    68   65   64 1  
    69   66   65 1  
    70   67   66 1  
    71   67   68 1  
    72   69   70 1  
    73   70   71 1  
    74   70   73 1  
    75   71   72 2  
    76   71   77 am 
    77   73   74 1  
    78   74   75 1  
    79   75   76 1  
    80   77   78 1  
    81   77   83 1  
    82   78   79 1  
    83   78   81 1  
    84   79   80 2  
    85   79   84 am 
    86   81   82 1  
    87   82   83 1  
    88   84   85 1  
    89   84   90 1  
    90   85   86 1  
    91   85   88 1  
    92   86   87 2  
    93   86   91 am 
    94   88   89 1  
    95   89   90 1  
    96   91   92 1  
    97   92   93 1  
    98   92   95 1  
    99   93   94 2  
   100   93   96 am 
   101   96   97 1  
   102   97   98 1  
   103   97  100 1  
   104   98   99 2  
   105   98  104 am 
   106  100  101 1  
   107  101  102 ar 
   108  101  103 ar 
   109  104  105 1  
   110  105  106 1  
   111  105  108 1  
   112  106  107 2  
   113  106  113 am 
   114  108  109 1  
   115  109  110 1  
   116  110  111 ar 
   117  110  112 ar 
   118  113  114 1  
   119  114  115 1  
   120  114  117 1  
   121  115  116 2  
   122  115  121 am 
   123  117  118 1  
   124  118  119 ar 
   125  118  120 ar 
   126  121  122 1  
   127  122  123 1  
   128  122  125 1  
   129  123  124 2  
   130  123  133 am 
   131  125  126 1  
   132  126  127 ar 
   133  126  128 ar 
   134  127  129 ar 
   135  128  130 ar 
   136  129  131 ar 
   137  130  131 ar 
   138  131  132 1  
   139  133  134 1  
   140  134  135 1  
   141  134  137 1  
   142  135  136 2  
   143  135  139 am 
   144  137  138 1  
   145  139  140 1  
   146  139  145 1  
   147  140  141 1  
   148  140  143 1  
   149  141  142 2  
   150  141  146 am 
   151  143  144 1  
   152  144  145 1  
   153    3  147 1  
   154    3  148 1  
   155    3  149 1  
   156    4  150 1  
   157    5  151 1  
   158    8  152 1  
   159    8  153 1  
   160    9  154 1  
   161    9  155 1  
   162   11  156 1  
   163   11  157 1  
   164   11  158 1  
   165   12  159 1  
   166   13  160 1  
   167   16  161 1  
   168   16  162 1  
   169   18  163 1  
   170   20  164 1  
   171   22  165 1  
   172   23  166 1  
   173   24  167 1  
   174   25  168 1  
   175   26  169 1  
   176   27  170 1  
   177   30  171 1  
   178   30  172 1  
   179   34  173 1  
   180   35  174 1  
   181   38  175 1  
   182   38  176 1  
   183   40  177 1  
   184   41  178 1  
   185   42  179 1  
   186   43  180 1  
   187   44  181 1  
   188   45  182 1  
   189   46  183 1  
   190   49  184 1  
   191   49  185 1  
   192   53  186 1  
   193   54  187 1  
   194   57  188 1  
   195   57  189 1  
   196   63  190 1  
   197   63  191 1  
   198   64  192 1  
   199   64  193 1  
   200   65  194 1  
   201   65  195 1  
   202   66  196 1  
   203   66  197 1  
   204   67  198 1  
   205   67  199 1  
   206   68  200 1  
   207   69  201 1  
   208   70  202 1  
   209   73  203 1  
   210   73  204 1  
   211   74  205 1  
   212   74  206 1  
   213   76  207 1  
   214   76  208 1  
   215   76  209 1  
   216   78  210 1  
   217   81  211 1  
   218   81  212 1  
   219   82  213 1  
   220   82  214 1  
   221   83  215 1  
   222   83  216 1  
   223   85  217 1  
   224   88  218 1  
   225   88  219 1  
   226   89  220 1  
   227   89  221 1  
   228   90  222 1  
   229   90  223 1  
   230   91  224 1  
   231   92  225 1  
   232   95  226 1  
   233   95  227 1  
   234   95  228 1  
   235   96  229 1  
   236   97  230 1  
   237  100  231 1  
   238  100  232 1  
   239  104  233 1  
   240  105  234 1  
   241  108  235 1  
   242  108  236 1  
   243  109  237 1  
   244  109  238 1  
   245  113  239 1  
   246  114  240 1  
   247  117  241 1  
   248  117  242 1  
   249  121  243 1  
   250  122  244 1  
   251  125  245 1  
   252  125  246 1  
   253  127  247 1  
   254  128  248 1  
   255  129  249 1  
   256  130  250 1  
   257  132  251 1  
   258  133  252 1  
   259  134  253 1  
   260  137  254 1  
   261  137  255 1  
   262  138  256 1  
   263  140  257 1  
   264  143  258 1  
   265  143  259 1  
   266  144  260 1  
   267  144  261 1  
   268  145  262 1  
   269  145  263 1  
   270  146  264 1  
   271  146  265 1  
@<TRIPOS>SUBSTRUCTURE
     1 ACE         1

