4az5_ligand
  -I-interpret- 

 30 31  0  0  0  0  0  0  0  0999 V2000
   14.3680   30.8060   26.0800 O   0  0  0  0  0
   15.3180   29.8140   25.7090 C   0  0  0  0  0
   14.9360   29.2450   24.3490 C   0  0  0  0  0
   16.7180   30.4870   25.6090 C   0  0  0  0  0
   13.7050   28.5150   24.4690 O   0  0  0  0  0
   16.0260   28.2390   23.9430 C   0  0  0  0  0
   15.9270   27.8290   22.5270 N   0  3  0  0  0
   17.4920   28.7710   24.0720 C   0  0  0  0  0
   16.3340   28.9530   21.6680 C   0  0  0  0  0
   16.7000   28.5040   20.2530 C   0  0  0  0  0
   17.6560   29.7980   22.5560 S   0  0  0  0  0
   17.7180   29.5250   25.2620 O   0  0  0  0  0
   17.2520   31.1690   26.8910 C   0  0  0  0  0
   17.2330   30.2290   27.9730 O   0  0  0  0  0
   13.4980   30.4055   26.1459 H   0  0  0  0  0
   15.3383   29.0125   26.4474 H   0  0  0  0  0
   14.8314   30.0501   23.6217 H   0  0  0  0  0
   16.5501   31.2566   24.8555 H   0  0  0  0  0
   13.0010   29.1165   24.7225 H   0  0  0  0  0
   15.8424   27.4219   24.6407 H   0  0  0  0  0
   14.9650   27.5658   22.3133 H   0  0  0  0  0
   16.5386   27.0303   22.3583 H   0  0  0  0  0
   18.2292   27.9719   24.1501 H   0  0  0  0  0
   15.5127   29.6473   21.4903 H   0  0  0  0  0
   16.9748   29.3741   19.6568 H   0  0  0  0  0
   17.5416   27.8128   20.2988 H   0  0  0  0  0
   15.8436   28.0061   19.7982 H   0  0  0  0  0
   16.6212   32.0226   27.1391 H   0  0  0  0  0
   18.2734   31.5106   26.7233 H   0  0  0  0  0
   17.5643   30.6519   28.7686 H   0  0  0  0  0
  1  2  1  0  0  0
  2  3  1  0  0  0
  2  4  1  0  0  0
  3  5  1  0  0  0
  3  6  1  0  0  0
  4 12  1  0  0  0
  4 13  1  0  0  0
  6  7  1  0  0  0
  6  8  1  0  0  0
  7  9  1  0  0  0
  8 11  1  0  0  0
  8 12  1  0  0  0
  9 10  1  0  0  0
  9 11  1  0  0  0
 13 14  1  0  0  0
  1 15  1  0  0  0
  2 16  1  0  0  0
  3 17  1  0  0  0
  4 18  1  0  0  0
  5 19  1  0  0  0
  6 20  1  0  0  0
  7 21  1  0  0  0
  7 22  1  0  0  0
  8 23  1  0  0  0
  9 24  1  0  0  0
 10 25  1  0  0  0
 10 26  1  0  0  0
 10 27  1  0  0  0
 13 28  1  0  0  0
 13 29  1  0  0  0
 14 30  1  0  0  0
M  END
$$$$
