3wf9_ligand
  -I-interpret- 

 58 61  0  0  0  0  0  0  0  0999 V2000
  -28.3420  -17.5330    0.9210 N   0  0  0  0  0
  -28.1500  -16.2170    1.3970 C   0  0  0  0  0
  -29.1930  -15.5740    2.1350 C   0  0  0  0  0
  -28.9830  -14.2710    2.5990 C   0  0  0  0  0
  -27.7670  -13.6080    2.3490 C   0  0  0  0  0
  -26.7440  -14.2380    1.6270 C   0  0  0  0  0
  -26.9600  -15.5690    1.1530 C   0  0  0  0  0
  -25.9630  -16.2330    0.4180 C   0  0  0  0  0
  -24.6730  -15.5180    0.1420 C   0  0  0  0  0
  -24.5560  -14.8840   -0.8950 O   0  0  0  0  0
  -23.5290  -15.9100    0.8260 O   0  0  0  0  0
  -22.4230  -15.0930    0.6410 C   0  0  0  0  0
  -21.5130  -14.9930    1.8320 C   0  0  0  0  0
  -21.7310  -15.4350   -0.6680 C   0  0  0  0  0
  -22.0840  -16.4470   -1.2540 O   0  0  0  0  0
  -20.6860  -14.5590   -1.1730 N   0  0  0  0  0
  -19.9580  -14.8490   -2.4010 C   0  0  0  0  0
  -20.3800  -15.8250   -3.3070 C   0  0  0  0  0
  -19.6450  -16.0910   -4.4590 C   0  0  0  0  0
  -18.4850  -15.3680   -4.6770 C   0  0  0  0  0
  -17.5180  -15.6770   -6.1110 S   0  0  0  0  0
  -16.7270  -14.5350   -6.4280 O   0  0  0  0  0
  -18.3720  -15.8720   -7.2540 O   0  0  0  0  0
  -16.5750  -16.9840   -5.8450 N   0  0  0  0  0
  -18.0580  -14.4110   -3.7760 C   0  0  0  0  0
  -18.7960  -14.1430   -2.6230 C   0  0  0  0  0
  -26.1560  -17.5570   -0.0660 C   0  0  0  0  0
  -25.0640  -18.2070   -0.8230 C   0  0  0  0  0
  -25.4210  -19.4410   -1.5560 C   0  0  0  0  0
  -24.1780  -20.2360   -1.8370 C   0  0  0  0  0
  -26.4440  -20.3270   -0.9260 C   0  0  0  0  0
  -27.6410  -19.6200   -0.2870 C   0  0  0  0  0
  -27.3440  -18.1910    0.1940 C   0  0  0  0  0
  -30.1331  -16.0892    2.3320 H   0  0  0  0  0
  -29.7687  -13.7644    3.1595 H   0  0  0  0  0
  -27.6192  -12.5940    2.7207 H   0  0  0  0  0
  -25.8032  -13.7235    1.4311 H   0  0  0  0  0
  -22.7848  -14.0687    0.5522 H   0  0  0  0  0
  -22.0677  -14.5881    2.6785 H   0  0  0  0  0
  -21.1359  -15.9842    2.0837 H   0  0  0  0  0
  -20.6775  -14.3344    1.5950 H   0  0  0  0  0
  -20.4552  -13.7140   -0.6504 H   0  0  0  0  0
  -21.2946  -16.3843   -3.1098 H   0  0  0  0  0
  -19.9742  -16.8484   -5.1703 H   0  0  0  0  0
  -15.5607  -16.9043   -5.9174 H   0  0  0  0  0
  -17.0005  -17.8798   -5.6065 H   0  0  0  0  0
  -17.1367  -13.8610   -3.9680 H   0  0  0  0  0
  -18.4596  -13.3892   -1.9111 H   0  0  0  0  0
  -24.3142  -18.4968   -0.0868 H   0  0  0  0  0
  -24.7460  -17.4868   -1.5768 H   0  0  0  0  0
  -25.8994  -19.0813   -2.4670 H   0  0  0  0  0
  -23.4953  -19.6389   -2.4416 H   0  0  0  0  0
  -23.6960  -20.4993   -0.8955 H   0  0  0  0  0
  -24.4438  -21.1447   -2.3771 H   0  0  0  0  0
  -25.9357  -20.8571   -0.1206 H   0  0  0  0  0
  -26.8465  -20.9475   -1.7267 H   0  0  0  0  0
  -27.9283  -20.2014    0.5891 H   0  0  0  0  0
  -28.4171  -19.5485   -1.0490 H   0  0  0  0  0
  1  2  4  0  0  0
  1 33  4  0  0  0
  2  3  4  0  0  0
  2  7  4  0  0  0
  3  4  4  0  0  0
  4  5  4  0  0  0
  5  6  4  0  0  0
  6  7  4  0  0  0
  7  8  4  0  0  0
  8  9  1  0  0  0
  8 27  4  0  0  0
  9 10  2  0  0  0
  9 11  1  0  0  0
 11 12  1  0  0  0
 12 13  1  0  0  0
 12 14  1  0  0  0
 14 15  2  0  0  0
 14 16  1  0  0  0
 16 17  1  0  0  0
 17 18  4  0  0  0
 17 26  4  0  0  0
 18 19  4  0  0  0
 19 20  4  0  0  0
 20 21  1  0  0  0
 20 25  4  0  0  0
 21 22  2  0  0  0
 21 23  2  0  0  0
 21 24  1  0  0  0
 25 26  4  0  0  0
 27 28  1  0  0  0
 27 33  4  0  0  0
 28 29  1  0  0  0
 29 30  1  0  0  0
 29 31  1  0  0  0
 31 32  1  0  0  0
 32 33  1  0  0  0
  3 34  1  0  0  0
  4 35  1  0  0  0
  5 36  1  0  0  0
  6 37  1  0  0  0
 12 38  1  0  0  0
 13 39  1  0  0  0
 13 40  1  0  0  0
 13 41  1  0  0  0
 16 42  1  0  0  0
 18 43  1  0  0  0
 19 44  1  0  0  0
 24 45  1  0  0  0
 24 46  1  0  0  0
 25 47  1  0  0  0
 26 48  1  0  0  0
 28 49  1  0  0  0
 28 50  1  0  0  0
 29 51  1  0  0  0
 30 52  1  0  0  0
 30 53  1  0  0  0
 30 54  1  0  0  0
 31 55  1  0  0  0
 31 56  1  0  0  0
 32 57  1  0  0  0
 32 58  1  0  0  0
M  END
$$$$
