3ufa_ligand
  -I-interpret- 

 28 28  0  0  0  0  0  0  0  0999 V2000
   -1.3690   39.7840   38.3400 C   0  0  0  0  0
   -2.2150   40.9700   37.9620 C   0  0  0  0  0
   -1.6900   42.0930   37.8650 O   0  0  0  0  0
   -5.5980   40.9120   39.7400 O   0  0  0  0  0
   -5.9810   41.6980   38.4880 P   0  0  0  0  0
   -6.7940   42.9500   38.5960 O   0  0  0  0  0
   -4.5780   41.6500   37.3410 C   0  0  0  0  0
   -4.0030   43.0100   37.1920 C   0  0  0  0  0
   -4.0700   42.9890   35.7000 C   0  0  0  0  0
   -4.4120   41.7960   35.1000 C   0  0  0  0  0
   -4.4920   41.7200   33.7240 C   0  0  0  0  0
   -4.2280   42.8570   32.9850 C   0  0  0  0  0
   -3.8930   44.0480   33.5850 C   0  0  0  0  0
   -3.8030   44.1200   34.9600 C   0  0  0  0  0
   -3.5250   40.6950   37.7350 N   0  0  0  0  0
   -0.5824   39.6490   37.5976 H   0  0  0  0  0
   -0.9210   39.9560   39.3187 H   0  0  0  0  0
   -1.9930   38.8910   38.3765 H   0  0  0  0  0
   -5.0809   40.1433   39.4882 H   0  0  0  0  0
   -4.9688   41.2972   36.3866 H   0  0  0  0  0
   -3.0346   43.2042   37.6532 H   0  0  0  0  0
   -4.5001   43.8300   37.7102 H   0  0  0  0  0
   -4.6184   40.9163   35.7096 H   0  0  0  0  0
   -4.7574   40.7844   33.2318 H   0  0  0  0  0
   -4.2868   42.8087   31.8977 H   0  0  0  0  0
   -3.6993   44.9316   32.9769 H   0  0  0  0  0
   -3.5262   45.0530   35.4509 H   0  0  0  0  0
   -3.8121   39.7229   37.8492 H   0  0  0  0  0
  2  1  1  0  0  0
  2  3  2  0  0  0
 15  2  1  0  0  0
  5  4  1  0  0  0
  5  6  2  0  0  0
  7  5  1  0  0  0
  7  8  1  0  0  0
  7 15  1  0  0  0
  8  9  1  0  0  0
  9 10  4  0  0  0
  9 14  4  0  0  0
 10 11  4  0  0  0
 11 12  4  0  0  0
 12 13  4  0  0  0
 13 14  4  0  0  0
  1 16  1  0  0  0
  1 17  1  0  0  0
  1 18  1  0  0  0
  4 19  1  0  0  0
  7 20  1  0  0  0
  8 21  1  0  0  0
  8 22  1  0  0  0
 10 23  1  0  0  0
 11 24  1  0  0  0
 12 25  1  0  0  0
 13 26  1  0  0  0
 14 27  1  0  0  0
 15 28  1  0  0  0
M  END
$$$$
