### 
### Created by X-TOOL on Mon Sep 10 21:13:14 2018
### 

@<TRIPOS>MOLECULE
3ufa_ligand
   28    28     1     0     0
SMALL
GAST_HUCK


@<TRIPOS>ATOM
      1 CA1        -1.3690   39.7840   38.3400 C.3       1 VPF         0.0257
      2 C5         -2.2150   40.9700   37.9620 C.2       1 VPF         0.1744
      3 O4         -1.6900   42.0930   37.8650 O.2       1 VPF        -0.3973
      4 O2P        -5.5980   40.9120   39.7400 O.co2     1 VPF        -0.6194
      5 P          -5.9810   41.6980   38.4880 P.3       1 VPF        -0.0016
      6 O1P        -6.7940   42.9500   38.5960 O.co2     1 VPF        -0.6194
      7 CA2        -4.5780   41.6500   37.3410 C.3       1 VPF         0.1130
      8 CB2        -4.0030   43.0100   37.1920 C.3       1 VPF         0.0203
      9 CG3        -4.0700   42.9890   35.7000 C.ar      1 VPF        -0.0393
     10 CD2        -4.4120   41.7960   35.1000 C.ar      1 VPF        -0.0602
     11 CE2        -4.4920   41.7200   33.7240 C.ar      1 VPF        -0.0686
     12 CZ         -4.2280   42.8570   32.9850 C.ar      1 VPF        -0.0687
     13 CE1        -3.8930   44.0480   33.5850 C.ar      1 VPF        -0.0686
     14 CD1        -3.8030   44.1200   34.9600 C.ar      1 VPF        -0.0602
     15 N2         -3.5250   40.6950   37.7350 N.am      1 VPF        -0.2668
     16 H1         -1.9977   38.8821   38.3772 H         1 VPF         0.0467
     17 H2         -0.9163   39.9563   39.3276 H         1 VPF         0.0467
     18 H3         -0.5747   39.6467   37.5915 H         1 VPF         0.0467
     19 H4         -6.6491   41.0869   38.0450 H         1 VPF         0.1508
     20 H5         -4.9628   41.3306   36.3612 H         1 VPF         0.0786
     21 H6         -2.9762   43.0908   37.5782 H         1 VPF         0.0465
     22 H7         -4.6271   43.7958   37.6425 H         1 VPF         0.0465
     23 H8         -4.6173   40.9211   35.7062 H         1 VPF         0.0557
     24 H9         -4.7559   40.7895   33.2345 H         1 VPF         0.0599
     25 H10        -4.2865   42.8090   31.9036 H         1 VPF         0.0559
     26 H11        -3.7004   44.9268   32.9803 H         1 VPF         0.0599
     27 H12        -3.5277   45.0479   35.4482 H         1 VPF         0.0557
     28 H13        -3.8065   39.7420   37.8470 H         1 VPF         0.1871
@<TRIPOS>BOND
     1    2    1 1  
     2    2    3 2  
     3   15    2 am 
     4    5    4 ar 
     5    5    6 ar 
     6    7    5 1  
     7    7    8 1  
     8    7   15 1  
     9    8    9 1  
    10    9   10 ar 
    11    9   14 ar 
    12   10   11 ar 
    13   11   12 ar 
    14   12   13 ar 
    15   13   14 ar 
    16    1   16 1  
    17    1   17 1  
    18    1   18 1  
    19    5   19 1  
    20    7   20 1  
    21    8   21 1  
    22    8   22 1  
    23   10   23 1  
    24   11   24 1  
    25   12   25 1  
    26   13   26 1  
    27   14   27 1  
    28   15   28 1  
@<TRIPOS>SUBSTRUCTURE
     1 VPF         1

