2vcb_ligand
  -I-interpret- 

 44 45  0  0  0  0  0  0  0  0999 V2000
   12.3370  -10.0420   -9.0340 C   0  0  0  0  0
   12.6830  -11.3980   -8.4270 C   0  0  0  0  0
   13.4360  -11.4470   -7.4470 O   0  0  0  0  0
   12.1170  -12.4630   -9.0340 N   0  0  0  0  0
   12.3560  -13.8500   -8.5660 C   0  0  0  0  0
   13.4360  -14.5470   -9.3820 C   0  0  0  0  0
   14.6360  -13.7710   -9.3550 O   0  0  0  0  0
   13.6830  -15.9410   -8.7830 C   0  0  0  0  0
   14.6850  -16.6270   -9.5140 O   0  0  0  0  0
   12.4060  -16.7930   -8.7790 C   0  0  0  0  0
   12.6330  -18.0320   -7.8980 C   0  0  0  0  0
   12.5050  -17.6800   -6.5130 O   0  0  0  0  0
   11.2520  -16.0910   -8.2460 O   0  0  0  0  0
   11.1230  -14.7750   -8.6070 C   0  0  0  0  0
    9.9160  -14.3730   -8.9560 N   0  0  0  0  0
    8.9580  -15.3360   -8.9250 O   0  0  0  0  0
    7.7260  -14.7910   -8.8220 C   0  0  0  0  0
    7.2850  -14.3720   -7.7500 O   0  0  0  0  0
    7.0250  -14.7440   -9.9520 N   0  0  0  0  0
    7.0680  -14.6290  -10.9310 C   0  0  0  0  0
    8.0800  -15.3940  -11.4970 C   0  0  0  0  0
    8.1650  -15.5080  -12.8850 C   0  0  0  0  0
    7.2510  -14.8630  -13.7170 C   0  0  0  0  0
    6.2370  -14.0900  -13.1720 C   0  0  0  0  0
    6.1560  -13.9780  -11.7820 C   0  0  0  0  0
   11.8456   -9.4238   -8.2827 H   0  0  0  0  0
   13.2509   -9.5514   -9.3689 H   0  0  0  0  0
   11.6681  -10.1853   -9.8826 H   0  0  0  0  0
   11.5076  -12.3093   -9.8374 H   0  0  0  0  0
   12.6534  -13.7050   -7.5274 H   0  0  0  0  0
   13.1166  -14.6501  -10.4190 H   0  0  0  0  0
   14.4643  -12.9050   -9.7320 H   0  0  0  0  0
   14.0086  -15.7903   -7.7537 H   0  0  0  0  0
   15.4889  -16.1023   -9.5228 H   0  0  0  0  0
   12.2012  -17.0506   -9.8181 H   0  0  0  0  0
   13.6352  -18.4209   -8.0778 H   0  0  0  0  0
   11.8890  -18.7891   -8.1456 H   0  0  0  0  0
   12.6483  -18.4595   -5.9713 H   0  0  0  0  0
    6.0449  -14.8836   -9.7063 H   0  0  0  0  0
    8.8038  -15.9025  -10.8602 H   0  0  0  0  0
    8.9588  -16.1110  -13.3259 H   0  0  0  0  0
    7.3337  -14.9666  -14.7989 H   0  0  0  0  0
    5.5186  -13.5807  -13.8144 H   0  0  0  0  0
    5.3645  -13.3695  -11.3446 H   0  0  0  0  0
  1  2  1  0  0  0
  2  3  2  0  0  0
  2  4  1  0  0  0
  4  5  1  0  0  0
  5  6  1  0  0  0
  5 14  1  0  0  0
  6  7  1  0  0  0
  6  8  1  0  0  0
  8  9  1  0  0  0
  8 10  1  0  0  0
 10 11  1  0  0  0
 10 13  1  0  0  0
 11 12  1  0  0  0
 13 14  1  0  0  0
 14 15  2  0  0  0
 15 16  1  0  0  0
 16 17  1  0  0  0
 17 18  2  0  0  0
 17 19  1  0  0  0
 19 20  1  0  0  0
 20 21  4  0  0  0
 20 25  4  0  0  0
 21 22  4  0  0  0
 22 23  4  0  0  0
 23 24  4  0  0  0
 24 25  4  0  0  0
  1 26  1  0  0  0
  1 27  1  0  0  0
  1 28  1  0  0  0
  4 29  1  0  0  0
  5 30  1  0  0  0
  6 31  1  0  0  0
  7 32  1  0  0  0
  8 33  1  0  0  0
  9 34  1  0  0  0
 10 35  1  0  0  0
 11 36  1  0  0  0
 11 37  1  0  0  0
 12 38  1  0  0  0
 19 39  1  0  0  0
 21 40  1  0  0  0
 22 41  1  0  0  0
 23 42  1  0  0  0
 24 43  1  0  0  0
 25 44  1  0  0  0
M  END
$$$$
