### 
### Created by X-TOOL on Mon Sep 10 21:13:30 2018
### 

@<TRIPOS>MOLECULE
5fyq_ligand
  145   146     1     0     0
SMALL
GAST_HUCK


@<TRIPOS>ATOM
      1 N         -37.3740   46.7460   12.6570 N.4       1 GLY         0.2357
      2 CA        -36.3630   47.1330   11.6230 C.3       1 GLY         0.0545
      3 C         -35.9560   45.8640   10.9070 C.2       1 GLY         0.2236
      4 O         -36.2760   44.7550   11.4030 O.2       1 GLY        -0.3910
      5 N         -35.2690   45.9940    9.7630 N.am      1 GLU        -0.2612
      6 CA        -35.0660   44.8080    8.9030 C.3       1 GLU         0.1326
      7 C         -33.7390   44.8170    8.1210 C.2       1 GLU         0.2041
      8 O         -32.7020   44.3540    8.6240 O.2       1 GLU        -0.3944
      9 CB        -36.3450   44.6100    8.0360 C.3       1 GLU        -0.0008
     10 CG        -36.2080   44.1180    6.5940 C.3       1 GLU         0.0044
     11 CD        -37.1650   44.8340    5.6410 C.2       1 GLU         0.0350
     12 OE1       -37.4510   46.0360    5.8780 O.co2     1 GLU        -0.5690
     13 OE2       -37.6340   44.1910    4.6530 O.co2     1 GLU        -0.5690
     14 N         -33.7780   45.3370    6.8910 N.am      1 PHE        -0.2619
     15 CA        -32.5760   45.5630    6.1210 C.3       1 PHE         0.1404
     16 C         -32.8790   46.6720    5.1020 C.2       1 PHE         0.2060
     17 O         -33.2920   46.4590    3.9540 O.2       1 PHE        -0.3942
     18 CB        -31.9470   44.2900    5.5400 C.3       1 PHE         0.0214
     19 CG        -32.8830   43.3960    4.7630 C.ar      1 PHE        -0.0386
     20 CD1       -34.0620   43.8520    4.2170 C.ar      1 PHE        -0.0601
     21 CD2       -32.5280   42.0580    4.5480 C.ar      1 PHE        -0.0601
     22 CE1       -34.8880   42.9900    3.4990 C.ar      1 PHE        -0.0686
     23 CE2       -33.3490   41.1910    3.8330 C.ar      1 PHE        -0.0686
     24 CZ        -34.5290   41.6570    3.2990 C.ar      1 PHE        -0.0687
     25 N         -32.6720   47.8780    5.5930 N.am      1 GLU        -0.2635
     26 CA        -33.0400   49.0690    4.9000 C.3       1 GLU         0.1325
     27 C         -32.2050   50.1340    5.5530 C.2       1 GLU         0.2040
     28 O         -31.9360   50.0460    6.7410 O.2       1 GLU        -0.3944
     29 CB        -34.5030   49.3540    5.1720 C.3       1 GLU        -0.0008
     30 CG        -34.8770   49.4270    6.6490 C.3       1 GLU         0.0044
     31 CD        -36.3930   49.3210    6.8540 C.2       1 GLU         0.0350
     32 OE1       -37.0740   48.6980    5.9960 O.co2     1 GLU        -0.5690
     33 OE2       -36.9250   49.8570    7.8650 O.co2     1 GLU        -0.5690
     34 N         -31.8710   51.1700    4.8110 N.am      1 FAK        -0.2637
     35 CA        -30.8800   52.1740    5.1800 C.3       1 FAK         0.1310
     36 C         -31.1560   52.7370    6.5720 C.2       1 FAK         0.2039
     37 O         -32.3050   53.0990    6.8710 O.2       1 FAK        -0.3944
     38 CB        -31.0890   53.2870    4.2300 C.3       1 FAK        -0.0123
     39 CG        -29.7710   53.6970    3.6480 C.3       1 FAK        -0.0470
     40 CD        -30.1620   54.7700    2.6250 C.3       1 FAK        -0.0324
     41 CE        -29.1480   55.8870    2.7170 C.3       1 FAK         0.0312
     42 NZ        -29.5200   56.8410    1.6840 N.am      1 FAK        -0.2789
     43 CH        -28.7580   57.9140    1.4500 C.2       1 FAK         0.3009
     44 OH        -27.7040   58.1990    2.0370 O.2       1 FAK        -0.3351
     45 CT        -29.2890   58.8600    0.3120 C.3       1 FAK         0.4749
     46 FI1       -29.0590   60.2290    0.7640 F         1 FAK        -0.1699
     47 FI2       -30.6480   58.6940    0.0140 F         1 FAK        -0.1699
     48 FI3       -28.6680   58.6400   -0.7160 F         1 FAK        -0.1699
     49 N         -30.1280   52.8400    7.4050 N.am      1 LYS        -0.2637
     50 CA        -30.3430   53.3270    8.7380 C.3       1 LYS         0.1310
     51 C         -28.9930   53.9060    9.1300 C.2       1 LYS         0.2040
     52 O         -27.9460   53.2400    9.0110 O.2       1 LYS        -0.3944
     53 CB        -30.8290   52.1840    9.6740 C.3       1 LYS        -0.0122
     54 CG        -29.8700   51.0170    9.8320 C.3       1 LYS        -0.0440
     55 CD        -30.5760   49.7750   10.3800 C.3       1 LYS        -0.0124
     56 CE        -31.1190   48.9050    9.2420 C.3       1 LYS        -0.0354
     57 NZ        -32.2630   48.0290    9.6320 N.4       1 LYS         0.2185
     58 N         -28.9910   55.1500    9.5900 N.am      1 TYR        -0.2621
     59 CA        -27.7270   55.7920    9.9040 C.3       1 TYR         0.1390
     60 C         -27.1420   55.3920   11.2810 C.2       1 TYR         0.2052
     61 O         -27.8100   54.8330   12.1360 O.2       1 TYR        -0.3943
     62 CB        -27.8900   57.3000    9.7590 C.3       1 TYR         0.0163
     63 CG        -26.6100   58.0610    9.8900 C.ar      1 TYR        -0.0493
     64 CD1       -25.7210   58.1160    8.8400 C.ar      1 TYR        -0.0685
     65 CD2       -26.2890   58.7140   11.0810 C.ar      1 TYR        -0.0685
     66 CE1       -24.5330   58.8150    8.9570 C.ar      1 TYR        -0.0398
     67 CE2       -25.1140   59.4020   11.2210 C.ar      1 TYR        -0.0398
     68 CZ        -24.2340   59.4620   10.1520 C.ar      1 TYR         0.0805
     69 OH        -23.0420   60.1670   10.2570 O.3       1 TYR        -0.3376
     70 N         -25.8750   55.7450   11.4520 N.am      1 VAL        -0.2691
     71 CA        -24.9580   55.1750   12.4560 C.3       1 VAL         0.0967
     72 C         -25.5360   53.9830   13.1930 C.2       1 VAL         0.0603
     73 O         -25.2450   52.8390   12.8170 O.co2     1 VAL        -0.5666
     74 CB        -24.4240   56.2390   13.4620 C.3       1 VAL        -0.0118
     75 CG1       -25.5270   56.7510   14.3970 C.3       1 VAL        -0.0590
     76 CG2       -23.2700   55.6500   14.2670 C.3       1 VAL        -0.0590
     77 OXT       -26.2890   54.1740   14.1580 O.co2     1 VAL        -0.5666
     78 H1        -37.6724   47.5675   13.1591 H         1 GLY         0.2012
     79 H2        -36.9614   46.0899   13.3014 H         1 GLY         0.2012
     80 H3        -38.1690   46.3201   12.2068 H         1 GLY         0.2012
     81 H4        -35.4872   47.5929   12.1042 H         1 GLY         0.1061
     82 H5        -36.8051   47.8442   10.9097 H         1 GLY         0.1061
     83 H6        -34.8980   46.8829    9.4942 H         1 GLU         0.1884
     84 H7        -35.0043   43.9377    9.5729 H         1 GLU         0.0801
     85 H8        -36.8576   45.5824    7.9950 H         1 GLU         0.0330
     86 H9        -36.9798   43.8827    8.5633 H         1 GLU         0.0330
     87 H10       -36.4233   43.0396    6.5666 H         1 GLU         0.0433
     88 H11       -35.1759   44.2946    6.2569 H         1 GLU         0.0433
     89 H12       -34.6632   45.5764    6.4921 H         1 PHE         0.1885
     90 H13       -31.8246   45.9687    6.8144 H         1 PHE         0.0823
     91 H14       -31.5352   43.7044    6.3752 H         1 PHE         0.0474
     92 H15       -31.1313   44.5924    4.8669 H         1 PHE         0.0474
     93 H16       -34.3495   44.8891    4.3468 H         1 PHE         0.0557
     94 H17       -31.5907   41.6888    4.9484 H         1 PHE         0.0557
     95 H18       -35.8215   43.3599    3.0906 H         1 PHE         0.0599
     96 H19       -33.0609   40.1548    3.6974 H         1 PHE         0.0599
     97 H20       -35.1719   40.9956    2.7295 H         1 PHE         0.0559
     98 H21       -32.2382   47.9612    6.4902 H         1 GLU         0.1883
     99 H22       -32.8456   48.9965    3.8198 H         1 GLU         0.0801
    100 H23       -35.0994   48.5551    4.7072 H         1 GLU         0.0330
    101 H24       -34.7559   50.3183    4.7070 H         1 GLU         0.0330
    102 H25       -34.5278   50.3863    7.0586 H         1 GLU         0.0433
    103 H26       -34.3861   48.5999    7.1828 H         1 GLU         0.0433
    104 H27       -32.3311   51.2757    3.9295 H         1 FAK         0.1883
    105 H28       -29.8608   51.7648    5.1191 H         1 FAK         0.0800
    106 H29       -31.5388   54.1408    4.7579 H         1 FAK         0.0312
    107 H30       -31.7609   52.9596    3.4229 H         1 FAK         0.0312
    108 H31       -29.2739   52.8468    3.1581 H         1 FAK         0.0268
    109 H32       -29.1092   54.1121    4.4224 H         1 FAK         0.0268
    110 H33       -31.1662   55.1565    2.8533 H         1 FAK         0.0285
    111 H34       -30.1556   54.3413    1.6120 H         1 FAK         0.0285
    112 H35       -28.1342   55.5008    2.5355 H         1 FAK         0.0522
    113 H36       -29.1878   56.3607    3.7090 H         1 FAK         0.0522
    114 H37       -30.3500   56.6934    1.1461 H         1 FAK         0.1859
    115 H38       -29.2098   52.5801    7.1060 H         1 LYS         0.1883
    116 H39       -31.1033   54.1219    8.7375 H         1 LYS         0.0800
    117 H40       -31.7745   51.7935    9.2696 H         1 LYS         0.0312
    118 H41       -31.0064   52.6143   10.6707 H         1 LYS         0.0312
    119 H42       -29.0675   51.3064   10.5264 H         1 LYS         0.0269
    120 H43       -29.4363   50.7764    8.8502 H         1 LYS         0.0269
    121 H44       -31.4118   50.0902   11.0220 H         1 LYS         0.0317
    122 H45       -29.8602   49.1864   10.9726 H         1 LYS         0.0317
    123 H46       -30.3024   48.2640    8.8784 H         1 LYS         0.0813
    124 H47       -31.4537   49.5681    8.4307 H         1 LYS         0.0813
    125 H48       -32.5618   47.4912    8.8335 H         1 LYS         0.1994
    126 H49       -33.0274   48.5997    9.9577 H         1 LYS         0.1994
    127 H50       -31.9724   47.4046   10.3680 H         1 LYS         0.1994
    128 H51       -29.8523   55.6414    9.7194 H         1 TYR         0.1885
    129 H52       -26.9989   55.4636    9.1477 H         1 TYR         0.0821
    130 H53       -28.5829   57.6504   10.5381 H         1 TYR         0.0453
    131 H54       -28.3175   57.5088    8.7672 H         1 TYR         0.0453
    132 H55       -25.9544   57.6063    7.9122 H         1 TYR         0.0530
    133 H56       -26.9842   58.6755   11.9118 H         1 TYR         0.0530
    134 H57       -23.8404   58.8584    8.1242 H         1 TYR         0.0525
    135 H58       -24.8746   59.8940   12.1568 H         1 TYR         0.0525
    136 H59       -22.5646   60.1035    9.4381 H         1 TYR         0.2458
    137 H60       -25.5117   56.4564   10.8504 H         1 VAL         0.1876
    138 H61       -24.0860   54.8045   11.8972 H         1 VAL         0.0729
    139 H62       -24.0441   57.0951   12.8852 H         1 VAL         0.0336
    140 H63       -25.1058   57.4971   15.0869 H         1 VAL         0.0234
    141 H64       -25.9387   55.9096   14.9737 H         1 VAL         0.0234
    142 H65       -26.3275   57.2136   13.8010 H         1 VAL         0.0234
    143 H66       -22.4905   55.2889   13.5800 H         1 VAL         0.0234
    144 H67       -23.6384   54.8118   14.8766 H         1 VAL         0.0234
    145 H68       -22.8489   56.4245   14.9248 H         1 VAL         0.0234
@<TRIPOS>BOND
     1    1    2 1  
     2    2    3 1  
     3    3    4 2  
     4    3    5 am 
     5    5    6 1  
     6    6    7 1  
     7    6    9 1  
     8    7    8 2  
     9    7   14 am 
    10    9   10 1  
    11   10   11 1  
    12   11   12 ar 
    13   11   13 ar 
    14   14   15 1  
    15   15   16 1  
    16   15   18 1  
    17   16   17 2  
    18   16   25 am 
    19   18   19 1  
    20   19   20 ar 
    21   19   21 ar 
    22   20   22 ar 
    23   21   23 ar 
    24   22   24 ar 
    25   23   24 ar 
    26   25   26 1  
    27   26   27 1  
    28   26   29 1  
    29   27   28 2  
    30   27   34 am 
    31   29   30 1  
    32   30   31 1  
    33   31   32 ar 
    34   31   33 ar 
    35   34   35 1  
    36   35   36 1  
    37   35   38 1  
    38   36   37 2  
    39   36   49 am 
    40   38   39 1  
    41   39   40 1  
    42   40   41 1  
    43   41   42 1  
    44   42   43 am 
    45   43   44 2  
    46   43   45 1  
    47   45   46 1  
    48   45   47 1  
    49   45   48 1  
    50   49   50 1  
    51   50   51 1  
    52   50   53 1  
    53   51   52 2  
    54   51   58 am 
    55   53   54 1  
    56   54   55 1  
    57   55   56 1  
    58   56   57 1  
    59   58   59 1  
    60   59   60 1  
    61   59   62 1  
    62   60   61 2  
    63   60   70 am 
    64   62   63 1  
    65   63   64 ar 
    66   63   65 ar 
    67   64   66 ar 
    68   65   67 ar 
    69   66   68 ar 
    70   67   68 ar 
    71   68   69 1  
    72   70   71 1  
    73   71   72 1  
    74   71   74 1  
    75   72   73 ar 
    76   72   77 ar 
    77   74   75 1  
    78   74   76 1  
    79    1   78 1  
    80    1   79 1  
    81    1   80 1  
    82    2   81 1  
    83    2   82 1  
    84    5   83 1  
    85    6   84 1  
    86    9   85 1  
    87    9   86 1  
    88   10   87 1  
    89   10   88 1  
    90   14   89 1  
    91   15   90 1  
    92   18   91 1  
    93   18   92 1  
    94   20   93 1  
    95   21   94 1  
    96   22   95 1  
    97   23   96 1  
    98   24   97 1  
    99   25   98 1  
   100   26   99 1  
   101   29  100 1  
   102   29  101 1  
   103   30  102 1  
   104   30  103 1  
   105   34  104 1  
   106   35  105 1  
   107   38  106 1  
   108   38  107 1  
   109   39  108 1  
   110   39  109 1  
   111   40  110 1  
   112   40  111 1  
   113   41  112 1  
   114   41  113 1  
   115   42  114 1  
   116   49  115 1  
   117   50  116 1  
   118   53  117 1  
   119   53  118 1  
   120   54  119 1  
   121   54  120 1  
   122   55  121 1  
   123   55  122 1  
   124   56  123 1  
   125   56  124 1  
   126   57  125 1  
   127   57  126 1  
   128   57  127 1  
   129   58  128 1  
   130   59  129 1  
   131   62  130 1  
   132   62  131 1  
   133   64  132 1  
   134   65  133 1  
   135   66  134 1  
   136   67  135 1  
   137   69  136 1  
   138   70  137 1  
   139   71  138 1  
   140   74  139 1  
   141   75  140 1  
   142   75  141 1  
   143   75  142 1  
   144   76  143 1  
   145   76  144 1  
   146   76  145 1  
@<TRIPOS>SUBSTRUCTURE
     1 GLY         1

