5fyq_ligand
  -I-interpret- 

148149  0  0  0  0  0  0  0  0999 V2000
  -37.3740   46.7460   12.6570 N   0  3  0  0  0
  -36.3630   47.1330   11.6230 C   0  0  0  0  0
  -35.9560   45.8640   10.9070 C   0  0  0  0  0
  -36.2760   44.7550   11.4030 O   0  0  0  0  0
  -35.2690   45.9940    9.7630 N   0  0  0  0  0
  -35.0660   44.8080    8.9030 C   0  0  0  0  0
  -33.7390   44.8170    8.1210 C   0  0  0  0  0
  -32.7020   44.3540    8.6240 O   0  0  0  0  0
  -36.3450   44.6100    8.0360 C   0  0  0  0  0
  -36.2080   44.1180    6.5940 C   0  0  0  0  0
  -37.1650   44.8340    5.6410 C   0  0  0  0  0
  -37.4510   46.0360    5.8780 O   0  0  0  0  0
  -37.6340   44.1910    4.6530 O   0  0  0  0  0
  -33.7780   45.3370    6.8910 N   0  0  0  0  0
  -32.5760   45.5630    6.1210 C   0  0  0  0  0
  -32.8790   46.6720    5.1020 C   0  0  0  0  0
  -33.2920   46.4590    3.9540 O   0  0  0  0  0
  -31.9470   44.2900    5.5400 C   0  0  0  0  0
  -32.8830   43.3960    4.7630 C   0  0  0  0  0
  -34.0620   43.8520    4.2170 C   0  0  0  0  0
  -32.5280   42.0580    4.5480 C   0  0  0  0  0
  -34.8880   42.9900    3.4990 C   0  0  0  0  0
  -33.3490   41.1910    3.8330 C   0  0  0  0  0
  -34.5290   41.6570    3.2990 C   0  0  0  0  0
  -32.6720   47.8780    5.5930 N   0  0  0  0  0
  -33.0400   49.0690    4.9000 C   0  0  0  0  0
  -32.2050   50.1340    5.5530 C   0  0  0  0  0
  -31.9360   50.0460    6.7410 O   0  0  0  0  0
  -34.5030   49.3540    5.1720 C   0  0  0  0  0
  -34.8770   49.4270    6.6490 C   0  0  0  0  0
  -36.3930   49.3210    6.8540 C   0  0  0  0  0
  -37.0740   48.6980    5.9960 O   0  0  0  0  0
  -36.9250   49.8570    7.8650 O   0  0  0  0  0
  -31.8710   51.1700    4.8110 N   0  0  0  0  0
  -30.8800   52.1740    5.1800 C   0  0  0  0  0
  -31.1560   52.7370    6.5720 C   0  0  0  0  0
  -32.3050   53.0990    6.8710 O   0  0  0  0  0
  -31.0890   53.2870    4.2300 C   0  0  0  0  0
  -29.7710   53.6970    3.6480 C   0  0  0  0  0
  -30.1620   54.7700    2.6250 C   0  0  0  0  0
  -29.1480   55.8870    2.7170 C   0  0  0  0  0
  -29.5200   56.8410    1.6840 N   0  0  0  0  0
  -28.7580   57.9140    1.4500 C   0  0  0  0  0
  -27.7040   58.1990    2.0370 O   0  0  0  0  0
  -29.2890   58.8600    0.3120 C   0  0  0  0  0
  -29.0590   60.2290    0.7640 F   0  0  0  0  0
  -30.6480   58.6940    0.0140 F   0  0  0  0  0
  -28.6680   58.6400   -0.7160 F   0  0  0  0  0
  -30.1280   52.8400    7.4050 N   0  0  0  0  0
  -30.3430   53.3270    8.7380 C   0  0  0  0  0
  -28.9930   53.9060    9.1300 C   0  0  0  0  0
  -27.9460   53.2400    9.0110 O   0  0  0  0  0
  -30.8290   52.1840    9.6740 C   0  0  0  0  0
  -29.8700   51.0170    9.8320 C   0  0  0  0  0
  -30.5760   49.7750   10.3800 C   0  0  0  0  0
  -31.1190   48.9050    9.2420 C   0  0  0  0  0
  -32.2630   48.0290    9.6320 N   0  3  0  0  0
  -28.9910   55.1500    9.5900 N   0  0  0  0  0
  -27.7270   55.7920    9.9040 C   0  0  0  0  0
  -27.1420   55.3920   11.2810 C   0  0  0  0  0
  -27.8100   54.8330   12.1360 O   0  0  0  0  0
  -27.8900   57.3000    9.7590 C   0  0  0  0  0
  -26.6100   58.0610    9.8900 C   0  0  0  0  0
  -25.7210   58.1160    8.8400 C   0  0  0  0  0
  -26.2890   58.7140   11.0810 C   0  0  0  0  0
  -24.5330   58.8150    8.9570 C   0  0  0  0  0
  -25.1140   59.4020   11.2210 C   0  0  0  0  0
  -24.2340   59.4620   10.1520 C   0  0  0  0  0
  -23.0420   60.1670   10.2570 O   0  0  0  0  0
  -25.8750   55.7450   11.4520 N   0  0  0  0  0
  -24.9580   55.1750   12.4560 C   0  0  0  0  0
  -25.5360   53.9830   13.1930 C   0  0  0  0  0
  -25.2450   52.8390   12.8170 O   0  0  0  0  0
  -24.4240   56.2390   13.4620 C   0  0  0  0  0
  -25.5270   56.7510   14.3970 C   0  0  0  0  0
  -23.2700   55.6500   14.2670 C   0  0  0  0  0
  -26.2890   54.1740   14.1580 O   0  0  0  0  0
  -37.6752   47.5780   13.1644 H   0  0  0  0  0
  -38.1779   46.3152   12.2003 H   0  0  0  0  0
  -36.9553   46.0821   13.3084 H   0  0  0  0  0
  -35.4989   47.6085   12.0870 H   0  0  0  0  0
  -36.7842   47.8536   10.9220 H   0  0  0  0  0
  -34.8906   46.9007    9.4889 H   0  0  0  0  0
  -34.9404   43.9249    9.5294 H   0  0  0  0  0
  -36.7773   45.6068    7.9486 H   0  0  0  0  0
  -36.9053   43.8252    8.5443 H   0  0  0  0  0
  -36.4469   43.0547    6.5762 H   0  0  0  0  0
  -35.1891   44.3202    6.2639 H   0  0  0  0  0
  -37.2873   43.2958    4.6616 H   0  0  0  0  0
  -34.6809   45.5812    6.4842 H   0  0  0  0  0
  -31.7766   45.9043    6.7787 H   0  0  0  0  0
  -31.5931   43.7046    6.3886 H   0  0  0  0  0
  -31.1782   44.6165    4.8396 H   0  0  0  0  0
  -34.3511   44.8948    4.3475 H   0  0  0  0  0
  -31.5855   41.6868    4.9506 H   0  0  0  0  0
  -35.8267   43.3619    3.0883 H   0  0  0  0  0
  -33.0593   40.1491    3.6967 H   0  0  0  0  0
  -35.1755   40.9920    2.7264 H   0  0  0  0  0
  -32.2295   47.9629    6.5081 H   0  0  0  0  0
  -32.8911   49.0084    3.8219 H   0  0  0  0  0
  -35.0712   48.5291    4.7422 H   0  0  0  0  0
  -34.7201   50.3318    4.7420 H   0  0  0  0  0
  -34.5430   50.3874    7.0415 H   0  0  0  0  0
  -34.4007   48.5941    7.1662 H   0  0  0  0  0
  -36.2463   50.2805    8.3956 H   0  0  0  0  0
  -32.3403   51.2778    3.9118 H   0  0  0  0  0
  -29.8796   51.7414    5.1640 H   0  0  0  0  0
  -31.5356   54.1330    4.7524 H   0  0  0  0  0
  -31.7555   52.9634    3.4305 H   0  0  0  0  0
  -29.2307   52.8635    3.1991 H   0  0  0  0  0
  -29.0743   54.0660    4.4006 H   0  0  0  0  0
  -31.1621   55.1483    2.8367 H   0  0  0  0  0
  -30.1712   54.3490    1.6196 H   0  0  0  0  0
  -28.1335   55.5166    2.5698 H   0  0  0  0  0
  -29.1524   56.3481    3.7047 H   0  0  0  0  0
  -30.3666   56.6905    1.1354 H   0  0  0  0  0
  -29.1915   52.5749    7.1000 H   0  0  0  0  0
  -31.1290   54.0785    8.8128 H   0  0  0  0  0
  -31.7375   51.7811    9.2264 H   0  0  0  0  0
  -30.9494   52.6234   10.6642 H   0  0  0  0  0
  -29.0892   51.3067   10.5352 H   0  0  0  0  0
  -29.4596   50.7745    8.8518 H   0  0  0  0  0
  -31.4102   50.0941   11.0048 H   0  0  0  0  0
  -29.8583   49.1902   10.9553 H   0  0  0  0  0
  -30.3078   48.2507    8.9229 H   0  0  0  0  0
  -31.4812   49.5800    8.4666 H   0  0  0  0  0
  -32.5644   47.4853    8.8233 H   0  0  0  0  0
  -31.9678   47.3977   10.3768 H   0  0  0  0  0
  -33.0358   48.6075    9.9614 H   0  0  0  0  0
  -29.8695   55.6512    9.7220 H   0  0  0  0  0
  -26.9855   55.4343    9.1896 H   0  0  0  0  0
  -28.5499   57.6339   10.5597 H   0  0  0  0  0
  -28.2800   57.4900    8.7590 H   0  0  0  0  0
  -25.9557   57.6035    7.9071 H   0  0  0  0  0
  -26.9880   58.6753   11.9164 H   0  0  0  0  0
  -23.8366   58.8586    8.1196 H   0  0  0  0  0
  -24.8733   59.8968   12.1620 H   0  0  0  0  0
  -22.9772   60.5553   11.1326 H   0  0  0  0  0
  -25.5045   56.4706   10.8383 H   0  0  0  0  0
  -24.1091   54.8114   11.8769 H   0  0  0  0  0
  -24.6550   52.8921   12.0615 H   0  0  0  0  0
  -24.0685   57.0954   12.8890 H   0  0  0  0  0
  -26.3195   57.2090   13.8052 H   0  0  0  0  0
  -25.9341   55.9164   14.9678 H   0  0  0  0  0
  -25.1084   57.4901   15.0800 H   0  0  0  0  0
  -23.6205   54.7760   14.8160 H   0  0  0  0  0
  -22.4680   55.3574   13.5893 H   0  0  0  0  0
  -22.8998   56.3972   14.9690 H   0  0  0  0  0
  1  2  1  0  0  0
  2  3  1  0  0  0
  3  4  2  0  0  0
  3  5  1  0  0  0
  5  6  1  0  0  0
  6  7  1  0  0  0
  6  9  1  0  0  0
  7  8  2  0  0  0
  7 14  1  0  0  0
  9 10  1  0  0  0
 10 11  1  0  0  0
 11 12  2  0  0  0
 11 13  1  0  0  0
 14 15  1  0  0  0
 15 16  1  0  0  0
 15 18  1  0  0  0
 16 17  2  0  0  0
 16 25  1  0  0  0
 18 19  1  0  0  0
 19 20  4  0  0  0
 19 21  4  0  0  0
 20 22  4  0  0  0
 21 23  4  0  0  0
 22 24  4  0  0  0
 23 24  4  0  0  0
 25 26  1  0  0  0
 26 27  1  0  0  0
 26 29  1  0  0  0
 27 28  2  0  0  0
 27 34  1  0  0  0
 29 30  1  0  0  0
 30 31  1  0  0  0
 31 32  2  0  0  0
 31 33  1  0  0  0
 34 35  1  0  0  0
 35 36  1  0  0  0
 35 38  1  0  0  0
 36 37  2  0  0  0
 36 49  1  0  0  0
 38 39  1  0  0  0
 39 40  1  0  0  0
 40 41  1  0  0  0
 41 42  1  0  0  0
 42 43  1  0  0  0
 43 44  2  0  0  0
 43 45  1  0  0  0
 45 46  1  0  0  0
 45 47  1  0  0  0
 45 48  1  0  0  0
 49 50  1  0  0  0
 50 51  1  0  0  0
 50 53  1  0  0  0
 51 52  2  0  0  0
 51 58  1  0  0  0
 53 54  1  0  0  0
 54 55  1  0  0  0
 55 56  1  0  0  0
 56 57  1  0  0  0
 58 59  1  0  0  0
 59 60  1  0  0  0
 59 62  1  0  0  0
 60 61  2  0  0  0
 60 70  1  0  0  0
 62 63  1  0  0  0
 63 64  4  0  0  0
 63 65  4  0  0  0
 64 66  4  0  0  0
 65 67  4  0  0  0
 66 68  4  0  0  0
 67 68  4  0  0  0
 68 69  1  0  0  0
 70 71  1  0  0  0
 71 72  1  0  0  0
 71 74  1  0  0  0
 72 73  1  0  0  0
 72 77  2  0  0  0
 74 75  1  0  0  0
 74 76  1  0  0  0
  1 78  1  0  0  0
  1 79  1  0  0  0
  1 80  1  0  0  0
  2 81  1  0  0  0
  2 82  1  0  0  0
  5 83  1  0  0  0
  6 84  1  0  0  0
  9 85  1  0  0  0
  9 86  1  0  0  0
 10 87  1  0  0  0
 10 88  1  0  0  0
 13 89  1  0  0  0
 14 90  1  0  0  0
 15 91  1  0  0  0
 18 92  1  0  0  0
 18 93  1  0  0  0
 20 94  1  0  0  0
 21 95  1  0  0  0
 22 96  1  0  0  0
 23 97  1  0  0  0
 24 98  1  0  0  0
 25 99  1  0  0  0
 26100  1  0  0  0
 29101  1  0  0  0
 29102  1  0  0  0
 30103  1  0  0  0
 30104  1  0  0  0
 33105  1  0  0  0
 34106  1  0  0  0
 35107  1  0  0  0
 38108  1  0  0  0
 38109  1  0  0  0
 39110  1  0  0  0
 39111  1  0  0  0
 40112  1  0  0  0
 40113  1  0  0  0
 41114  1  0  0  0
 41115  1  0  0  0
 42116  1  0  0  0
 49117  1  0  0  0
 50118  1  0  0  0
 53119  1  0  0  0
 53120  1  0  0  0
 54121  1  0  0  0
 54122  1  0  0  0
 55123  1  0  0  0
 55124  1  0  0  0
 56125  1  0  0  0
 56126  1  0  0  0
 57127  1  0  0  0
 57128  1  0  0  0
 57129  1  0  0  0
 58130  1  0  0  0
 59131  1  0  0  0
 62132  1  0  0  0
 62133  1  0  0  0
 64134  1  0  0  0
 65135  1  0  0  0
 66136  1  0  0  0
 67137  1  0  0  0
 69138  1  0  0  0
 70139  1  0  0  0
 71140  1  0  0  0
 73141  1  0  0  0
 74142  1  0  0  0
 75143  1  0  0  0
 75144  1  0  0  0
 75145  1  0  0  0
 76146  1  0  0  0
 76147  1  0  0  0
 76148  1  0  0  0
M  END
$$$$
