4avt_ligand
  -I-interpret- 

 48 49  0  0  0  0  0  0  0  0999 V2000
   56.5780  193.0840   81.4710 N   0  0  0  0  0
   55.9580  191.8060   81.5230 C   0  0  0  0  0
   56.7440  190.9890   82.4420 C   0  0  0  0  0
   57.5970  191.9530   83.1870 C   0  0  0  0  0
   57.6990  193.1610   82.3320 C   0  0  0  0  0
   55.9450  191.1830   80.1650 C   0  0  0  0  0
   55.0640  190.3240   79.8820 O   0  0  0  0  0
   56.7810  191.4880   79.2670 O   0  0  0  0  0
   56.1120  194.1640   80.6130 C   0  0  0  0  0
   55.1510  193.9630   79.9100 O   0  0  0  0  0
   56.7970  195.5170   80.5500 C   0  0  0  0  0
   56.8060  196.1200   79.1480 C   0  0  0  0  0
   56.8340  195.1610   77.9690 C   0  0  0  0  0
   56.8710  195.7140   76.5420 C   0  0  0  0  0
   56.8780  197.2190   76.4600 C   0  0  0  0  0
   57.4430  197.8570   77.3150 O   0  0  0  0  0
   56.2300  197.9550   75.4410 N   0  0  0  0  0
   55.5150  197.4200   74.3550 C   0  0  0  0  0
   55.3760  198.5530   73.4110 C   0  0  0  0  0
   55.5900  199.8110   74.1820 C   0  0  0  0  0
   56.2620  199.3770   75.4270 C   0  0  0  0  0
   54.1840  196.9170   74.7310 C   0  0  0  0  0
   53.5380  196.2190   73.9270 O   0  0  0  0  0
   53.6490  197.1660   75.8380 O   0  0  0  0  0
   54.9249  191.8891   81.8606 H   0  0  0  0  0
   57.3425  190.2487   81.9111 H   0  0  0  0  0
   56.1074  190.4126   83.1132 H   0  0  0  0  0
   58.5812  191.5313   83.3908 H   0  0  0  0  0
   57.1630  192.1937   84.1575 H   0  0  0  0  0
   57.6988  194.0784   82.9206 H   0  0  0  0  0
   58.6373  193.1905   81.7781 H   0  0  0  0  0
   57.3905  192.1462   79.6090 H   0  0  0  0  0
   57.8336  195.3776   80.8568 H   0  0  0  0  0
   56.2459  196.1974   81.1992 H   0  0  0  0  0
   57.7314  196.6922   79.0816 H   0  0  0  0  0
   55.8670  196.6662   79.0585 H   0  0  0  0  0
   55.8886  194.6220   78.0305 H   0  0  0  0  0
   57.7731  194.6186   78.0781 H   0  0  0  0  0
   55.9662  195.3697   76.0411 H   0  0  0  0  0
   57.7971  195.3637   76.0862 H   0  0  0  0  0
   56.0389  196.5603   73.9372 H   0  0  0  0  0
   54.3854  198.5496   72.9562 H   0  0  0  0  0
   56.1078  198.4704   72.6075 H   0  0  0  0  0
   54.6526  200.3290   74.3845 H   0  0  0  0  0
   56.1889  200.5324   73.6262 H   0  0  0  0  0
   57.2891  199.7406   75.4585 H   0  0  0  0  0
   55.7544  199.7834   76.3018 H   0  0  0  0  0
   54.2418  197.7077   76.3640 H   0  0  0  0  0
  1  2  1  0  0  0
  1  5  1  0  0  0
  1  9  1  0  0  0
  2  3  1  0  0  0
  2  6  1  0  0  0
  3  4  1  0  0  0
  4  5  1  0  0  0
  6  7  2  0  0  0
  6  8  1  0  0  0
  9 10  2  0  0  0
  9 11  1  0  0  0
 11 12  1  0  0  0
 12 13  1  0  0  0
 13 14  1  0  0  0
 14 15  1  0  0  0
 15 16  2  0  0  0
 15 17  1  0  0  0
 17 18  1  0  0  0
 17 21  1  0  0  0
 18 19  1  0  0  0
 18 22  1  0  0  0
 19 20  1  0  0  0
 20 21  1  0  0  0
 22 23  2  0  0  0
 22 24  1  0  0  0
  2 25  1  0  0  0
  3 26  1  0  0  0
  3 27  1  0  0  0
  4 28  1  0  0  0
  4 29  1  0  0  0
  5 30  1  0  0  0
  5 31  1  0  0  0
  8 32  1  0  0  0
 11 33  1  0  0  0
 11 34  1  0  0  0
 12 35  1  0  0  0
 12 36  1  0  0  0
 13 37  1  0  0  0
 13 38  1  0  0  0
 14 39  1  0  0  0
 14 40  1  0  0  0
 18 41  1  0  0  0
 19 42  1  0  0  0
 19 43  1  0  0  0
 20 44  1  0  0  0
 20 45  1  0  0  0
 21 46  1  0  0  0
 21 47  1  0  0  0
 24 48  1  0  0  0
M  END
$$$$
