### 
### Created by X-TOOL on Mon Sep 10 21:12:51 2018
### 

@<TRIPOS>MOLECULE
1ok7_ligand
  124   123     1     0     0
SMALL
GAST_HUCK


@<TRIPOS>ATOM
      1 N          -6.3580    2.1940   31.4260 N.4       1 ARG         0.2379
      2 CA         -5.5560    1.7600   32.6080 C.3       1 ARG         0.0651
      3 C          -4.0830    2.1710   32.4640 C.2       1 ARG         0.2267
      4 O          -3.2500    1.8610   33.3200 O.2       1 ARG        -0.3907
      5 CB         -5.6360    0.2420   32.7640 C.3       1 ARG         0.0110
      6 CG         -7.0520   -0.3450   32.7710 C.3       1 ARG        -0.0125
      7 CD         -7.6590   -0.4070   31.3740 C.3       1 ARG         0.0629
      8 NE         -8.7040   -1.4260   31.2810 N.pl3     1 ARG        -0.2723
      9 CZ         -9.9570   -1.1950   30.8990 C.cat     1 ARG         0.2882
     10 NH1       -10.3450    0.0300   30.5710 N.pl3     1 ARG        -0.2849
     11 NH2       -10.8220   -2.1980   30.8310 N.pl3     1 ARG        -0.2849
     12 N          -3.7870    2.8820   31.3820 N.am      1 GLN        -0.2609
     13 CA         -2.4370    3.3380   31.0750 C.3       1 GLN         0.1331
     14 C          -1.8950    4.3930   32.0370 C.2       1 GLN         0.2040
     15 O          -2.5090    5.4440   32.2390 O.2       1 GLN        -0.3944
     16 CB         -2.3960    3.9010   29.6520 C.3       1 GLN         0.0045
     17 CG         -1.0200    4.3660   29.2140 C.3       1 GLN         0.0412
     18 CD         -0.0320    3.2290   29.1660 C.2       1 GLN         0.1737
     19 OE1        -0.2530    2.2320   28.4710 O.2       1 GLN        -0.3973
     20 NE2         1.0670    3.3660   29.9020 N.am      1 GLN        -0.3009
     21 N          -0.7320    4.1110   32.6160 N.am      1 LEU        -0.2637
     22 CA         -0.0850    5.0390   33.5340 C.3       1 LEU         0.1312
     23 C           0.8320    5.9420   32.7040 C.2       1 LEU         0.2039
     24 O           1.1080    5.6460   31.5370 O.2       1 LEU        -0.3944
     25 CB          0.7230    4.2700   34.5860 C.3       1 LEU        -0.0101
     26 CG         -0.0730    3.2970   35.4650 C.3       1 LEU        -0.0425
     27 CD1         0.8650    2.6890   36.4960 C.3       1 LEU        -0.0625
     28 CD2        -1.2300    4.0210   36.1510 C.3       1 LEU        -0.0625
     29 N           1.3020    7.0380   33.2980 N.am      1 VAL        -0.2635
     30 CA          2.1520    7.9780   32.5700 C.3       1 VAL         0.1332
     31 C           3.5290    8.2020   33.1860 C.2       1 VAL         0.2041
     32 O           3.7330    8.0500   34.3910 O.2       1 VAL        -0.3944
     33 CB          1.4650    9.3580   32.4230 C.3       1 VAL        -0.0063
     34 CG1         0.1790    9.2200   31.6160 C.3       1 VAL        -0.0584
     35 CG2         1.1660    9.9390   33.7920 C.3       1 VAL        -0.0584
     36 N           4.4770    8.5790   32.3390 N.am      1 LEU        -0.2637
     37 CA          5.8420    8.8310   32.7820 C.3       1 LEU         0.1312
     38 C           5.9920   10.1620   33.5030 C.2       1 LEU         0.2037
     39 O           5.2080   11.0950   33.2940 O.2       1 LEU        -0.3944
     40 CB          6.7970    8.8230   31.5840 C.3       1 LEU        -0.0101
     41 CG          6.9740    7.4980   30.8430 C.3       1 LEU        -0.0425
     42 CD1         7.7050    7.7500   29.5360 C.3       1 LEU        -0.0625
     43 CD2         7.7380    6.5150   31.7260 C.3       1 LEU        -0.0625
     44 N           7.0020   10.2400   34.3590 N.am      1 GLY        -0.2664
     45 CA          7.2730   11.4790   35.0640 C.3       1 GLY         0.1201
     46 C           8.2770   12.2480   34.2200 C.2       1 GLY         0.2002
     47 O           9.4840   12.1770   34.4530 O.2       1 GLY        -0.3947
     48 N           7.7710   12.9760   33.2300 N.am      1 LEU        -0.2697
     49 CA          8.6100   13.7450   32.3160 C.3       1 LEU         0.0946
     50 C           9.2270   14.9900   32.9380 C.2       1 LEU         0.0601
     51 O          10.0310   15.6540   32.2430 O.co2     1 LEU        -0.5666
     52 CB          7.7980   14.1260   31.0780 C.3       1 LEU        -0.0156
     53 CG          7.3280   12.9240   30.2550 C.3       1 LEU        -0.0431
     54 CD1         6.3940   13.3780   29.1440 C.3       1 LEU        -0.0625
     55 CD2         8.5370   12.2000   29.6880 C.3       1 LEU        -0.0625
     56 OXT         8.9010   15.2860   34.1070 O.co2     1 LEU        -0.5666
     57 H1         -7.3176    1.9111   31.5489 H         1 ARG         0.2015
     58 H2         -5.9859    1.7668   30.5923 H         1 ARG         0.2015
     59 H3         -6.3121    3.1972   31.3388 H         1 ARG         0.2015
     60 H4         -5.9710    2.2365   33.5084 H         1 ARG         0.1098
     61 H5         -5.1524   -0.0273   33.7146 H         1 ARG         0.0347
     62 H6         -5.0837   -0.2144   31.9294 H         1 ARG         0.0347
     63 H7         -7.6924    0.2834   33.4074 H         1 ARG         0.0302
     64 H8         -7.0108   -1.3635   33.1843 H         1 ARG         0.0302
     65 H9         -6.8648   -0.6443   30.6508 H         1 ARG         0.0689
     66 H10        -8.0950    0.5733   31.1313 H         1 ARG         0.0689
     67 H11        -8.4512   -2.3931   31.5294 H         1 ARG         0.2642
     68 H12       -11.3170    0.2007   30.2762 H         1 ARG         0.2615
     69 H13        -9.6743    0.8107   30.6111 H         1 ARG         0.2615
     70 H14       -10.5260   -3.1514   31.0846 H         1 ARG         0.2615
     71 H15       -11.7898   -2.0236   30.5246 H         1 ARG         0.2615
     72 H16        -4.5246    3.1154   30.7484 H         1 GLN         0.1885
     73 H17        -1.7714    2.4638   31.1271 H         1 GLN         0.0801
     74 H18        -3.0842    4.7574   29.5985 H         1 GLN         0.0337
     75 H19        -2.7330    3.1159   28.9591 H         1 GLN         0.0337
     76 H20        -0.6571    5.1227   29.9251 H         1 GLN         0.0504
     77 H21        -1.0977    4.8122   28.2116 H         1 GLN         0.0504
     78 H22         1.7576    2.6428   29.9088 H         1 GLN         0.1814
     79 H23         1.2029    4.1922   30.4487 H         1 GLN         0.1814
     80 H24        -0.2888    3.2372   32.4158 H         1 LEU         0.1883
     81 H25        -0.8459    5.6504   34.0411 H         1 LEU         0.0800
     82 H26         1.2017    5.0068   35.2477 H         1 LEU         0.0315
     83 H27         1.4971    3.6921   34.0598 H         1 LEU         0.0315
     84 H28        -0.4827    2.4944   34.8341 H         1 LEU         0.0298
     85 H29         0.3051    1.9886   37.1331 H         1 LEU         0.0232
     86 H30         1.2935    3.4884   37.1184 H         1 LEU         0.0232
     87 H31         1.6748    2.1502   35.9823 H         1 LEU         0.0232
     88 H32        -1.8956    4.4528   35.3891 H         1 LEU         0.0232
     89 H33        -0.8331    4.8244   36.7890 H         1 LEU         0.0232
     90 H34        -1.7945    3.3072   36.7689 H         1 LEU         0.0232
     91 H35         1.0704    7.2197   34.2537 H         1 VAL         0.1883
     92 H36         2.3030    7.5596   31.5639 H         1 VAL         0.0802
     93 H37         2.1459   10.0383   31.8905 H         1 VAL         0.0343
     94 H38        -0.2999   10.2054   31.5181 H         1 VAL         0.0234
     95 H39        -0.5049    8.5295   32.1312 H         1 VAL         0.0234
     96 H40         0.4139    8.8256   30.6164 H         1 VAL         0.0234
     97 H41         2.1016   10.0329   34.3627 H         1 VAL         0.0234
     98 H42         0.4739    9.2740   34.3294 H         1 VAL         0.0234
     99 H43         0.7057   10.9314   33.6766 H         1 VAL         0.0234
    100 H44         4.2494    8.6932   31.3720 H         1 LEU         0.1883
    101 H45         6.1301    8.0260   33.4741 H         1 LEU         0.0800
    102 H46         7.7874    9.1339   31.9478 H         1 LEU         0.0315
    103 H47         6.4245    9.5611   30.8584 H         1 LEU         0.0315
    104 H48         5.9836    7.0750   30.6192 H         1 LEU         0.0298
    105 H49         7.8347    6.7987   28.9991 H         1 LEU         0.0232
    106 H50         8.6911    8.1897   29.7463 H         1 LEU         0.0232
    107 H51         7.1187    8.4440   28.9159 H         1 LEU         0.0232
    108 H52         7.1828    6.3550   32.6620 H         1 LEU         0.0232
    109 H53         8.7328    6.9247   31.9552 H         1 LEU         0.0232
    110 H54         7.8490    5.5569   31.1972 H         1 LEU         0.0232
    111 H55         7.5803    9.4401   34.5196 H         1 GLY         0.1881
    112 H56         7.6959   11.2661   36.0569 H         1 GLY         0.0763
    113 H57         6.3470   12.0618   35.1771 H         1 GLY         0.0763
    114 H58         6.7789   12.9978   33.1067 H         1 LEU         0.1875
    115 H59         9.4368   13.0925   31.9988 H         1 LEU         0.0726
    116 H60         8.4232   14.7633   30.4355 H         1 LEU         0.0308
    117 H61         6.9123   14.6909   31.4042 H         1 LEU         0.0308
    118 H62         6.7795   12.2342   30.9133 H         1 LEU         0.0297
    119 H63         6.0649   12.5046   28.5619 H         1 LEU         0.0232
    120 H64         6.9238   14.0803   28.4836 H         1 LEU         0.0232
    121 H65         5.5177   13.8774   29.5829 H         1 LEU         0.0232
    122 H66         9.1942   11.8834   30.5113 H         1 LEU         0.0232
    123 H67         9.0884   12.8761   29.0181 H         1 LEU         0.0232
    124 H68         8.2040   11.3162   29.1241 H         1 LEU         0.0232
@<TRIPOS>BOND
     1    1    2 1  
     2    2    3 1  
     3    2    5 1  
     4    3    4 2  
     5    3   12 am 
     6    5    6 1  
     7    6    7 1  
     8    7    8 1  
     9    8    9 ar 
    10    9   10 ar 
    11    9   11 ar 
    12   12   13 1  
    13   13   14 1  
    14   13   16 1  
    15   14   15 2  
    16   14   21 am 
    17   16   17 1  
    18   17   18 1  
    19   18   19 2  
    20   18   20 am 
    21   21   22 1  
    22   22   23 1  
    23   22   25 1  
    24   23   24 2  
    25   23   29 am 
    26   25   26 1  
    27   26   27 1  
    28   26   28 1  
    29   29   30 1  
    30   30   31 1  
    31   30   33 1  
    32   31   32 2  
    33   31   36 am 
    34   33   34 1  
    35   33   35 1  
    36   36   37 1  
    37   37   38 1  
    38   37   40 1  
    39   38   39 2  
    40   38   44 am 
    41   40   41 1  
    42   41   42 1  
    43   41   43 1  
    44   44   45 1  
    45   45   46 1  
    46   46   47 2  
    47   46   48 am 
    48   48   49 1  
    49   49   50 1  
    50   49   52 1  
    51   50   51 ar 
    52   50   56 ar 
    53   52   53 1  
    54   53   54 1  
    55   53   55 1  
    56    1   57 1  
    57    1   58 1  
    58    1   59 1  
    59    2   60 1  
    60    5   61 1  
    61    5   62 1  
    62    6   63 1  
    63    6   64 1  
    64    7   65 1  
    65    7   66 1  
    66    8   67 1  
    67   10   68 1  
    68   10   69 1  
    69   11   70 1  
    70   11   71 1  
    71   12   72 1  
    72   13   73 1  
    73   16   74 1  
    74   16   75 1  
    75   17   76 1  
    76   17   77 1  
    77   20   78 1  
    78   20   79 1  
    79   21   80 1  
    80   22   81 1  
    81   25   82 1  
    82   25   83 1  
    83   26   84 1  
    84   27   85 1  
    85   27   86 1  
    86   27   87 1  
    87   28   88 1  
    88   28   89 1  
    89   28   90 1  
    90   29   91 1  
    91   30   92 1  
    92   33   93 1  
    93   34   94 1  
    94   34   95 1  
    95   34   96 1  
    96   35   97 1  
    97   35   98 1  
    98   35   99 1  
    99   36  100 1  
   100   37  101 1  
   101   40  102 1  
   102   40  103 1  
   103   41  104 1  
   104   42  105 1  
   105   42  106 1  
   106   42  107 1  
   107   43  108 1  
   108   43  109 1  
   109   43  110 1  
   110   44  111 1  
   111   45  112 1  
   112   45  113 1  
   113   48  114 1  
   114   49  115 1  
   115   52  116 1  
   116   52  117 1  
   117   53  118 1  
   118   54  119 1  
   119   54  120 1  
   120   54  121 1  
   121   55  122 1  
   122   55  123 1  
   123   55  124 1  
@<TRIPOS>SUBSTRUCTURE
     1 ARG         1

