1ok7_ligand
  -I-interpret- 

124123  0  0  0  0  0  0  0  0999 V2000
   -6.3580    2.1940   31.4260 N   0  3  0  0  0
   -5.5560    1.7600   32.6080 C   0  0  0  0  0
   -4.0830    2.1710   32.4640 C   0  0  0  0  0
   -3.2500    1.8610   33.3200 O   0  0  0  0  0
   -5.6360    0.2420   32.7640 C   0  0  0  0  0
   -7.0520   -0.3450   32.7710 C   0  0  0  0  0
   -7.6590   -0.4070   31.3740 C   0  0  0  0  0
   -8.7040   -1.4260   31.2810 N   0  0  0  0  0
   -9.9570   -1.1950   30.8990 C   0  0  0  0  0
  -10.3450    0.0300   30.5710 N   0  0  0  0  0
  -10.8220   -2.1980   30.8310 N   0  0  0  0  0
   -3.7870    2.8820   31.3820 N   0  0  0  0  0
   -2.4370    3.3380   31.0750 C   0  0  0  0  0
   -1.8950    4.3930   32.0370 C   0  0  0  0  0
   -2.5090    5.4440   32.2390 O   0  0  0  0  0
   -2.3960    3.9010   29.6520 C   0  0  0  0  0
   -1.0200    4.3660   29.2140 C   0  0  0  0  0
   -0.0320    3.2290   29.1660 C   0  0  0  0  0
   -0.2530    2.2320   28.4710 O   0  0  0  0  0
    1.0670    3.3660   29.9020 N   0  0  0  0  0
   -0.7320    4.1110   32.6160 N   0  0  0  0  0
   -0.0850    5.0390   33.5340 C   0  0  0  0  0
    0.8320    5.9420   32.7040 C   0  0  0  0  0
    1.1080    5.6460   31.5370 O   0  0  0  0  0
    0.7230    4.2700   34.5860 C   0  0  0  0  0
   -0.0730    3.2970   35.4650 C   0  0  0  0  0
    0.8650    2.6890   36.4960 C   0  0  0  0  0
   -1.2300    4.0210   36.1510 C   0  0  0  0  0
    1.3020    7.0380   33.2980 N   0  0  0  0  0
    2.1520    7.9780   32.5700 C   0  0  0  0  0
    3.5290    8.2020   33.1860 C   0  0  0  0  0
    3.7330    8.0500   34.3910 O   0  0  0  0  0
    1.4650    9.3580   32.4230 C   0  0  0  0  0
    0.1790    9.2200   31.6160 C   0  0  0  0  0
    1.1660    9.9390   33.7920 C   0  0  0  0  0
    4.4770    8.5790   32.3390 N   0  0  0  0  0
    5.8420    8.8310   32.7820 C   0  0  0  0  0
    5.9920   10.1620   33.5030 C   0  0  0  0  0
    5.2080   11.0950   33.2940 O   0  0  0  0  0
    6.7970    8.8230   31.5840 C   0  0  0  0  0
    6.9740    7.4980   30.8430 C   0  0  0  0  0
    7.7050    7.7500   29.5360 C   0  0  0  0  0
    7.7380    6.5150   31.7260 C   0  0  0  0  0
    7.0020   10.2400   34.3590 N   0  0  0  0  0
    7.2730   11.4790   35.0640 C   0  0  0  0  0
    8.2770   12.2480   34.2200 C   0  0  0  0  0
    9.4840   12.1770   34.4530 O   0  0  0  0  0
    7.7710   12.9760   33.2300 N   0  0  0  0  0
    8.6100   13.7450   32.3160 C   0  0  0  0  0
    9.2270   14.9900   32.9380 C   0  0  0  0  0
   10.0310   15.6540   32.2430 O   0  0  0  0  0
    7.7980   14.1260   31.0780 C   0  0  0  0  0
    7.3280   12.9240   30.2550 C   0  0  0  0  0
    6.3940   13.3780   29.1440 C   0  0  0  0  0
    8.5370   12.2000   29.6880 C   0  0  0  0  0
    8.9010   15.2860   34.1070 O   0  0  0  0  0
   -6.2986    3.2077   31.3300 H   0  0  0  0  0
   -5.9898    1.7495   30.5850 H   0  0  0  0  0
   -7.3316    1.9202   31.5582 H   0  0  0  0  0
   -5.9714    2.2493   33.4890 H   0  0  0  0  0
   -5.1963    0.0053   33.7329 H   0  0  0  0  0
   -5.1258   -0.1867   31.9014 H   0  0  0  0  0
   -7.6819    0.2983   33.3853 H   0  0  0  0  0
   -6.9950   -1.3614   33.1605 H   0  0  0  0  0
   -6.8686   -0.6612   30.6678 H   0  0  0  0  0
   -8.1046    0.5623   31.1506 H   0  0  0  0  0
   -8.4537   -2.3837   31.5270 H   0  0  0  0  0
   -9.6808    0.8031   30.6107 H   0  0  0  0  0
  -11.7804   -2.0253   30.5276 H   0  0  0  0  0
  -10.5289   -3.1422   31.0821 H   0  0  0  0  0
   -4.5394    3.1200   30.7357 H   0  0  0  0  0
   -1.7972    2.4617   31.1796 H   0  0  0  0  0
   -3.0544    4.7694   29.6280 H   0  0  0  0  0
   -2.6971    3.0994   28.9775 H   0  0  0  0  0
   -0.6615    5.1003   29.9354 H   0  0  0  0  0
   -1.1044    4.7882   28.2126 H   0  0  0  0  0
    1.7717    2.6286   29.9084 H   0  0  0  0  0
    1.2052    4.2084   30.4602 H   0  0  0  0  0
   -0.2799    3.2198   32.4118 H   0  0  0  0  0
   -0.8272    5.6366   34.0632 H   0  0  0  0  0
    1.1411    5.0188   35.2588 H   0  0  0  0  0
    1.4450    3.6659   34.0365 H   0  0  0  0  0
   -0.4957    2.5056   34.8461 H   0  0  0  0  0
    1.6669    2.1554   35.9858 H   0  0  0  0  0
    1.2890    3.4821   37.1120 H   0  0  0  0  0
    0.3091    1.9952   37.1267 H   0  0  0  0  0
   -0.8360    4.8226   36.7757 H   0  0  0  0  0
   -1.8937    4.4406   35.3950 H   0  0  0  0  0
   -1.7830    3.3146   36.7701 H   0  0  0  0  0
    1.0657    7.2234   34.2728 H   0  0  0  0  0
    2.2990    7.5033   31.5999 H   0  0  0  0  0
    2.1384   10.0333   31.8951 H   0  0  0  0  0
    0.4131    8.8291   30.6258 H   0  0  0  0  0
   -0.4978    8.5356   32.1275 H   0  0  0  0  0
   -0.2946   10.1970   31.5197 H   0  0  0  0  0
    0.5036    9.2646   34.3347 H   0  0  0  0  0
    2.0972   10.0591   34.3456 H   0  0  0  0  0
    0.6831   10.9093   33.6759 H   0  0  0  0  0
    4.2449    8.6955   31.3526 H   0  0  0  0  0
    6.0880    8.0332   33.4827 H   0  0  0  0  0
    7.7792    9.0715   31.9860 H   0  0  0  0  0
    6.3680    9.5138   30.8581 H   0  0  0  0  0
    6.0015    7.0614   30.6154 H   0  0  0  0  0
    7.1231    8.4378   28.9225 H   0  0  0  0  0
    8.6819    8.1857   29.7457 H   0  0  0  0  0
    7.8329    6.8067   29.0050 H   0  0  0  0  0
    8.7170    6.9296   31.9664 H   0  0  0  0  0
    7.1785    6.3442   32.6457 H   0  0  0  0  0
    7.8622    5.5717   31.1942 H   0  0  0  0  0
    7.5919    9.4241   34.5228 H   0  0  0  0  0
    7.6711   11.2816   36.0593 H   0  0  0  0  0
    6.3587   12.0558   35.2033 H   0  0  0  0  0
    6.7590   12.9982   33.1042 H   0  0  0  0  0
    9.4466   13.1000   32.0474 H   0  0  0  0  0
   10.1274   15.2387   31.3829 H   0  0  0  0  0
    8.4437   14.7266   30.4374 H   0  0  0  0  0
    6.9080   14.6530   31.4220 H   0  0  0  0  0
    6.7749   12.2370   30.8956 H   0  0  0  0  0
    5.5262   13.8727   29.5801 H   0  0  0  0  0
    6.9201   14.0738   28.4904 H   0  0  0  0  0
    6.0686   12.5117   28.5680 H   0  0  0  0  0
    9.1010   12.8812   29.0508 H   0  0  0  0  0
    9.1705   11.8575   30.5062 H   0  0  0  0  0
    8.2040   11.3436   29.1016 H   0  0  0  0  0
  1  2  1  0  0  0
  2  3  1  0  0  0
  2  5  1  0  0  0
  3  4  2  0  0  0
  3 12  1  0  0  0
  5  6  1  0  0  0
  6  7  1  0  0  0
  7  8  1  0  0  0
  8  9  1  0  0  0
  9 10  2  0  0  0
  9 11  1  0  0  0
 12 13  1  0  0  0
 13 14  1  0  0  0
 13 16  1  0  0  0
 14 15  2  0  0  0
 14 21  1  0  0  0
 16 17  1  0  0  0
 17 18  1  0  0  0
 18 19  2  0  0  0
 18 20  1  0  0  0
 21 22  1  0  0  0
 22 23  1  0  0  0
 22 25  1  0  0  0
 23 24  2  0  0  0
 23 29  1  0  0  0
 25 26  1  0  0  0
 26 27  1  0  0  0
 26 28  1  0  0  0
 29 30  1  0  0  0
 30 31  1  0  0  0
 30 33  1  0  0  0
 31 32  2  0  0  0
 31 36  1  0  0  0
 33 34  1  0  0  0
 33 35  1  0  0  0
 36 37  1  0  0  0
 37 38  1  0  0  0
 37 40  1  0  0  0
 38 39  2  0  0  0
 38 44  1  0  0  0
 40 41  1  0  0  0
 41 42  1  0  0  0
 41 43  1  0  0  0
 44 45  1  0  0  0
 45 46  1  0  0  0
 46 47  2  0  0  0
 46 48  1  0  0  0
 48 49  1  0  0  0
 49 50  1  0  0  0
 49 52  1  0  0  0
 50 51  1  0  0  0
 50 56  2  0  0  0
 52 53  1  0  0  0
 53 54  1  0  0  0
 53 55  1  0  0  0
  1 57  1  0  0  0
  1 58  1  0  0  0
  1 59  1  0  0  0
  2 60  1  0  0  0
  5 61  1  0  0  0
  5 62  1  0  0  0
  6 63  1  0  0  0
  6 64  1  0  0  0
  7 65  1  0  0  0
  7 66  1  0  0  0
  8 67  1  0  0  0
 10 68  1  0  0  0
 11 69  1  0  0  0
 11 70  1  0  0  0
 12 71  1  0  0  0
 13 72  1  0  0  0
 16 73  1  0  0  0
 16 74  1  0  0  0
 17 75  1  0  0  0
 17 76  1  0  0  0
 20 77  1  0  0  0
 20 78  1  0  0  0
 21 79  1  0  0  0
 22 80  1  0  0  0
 25 81  1  0  0  0
 25 82  1  0  0  0
 26 83  1  0  0  0
 27 84  1  0  0  0
 27 85  1  0  0  0
 27 86  1  0  0  0
 28 87  1  0  0  0
 28 88  1  0  0  0
 28 89  1  0  0  0
 29 90  1  0  0  0
 30 91  1  0  0  0
 33 92  1  0  0  0
 34 93  1  0  0  0
 34 94  1  0  0  0
 34 95  1  0  0  0
 35 96  1  0  0  0
 35 97  1  0  0  0
 35 98  1  0  0  0
 36 99  1  0  0  0
 37100  1  0  0  0
 40101  1  0  0  0
 40102  1  0  0  0
 41103  1  0  0  0
 42104  1  0  0  0
 42105  1  0  0  0
 42106  1  0  0  0
 43107  1  0  0  0
 43108  1  0  0  0
 43109  1  0  0  0
 44110  1  0  0  0
 45111  1  0  0  0
 45112  1  0  0  0
 48113  1  0  0  0
 49114  1  0  0  0
 51115  1  0  0  0
 52116  1  0  0  0
 52117  1  0  0  0
 53118  1  0  0  0
 54119  1  0  0  0
 54120  1  0  0  0
 54121  1  0  0  0
 55122  1  0  0  0
 55123  1  0  0  0
 55124  1  0  0  0
M  END
$$$$
