6qri_ligand
  -I-interpret- 

133135  0  0  0  0  0  0  0  0999 V2000
   95.0640  -12.0070  117.8970 C   0  0  0  0  0
   96.2070  -11.0770  118.0540 C   0  0  0  0  0
   96.2720   -9.7590  118.2800 C   0  0  0  0  0
   95.1970   -8.7750  118.3840 C   0  0  0  0  0
   95.5350   -7.4850  118.5100 C   0  0  0  0  0
   94.4830   -6.4760  118.6490 C   0  0  0  0  0
   94.5450   -5.1470  118.8620 C   0  0  0  0  0
   95.7280   -4.3040  119.1760 C   0  0  0  0  0
   96.9740   -4.6130  118.7490 C   0  0  0  0  0
   98.2590   -3.8820  119.1000 C   0  0  0  0  0
   98.2810   -2.4110  118.6510 C   0  0  0  0  0
   97.9070   -2.2680  117.1830 C   0  0  0  0  0
   96.6940   -1.7980  116.8760 C   0  0  0  0  0
   96.3180   -1.6360  115.4860 C   0  0  0  0  0
   95.1440   -1.1730  115.0440 C   0  0  0  0  0
   93.9200   -0.7220  115.7730 C   0  0  0  0  0
   93.6550   -0.6520  117.0950 N   0  0  0  0  0
   92.3730   -0.1860  117.1230 C   0  0  0  0  0
   91.8750    0.0360  115.8690 O   0  0  0  0  0
   92.8660   -0.3260  114.9870 C   0  0  0  0  0
   91.3860    0.1670  118.1750 C   0  0  0  0  0
   90.1100   -0.7140  118.1020 C   0  0  0  0  0
   90.0580   -2.0160  118.9450 C   0  0  0  0  0
   92.0970    0.1940  119.5270 C   0  0  0  0  0
   88.9820    0.1240  118.3880 O   0  0  0  0  0
   90.2670   -3.2510  118.0870 C   0  0  0  0  0
   90.4200   -4.4630  118.9860 C   0  0  0  0  0
   90.4810   -5.6550  118.4140 C   0  0  0  0  0
   90.7280   -6.8690  119.1640 C   0  0  0  0  0
   91.0450   -7.9570  118.4580 C   0  0  0  0  0
   91.3710   -9.2030  119.1450 C   0  0  0  0  0
   91.6880  -10.3630  118.5620 C   0  0  0  0  0
   91.7330  -10.6080  117.0630 C   0  0  0  0  0
   93.1380  -11.0480  116.6310 C   0  0  0  0  0
   93.1370  -11.7390  115.2390 C   0  0  0  0  0
   94.0920  -12.9280  115.0440 C   0  0  0  0  0
   94.2830  -13.4330  113.6150 C   0  0  0  0  0
   95.2980  -14.5710  113.5090 C   0  0  0  0  0
   96.7260  -14.1840  113.8790 C   0  0  0  0  0
   93.6450  -11.7390  117.7820 O   0  0  0  0  0
   93.3740  -10.6430  114.1960 C   0  0  0  0  0
   93.5600  -14.0070  115.8050 O   0  0  0  0  0
   95.3230  -14.9950  112.1470 O   0  0  0  0  0
   89.1960   -3.4070  117.1510 O   0  0  0  0  0
   95.4370   -3.1510  120.1000 C   0  0  0  0  0
   99.4410   -4.6680  118.5050 C   0  0  0  0  0
   99.5720   -1.8480  118.9300 O   0  0  0  0  0
   99.7550   -0.4670  118.6040 C   0  0  0  0  0
  100.0060    0.3550  119.8760 C   0  0  0  0  0
  100.5660    1.7340  119.5240 C   0  0  0  0  0
  101.7340    1.6020  118.5500 C   0  0  0  0  0
  101.2470    0.8940  117.2910 C   0  0  0  0  0
  100.8460   -0.4230  117.6720 O   0  0  0  0  0
   90.5930  -11.5910  116.7890 C   0  0  0  0  0
   95.3410  -13.1900  117.8430 O   0  0  0  0  0
   98.7830    0.5250  120.6060 O   0  0  0  0  0
   98.5710   -0.3480  121.7170 C   0  0  0  0  0
  100.9800    2.4080  120.7140 O   0  0  0  0  0
  100.0840    3.4450  121.1250 C   0  0  0  0  0
  102.2620    2.8850  118.2100 O   0  0  0  0  0
  102.3180    0.8290  116.2050 C   0  0  0  0  0
   88.4240    0.1660  119.7120 C   0  0  0  0  0
   97.1814  -11.5581  117.9693 H   0  0  0  0  0
   97.2785   -9.3599  118.4053 H   0  0  0  0  0
   94.1513   -9.0815  118.3598 H   0  0  0  0  0
   96.5840   -7.1889  118.5091 H   0  0  0  0  0
   93.4701   -6.8699  118.5653 H   0  0  0  0  0
   93.5953   -4.6163  118.7946 H   0  0  0  0  0
   97.0653   -5.4734  118.0861 H   0  0  0  0  0
   98.3348   -3.8397  120.1865 H   0  0  0  0  0
   97.5292   -1.8578  119.2139 H   0  0  0  0  0
   98.6127   -2.5428  116.3991 H   0  0  0  0  0
   95.9911   -1.5378  117.6674 H   0  0  0  0  0
   97.0568   -1.9160  114.7351 H   0  0  0  0  0
   95.0659   -1.1140  113.9584 H   0  0  0  0  0
   92.8239   -0.3034  113.8980 H   0  0  0  0  0
   90.9936    1.1704  118.0100 H   0  0  0  0  0
   90.1076   -1.1156  117.0887 H   0  0  0  0  0
   89.0747   -2.0842  119.4103 H   0  0  0  0  0
   90.8548   -1.9756  119.6877 H   0  0  0  0  0
   92.5216   -0.7887  119.7325 H   0  0  0  0  0
   92.8937    0.9375  119.5023 H   0  0  0  0  0
   91.3812    0.4523  120.3074 H   0  0  0  0  0
   91.1798   -3.1410  117.5015 H   0  0  0  0  0
   90.4779   -4.3557  120.0692 H   0  0  0  0  0
   90.3397   -5.7258  117.3355 H   0  0  0  0  0
   90.6585   -6.8933  120.2515 H   0  0  0  0  0
   91.0604   -7.9148  117.3689 H   0  0  0  0  0
   91.3543   -9.1857  120.2347 H   0  0  0  0  0
   91.9341  -11.2009  119.2143 H   0  0  0  0  0
   91.5698   -9.7188  116.4542 H   0  0  0  0  0
   93.8414  -10.2492  116.3962 H   0  0  0  0  0
   92.1664  -12.2227  115.1292 H   0  0  0  0  0
   95.0746  -12.5719  115.3536 H   0  0  0  0  0
   94.6561  -12.6010  113.0178 H   0  0  0  0  0
   93.3224  -13.8139  113.2681 H   0  0  0  0  0
   94.9802  -15.3396  114.2136 H   0  0  0  0  0
   97.0695  -13.3903  113.2156 H   0  0  0  0  0
   96.7502  -13.8329  114.9106 H   0  0  0  0  0
   97.3753  -15.0532  113.7743 H   0  0  0  0  0
   92.5760   -9.9033  114.2604 H   0  0  0  0  0
   94.3333  -10.1622  114.3876 H   0  0  0  0  0
   93.3808  -11.0862  113.2002 H   0  0  0  0  0
   94.1289  -14.7745  115.7110 H   0  0  0  0  0
   95.9537  -15.7119  112.0477 H   0  0  0  0  0
   89.3483   -4.1922  116.6201 H   0  0  0  0  0
   95.9755   -3.2931  121.0370 H   0  0  0  0  0
   95.7596   -2.2212  119.6315 H   0  0  0  0  0
   94.3660   -3.1071  120.2980 H   0  0  0  0  0
   99.4557   -5.6734  118.9257 H   0  0  0  0  0
   99.3281   -4.7273  117.4225 H   0  0  0  0  0
  100.3734   -4.1579  118.7469 H   0  0  0  0  0
   98.8691   -0.0225  118.1505 H   0  0  0  0  0
  100.7292   -0.1843  120.4878 H   0  0  0  0  0
   99.7840    2.3204  119.0415 H   0  0  0  0  0
  102.5281    1.0243  119.0230 H   0  0  0  0  0
  100.4163    1.4552  116.8631 H   0  0  0  0  0
   90.7626  -12.5084  117.3527 H   0  0  0  0  0
   89.6476  -11.1438  117.0962 H   0  0  0  0  0
   90.5595  -11.8187  115.7236 H   0  0  0  0  0
   98.5677   -1.3813  121.3700 H   0  0  0  0  0
   99.3715   -0.2100  122.4438 H   0  0  0  0  0
   97.6126   -0.1164  122.1817 H   0  0  0  0  0
  100.0091    4.1928  120.3355 H   0  0  0  0  0
   99.0998    3.0179  121.3172 H   0  0  0  0  0
  100.4629    3.9116  122.0343 H   0  0  0  0  0
  102.9936    2.7767  117.5980 H   0  0  0  0  0
  102.6148    1.8406  115.9282 H   0  0  0  0  0
  103.1840    0.2854  116.5826 H   0  0  0  0  0
  101.9172    0.3148  115.3315 H   0  0  0  0  0
   88.0855   -0.8310  119.9940 H   0  0  0  0  0
   89.1849    0.5052  120.4150 H   0  0  0  0  0
   87.5800    0.8556  119.7275 H   0  0  0  0  0
  1  2  1  0  0  0
  1 40  1  0  0  0
  1 55  2  0  0  0
  2  3  2  0  0  0
  3  4  1  0  0  0
  4  5  2  0  0  0
  5  6  1  0  0  0
  6  7  2  0  0  0
  7  8  1  0  0  0
  8  9  2  0  0  0
  8 45  1  0  0  0
  9 10  1  0  0  0
 10 11  1  0  0  0
 10 46  1  0  0  0
 11 12  1  0  0  0
 11 47  1  0  0  0
 12 13  2  0  0  0
 13 14  1  0  0  0
 14 15  2  0  0  0
 15 16  1  0  0  0
 16 17  4  0  0  0
 16 20  4  0  0  0
 17 18  4  0  0  0
 18 19  4  0  0  0
 18 21  1  0  0  0
 19 20  4  0  0  0
 21 22  1  0  0  0
 21 24  1  0  0  0
 22 23  1  0  0  0
 22 25  1  0  0  0
 23 26  1  0  0  0
 25 62  1  0  0  0
 26 27  1  0  0  0
 26 44  1  0  0  0
 27 28  2  0  0  0
 28 29  1  0  0  0
 29 30  2  0  0  0
 30 31  1  0  0  0
 31 32  2  0  0  0
 32 33  1  0  0  0
 33 34  1  0  0  0
 33 54  1  0  0  0
 34 35  1  0  0  0
 34 40  1  0  0  0
 35 36  1  0  0  0
 35 41  1  0  0  0
 36 37  1  0  0  0
 36 42  1  0  0  0
 37 38  1  0  0  0
 38 39  1  0  0  0
 38 43  1  0  0  0
 47 48  1  0  0  0
 48 49  1  0  0  0
 48 53  1  0  0  0
 49 50  1  0  0  0
 49 56  1  0  0  0
 50 51  1  0  0  0
 50 58  1  0  0  0
 51 52  1  0  0  0
 51 60  1  0  0  0
 52 53  1  0  0  0
 52 61  1  0  0  0
 56 57  1  0  0  0
 58 59  1  0  0  0
  2 63  1  0  0  0
  3 64  1  0  0  0
  4 65  1  0  0  0
  5 66  1  0  0  0
  6 67  1  0  0  0
  7 68  1  0  0  0
  9 69  1  0  0  0
 10 70  1  0  0  0
 11 71  1  0  0  0
 12 72  1  0  0  0
 13 73  1  0  0  0
 14 74  1  0  0  0
 15 75  1  0  0  0
 20 76  1  0  0  0
 21 77  1  0  0  0
 22 78  1  0  0  0
 23 79  1  0  0  0
 23 80  1  0  0  0
 24 81  1  0  0  0
 24 82  1  0  0  0
 24 83  1  0  0  0
 26 84  1  0  0  0
 27 85  1  0  0  0
 28 86  1  0  0  0
 29 87  1  0  0  0
 30 88  1  0  0  0
 31 89  1  0  0  0
 32 90  1  0  0  0
 33 91  1  0  0  0
 34 92  1  0  0  0
 35 93  1  0  0  0
 36 94  1  0  0  0
 37 95  1  0  0  0
 37 96  1  0  0  0
 38 97  1  0  0  0
 39 98  1  0  0  0
 39 99  1  0  0  0
 39100  1  0  0  0
 41101  1  0  0  0
 41102  1  0  0  0
 41103  1  0  0  0
 42104  1  0  0  0
 43105  1  0  0  0
 44106  1  0  0  0
 45107  1  0  0  0
 45108  1  0  0  0
 45109  1  0  0  0
 46110  1  0  0  0
 46111  1  0  0  0
 46112  1  0  0  0
 48113  1  0  0  0
 49114  1  0  0  0
 50115  1  0  0  0
 51116  1  0  0  0
 52117  1  0  0  0
 54118  1  0  0  0
 54119  1  0  0  0
 54120  1  0  0  0
 57121  1  0  0  0
 57122  1  0  0  0
 57123  1  0  0  0
 59124  1  0  0  0
 59125  1  0  0  0
 59126  1  0  0  0
 60127  1  0  0  0
 61128  1  0  0  0
 61129  1  0  0  0
 61130  1  0  0  0
 62131  1  0  0  0
 62132  1  0  0  0
 62133  1  0  0  0
M  END
$$$$
