6oos_ligand
  -I-interpret- 

 75 78  0  0  0  0  0  0  0  0999 V2000
   11.2490    5.9890   28.4730 N   0  0  0  0  0
   10.2690    5.3360   29.3860 C   0  0  0  0  0
   10.4430    4.0160   29.7120 C   0  0  0  0  0
    9.5550    3.4010   30.5510 C   0  0  0  0  0
    8.4840    4.1230   31.0680 C   0  0  0  0  0
    8.2910    5.4300   30.7500 C   0  0  0  0  0
    9.1940    6.0580   29.8990 C   0  0  0  0  0
    7.2940    3.2700   32.1590 S   0  0  0  0  0
    6.7450    4.1230   33.1850 O   0  0  0  0  0
    7.9550    2.1330   32.8550 O   0  0  0  0  0
    6.0360    2.7010   31.1300 N   0  0  0  0  0
    5.2440    3.7450   30.4590 C   0  0  0  0  0
    3.7690    3.3500   30.3680 C   0  0  0  0  0
    3.0270    4.3200   29.3810 C   0  0  0  0  0
    3.0720    3.3420   31.7370 C   0  0  0  0  0
    6.3600    1.3820   30.4090 C   0  0  0  0  0
    5.4440    0.2540   30.9760 C   0  0  0  0  0
    5.5570   -0.8660   30.1820 O   0  0  0  0  0
    5.8390   -0.0870   32.4130 C   0  0  0  0  0
    4.8180   -0.9990   32.8840 N   0  0  0  0  0
    3.8560   -0.7210   33.9280 C   0  0  0  0  0
    3.8200    0.3460   34.4950 O   0  0  0  0  0
    3.0030   -1.8020   34.1800 O   0  0  0  0  0
    2.2550   -1.7960   35.3750 C   0  0  0  0  0
    0.7480   -2.3810   34.9550 C   0  0  0  0  0
    0.9700   -3.7150   34.8430 O   0  0  0  0  0
    2.0550   -4.0780   35.9080 C   0  0  0  0  0
    2.9520   -4.7830   35.3760 O   0  0  0  0  0
    4.3540   -3.9940   35.5620 C   0  0  0  0  0
    4.1430   -2.9260   36.3090 C   0  0  0  0  0
    2.6730   -2.6620   36.2960 C   0  0  0  0  0
    7.1440   -0.8560   32.5430 C   0  0  0  0  0
    7.6950   -0.3870   34.9570 C   0  0  0  0  0
    7.9500   -0.8030   36.2750 C   0  0  0  0  0
    7.9370   -2.1670   36.5970 C   0  0  0  0  0
    7.6660   -3.0990   35.6250 C   0  0  0  0  0
    7.4160   -2.6900   34.3090 C   0  0  0  0  0
    7.4250   -1.3190   33.9790 C   0  0  0  0  0
   12.0341    5.4545   28.1011 H   0  0  0  0  0
   11.1347    6.9705   28.2200 H   0  0  0  0  0
   11.2861    3.4584   29.3040 H   0  0  0  0  0
    9.6857    2.3511   30.8131 H   0  0  0  0  0
    7.4408    5.9782   31.1560 H   0  0  0  0  0
    9.0615    7.1073   29.6354 H   0  0  0  0  0
    5.6307    3.8788   29.4487 H   0  0  0  0  0
    5.3220    4.6656   31.0373 H   0  0  0  0  0
    3.7244    2.3285   29.9902 H   0  0  0  0  0
    3.1078    5.3427   29.7494 H   0  0  0  0  0
    3.4838    4.2509   28.3937 H   0  0  0  0  0
    1.9762    4.0374   29.3172 H   0  0  0  0  0
    3.5699    2.6275   32.3926 H   0  0  0  0  0
    3.1251    4.3382   32.1761 H   0  0  0  0  0
    2.0282    3.0546   31.6102 H   0  0  0  0  0
    7.4060    1.1220   30.5714 H   0  0  0  0  0
    6.1838    1.4953   29.3393 H   0  0  0  0  0
    4.4112    0.6024   30.9760 H   0  0  0  0  0
    4.9938   -1.5614   30.5296 H   0  0  0  0  0
    5.9472    0.8513   32.9570 H   0  0  0  0  0
    4.7731   -1.9169   32.4415 H   0  0  0  0  0
    2.3130   -0.7873   35.7839 H   0  0  0  0  0
    0.3573   -1.9354   34.0402 H   0  0  0  0  0
   -0.0231   -2.1368   35.6857 H   0  0  0  0  0
    1.6540   -4.6317   36.7570 H   0  0  0  0  0
    4.7420   -3.6941   34.5885 H   0  0  0  0  0
    5.0838   -4.6446   36.0439 H   0  0  0  0  0
    4.6906   -2.0689   35.9170 H   0  0  0  0  0
    4.4940   -3.0940   37.3272 H   0  0  0  0  0
    2.3810   -2.2325   37.2543 H   0  0  0  0  0
    7.9535   -0.1903   32.2438 H   0  0  0  0  0
    7.0705   -1.7443   31.9155 H   0  0  0  0  0
    7.7109    0.6741   34.7083 H   0  0  0  0  0
    8.1583   -0.0635   37.0482 H   0  0  0  0  0
    8.1418   -2.4881   37.6183 H   0  0  0  0  0
    7.6455   -4.1589   35.8784 H   0  0  0  0  0
    7.2139   -3.4334   33.5379 H   0  0  0  0  0
  2  1  1  0  0  0
  3  2  4  0  0  0
  7  2  4  0  0  0
  4  3  4  0  0  0
  5  4  4  0  0  0
  5  6  4  0  0  0
  8  5  1  0  0  0
  6  7  4  0  0  0
  8  9  2  0  0  0
  8 10  2  0  0  0
 11  8  1  0  0  0
 11 12  1  0  0  0
 16 11  1  0  0  0
 12 13  1  0  0  0
 13 14  1  0  0  0
 13 15  1  0  0  0
 17 16  1  0  0  0
 17 18  1  0  0  0
 19 17  1  0  0  0
 19 20  1  0  0  0
 32 19  1  0  0  0
 20 21  1  0  0  0
 21 22  2  0  0  0
 21 23  1  0  0  0
 23 24  1  0  0  0
 24 25  1  0  0  0
 24 31  1  0  0  0
 25 26  1  0  0  0
 27 26  1  0  0  0
 27 28  1  0  0  0
 31 27  1  0  0  0
 29 28  1  0  0  0
 30 29  1  0  0  0
 31 30  1  0  0  0
 38 32  1  0  0  0
 33 34  4  0  0  0
 33 38  4  0  0  0
 34 35  4  0  0  0
 35 36  4  0  0  0
 36 37  4  0  0  0
 37 38  4  0  0  0
  1 39  1  0  0  0
  1 40  1  0  0  0
  3 41  1  0  0  0
  4 42  1  0  0  0
  6 43  1  0  0  0
  7 44  1  0  0  0
 12 45  1  0  0  0
 12 46  1  0  0  0
 13 47  1  0  0  0
 14 48  1  0  0  0
 14 49  1  0  0  0
 14 50  1  0  0  0
 15 51  1  0  0  0
 15 52  1  0  0  0
 15 53  1  0  0  0
 16 54  1  0  0  0
 16 55  1  0  0  0
 17 56  1  0  0  0
 18 57  1  0  0  0
 19 58  1  0  0  0
 20 59  1  0  0  0
 24 60  1  0  0  0
 25 61  1  0  0  0
 25 62  1  0  0  0
 27 63  1  0  0  0
 29 64  1  0  0  0
 29 65  1  0  0  0
 30 66  1  0  0  0
 30 67  1  0  0  0
 31 68  1  0  0  0
 32 69  1  0  0  0
 32 70  1  0  0  0
 33 71  1  0  0  0
 34 72  1  0  0  0
 35 73  1  0  0  0
 36 74  1  0  0  0
 37 75  1  0  0  0
M  END
$$$$
