2vtr_ligand
  -I-interpret- 

 26 27  0  0  0  0  0  0  0  0999 V2000
   31.5080    8.0800   66.5280 C   0  0  0  0  0
   30.6410    8.1280   65.2800 C   0  0  0  0  0
   31.4750    8.2890   64.0120 C   0  0  0  0  0
   29.8220    6.9220   65.1870 N   0  0  0  0  0
   28.7000    6.8590   64.3420 C   0  0  0  0  0
   28.2330    7.9800   63.6610 C   0  0  0  0  0
   27.1300    7.8160   62.8280 C   0  0  0  0  0
   26.4960    9.1700   61.9610 Cl  0  0  0  0  0
   26.4940    6.6610   62.6220 N   0  0  0  0  0
   26.9350    5.5870   63.2940 C   0  0  0  0  0
   26.4980    4.2820   63.3230 C   0  0  0  0  0
   25.3960    3.7750   62.5820 C   0  0  0  0  0
   24.5150    3.3680   61.9800 N   0  0  0  0  0
   27.3630    3.5990   64.1650 C   0  0  0  0  0
   28.3160    4.4390   64.6770 N   0  0  0  0  0
   28.0150    5.6630   64.1490 N   0  0  0  0  0
   30.8704    8.0125   67.4095 H   0  0  0  0  0
   32.1604    7.2080   66.4823 H   0  0  0  0  0
   32.1127    8.9852   66.5838 H   0  0  0  0  0
   29.9948    9.0016   65.3656 H   0  0  0  0  0
   32.1240    7.4214   63.8929 H   0  0  0  0  0
   30.8121    8.3695   63.1505 H   0  0  0  0  0
   32.0824    9.1907   64.0902 H   0  0  0  0  0
   30.0698    6.1069   65.7479 H   0  0  0  0  0
   28.7140    8.9513   63.7761 H   0  0  0  0  0
   27.2936    2.5346   64.3895 H   0  0  0  0  0
  1  2  1  0  0  0
  2  3  1  0  0  0
  2  4  1  0  0  0
  4  5  1  0  0  0
  5  6  4  0  0  0
  5 16  4  0  0  0
  6  7  4  0  0  0
  7  8  1  0  0  0
  7  9  4  0  0  0
  9 10  4  0  0  0
 10 11  4  0  0  0
 10 16  4  0  0  0
 11 12  1  0  0  0
 11 14  4  0  0  0
 12 13  3  0  0  0
 14 15  4  0  0  0
 15 16  4  0  0  0
  1 17  1  0  0  0
  1 18  1  0  0  0
  1 19  1  0  0  0
  2 20  1  0  0  0
  3 21  1  0  0  0
  3 22  1  0  0  0
  3 23  1  0  0  0
  4 24  1  0  0  0
  6 25  1  0  0  0
 14 26  1  0  0  0
M  END
$$$$
