4yy6_ligand
  -I-interpret- 

152151  0  0  0  0  0  0  0  0999 V2000
  -40.0140   -4.4290    5.3150 N   0  3  0  0  0
  -39.5870   -5.3210    4.2140 C   0  0  0  0  0
  -38.1300   -5.4460    4.0440 C   0  0  0  0  0
  -37.6450   -6.2910    3.2530 O   0  0  0  0  0
  -37.3820   -4.7110    4.8850 N   0  0  0  0  0
  -35.8950   -4.8370    4.9490 C   0  0  0  0  0
  -35.5640   -6.1520    5.6700 C   0  0  0  0  0
  -35.8880   -6.3100    6.8460 O   0  0  0  0  0
  -35.2020   -3.6240    5.6500 C   0  0  0  0  0
  -33.8130   -3.3950    5.1220 C   0  0  0  0  0
  -33.2000   -2.2430    5.8910 C   0  0  0  0  0
  -31.7760   -2.1550    5.6100 N   0  0  0  0  0
  -31.1090   -1.0140    5.6080 C   0  0  0  0  0
  -31.8070    0.1570    5.8000 N   0  0  0  0  0
  -29.7870   -1.0550    5.3700 N   0  0  0  0  0
  -35.0430   -7.1220    4.9280 N   0  0  0  0  0
  -34.6920   -8.3960    5.5060 C   0  0  0  0  0
  -35.0430   -9.5340    4.6150 C   0  0  0  0  0
  -35.9030   -9.3650    3.6950 O   0  0  0  0  0
  -35.9710  -12.5130    4.1160 C   0  0  0  0  0
  -34.5110  -10.7110    4.9250 N   0  0  0  0  0
  -36.6400  -12.4020    5.1760 O   0  0  0  0  0
  -34.5440  -11.8670    4.0110 C   0  0  0  0  0
  -33.4750  -12.8670    4.3900 C   0  0  0  0  0
  -31.6330  -11.8560    3.0500 C   0  0  0  0  0
  -30.2550  -11.3290    3.1370 C   0  0  0  0  0
  -32.0410  -12.3370    4.3600 C   0  0  0  0  0
  -29.1500  -12.2750    2.9730 N   0  0  0  0  0
  -26.1610  -13.2450    4.9180 C   0  0  0  0  0
  -27.5840  -10.6590    3.2030 O   0  0  0  0  0
  -25.7270  -13.0240    3.5040 C   0  0  0  0  0
  -26.9430  -12.9270    2.6770 C   0  0  0  0  0
  -27.9460  -11.8060    3.0260 C   0  0  0  0  0
  -36.3950  -13.2110    3.0290 N   0  0  0  0  0
  -37.7060  -13.8320    2.8710 C   0  0  0  0  0
  -37.9410  -14.8630    3.9830 C   0  0  0  0  0
  -39.0850  -14.9900    4.4620 O   0  0  0  0  0
  -36.8820  -15.6250    4.3370 N   0  0  0  0  0
  -36.8550  -16.4830    5.5570 C   0  0  0  0  0
  -35.9660  -15.9340    6.6710 C   0  0  0  0  0
  -35.0060  -15.1020    6.4880 O   0  0  0  0  0
  -34.2320  -16.6490    9.2550 C   0  0  0  0  0
  -36.2800  -16.4180    7.8750 N   0  0  0  0  0
  -33.4490  -16.2390   10.1280 O   0  0  0  0  0
  -35.5550  -15.8910    9.0460 C   0  0  0  0  0
  -36.5080  -15.6480   10.2430 C   0  0  0  0  0
  -38.5290  -14.0570   10.7130 C   0  0  0  0  0
  -38.8980  -12.5610   10.7330 C   0  0  0  0  0
  -37.2220  -14.3120    9.9480 C   0  0  0  0  0
  -40.0250  -12.1420    9.8830 N   0  0  0  0  0
  -43.1290   -8.6830    9.7420 C   0  0  0  0  0
  -40.1750  -10.0220   10.6480 O   0  0  0  0  0
  -43.0070  -10.1830    9.6350 C   0  0  0  0  0
  -41.7400  -10.6500    8.9540 C   0  0  0  0  0
  -40.5840  -10.9090    9.9040 C   0  0  0  0  0
  -33.9450  -17.6910    8.4400 N   0  0  0  0  0
  -32.6750  -18.4100    8.4640 C   0  0  0  0  0
  -32.5790  -19.1910    9.7750 C   0  0  0  0  0
  -31.4910  -19.3080   10.3580 O   0  0  0  0  0
  -33.7140  -19.7240   10.2440 N   0  0  0  0  0
  -33.6980  -20.6120   11.4350 C   0  0  0  0  0
  -33.8440  -22.1270   11.0920 C   0  0  0  0  0
  -34.6030  -22.8750   11.7540 O   0  0  0  0  0
  -34.7150  -20.1250   12.5110 C   0  0  0  0  0
  -34.5820  -18.6720   13.0650 C   0  0  0  0  0
  -35.7650  -18.3370   13.9670 C   0  0  0  0  0
  -33.2470  -18.4020   13.7770 C   0  0  0  0  0
  -33.1120  -22.5620   10.0550 N   0  0  0  0  0
  -33.0800  -23.9690    9.6370 C   0  0  0  0  0
  -32.1030  -24.6730   10.5740 C   0  0  0  0  0
  -31.2370  -25.4680   10.1630 O   0  0  0  0  0
  -32.1120  -24.4950   11.8070 O   0  0  0  0  0
  -41.0329   -4.4051    5.3559 H   0  0  0  0  0
  -39.6453   -4.7809    6.1985 H   0  0  0  0  0
  -39.6571   -3.4884    5.1468 H   0  0  0  0  0
  -39.9757   -4.8902    3.2913 H   0  0  0  0  0
  -39.9626   -6.3163    4.4517 H   0  0  0  0  0
  -37.8462   -4.0437    5.5012 H   0  0  0  0  0
  -35.5037   -4.8419    3.9317 H   0  0  0  0  0
  -35.1328   -3.8377    6.7166 H   0  0  0  0  0
  -35.7949   -2.7304    5.4550 H   0  0  0  0  0
  -33.8500   -3.1588    4.0585 H   0  0  0  0  0
  -33.2102   -4.2942    5.2493 H   0  0  0  0  0
  -33.3440   -2.4091    6.9586 H   0  0  0  0  0
  -33.6823   -1.3138    5.5874 H   0  0  0  0  0
  -31.2675   -3.0150    5.4046 H   0  0  0  0  0
  -31.3201    1.0526    5.7649 H   0  0  0  0  0
  -32.8111    0.1290    5.9774 H   0  0  0  0  0
  -29.3273   -1.9491    5.1978 H   0  0  0  0  0
  -34.8884   -6.9635    3.9323 H   0  0  0  0  0
  -35.2477   -8.5105    6.4367 H   0  0  0  0  0
  -33.6138   -8.4103    5.6651 H   0  0  0  0  0
  -34.0607  -10.8194    5.8338 H   0  0  0  0  0
  -34.3477  -11.5516    2.9863 H   0  0  0  0  0
  -33.5254  -13.6702    3.6549 H   0  0  0  0  0
  -33.6762  -13.1625    5.4197 H   0  0  0  0  0
  -31.6682  -12.6746    2.3311 H   0  0  0  0  0
  -32.3083  -11.0655    2.7226 H   0  0  0  0  0
  -30.1562  -10.9396    4.1503 H   0  0  0  0  0
  -30.1603  -10.6253    2.3100 H   0  0  0  0  0
  -31.3797  -13.1606    4.6292 H   0  0  0  0  0
  -31.9860  -11.4962    5.0515 H   0  0  0  0  0
  -29.3235  -13.2688    2.8223 H   0  0  0  0  0
  -26.7772  -12.4066    5.2428 H   0  0  0  0  0
  -26.7386  -14.1674    4.9795 H   0  0  0  0  0
  -25.2825  -13.3215    5.5586 H   0  0  0  0  0
  -25.1001  -13.8485    3.1645 H   0  0  0  0  0
  -25.1382  -12.1101    3.4245 H   0  0  0  0  0
  -27.4803  -13.8630    2.8297 H   0  0  0  0  0
  -26.5971  -12.7105    1.6663 H   0  0  0  0  0
  -35.7381  -13.3093    2.2549 H   0  0  0  0  0
  -37.7492  -14.3336    1.9042 H   0  0  0  0  0
  -38.4752  -13.0619    2.9299 H   0  0  0  0  0
  -36.0568  -15.6126    3.7375 H   0  0  0  0  0
  -36.4522  -17.4530    5.2655 H   0  0  0  0  0
  -37.8725  -16.5317    5.9449 H   0  0  0  0  0
  -37.0007  -17.1318    7.9818 H   0  0  0  0  0
  -35.1932  -14.8765    8.8786 H   0  0  0  0  0
  -35.9595  -15.6050   11.1840 H   0  0  0  0  0
  -37.2227  -16.4636   10.3526 H   0  0  0  0  0
  -39.3304  -14.6008   10.2128 H   0  0  0  0  0
  -38.3943  -14.3904   11.7420 H   0  0  0  0  0
  -38.0240  -12.0327   10.3520 H   0  0  0  0  0
  -39.1987  -12.3413   11.7574 H   0  0  0  0  0
  -37.4881  -14.3364    8.8913 H   0  0  0  0  0
  -36.5325  -13.5250   10.2534 H   0  0  0  0  0
  -40.4110  -12.8276    9.2339 H   0  0  0  0  0
  -42.2904   -8.2917   10.3180 H   0  0  0  0  0
  -43.1203   -8.2469    8.7431 H   0  0  0  0  0
  -44.0641   -8.4306   10.2420 H   0  0  0  0  0
  -43.8456  -10.5335    9.0333 H   0  0  0  0  0
  -42.9935  -10.5796   10.6502 H   0  0  0  0  0
  -41.4277   -9.8564    8.2752 H   0  0  0  0  0
  -41.9689  -11.5943    8.4600 H   0  0  0  0  0
  -34.6555  -17.9903    7.7722 H   0  0  0  0  0
  -31.8480  -17.7036    8.3923 H   0  0  0  0  0
  -32.6220  -19.0966    7.6191 H   0  0  0  0  0
  -34.5983  -19.5184    9.7791 H   0  0  0  0  0
  -32.7021  -20.5319   11.8707 H   0  0  0  0  0
  -34.5485  -20.7726   13.3718 H   0  0  0  0  0
  -35.6857  -20.1516   12.0158 H   0  0  0  0  0
  -34.5914  -18.0095   12.1995 H   0  0  0  0  0
  -36.6899  -18.4166   13.3957 H   0  0  0  0  0
  -35.7918  -19.0355   14.8033 H   0  0  0  0  0
  -35.6560  -17.3203   14.3445 H   0  0  0  0  0
  -33.1431  -19.0829   14.6218 H   0  0  0  0  0
  -32.4255  -18.5600   13.0782 H   0  0  0  0  0
  -33.2289  -17.3723   14.1342 H   0  0  0  0  0
  -32.5534  -21.8857    9.5344 H   0  0  0  0  0
  -32.7626  -24.0619    8.5984 H   0  0  0  0  0
  -34.0716  -24.4178    9.6959 H   0  0  0  0  0
  -32.8061  -23.8719   12.0342 H   0  0  0  0  0
  2  1  1  0  0  0
  3  2  1  0  0  0
  3  4  2  0  0  0
  5  3  1  0  0  0
  6  5  1  0  0  0
  7  6  1  0  0  0
  6  9  1  0  0  0
  7  8  2  0  0  0
 16  7  1  0  0  0
  9 10  1  0  0  0
 10 11  1  0  0  0
 11 12  1  0  0  0
 12 13  1  0  0  0
 13 14  1  0  0  0
 13 15  2  0  0  0
 17 16  1  0  0  0
 18 17  1  0  0  0
 18 19  2  0  0  0
 21 18  1  0  0  0
 20 22  2  0  0  0
 20 23  1  0  0  0
 34 20  1  0  0  0
 23 21  1  0  0  0
 23 24  1  0  0  0
 24 27  1  0  0  0
 25 26  1  0  0  0
 27 25  1  0  0  0
 26 28  1  0  0  0
 28 33  1  0  0  0
 31 29  1  0  0  0
 33 30  2  0  0  0
 32 31  1  0  0  0
 33 32  1  0  0  0
 35 34  1  0  0  0
 36 35  1  0  0  0
 36 37  2  0  0  0
 38 36  1  0  0  0
 39 38  1  0  0  0
 40 39  1  0  0  0
 40 41  2  0  0  0
 43 40  1  0  0  0
 42 44  2  0  0  0
 45 42  1  0  0  0
 42 56  1  0  0  0
 45 43  1  0  0  0
 46 45  1  0  0  0
 49 46  1  0  0  0
 48 47  1  0  0  0
 47 49  1  0  0  0
 50 48  1  0  0  0
 55 50  1  0  0  0
 53 51  1  0  0  0
 55 52  2  0  0  0
 54 53  1  0  0  0
 54 55  1  0  0  0
 56 57  1  0  0  0
 57 58  1  0  0  0
 58 59  2  0  0  0
 58 60  1  0  0  0
 60 61  1  0  0  0
 61 62  1  0  0  0
 61 64  1  0  0  0
 62 63  2  0  0  0
 62 68  1  0  0  0
 64 65  1  0  0  0
 65 66  1  0  0  0
 65 67  1  0  0  0
 68 69  1  0  0  0
 69 70  1  0  0  0
 70 71  2  0  0  0
 70 72  1  0  0  0
  1 73  1  0  0  0
  1 74  1  0  0  0
  1 75  1  0  0  0
  2 76  1  0  0  0
  2 77  1  0  0  0
  5 78  1  0  0  0
  6 79  1  0  0  0
  9 80  1  0  0  0
  9 81  1  0  0  0
 10 82  1  0  0  0
 10 83  1  0  0  0
 11 84  1  0  0  0
 11 85  1  0  0  0
 12 86  1  0  0  0
 14 87  1  0  0  0
 14 88  1  0  0  0
 15 89  1  0  0  0
 16 90  1  0  0  0
 17 91  1  0  0  0
 17 92  1  0  0  0
 21 93  1  0  0  0
 23 94  1  0  0  0
 24 95  1  0  0  0
 24 96  1  0  0  0
 25 97  1  0  0  0
 25 98  1  0  0  0
 26 99  1  0  0  0
 26100  1  0  0  0
 27101  1  0  0  0
 27102  1  0  0  0
 28103  1  0  0  0
 29104  1  0  0  0
 29105  1  0  0  0
 29106  1  0  0  0
 31107  1  0  0  0
 31108  1  0  0  0
 32109  1  0  0  0
 32110  1  0  0  0
 34111  1  0  0  0
 35112  1  0  0  0
 35113  1  0  0  0
 38114  1  0  0  0
 39115  1  0  0  0
 39116  1  0  0  0
 43117  1  0  0  0
 45118  1  0  0  0
 46119  1  0  0  0
 46120  1  0  0  0
 47121  1  0  0  0
 47122  1  0  0  0
 48123  1  0  0  0
 48124  1  0  0  0
 49125  1  0  0  0
 49126  1  0  0  0
 50127  1  0  0  0
 51128  1  0  0  0
 51129  1  0  0  0
 51130  1  0  0  0
 53131  1  0  0  0
 53132  1  0  0  0
 54133  1  0  0  0
 54134  1  0  0  0
 56135  1  0  0  0
 57136  1  0  0  0
 57137  1  0  0  0
 60138  1  0  0  0
 61139  1  0  0  0
 64140  1  0  0  0
 64141  1  0  0  0
 65142  1  0  0  0
 66143  1  0  0  0
 66144  1  0  0  0
 66145  1  0  0  0
 67146  1  0  0  0
 67147  1  0  0  0
 67148  1  0  0  0
 68149  1  0  0  0
 69150  1  0  0  0
 69151  1  0  0  0
 72152  1  0  0  0
M  END
$$$$
