### 
### Created by X-TOOL on Mon Sep 10 21:13:23 2018
### 

@<TRIPOS>MOLECULE
4yy6_ligand
  152   151     1     0     0
SMALL
GAST_HUCK


@<TRIPOS>ATOM
      1 N         -40.0140   -4.4290    5.3150 N.4       1 GLY         0.2357
      2 CA        -39.5870   -5.3210    4.2140 C.3       1 GLY         0.0545
      3 C         -38.1300   -5.4460    4.0440 C.2       1 GLY         0.2236
      4 O         -37.6450   -6.2910    3.2530 O.2       1 GLY        -0.3910
      5 N         -37.3820   -4.7110    4.8850 N.am      1 ARG        -0.2613
      6 CA        -35.8950   -4.8370    4.9490 C.3       1 ARG         0.1312
      7 C         -35.5640   -6.1520    5.6700 C.2       1 ARG         0.2037
      8 O         -35.8880   -6.3100    6.8460 O.2       1 ARG        -0.3944
      9 CB        -35.2020   -3.6240    5.6500 C.3       1 ARG        -0.0092
     10 CG        -33.8130   -3.3950    5.1220 C.3       1 ARG        -0.0156
     11 CD        -33.2000   -2.2430    5.8910 C.3       1 ARG         0.0627
     12 NE        -31.7760   -2.1550    5.6100 N.pl3     1 ARG        -0.2723
     13 CZ        -31.1090   -1.0140    5.6080 C.cat     1 ARG         0.2882
     14 NH1       -31.8070    0.1570    5.8000 N.pl3     1 ARG        -0.2849
     15 NH2       -29.7870   -1.0550    5.3700 N.pl3     1 ARG        -0.2849
     16 N         -35.0430   -7.1220    4.9280 N.am      1 GLY        -0.2664
     17 CA        -34.6920   -8.3960    5.5060 C.3       1 GLY         0.1201
     18 C         -35.0430   -9.5340    4.6150 C.2       1 GLY         0.2007
     19 O         -35.9030   -9.3650    3.6950 O.2       1 GLY        -0.3947
     20 C         -35.9710  -12.5130    4.1160 C.2       1 BTK         0.2037
     21 N         -34.5110  -10.7110    4.9250 N.am      1 BTK        -0.2640
     22 O         -36.6400  -12.4020    5.1760 O.2       1 BTK        -0.3944
     23 CA        -34.5440  -11.8670    4.0110 C.3       1 BTK         0.1310
     24 CB        -33.4750  -12.8670    4.3900 C.3       1 BTK        -0.0123
     25 CD        -31.6330  -11.8560    3.0500 C.3       1 BTK        -0.0325
     26 CE        -30.2550  -11.3290    3.1370 C.3       1 BTK         0.0309
     27 CG        -32.0410  -12.3370    4.3600 C.3       1 BTK        -0.0470
     28 NZ        -29.1500  -12.2750    2.9730 N.am      1 BTK        -0.2870
     29 CAA       -26.1610  -13.2450    4.9180 C.3       1 BTK        -0.0632
     30 OAD       -27.5840  -10.6590    3.2030 O.2       1 BTK        -0.3971
     31 CAF       -25.7270  -13.0240    3.5040 C.3       1 BTK        -0.0389
     32 CAJ       -26.9430  -12.9270    2.6770 C.3       1 BTK         0.0370
     33 CAN       -27.9460  -11.8060    3.0260 C.2       1 BTK         0.1760
     34 N         -36.3950  -13.2110    3.0290 N.am      1 GLY        -0.2664
     35 CA        -37.7060  -13.8320    2.8710 C.3       1 GLY         0.1201
     36 C         -37.9410  -14.8630    3.9830 C.2       1 GLY         0.2005
     37 O         -39.0850  -14.9900    4.4620 O.2       1 GLY        -0.3947
     38 N         -36.8820  -15.6250    4.3370 N.am      1 GLY        -0.2666
     39 CA        -36.8550  -16.4830    5.5570 C.3       1 GLY         0.1201
     40 C         -35.9660  -15.9340    6.6710 C.2       1 GLY         0.2007
     41 O         -35.0060  -15.1020    6.4880 O.2       1 GLY        -0.3947
     42 C         -34.2320  -16.6490    9.2550 C.2       1 BTK         0.2037
     43 N         -36.2800  -16.4180    7.8750 N.am      1 BTK        -0.2640
     44 O         -33.4490  -16.2390   10.1280 O.2       1 BTK        -0.3944
     45 CA        -35.5550  -15.8910    9.0460 C.3       1 BTK         0.1310
     46 CB        -36.5080  -15.6480   10.2430 C.3       1 BTK        -0.0123
     47 CD        -38.5290  -14.0570   10.7130 C.3       1 BTK        -0.0325
     48 CE        -38.8980  -12.5610   10.7330 C.3       1 BTK         0.0309
     49 CG        -37.2220  -14.3120    9.9480 C.3       1 BTK        -0.0470
     50 NZ        -40.0250  -12.1420    9.8830 N.am      1 BTK        -0.2870
     51 CAA       -43.1290   -8.6830    9.7420 C.3       1 BTK        -0.0632
     52 OAD       -40.1750  -10.0220   10.6480 O.2       1 BTK        -0.3971
     53 CAF       -43.0070  -10.1830    9.6350 C.3       1 BTK        -0.0389
     54 CAJ       -41.7400  -10.6500    8.9540 C.3       1 BTK         0.0370
     55 CAN       -40.5840  -10.9090    9.9040 C.2       1 BTK         0.1760
     56 N         -33.9450  -17.6910    8.4400 N.am      1 GLY        -0.2664
     57 CA        -32.6750  -18.4100    8.4640 C.3       1 GLY         0.1201
     58 C         -32.5790  -19.1910    9.7750 C.2       1 GLY         0.2007
     59 O         -31.4910  -19.3080   10.3580 O.2       1 GLY        -0.3947
     60 N         -33.7140  -19.7240   10.2440 N.am      1 LEU        -0.2640
     61 CA        -33.6980  -20.6120   11.4350 C.3       1 LEU         0.1312
     62 C         -33.8440  -22.1270   11.0920 C.2       1 LEU         0.2031
     63 O         -34.6030  -22.8750   11.7540 O.2       1 LEU        -0.3944
     64 CB        -34.7150  -20.1250   12.5110 C.3       1 LEU        -0.0101
     65 CG        -34.5820  -18.6720   13.0650 C.3       1 LEU        -0.0425
     66 CD1       -35.7650  -18.3370   13.9670 C.3       1 LEU        -0.0625
     67 CD2       -33.2470  -18.4020   13.7770 C.3       1 LEU        -0.0625
     68 N         -33.1120  -22.5620   10.0550 N.am      1 GLY        -0.2722
     69 CA        -33.0800  -23.9690    9.6370 C.3       1 GLY         0.0833
     70 C         -32.1030  -24.6730   10.5740 C.2       1 GLY         0.0570
     71 O         -31.2370  -25.4680   10.1630 O.co2     1 GLY        -0.5669
     72 OXT       -32.1120  -24.4950   11.8070 O.co2     1 GLY        -0.5669
     73 H1        -41.0209   -4.4046    5.3563 H         1 GLY         0.2012
     74 H2        -39.6619   -3.4991    5.1498 H         1 GLY         0.2012
     75 H3        -39.6502   -4.7758    6.1887 H         1 GLY         0.2012
     76 H4        -40.0077   -4.9304    3.2757 H         1 GLY         0.1061
     77 H5        -39.9950   -6.3237    4.4094 H         1 GLY         0.1061
     78 H6        -37.8371   -4.0568    5.4891 H         1 ARG         0.1884
     79 H7        -35.5095   -4.8921    3.9203 H         1 ARG         0.0800
     80 H8        -35.1443   -3.8222    6.7305 H         1 ARG         0.0313
     81 H9        -35.8034   -2.7198    5.4746 H         1 ARG         0.0313
     82 H10       -33.8576   -3.1465    4.0514 H         1 ARG         0.0301
     83 H11       -33.2065   -4.3018    5.2631 H         1 ARG         0.0301
     84 H12       -33.3486   -2.4052    6.9688 H         1 ARG         0.0689
     85 H13       -33.6886   -1.3044    5.5906 H         1 ARG         0.0689
     86 H14       -31.2626   -3.0235    5.4026 H         1 ARG         0.2642
     87 H15       -31.3093    1.0587    5.8025 H         1 ARG         0.2615
     88 H16       -32.8270    0.1314    5.9411 H         1 ARG         0.2615
     89 H17       -29.3161   -1.9609    5.2338 H         1 ARG         0.2615
     90 H18       -29.2447   -0.1806    5.3238 H         1 ARG         0.2615
     91 H19       -34.8914   -6.9666    3.9518 H         1 GLY         0.1881
     92 H20       -35.2299   -8.5130    6.4583 H         1 GLY         0.0763
     93 H21       -33.6081   -8.4136    5.6925 H         1 GLY         0.0763
     94 H22       -34.0695  -10.8173    5.8160 H         1 BTK         0.1883
     95 H23       -34.3681  -11.5280    2.9795 H         1 BTK         0.0800
     96 H24       -33.5386  -13.7134    3.6904 H         1 BTK         0.0312
     97 H25       -33.6856  -13.2184    5.4108 H         1 BTK         0.0312
     98 H26       -31.6659  -12.6841    2.3267 H         1 BTK         0.0285
     99 H27       -32.3135  -11.0561    2.7228 H         1 BTK         0.0285
    100 H28       -30.1438  -10.8635    4.1274 H         1 BTK         0.0520
    101 H29       -30.1477  -10.5611    2.3568 H         1 BTK         0.0520
    102 H30       -31.3624  -13.1488    4.6608 H         1 BTK         0.0268
    103 H31       -31.9604  -11.5070    5.0773 H         1 BTK         0.0268
    104 H32       -29.3201  -13.2493    2.8252 H         1 BTK         0.1850
    105 H33       -25.2752  -13.3224    5.5656 H         1 BTK         0.0231
    106 H34       -26.7440  -14.1756    4.9815 H         1 BTK         0.0231
    107 H35       -26.7830  -12.3995    5.2471 H         1 BTK         0.0231
    108 H36       -25.1086  -13.8680    3.1647 H         1 BTK         0.0287
    109 H37       -25.1475  -12.0919    3.4304 H         1 BTK         0.0287
    110 H38       -27.4763  -13.8855    2.7590 H         1 BTK         0.0502
    111 H39       -26.6237  -12.7729    1.6357 H         1 BTK         0.0502
    112 H40       -35.7510  -13.3074    2.2701 H         1 GLY         0.1881
    113 H41       -37.7548  -14.3342    1.8936 H         1 GLY         0.0763
    114 H42       -38.4843  -13.0565    2.9241 H         1 GLY         0.0763
    115 H43       -36.0730  -15.6129    3.7493 H         1 GLY         0.1881
    116 H44       -36.4827  -17.4786    5.2738 H         1 GLY         0.0763
    117 H45       -37.8813  -16.5713    5.9428 H         1 GLY         0.0763
    118 H46       -36.9866  -17.1178    7.9797 H         1 BTK         0.1883
    119 H47       -35.2342  -14.8783    8.7607 H         1 BTK         0.0800
    120 H48       -35.9359  -15.5777   11.1799 H         1 BTK         0.0312
    121 H49       -37.2407  -16.4647   10.3211 H         1 BTK         0.0312
    122 H50       -39.3411  -14.6176   10.2270 H         1 BTK         0.0285
    123 H51       -38.4097  -14.4082   11.7486 H         1 BTK         0.0285
    124 H52       -38.0110  -11.9955   10.4115 H         1 BTK         0.0520
    125 H53       -39.1470  -12.2938   11.7706 H         1 BTK         0.0520
    126 H54       -37.4521  -14.2850    8.8727 H         1 BTK         0.0268
    127 H55       -36.5249  -13.4976   10.1944 H         1 BTK         0.0268
    128 H56       -40.4034  -12.8142    9.2466 H         1 BTK         0.1850
    129 H57       -44.0724   -8.4269   10.2464 H         1 BTK         0.0231
    130 H58       -43.1204   -8.2416    8.7345 H         1 BTK         0.0231
    131 H59       -42.2832   -8.2868   10.3231 H         1 BTK         0.0231
    132 H60       -43.8668  -10.5600    9.0618 H         1 BTK         0.0287
    133 H61       -43.0296  -10.6052   10.6505 H         1 BTK         0.0287
    134 H62       -41.4296   -9.8776    8.2350 H         1 BTK         0.0502
    135 H63       -41.9610  -11.5839    8.4164 H         1 BTK         0.0502
    136 H64       -34.6416  -17.9844    7.7853 H         1 GLY         0.1881
    137 H65       -31.8427  -17.6938    8.3980 H         1 GLY         0.0763
    138 H66       -32.6277  -19.1065    7.6139 H         1 GLY         0.0763
    139 H67       -34.5810  -19.5225    9.7882 H         1 LEU         0.1883
    140 H68       -32.6997  -20.5031   11.8839 H         1 LEU         0.0800
    141 H69       -34.6300  -20.8077   13.3693 H         1 LEU         0.0315
    142 H70       -35.7192  -20.2128   12.0706 H         1 LEU         0.0315
    143 H71       -34.6240  -17.9937   12.2001 H         1 LEU         0.0298
    144 H72       -35.6561  -17.3111   14.3486 H         1 LEU         0.0232
    145 H73       -35.7932  -19.0412   14.8115 H         1 LEU         0.0232
    146 H74       -36.6991  -18.4169   13.3916 H         1 LEU         0.0232
    147 H75       -32.4147  -18.6525   13.1028 H         1 LEU         0.0232
    148 H76       -33.1833  -19.0212   14.6839 H         1 LEU         0.0232
    149 H77       -33.1874  -17.3391   14.0538 H         1 LEU         0.0232
    150 H78       -32.5644  -21.8989    9.5446 H         1 GLY         0.1873
    151 H79       -32.7338  -24.0491    8.5960 H         1 GLY         0.0689
    152 H80       -34.0814  -24.4154    9.7258 H         1 GLY         0.0689
@<TRIPOS>BOND
     1    2    1 1  
     2    3    2 1  
     3    3    4 2  
     4    5    3 am 
     5    6    5 1  
     6    7    6 1  
     7    6    9 1  
     8    7    8 2  
     9   16    7 am 
    10    9   10 1  
    11   10   11 1  
    12   11   12 1  
    13   12   13 ar 
    14   13   14 ar 
    15   13   15 ar 
    16   17   16 1  
    17   18   17 1  
    18   18   19 2  
    19   21   18 am 
    20   20   22 2  
    21   20   23 1  
    22   34   20 am 
    23   23   21 1  
    24   23   24 1  
    25   24   27 1  
    26   25   26 1  
    27   27   25 1  
    28   26   28 1  
    29   28   33 am 
    30   31   29 1  
    31   33   30 2  
    32   32   31 1  
    33   33   32 1  
    34   35   34 1  
    35   36   35 1  
    36   36   37 2  
    37   38   36 am 
    38   39   38 1  
    39   40   39 1  
    40   40   41 2  
    41   43   40 am 
    42   42   44 2  
    43   45   42 1  
    44   42   56 am 
    45   45   43 1  
    46   46   45 1  
    47   49   46 1  
    48   48   47 1  
    49   47   49 1  
    50   50   48 1  
    51   55   50 am 
    52   53   51 1  
    53   55   52 2  
    54   54   53 1  
    55   54   55 1  
    56   56   57 1  
    57   57   58 1  
    58   58   59 2  
    59   58   60 am 
    60   60   61 1  
    61   61   62 1  
    62   61   64 1  
    63   62   63 2  
    64   62   68 am 
    65   64   65 1  
    66   65   66 1  
    67   65   67 1  
    68   68   69 1  
    69   69   70 1  
    70   70   71 ar 
    71   70   72 ar 
    72    1   73 1  
    73    1   74 1  
    74    1   75 1  
    75    2   76 1  
    76    2   77 1  
    77    5   78 1  
    78    6   79 1  
    79    9   80 1  
    80    9   81 1  
    81   10   82 1  
    82   10   83 1  
    83   11   84 1  
    84   11   85 1  
    85   12   86 1  
    86   14   87 1  
    87   14   88 1  
    88   15   89 1  
    89   15   90 1  
    90   16   91 1  
    91   17   92 1  
    92   17   93 1  
    93   21   94 1  
    94   23   95 1  
    95   24   96 1  
    96   24   97 1  
    97   25   98 1  
    98   25   99 1  
    99   26  100 1  
   100   26  101 1  
   101   27  102 1  
   102   27  103 1  
   103   28  104 1  
   104   29  105 1  
   105   29  106 1  
   106   29  107 1  
   107   31  108 1  
   108   31  109 1  
   109   32  110 1  
   110   32  111 1  
   111   34  112 1  
   112   35  113 1  
   113   35  114 1  
   114   38  115 1  
   115   39  116 1  
   116   39  117 1  
   117   43  118 1  
   118   45  119 1  
   119   46  120 1  
   120   46  121 1  
   121   47  122 1  
   122   47  123 1  
   123   48  124 1  
   124   48  125 1  
   125   49  126 1  
   126   49  127 1  
   127   50  128 1  
   128   51  129 1  
   129   51  130 1  
   130   51  131 1  
   131   53  132 1  
   132   53  133 1  
   133   54  134 1  
   134   54  135 1  
   135   56  136 1  
   136   57  137 1  
   137   57  138 1  
   138   60  139 1  
   139   61  140 1  
   140   64  141 1  
   141   64  142 1  
   142   65  143 1  
   143   66  144 1  
   144   66  145 1  
   145   66  146 1  
   146   67  147 1  
   147   67  148 1  
   148   67  149 1  
   149   68  150 1  
   150   69  151 1  
   151   69  152 1  
@<TRIPOS>SUBSTRUCTURE
     1 GLY         1

