1dtt_ligand
  -I-interpret- 

 39 40  0  0  0  0  0  0  0  0999 V2000
   -1.9070  -34.6890   21.8880 C   0  0  0  0  0
   -1.8840  -34.8920   23.2680 N   0  0  0  0  0
   -2.8370  -34.3510   24.1270 C   0  0  0  0  0
   -3.8600  -33.5890   23.5590 C   0  0  0  0  0
   -3.8880  -33.3710   22.1780 C   0  0  0  0  0
   -2.9350  -33.9140   21.3300 C   0  0  0  0  0
   -5.0920  -32.9420   24.5360 Cl  0  0  0  0  0
   -1.0530  -35.2640   21.0040 N   0  0  0  0  0
    0.0140  -36.0400   21.2010 C   0  0  0  0  0
    1.0970  -36.3310   19.8700 S   0  0  0  0  0
    0.1530  -36.5920   22.4310 N   0  0  0  0  0
    1.4790  -36.8940   23.0050 C   0  0  0  0  0
    1.3560  -37.1530   24.5380 C   0  0  0  0  0
    1.5140  -35.8510   25.3280 C   0  0  0  0  0
    2.6560  -35.0920   25.1450 N   0  0  0  0  0
    2.8500  -33.8640   25.7430 C   0  0  0  0  0
    1.8560  -33.3500   26.5780 C   0  0  0  0  0
    0.6830  -34.0880   26.7940 C   0  0  0  0  0
    0.4940  -35.3450   26.1650 C   0  0  0  0  0
   -0.2550  -33.5690   27.6670 O   0  0  0  0  0
   -1.0880  -32.5880   27.0670 C   0  0  0  0  0
   -2.1390  -32.1440   28.0580 C   0  0  0  0  0
   -0.6420  -36.0320   26.3630 F   0  0  0  0  0
   -2.7863  -34.5162   25.2032 H   0  0  0  0  0
   -4.6826  -32.7559   21.7557 H   0  0  0  0  0
   -2.9832  -33.7428   20.2546 H   0  0  0  0  0
   -1.2620  -35.0704   20.0246 H   0  0  0  0  0
   -0.6827  -36.8049   22.9757 H   0  0  0  0  0
    2.1416  -36.0447   22.8387 H   0  0  0  0  0
    1.8815  -37.7853   22.5237 H   0  0  0  0  0
    2.1431  -37.8437   24.8405 H   0  0  0  0  0
    0.3704  -37.5703   24.7445 H   0  0  0  0  0
    3.7672  -33.3024   25.5659 H   0  0  0  0  0
    1.9908  -32.3812   27.0590 H   0  0  0  0  0
   -1.5738  -33.0124   26.1884 H   0  0  0  0  0
   -0.4836  -31.7308   26.7703 H   0  0  0  0  0
   -2.7427  -33.0019   28.3542 H   0  0  0  0  0
   -1.6523  -31.7199   28.9363 H   0  0  0  0  0
   -2.7774  -31.3911   27.5957 H   0  0  0  0  0
  1  2  4  0  0  0
  1  6  4  0  0  0
  1  8  1  0  0  0
  2  3  4  0  0  0
  3  4  4  0  0  0
  4  5  4  0  0  0
  4  7  1  0  0  0
  5  6  4  0  0  0
  8  9  1  0  0  0
  9 10  2  0  0  0
  9 11  1  0  0  0
 11 12  1  0  0  0
 12 13  1  0  0  0
 13 14  1  0  0  0
 14 15  4  0  0  0
 14 19  4  0  0  0
 15 16  4  0  0  0
 16 17  4  0  0  0
 17 18  4  0  0  0
 18 19  4  0  0  0
 18 20  1  0  0  0
 19 23  1  0  0  0
 20 21  1  0  0  0
 21 22  1  0  0  0
  3 24  1  0  0  0
  5 25  1  0  0  0
  6 26  1  0  0  0
  8 27  1  0  0  0
 11 28  1  0  0  0
 12 29  1  0  0  0
 12 30  1  0  0  0
 13 31  1  0  0  0
 13 32  1  0  0  0
 16 33  1  0  0  0
 17 34  1  0  0  0
 21 35  1  0  0  0
 21 36  1  0  0  0
 22 37  1  0  0  0
 22 38  1  0  0  0
 22 39  1  0  0  0
M  END
$$$$
