4x49_ligand
  -I-interpret- 

 45 45  0  0  0  0  0  0  0  0999 V2000
  -31.5460   86.6280   19.5190 C   0  0  0  0  0
  -32.2860   85.6360   19.7390 O   0  0  0  0  0
  -30.8050   87.1290   20.4230 O   0  0  0  0  0
  -31.4630   87.1780   18.1680 C   0  0  0  0  0
  -30.1940   87.8890   17.7710 C   0  0  0  0  0
  -30.0860   88.1990   16.3050 C   0  0  0  0  0
  -31.4400   88.6620   15.7770 C   0  0  0  0  0
  -31.3520   88.9680   14.3750 N   0  0  0  0  0
  -31.5420   90.1670   13.7950 C   0  0  0  0  0
  -31.8380   91.1710   14.4170 O   0  0  0  0  0
  -31.3340   90.1890   12.3070 C   0  0  0  0  0
  -32.5300   87.6090   15.9580 C   0  0  0  0  0
  -32.5070   87.0940   17.3520 C   0  0  0  0  0
  -33.7750   88.2570   15.7440 O   0  0  0  0  0
  -34.8880   87.5320   15.1780 C   0  0  0  0  0
  -36.1990   87.9270   15.8740 C   0  0  0  0  0
  -35.2810   87.7980   13.7200 C   0  0  0  0  0
  -34.1290   88.1100   12.8460 C   0  0  0  0  0
  -36.2890   87.4980   17.3180 C   0  0  0  0  0
  -29.0900   89.2650   16.1830 N   0  3  0  0  0
  -30.3201   87.8743   20.0611 H   0  0  0  0  0
  -29.3656   87.2252   18.0185 H   0  0  0  0  0
  -30.1834   88.8419   18.3001 H   0  0  0  0  0
  -29.7900   87.3242   15.7260 H   0  0  0  0  0
  -31.7061   89.5467   16.3555 H   0  0  0  0  0
  -31.1207   88.1930   13.7534 H   0  0  0  0  0
  -32.2504   90.5197   11.8182 H   0  0  0  0  0
  -30.5232   90.8761   12.0649 H   0  0  0  0  0
  -31.0780   89.1871   11.9624 H   0  0  0  0  0
  -32.3775   86.7809   15.2658 H   0  0  0  0  0
  -33.4095   86.6142   17.7306 H   0  0  0  0  0
  -34.5178   86.5133   15.2935 H   0  0  0  0  0
  -37.0083   87.4287   15.3403 H   0  0  0  0  0
  -36.2550   89.0154   15.8586 H   0  0  0  0  0
  -35.9426   88.6642   13.7118 H   0  0  0  0  0
  -35.7476   86.8910   13.3357 H   0  0  0  0  0
  -33.6245   89.0023   13.2167 H   0  0  0  0  0
  -33.4341   87.2703   12.8494 H   0  0  0  0  0
  -34.4826   88.2866   11.8302 H   0  0  0  0  0
  -36.2093   86.4126   17.3789 H   0  0  0  0  0
  -35.4768   87.9555   17.8829 H   0  0  0  0  0
  -37.2457   87.8171   17.7315 H   0  0  0  0  0
  -28.1941   88.9342   16.5412 H   0  0  0  0  0
  -28.9902   89.5247   15.2017 H   0  0  0  0  0
  -29.3942   90.0762   16.7214 H   0  0  0  0  0
  1  2  2  0  0  0
  1  3  1  0  0  0
  1  4  1  0  0  0
  4  5  1  0  0  0
  4 13  2  0  0  0
  5  6  1  0  0  0
  6  7  1  0  0  0
  6 20  1  0  0  0
  7  8  1  0  0  0
  7 12  1  0  0  0
  8  9  1  0  0  0
  9 10  2  0  0  0
  9 11  1  0  0  0
 12 13  1  0  0  0
 12 14  1  0  0  0
 14 15  1  0  0  0
 15 16  1  0  0  0
 15 17  1  0  0  0
 16 19  1  0  0  0
 17 18  1  0  0  0
  3 21  1  0  0  0
  5 22  1  0  0  0
  5 23  1  0  0  0
  6 24  1  0  0  0
  7 25  1  0  0  0
  8 26  1  0  0  0
 11 27  1  0  0  0
 11 28  1  0  0  0
 11 29  1  0  0  0
 12 30  1  0  0  0
 13 31  1  0  0  0
 15 32  1  0  0  0
 16 33  1  0  0  0
 16 34  1  0  0  0
 17 35  1  0  0  0
 17 36  1  0  0  0
 18 37  1  0  0  0
 18 38  1  0  0  0
 18 39  1  0  0  0
 19 40  1  0  0  0
 19 41  1  0  0  0
 19 42  1  0  0  0
 20 43  1  0  0  0
 20 44  1  0  0  0
 20 45  1  0  0  0
M  END
$$$$
