1c6y_ligand
  -I-interpret- 

 94 98  0  0  0  0  0  0  0  0999 V2000
    9.6990   25.2450    3.2100 N   0  3  0  0  0
    9.6770   25.3590    4.7010 C   0  0  0  0  0
   10.9380   26.0730    5.1550 C   0  0  0  0  0
   10.8940   26.3430    6.6200 C   0  0  0  0  0
   11.3860   25.5440    7.4050 O   0  0  0  0  0
   10.3230   27.4990    7.0590 N   0  0  0  0  0
   10.3660   27.8070    8.5210 C   0  0  0  0  0
   11.7190   27.5910    9.2050 C   0  0  0  0  0
    9.3240   26.8700    9.2300 C   0  0  0  0  0
   10.1480   29.3650    8.7070 C   0  0  0  0  0
   12.0990   25.2500    4.8060 N   0  3  0  0  0
   12.1230   25.0900    3.3230 C   0  0  0  0  0
   10.8500   24.5320    2.7350 C   0  0  0  0  0
   13.2550   26.1740    4.6800 C   0  0  0  0  0
   14.6140   25.5620    4.9970 C   0  0  0  0  0
   15.5460   26.3460    4.4710 O   0  0  0  0  0
   14.8000   25.4690    6.4730 C   0  0  0  0  0
   16.0710   24.7820    7.0010 C   0  0  0  0  0
   16.1650   25.0190    8.5190 C   0  0  0  0  0
   17.3000   24.1620    9.0520 C   0  0  0  0  0
   18.6130   24.2300    8.5040 C   0  0  0  0  0
   19.6480   23.5720    9.1560 C   0  0  0  0  0
   19.3640   22.8960   10.3450 C   0  0  0  0  0
   18.0400   22.5990   10.7330 C   0  0  0  0  0
   16.9880   23.2700   10.0870 C   0  0  0  0  0
   16.0830   23.1750    6.6870 C   0  0  0  0  0
   15.1900   22.4150    7.0730 O   0  0  0  0  0
   17.1480   22.7100    6.1060 N   0  0  0  0  0
   17.4460   21.2760    6.2430 C   0  0  0  0  0
   18.9400   20.9680    6.5180 C   0  0  0  0  0
   19.6840   21.7400    5.6700 O   0  0  0  0  0
   19.1730   19.4500    6.1960 C   0  0  0  0  0
   18.2770   19.5520    4.9180 C   0  0  0  0  0
   18.4410   18.8610    3.7400 C   0  0  0  0  0
   17.6260   19.3360    2.6860 C   0  0  0  0  0
   16.6860   20.4010    2.7630 C   0  0  0  0  0
   16.4960   21.0390    3.9520 C   0  0  0  0  0
   17.3320   20.6070    4.9740 C   0  0  0  0  0
    8.5060   24.5940    2.5860 C   0  0  0  0  0
    7.9260   23.4130    3.4090 C   0  0  0  0  0
    6.9230   23.6130    4.3960 C   0  0  0  0  0
    6.3890   22.5620    5.0620 N   0  0  0  0  0
    6.7530   21.2810    4.8100 C   0  0  0  0  0
    7.7640   20.9610    3.8650 C   0  0  0  0  0
    8.3540   22.0670    3.1730 C   0  0  0  0  0
    9.7108   26.2244    2.9255 H   0  0  0  0  0
    9.6338   24.3654    5.1471 H   0  0  0  0  0
    8.7991   25.9232    5.0157 H   0  0  0  0  0
   11.0145   27.0361    4.6502 H   0  0  0  0  0
    9.8757   28.1406    6.4043 H   0  0  0  0  0
   12.4780   28.1918    8.7039 H   0  0  0  0  0
   11.6481   27.8910   10.2505 H   0  0  0  0  0
   11.9905   26.5370    9.1457 H   0  0  0  0  0
    9.3470   27.0508   10.3047 H   0  0  0  0  0
    8.3262   27.0821    8.8459 H   0  0  0  0  0
    9.5781   25.8291    9.0298 H   0  0  0  0  0
    9.1726   29.6442    8.3087 H   0  0  0  0  0
   10.1933   29.6129    9.7675 H   0  0  0  0  0
   10.9286   29.9062    8.1724 H   0  0  0  0  0
   12.0975   24.4461    5.4338 H   0  0  0  0  0
   12.9193   24.3829    3.0906 H   0  0  0  0  0
   12.2636   26.0832    2.8965 H   0  0  0  0  0
   10.8963   24.6316    1.6505 H   0  0  0  0  0
   10.7587   23.4878    3.0339 H   0  0  0  0  0
   13.0961   26.9738    5.4033 H   0  0  0  0  0
   13.2902   26.4901    3.6374 H   0  0  0  0  0
   14.6837   24.5572    4.5804 H   0  0  0  0  0
   16.4135   25.9799    4.6582 H   0  0  0  0  0
   13.9718   24.8569    6.8300 H   0  0  0  0  0
   14.8636   26.4999    6.8212 H   0  0  0  0  0
   16.9309   25.2141    6.4891 H   0  0  0  0  0
   15.2266   24.7490    9.0034 H   0  0  0  0  0
   16.3554   26.0719    8.7270 H   0  0  0  0  0
   18.8025   24.7893    7.5878 H   0  0  0  0  0
   20.6591   23.5829    8.7490 H   0  0  0  0  0
   20.1872   22.5897   10.9905 H   0  0  0  0  0
   17.8384   21.8668   11.5149 H   0  0  0  0  0
   15.9530   23.1007   10.3840 H   0  0  0  0  0
   17.7613   23.3231    5.5690 H   0  0  0  0  0
   16.7668   20.9661    7.0372 H   0  0  0  0  0
   19.2191   21.1779    7.5505 H   0  0  0  0  0
   20.6169   21.5691    5.8189 H   0  0  0  0  0
   18.9405   18.7013    6.9533 H   0  0  0  0  0
   20.1918   19.0732    6.1057 H   0  0  0  0  0
   19.1334   18.0265    3.6292 H   0  0  0  0  0
   17.7280   18.8380    1.7218 H   0  0  0  0  0
   16.1234   20.7036    1.8798 H   0  0  0  0  0
   15.7507   21.8224    4.0897 H   0  0  0  0  0
    8.8243   24.1914    1.6244 H   0  0  0  0  0
    7.7255   25.3515    2.5148 H   0  0  0  0  0
    6.5800   24.6233    4.6192 H   0  0  0  0  0
    6.2559   20.4736    5.3477 H   0  0  0  0  0
    8.0729   19.9327    3.6774 H   0  0  0  0  0
    9.1476   21.8800    2.4496 H   0  0  0  0  0
  1 39  1  0  0  0
  1 13  1  0  0  0
  1  2  1  0  0  0
  2  3  1  0  0  0
  3 11  1  0  0  0
  3  4  1  0  0  0
  4  6  1  0  0  0
  4  5  2  0  0  0
  6  7  1  0  0  0
  7 10  1  0  0  0
  7  9  1  0  0  0
  7  8  1  0  0  0
 11 14  1  0  0  0
 11 12  1  0  0  0
 12 13  1  0  0  0
 14 15  1  0  0  0
 15 17  1  0  0  0
 15 16  1  0  0  0
 17 18  1  0  0  0
 18 26  1  0  0  0
 18 19  1  0  0  0
 19 20  1  0  0  0
 20 25  4  0  0  0
 20 21  4  0  0  0
 21 22  4  0  0  0
 22 23  4  0  0  0
 23 24  4  0  0  0
 24 25  4  0  0  0
 26 28  1  0  0  0
 26 27  2  0  0  0
 28 29  1  0  0  0
 29 38  1  0  0  0
 29 30  1  0  0  0
 30 32  1  0  0  0
 30 31  1  0  0  0
 32 33  1  0  0  0
 33 38  4  0  0  0
 33 34  4  0  0  0
 34 35  4  0  0  0
 35 36  4  0  0  0
 36 37  4  0  0  0
 37 38  4  0  0  0
 39 40  1  0  0  0
 40 45  4  0  0  0
 40 41  4  0  0  0
 41 42  4  0  0  0
 42 43  4  0  0  0
 43 44  4  0  0  0
 44 45  4  0  0  0
  1 46  1  0  0  0
  2 47  1  0  0  0
  2 48  1  0  0  0
  3 49  1  0  0  0
  6 50  1  0  0  0
  8 51  1  0  0  0
  8 52  1  0  0  0
  8 53  1  0  0  0
  9 54  1  0  0  0
  9 55  1  0  0  0
  9 56  1  0  0  0
 10 57  1  0  0  0
 10 58  1  0  0  0
 10 59  1  0  0  0
 11 60  1  0  0  0
 12 61  1  0  0  0
 12 62  1  0  0  0
 13 63  1  0  0  0
 13 64  1  0  0  0
 14 65  1  0  0  0
 14 66  1  0  0  0
 15 67  1  0  0  0
 16 68  1  0  0  0
 17 69  1  0  0  0
 17 70  1  0  0  0
 18 71  1  0  0  0
 19 72  1  0  0  0
 19 73  1  0  0  0
 21 74  1  0  0  0
 22 75  1  0  0  0
 23 76  1  0  0  0
 24 77  1  0  0  0
 25 78  1  0  0  0
 28 79  1  0  0  0
 29 80  1  0  0  0
 30 81  1  0  0  0
 31 82  1  0  0  0
 32 83  1  0  0  0
 32 84  1  0  0  0
 34 85  1  0  0  0
 35 86  1  0  0  0
 36 87  1  0  0  0
 37 88  1  0  0  0
 39 89  1  0  0  0
 39 90  1  0  0  0
 41 91  1  0  0  0
 43 92  1  0  0  0
 44 93  1  0  0  0
 45 94  1  0  0  0
M  END
$$$$
