6rw1_ligand

Created by X-TOOL on Mon Aug  2 16:17:20 2021
 42 43  0  0  0  0  0  0  0  0999 V2000
    0.1250    9.3510   13.7730  C 0  0  0  2  0  3
   -0.3340    9.5390   15.0640  C 0  0  0  2  0  3
   -1.3680    8.7570   15.5430  C 0  0  0  2  0  3
   -0.4520    8.3820   12.9620  C 0  0  0  2  0  3
   -5.0790    1.9830   15.4240  C 0  0  0  2  0  4
   -4.4240    2.9320   14.6220  C 0  0  0  2  0  3
   -4.8700    4.2490   14.5190  C 0  0  0  1  0  3
   -6.0030    4.6430   15.2290  C 0  0  0  2  0  3
   -6.6690    3.7210   16.0300  C 0  0  0  2  0  3
   -6.2120    2.4110   16.1260  C 0  0  0  1  0  3
   -6.7530    1.2610   16.9210  C 0  0  0  3  0  4
   -4.5500    6.0910   12.8300  C 0  0  0  1  0  3
   -2.1220    6.5370   12.5470  C 0  0  0  3  0  4
   -1.4950    7.5900   13.4300  C 0  0  0  1  0  3
   -1.9450    7.7900   14.7310  C 0  0  0  2  0  3
   -3.6060    0.2440   16.6210  O 0  0  0  3  0  3
   -6.1530    6.3980   12.4400  S 0  0  0  1  0  1
   -4.1430    5.1680   13.7220  N 0  0  0  2  0  3
   -3.5390    6.7660   12.2780  N 0  0  0  2  0  3
   -4.7850    0.4320   15.7590  B 0  0  0  1  0  3
   -6.0180    0.1140   16.5130  O 0  0  0  2  0  2
   -4.7110   -0.4750   14.6140  O 0  0  0  3  0  3
    0.9366    9.9610   13.3932  H 0  0  0  1  0  1
    0.1150   10.2959   15.6970  H 0  0  0  1  0  1
   -1.7293    8.8990   16.5551  H 0  0  0  1  0  1
   -0.0848    8.2414   11.9518  H 0  0  0  1  0  1
   -4.7221    0.9620   15.4963  H 0  0  0  1  0  1
   -3.5438    2.6309   14.0655  H 0  0  0  1  0  1
   -6.3634    5.6628   15.1573  H 0  0  0  1  0  1
   -7.5501    4.0257   16.5831  H 0  0  0  1  0  1
   -7.8237    1.1222   16.7102  H 0  0  0  1  0  1
   -6.6114    1.4414   17.9968  H 0  0  0  1  0  1
   -2.0156    5.5603   13.0417  H 0  0  0  1  0  1
   -1.5841    6.5227   11.5876  H 0  0  0  1  0  1
   -2.7566    7.1830   15.1157  H 0  0  0  1  0  1
   -3.5820   -0.6535   16.9315  H 0  0  0  1  0  1
   -3.5820   -0.6535   16.9315  H 0  0  0  1  0  1
   -3.1514    5.1230   13.8437  H 0  0  0  1  0  1
   -3.7713    7.4882   11.6264  H 0  0  0  1  0  1
   -5.0952    0.2500   16.6933  H 0  0  0  1  0  1
   -5.4738   -0.3491   14.0619  H 0  0  0  1  0  1
   -5.4738   -0.3492   14.0619  H 0  0  0  1  0  1
  1  2  4  0  0  1
  4  1  4  0  0  1
  2  3  4  0  0  1
  3 15  4  0  0  1
 14  4  4  0  0  1
  6  5  4  0  0  1
  5 10  4  0  0  1
  5 20  1  0  0  2
  7  6  4  0  0  1
  7  8  4  0  0  1
 18  7  1  0  0  2
  8  9  4  0  0  1
  9 10  4  0  0  1
 10 11  1  0  0  2
 11 21  1  0  0  2
 12 17  2  0  0  2
 12 18  1  0  0  2
 19 12  1  0  0  2
 13 14  1  0  0  2
 13 19  1  0  0  2
 14 15  4  0  0  1
 20 16  1  0  0  2
 20 22  1  0  0  2
  1 23  1  0  0  2
  2 24  1  0  0  2
  3 25  1  0  0  2
  4 26  1  0  0  2
  5 27  1  0  0  2
  6 28  1  0  0  2
  8 29  1  0  0  2
  9 30  1  0  0  2
 11 31  1  0  0  2
 11 32  1  0  0  2
 13 33  1  0  0  2
 13 34  1  0  0  2
 15 35  1  0  0  2
 16 36  1  0  0  2
 16 37  1  0  0  2
 18 38  1  0  0  2
 19 39  1  0  0  2
 21 40  1  0  0  2
 22 41  1  0  0  2
 22 42  1  0  0  2
M  END
> <MOLECULAR_FORMULA>
C15H20N2O3SB

> <MOLECULAR_WEIGHT>
319.0

> <NUM_HB_ATOMS>
5  

> <NUM_ROTOR>
4  

> <XLOGP2>
1.24 

$$$$
