#	Name:			6rw1_ligand
#	Creating user name:	wangrx
#	Creation time:		Thu Aug  5 18:11:43 2021

#	Modifying user name:	wangrx
#	Modification time:	Thu Aug  5 18:12:07 2021

@<TRIPOS>MOLECULE
6rw1_ligand
   40    42     1     0     0
SMALL
GAST_HUCK


@<TRIPOS>ATOM
      1 C14         0.1250    9.3510   13.7730 C.ar      1 KL5        -0.0685 
      2 C13        -0.3340    9.5390   15.0640 C.ar      1 KL5        -0.0687 
      3 C12        -1.3680    8.7570   15.5430 C.ar      1 KL5        -0.0685 
      4 C15        -0.4520    8.3820   12.9620 C.ar      1 KL5        -0.0582 
      5 C1         -5.0790    1.9830   15.4240 C.ar      1 KL5        -0.2026 
      6 C2         -4.4240    2.9320   14.6220 C.ar      1 KL5        -0.1642 
      7 C3         -4.8700    4.2490   14.5190 C.ar      1 KL5        -0.0316 
      8 C4         -6.0030    4.6430   15.2290 C.ar      1 KL5        -0.1609 
      9 C5         -6.6690    3.7210   16.0300 C.ar      1 KL5        -0.1885 
     10 C6         -6.2120    2.4110   16.1260 C.ar      1 KL5        -0.1746 
     11 C7         -6.7530    1.2610   16.9210 C.3       1 KL5        -0.1290 
     12 C8         -4.5500    6.0910   12.8300 C.2       1 KL5         0.1614 
     13 C9         -2.1220    6.5370   12.5470 C.3       1 KL5         0.0704 
     14 C10        -1.4950    7.5900   13.4300 C.ar      1 KL5        -0.0191 
     15 C11        -1.9450    7.7900   14.7310 C.ar      1 KL5        -0.0582 
     16 O3         -3.6060    0.2440   16.6210 O.3       1 KL5        -0.4105 
     17 S1         -6.1530    6.3980   12.4400 S.2       1 KL5        -0.2980 
     18 N1         -4.1430    5.1680   13.7220 N.am      1 KL5        -0.2545 
     19 N2         -3.5390    6.7660   12.2780 N.am      1 KL5        -0.2676 
     20 B1         -4.7850    0.4320   15.7590 B         1 KL5         3.0000 
     21 O1         -6.0180    0.1140   16.5130 O.3       1 KL5        -0.8474 
     22 O2         -4.7110   -0.4750   14.6140 O.3       1 KL5        -0.4105 
     23 H1          0.9366    9.9610   13.3932 H         1 KL5         0.0599 
     24 H2          0.1150   10.2959   15.6970 H         1 KL5         0.0559 
     25 H3         -1.7293    8.8990   16.5551 H         1 KL5         0.0599 
     26 H4         -0.0848    8.2414   11.9518 H         1 KL5         0.0557 
     27 H6         -3.5438    2.6309   14.0655 H         1 KL5        -0.0250 
     28 H7         -6.3634    5.6628   15.1573 H         1 KL5        -0.0248 
     29 H8         -7.5501    4.0257   16.5831 H         1 KL5        -0.0221 
     30 H9         -7.8237    1.1222   16.7102 H         1 KL5         0.0198 
     31 H10        -6.6114    1.4414   17.9968 H         1 KL5         0.0198 
     32 H11        -2.0156    5.5603   13.0417 H         1 KL5         0.0706 
     33 H12        -1.5841    6.5227   11.5876 H         1 KL5         0.0706 
     34 H13        -2.7566    7.1830   15.1157 H         1 KL5         0.0557 
     35 H14        -3.5820   -0.6535   16.9315 H         1 KL5         0.2052 
     36 H15        -3.5820   -0.6535   16.9315 H         1 KL5         0.2052 
     37 H16        -3.1514    5.1230   13.8437 H         1 KL5         0.2317 
     38 H17        -3.7713    7.4882   11.6264 H         1 KL5         0.2005 
     39 H19        -5.4738   -0.3491   14.0619 H         1 KL5         0.2052 
     40 H20        -5.4738   -0.3492   14.0619 H         1 KL5         0.2052 
@<TRIPOS>BOND
     1    1    2 ar   
     2    4    1 ar   
     3    2    3 ar   
     4    3   15 ar   
     5   14    4 ar   
     6    6    5 ar   
     7    5   10 ar   
     8    5   20 1    
     9    7    6 ar   
    10    7    8 ar   
    11   18    7 1    
    12    8    9 ar   
    13    9   10 ar   
    14   10   11 1    
    15   11   21 1    
    16   12   17 2    
    17   12   18 am   
    18   19   12 am   
    19   13   14 1    
    20   13   19 1    
    21   14   15 ar   
    22   20   16 1    
    23   20   22 1    
    24    1   23 1    
    25    2   24 1    
    26    3   25 1    
    27    4   26 1    
    28   20   21 1    
    29    6   27 1    
    30    8   28 1    
    31    9   29 1    
    32   11   30 1    
    33   11   31 1    
    34   13   32 1    
    35   13   33 1    
    36   15   34 1    
    37   16   35 1    
    38   16   36 1    
    39   18   37 1    
    40   19   38 1    
    41   22   39 1    
    42   22   40 1    
@<TRIPOS>SUBSTRUCTURE
     1 KL5         1 PERM              0 ****  ****    0 ROOT 
