1fkg_ligand
  -I-interpret- 

 68 70  0  0  0  0  0  0  0  0999 V2000
  -24.9690   27.3480    4.2710 C   0  0  0  0  0
  -25.6770   28.3360    4.7790 O   0  0  0  0  0
  -23.8060   27.4770    3.9930 O   0  0  0  0  0
  -25.7480   26.0540    3.9610 C   0  0  0  0  0
  -25.3870   25.4230    2.6200 C   0  0  0  0  0
  -25.7890   26.2160    1.3830 C   0  0  0  0  0
  -27.2970   26.3700    1.3880 C   0  0  0  0  0
  -27.6570   26.9830    2.7430 C   0  0  0  0  0
  -27.2020   26.1280    3.8840 N   0  0  0  0  0
  -27.9480   25.8960    4.9870 C   0  0  0  0  0
  -27.3890   25.4260    5.9800 O   0  0  0  0  0
  -29.4780   26.0970    5.0560 C   0  0  0  0  0
  -30.2030   25.2860    4.4680 O   0  0  0  0  0
  -30.1130   27.1930    5.9250 C   0  0  0  0  0
  -29.6180   28.5640    5.5010 C   0  0  0  0  0
  -30.1120   29.0070    4.1070 C   0  0  0  0  0
  -29.7510   27.0540    7.4480 C   0  0  0  0  0
  -31.6540   27.2080    5.8160 C   0  0  0  0  0
  -25.1340   29.6560    4.9600 C   0  0  0  0  0
  -24.5940   29.7240    6.3920 C   0  0  0  0  0
  -23.7130   30.9140    6.7670 C   0  0  0  0  0
  -22.5240   30.5570    7.6390 C   0  0  0  0  0
  -22.6260   30.6130    8.9560 C   0  0  0  0  0
  -21.7020   30.0690    9.7210 C   0  0  0  0  0
  -20.6520   29.4650    9.1790 C   0  0  0  0  0
  -20.5310   29.4190    7.8660 C   0  0  0  0  0
  -21.4660   29.9720    7.1020 C   0  0  0  0  0
  -26.2810   30.6540    4.6780 C   0  0  0  0  0
  -26.4530   31.0880    3.4270 C   0  0  0  0  0
  -27.3790   31.9840    3.1360 C   0  0  0  0  0
  -28.1560   32.4590    4.0980 C   0  0  0  0  0
  -28.0050   32.0380    5.3480 C   0  0  0  0  0
  -27.0750   31.1380    5.6430 C   0  0  0  0  0
  -25.4417   25.4828    4.8374 H   0  0  0  0  0
  -25.9287   24.4785    2.5690 H   0  0  0  0  0
  -24.2997   25.3492    2.5978 H   0  0  0  0  0
  -25.4689   25.6925    0.4821 H   0  0  0  0  0
  -25.3123   27.1962    1.3952 H   0  0  0  0  0
  -27.7913   25.4088    1.2469 H   0  0  0  0  0
  -27.6306   27.0052    0.5674 H   0  0  0  0  0
  -28.7417   27.0755    2.7978 H   0  0  0  0  0
  -27.1601   27.9499    2.8224 H   0  0  0  0  0
  -28.5299   28.5157    5.4580 H   0  0  0  0  0
  -30.0019   29.2840    6.2238 H   0  0  0  0  0
  -29.7679   28.2942    3.3576 H   0  0  0  0  0
  -31.2014   29.0425    4.1034 H   0  0  0  0  0
  -29.7142   29.9960    3.8794 H   0  0  0  0  0
  -30.1036   26.0911    7.8175 H   0  0  0  0  0
  -28.6698   27.1178    7.5704 H   0  0  0  0  0
  -30.2294   27.8571    8.0086 H   0  0  0  0  0
  -31.9420   27.3882    4.7803 H   0  0  0  0  0
  -32.0494   26.2461    6.1423 H   0  0  0  0  0
  -32.0540   28.0002    6.4488 H   0  0  0  0  0
  -24.3115   29.9003    4.2878 H   0  0  0  0  0
  -23.9586   28.8455    6.5046 H   0  0  0  0  0
  -25.4739   29.8016    7.0306 H   0  0  0  0  0
  -24.3330   31.6064    7.3364 H   0  0  0  0  0
  -23.3185   31.3273    5.8387 H   0  0  0  0  0
  -23.4807   31.1128    9.4119 H   0  0  0  0  0
  -21.8004   30.1152   10.8056 H   0  0  0  0  0
  -19.8934   29.0092    9.8153 H   0  0  0  0  0
  -19.6693   28.9303    7.4113 H   0  0  0  0  0
  -21.3602   29.9435    6.0175 H   0  0  0  0  0
  -25.8183   30.6962    2.6322 H   0  0  0  0  0
  -27.5031   32.3306    2.1100 H   0  0  0  0  0
  -28.9219   33.1980    3.8625 H   0  0  0  0  0
  -28.6473   32.4330    6.1352 H   0  0  0  0  0
  -26.9571   30.7926    6.6701 H   0  0  0  0  0
  1  4  1  0  0  0
  1  3  2  0  0  0
  1  2  1  0  0  0
  2 19  1  0  0  0
 19 28  1  0  0  0
 19 20  1  0  0  0
 20 21  1  0  0  0
 21 22  1  0  0  0
 22 27  4  0  0  0
 22 23  4  0  0  0
 23 24  4  0  0  0
 24 25  4  0  0  0
 25 26  4  0  0  0
 26 27  4  0  0  0
 28 33  4  0  0  0
 28 29  4  0  0  0
 29 30  4  0  0  0
 30 31  4  0  0  0
 31 32  4  0  0  0
 32 33  4  0  0  0
  4  9  1  0  0  0
  4  5  1  0  0  0
  5  6  1  0  0  0
  6  7  1  0  0  0
  7  8  1  0  0  0
  8  9  1  0  0  0
  9 10  1  0  0  0
 10 12  1  0  0  0
 10 11  2  0  0  0
 12 14  1  0  0  0
 12 13  2  0  0  0
 14 18  1  0  0  0
 14 17  1  0  0  0
 14 15  1  0  0  0
 15 16  1  0  0  0
  4 34  1  0  0  0
  5 35  1  0  0  0
  5 36  1  0  0  0
  6 37  1  0  0  0
  6 38  1  0  0  0
  7 39  1  0  0  0
  7 40  1  0  0  0
  8 41  1  0  0  0
  8 42  1  0  0  0
 15 43  1  0  0  0
 15 44  1  0  0  0
 16 45  1  0  0  0
 16 46  1  0  0  0
 16 47  1  0  0  0
 17 48  1  0  0  0
 17 49  1  0  0  0
 17 50  1  0  0  0
 18 51  1  0  0  0
 18 52  1  0  0  0
 18 53  1  0  0  0
 19 54  1  0  0  0
 20 55  1  0  0  0
 20 56  1  0  0  0
 21 57  1  0  0  0
 21 58  1  0  0  0
 23 59  1  0  0  0
 24 60  1  0  0  0
 25 61  1  0  0  0
 26 62  1  0  0  0
 27 63  1  0  0  0
 29 64  1  0  0  0
 30 65  1  0  0  0
 31 66  1  0  0  0
 32 67  1  0  0  0
 33 68  1  0  0  0
M  END
$$$$
