### 
### Created by X-TOOL on Mon Sep 10 21:13:24 2018
### 

@<TRIPOS>MOLECULE
4rao_ligand
   48    49     1     0     0
SMALL
GAST_HUCK


@<TRIPOS>ATOM
      1 OAD        22.6530   12.1690   14.3760 O.co2     1 3L7        -0.5622
      2 PBA        22.5340   11.0570   15.5250 P.3       1 3L7         0.0600
      3 OAE        21.4680   10.0180   15.1230 O.co2     1 3L7        -0.5622
      4 OAB        22.1360   11.7000   16.8300 O.co2     1 3L7        -0.5622
      5 CAP        24.1630   10.1390   15.7250 C.3       1 3L7         0.0430
      6 CAK        25.4610   10.7640   15.2160 C.3       1 3L7         0.0628
      7 OAU        26.6270   10.2070   15.6820 O.3       1 3L7        -0.3731
      8 CAJ        27.1650    9.1260   15.0520 C.3       1 3L7         0.0876
      9 CAL        27.5170    9.2870   13.5790 C.3       1 3L7        -0.0078
     10 NAY        27.5210    8.0460   12.7810 N.4       1 3L7         0.2398
     11 CAN        28.8600    7.4500   12.7010 C.3       1 3L7        -0.0164
     12 CAQ        28.8770    5.9450   12.6480 C.3       1 3L7         0.0596
     13 PBB        30.4720    5.1380   12.6170 P.3       1 3L7         0.0628
     14 OAF        31.4440    5.8680   11.6840 O.co2     1 3L7        -0.5621
     15 OAG        31.0630    5.1240   14.0910 O.co2     1 3L7        -0.5621
     16 OAC        30.3060    3.7440   12.1880 O.co2     1 3L7        -0.5621
     17 CAM        27.0170    8.3340   11.4160 C.3       1 3L7        -0.0032
     18 CAO        27.7440    9.3490   10.6210 C.3       1 3L7         0.0993
     19 N9         27.5580    9.1080    9.1370 N.pl3     1 3L7        -0.2286
     20 C4         26.4350    9.5130    8.4080 C.2       1 3L7         0.1335
     21 N3         25.2570   10.2310    8.7670 N.2       1 3L7        -0.2684
     22 C2         24.3290   10.4870    7.8200 C.2       1 3L7         0.1273
     23 N1         24.5200   10.0710    6.5340 N.am      1 3L7        -0.2042
     24 C6         25.6270    9.3820    6.1160 C.2       1 3L7         0.2200
     25 O6         25.7710    8.9970    4.8530 O.2       1 3L7        -0.4066
     26 C5         26.6450    9.0850    7.1130 C.2       1 3L7         0.1043
     27 N7         27.8820    8.4180    7.0710 N.2       1 3L7        -0.3156
     28 C8         28.4030    8.4420    8.3150 C.2       1 3L7         0.0981
     29 H1         24.0501    9.1756   15.2063 H         1 3L7         0.0474
     30 H2         24.2973    9.9620   16.8023 H         1 3L7         0.0474
     31 H3         25.4578   11.8255   15.5044 H         1 3L7         0.0574
     32 H4         25.4652   10.6820   14.1191 H         1 3L7         0.0574
     33 H5         26.4412    8.3015   15.1317 H         1 3L7         0.0613
     34 H6         28.0882    8.8565   15.5859 H         1 3L7         0.0613
     35 H7         28.5218    9.7305   13.5185 H         1 3L7         0.0837
     36 H8         26.7851    9.9746   13.1301 H         1 3L7         0.0837
     37 H9         26.9041    7.3820   13.2221 H         1 3L7         0.2036
     38 H10        29.4301    7.7680   13.5864 H         1 3L7         0.0828
     39 H11        29.3506    7.8303   11.7929 H         1 3L7         0.0828
     40 H12        28.3364    5.6412   11.7395 H         1 3L7         0.0504
     41 H13        28.3393    5.5780   13.5347 H         1 3L7         0.0504
     42 H14        25.9760    8.6755   11.5140 H         1 3L7         0.0842
     43 H15        27.0420    7.3915   10.8495 H         1 3L7         0.0842
     44 H16        28.8158    9.2961   10.8629 H         1 3L7         0.0672
     45 H17        27.3598   10.3480   10.8745 H         1 3L7         0.0672
     46 H18        23.4221   11.0290    8.0840 H         1 3L7         0.1493
     47 H19        23.8121   10.2811    5.8597 H         1 3L7         0.2557
     48 H20        29.3518    7.9968    8.6109 H         1 3L7         0.1212
@<TRIPOS>BOND
     1    1    2 ar 
     2    2    3 ar 
     3    2    4 ar 
     4    2    5 1  
     5    5    6 1  
     6    6    7 1  
     7    7    8 1  
     8    8    9 1  
     9    9   10 1  
    10   10   11 1  
    11   10   17 1  
    12   11   12 1  
    13   12   13 1  
    14   13   14 ar 
    15   13   15 ar 
    16   13   16 ar 
    17   17   18 1  
    18   18   19 1  
    19   19   20 1  
    20   19   28 1  
    21   20   21 1  
    22   20   26 2  
    23   21   22 2  
    24   22   23 am 
    25   23   24 am 
    26   24   25 2  
    27   24   26 1  
    28   26   27 1  
    29   27   28 2  
    30    5   29 1  
    31    5   30 1  
    32    6   31 1  
    33    6   32 1  
    34    8   33 1  
    35    8   34 1  
    36    9   35 1  
    37    9   36 1  
    38   10   37 1  
    39   11   38 1  
    40   11   39 1  
    41   12   40 1  
    42   12   41 1  
    43   17   42 1  
    44   17   43 1  
    45   18   44 1  
    46   18   45 1  
    47   22   46 1  
    48   23   47 1  
    49   28   48 1  
@<TRIPOS>SUBSTRUCTURE
     1 3L7         1

