4rao_ligand
  -I-interpret- 

 52 53  0  0  0  0  0  0  0  0999 V2000
   22.6530   12.1690   14.3760 O   0  0  0  0  0
   22.5340   11.0570   15.5250 P   0  0  0  0  0
   21.4680   10.0180   15.1230 O   0  0  0  0  0
   22.1360   11.7000   16.8300 O   0  0  0  0  0
   24.1630   10.1390   15.7250 C   0  0  0  0  0
   25.4610   10.7640   15.2160 C   0  0  0  0  0
   26.6270   10.2070   15.6820 O   0  0  0  0  0
   27.1650    9.1260   15.0520 C   0  0  0  0  0
   27.5170    9.2870   13.5790 C   0  0  0  0  0
   27.5210    8.0460   12.7810 N   0  3  0  0  0
   28.8600    7.4500   12.7010 C   0  0  0  0  0
   28.8770    5.9450   12.6480 C   0  0  0  0  0
   30.4720    5.1380   12.6170 P   0  0  0  0  0
   31.4440    5.8680   11.6840 O   0  0  0  0  0
   31.0630    5.1240   14.0910 O   0  0  0  0  0
   30.3060    3.7440   12.1880 O   0  0  0  0  0
   27.0170    8.3340   11.4160 C   0  0  0  0  0
   27.7440    9.3490   10.6210 C   0  0  0  0  0
   27.5580    9.1080    9.1370 N   0  0  0  0  0
   26.4350    9.5130    8.4080 C   0  0  0  0  0
   25.2570   10.2310    8.7670 N   0  0  0  0  0
   24.3290   10.4870    7.8200 C   0  0  0  0  0
   24.5200   10.0710    6.5340 N   0  0  0  0  0
   25.6270    9.3820    6.1160 C   0  0  0  0  0
   25.7710    8.9970    4.8530 O   0  0  0  0  0
   26.6450    9.0850    7.1130 C   0  0  0  0  0
   27.8820    8.4180    7.0710 N   0  0  0  0  0
   28.4030    8.4420    8.3150 C   0  0  0  0  0
   22.9065   11.7490   13.5508 H   0  0  0  0  0
   21.7199    9.6077   14.2924 H   0  0  0  0  0
   24.0422    9.2367   15.1256 H   0  0  0  0  0
   24.3021   10.0634   16.8034 H   0  0  0  0  0
   25.4576   11.7972   15.5634 H   0  0  0  0  0
   25.4652   10.6187   14.1357 H   0  0  0  0  0
   26.4020    8.3486   15.0919 H   0  0  0  0  0
   28.1067    8.9230   15.5621 H   0  0  0  0  0
   28.5341    9.6775   13.5463 H   0  0  0  0  0
   26.7489    9.9285   13.1471 H   0  0  0  0  0
   26.9114    7.3727   13.2452 H   0  0  0  0  0
   29.3916    7.7415   13.6068 H   0  0  0  0  0
   29.3104    7.8051   11.7741 H   0  0  0  0  0
   28.3954    5.6792   11.7070 H   0  0  0  0  0
   28.3984    5.6136   13.5696 H   0  0  0  0  0
   31.5435    6.7773   11.9754 H   0  0  0  0  0
   31.1813    6.0266   14.3957 H   0  0  0  0  0
   26.0114    8.7319   11.5518 H   0  0  0  0  0
   27.1169    7.4003   10.8626 H   0  0  0  0  0
   28.8063    9.2837   10.8563 H   0  0  0  0  0
   27.3509   10.3352   10.8680 H   0  0  0  0  0
   23.4213   11.0295    8.0843 H   0  0  0  0  0
   23.7979   10.2853    5.8462 H   0  0  0  0  0
   29.3526    7.9964    8.6112 H   0  0  0  0  0
  1  2  1  0  0  0
  2  3  1  0  0  0
  2  4  2  0  0  0
  2  5  1  0  0  0
  5  6  1  0  0  0
  6  7  1  0  0  0
  7  8  1  0  0  0
  8  9  1  0  0  0
  9 10  1  0  0  0
 10 11  1  0  0  0
 10 17  1  0  0  0
 11 12  1  0  0  0
 12 13  1  0  0  0
 13 14  1  0  0  0
 13 15  1  0  0  0
 13 16  2  0  0  0
 17 18  1  0  0  0
 18 19  1  0  0  0
 19 20  4  0  0  0
 19 28  4  0  0  0
 20 21  1  0  0  0
 20 26  4  0  0  0
 21 22  2  0  0  0
 22 23  1  0  0  0
 23 24  1  0  0  0
 24 25  2  0  0  0
 24 26  1  0  0  0
 26 27  4  0  0  0
 27 28  4  0  0  0
  1 29  1  0  0  0
  3 30  1  0  0  0
  5 31  1  0  0  0
  5 32  1  0  0  0
  6 33  1  0  0  0
  6 34  1  0  0  0
  8 35  1  0  0  0
  8 36  1  0  0  0
  9 37  1  0  0  0
  9 38  1  0  0  0
 10 39  1  0  0  0
 11 40  1  0  0  0
 11 41  1  0  0  0
 12 42  1  0  0  0
 12 43  1  0  0  0
 14 44  1  0  0  0
 15 45  1  0  0  0
 17 46  1  0  0  0
 17 47  1  0  0  0
 18 48  1  0  0  0
 18 49  1  0  0  0
 22 50  1  0  0  0
 23 51  1  0  0  0
 28 52  1  0  0  0
M  END
$$$$
