4unq_ligand
  -I-interpret- 

 33 34  0  0  0  0  0  0  0  0999 V2000
   22.8900   37.7350   -5.8130 C   0  0  0  0  0
   23.4600   37.7550   -7.4870 S   0  0  0  0  0
   24.8860   38.1960   -7.4170 O   0  0  0  0  0
   23.4530   36.0090   -7.7900 C   0  0  0  0  0
   24.6710   35.3130   -7.6000 C   0  0  0  0  0
   24.7220   33.9650   -7.8210 C   0  0  0  0  0
   23.5430   33.3270   -8.2160 N   0  0  0  0  0
   22.3160   33.9530   -8.4070 C   0  0  0  0  0
   21.3340   33.3190   -8.7540 O   0  0  0  0  0
   22.3160   35.3650   -8.1700 C   0  0  0  0  0
   21.0730   36.0290   -8.3380 C   0  0  0  0  0
   20.0740   36.5690   -8.4330 N   0  0  0  0  0
   25.9140   33.1140   -7.5760 C   0  0  0  0  0
   26.0310   31.8370   -8.1370 C   0  0  0  0  0
   27.1390   31.0330   -7.8530 C   0  0  0  0  0
   28.1300   31.4720   -6.9960 C   0  0  0  0  0
   28.0130   32.7280   -6.4420 C   0  0  0  0  0
   26.9120   33.5490   -6.7150 C   0  0  0  0  0
   28.9950   33.1810   -5.5660 O   0  0  0  0  0
   29.8440   34.0810   -5.9400 C   0  0  0  0  0
   30.5950   34.3920   -4.8940 F   0  0  0  0  0
   29.3040   35.1690   -6.4300 F   0  0  0  0  0
   30.6230   33.7050   -6.9230 F   0  0  0  0  0
   21.9047   37.2708   -5.7716 H   0  0  0  0  0
   23.5878   37.1648   -5.1997 H   0  0  0  0  0
   22.8275   38.7571   -5.4396 H   0  0  0  0  0
   24.9198   39.1413   -7.2531 H   0  0  0  0  0
   25.5639   35.8494   -7.2790 H   0  0  0  0  0
   23.0404   36.1752   -8.0861 H   0  0  0  0  0
   25.2509   31.4658   -8.8016 H   0  0  0  0  0
   27.2220   30.0483   -8.3130 H   0  0  0  0  0
   28.9858   30.8383   -6.7633 H   0  0  0  0  0
   26.8385   34.5322   -6.2502 H   0  0  0  0  0
  1  2  1  0  0  0
  2  3  1  0  0  0
  2  4  1  0  0  0
  4  5  2  0  0  0
  4 10  1  0  0  0
  5  6  1  0  0  0
  6  7  2  0  0  0
  6 13  1  0  0  0
  7  8  1  0  0  0
  8  9  2  0  0  0
  8 10  1  0  0  0
 10 11  1  0  0  0
 11 12  3  0  0  0
 13 14  4  0  0  0
 13 18  4  0  0  0
 14 15  4  0  0  0
 15 16  4  0  0  0
 16 17  4  0  0  0
 17 18  4  0  0  0
 17 19  1  0  0  0
 19 20  1  0  0  0
 20 21  1  0  0  0
 20 22  1  0  0  0
 20 23  1  0  0  0
  1 24  1  0  0  0
  1 25  1  0  0  0
  1 26  1  0  0  0
  3 27  1  0  0  0
  5 28  1  0  0  0
 10 29  1  0  0  0
 14 30  1  0  0  0
 15 31  1  0  0  0
 16 32  1  0  0  0
 18 33  1  0  0  0
M  END
$$$$
