3l3a_ligand
  -I-interpret- 

 55 58  0  0  0  0  0  0  0  0999 V2000
    9.8340   -1.6630   13.3870 C   0  0  0  0  0
   10.4770   -1.5020   12.4290 N   0  0  0  0  0
    9.3100   -5.4120   15.1150 O   0  0  0  0  0
   15.1490  -12.3300   15.4850 Cl  0  0  0  0  0
   17.9380  -11.5770   18.9630 C   0  0  0  0  0
   15.4710   -6.9100   15.4190 N   0  0  0  0  0
   18.3370  -12.3510   17.8720 C   0  0  0  0  0
   13.9250   -9.6470   17.1980 N   0  0  0  0  0
   15.5930   -6.0930   18.0760 C   0  0  0  0  0
   16.2720   -4.8310   14.7030 N   0  0  0  0  0
   16.6620  -11.0170   19.0040 C   0  0  0  0  0
   12.2630   -7.0830   16.4450 C   0  0  0  0  0
   10.3880   -8.5330   16.8530 C   0  0  0  0  0
   11.4210   -6.1480   15.8380 C   0  0  0  0  0
    9.5410   -7.5960   16.2450 C   0  0  0  0  0
   17.4610  -12.5670   16.8100 C   0  0  0  0  0
   12.3710  -10.0190   18.7440 C   0  0  0  0  0
   13.4860  -10.8390   19.0300 C   0  0  0  0  0
   15.1540   -7.3710   17.7610 C   0  0  0  0  0
   15.9720   -5.2250   17.0560 C   0  0  0  0  0
   11.7650   -8.2860   16.9620 C   0  0  0  0  0
   15.7650  -11.2220   17.9430 C   0  0  0  0  0
   10.0480   -6.3980   15.7300 C   0  0  0  0  0
   16.1770  -12.0070   16.8430 C   0  0  0  0  0
   12.6440   -9.2720   17.6090 C   0  0  0  0  0
   14.4410  -10.6030   18.0600 C   0  0  0  0  0
   15.1120   -7.7410   16.4220 C   0  0  0  0  0
   15.8930   -5.6690   15.7380 C   0  0  0  0  0
    9.0210   -1.8220   14.6080 C   0  0  0  0  0
   14.6410   -9.1140   16.0470 C   0  0  0  0  0
    8.4410   -3.2250   14.7660 C   0  0  0  0  0
    9.2860   -4.1000   15.6890 C   0  0  0  0  0
   18.6292  -11.4092   19.7889 H   0  0  0  0  0
   19.3357  -12.7873   17.8507 H   0  0  0  0  0
   15.6408   -5.7706   19.1161 H   0  0  0  0  0
   16.2266   -5.1593   13.7383 H   0  0  0  0  0
   16.5966   -3.8854   14.9052 H   0  0  0  0  0
   16.3594  -10.4178   19.8628 H   0  0  0  0  0
   13.3299   -6.8721   16.5179 H   0  0  0  0  0
    9.9732   -9.4618   17.2446 H   0  0  0  0  0
   11.8354   -5.2190   15.4465 H   0  0  0  0  0
    8.4734   -7.8035   16.1725 H   0  0  0  0  0
   17.7734  -13.1693   15.9569 H   0  0  0  0  0
   11.4474   -9.9804   19.3216 H   0  0  0  0  0
   13.5762  -11.5329   19.8657 H   0  0  0  0  0
   14.8500   -8.0666   18.5432 H   0  0  0  0  0
   16.3233   -4.2186   17.2838 H   0  0  0  0  0
    8.1857   -1.1249   14.5416 H   0  0  0  0  0
    9.6699   -1.6347   15.4635 H   0  0  0  0  0
   13.9910   -9.0737   15.1730 H   0  0  0  0  0
   15.4844   -9.7537   15.7871 H   0  0  0  0  0
    8.4177   -3.6943   13.7825 H   0  0  0  0  0
    7.4469   -3.1330   15.2035 H   0  0  0  0  0
   10.2960   -3.7007   15.7813 H   0  0  0  0  0
    8.8609   -4.1255   16.6924 H   0  0  0  0  0
  1  2  3  0  0  0
 29  1  1  0  0  0
  3 23  1  0  0  0
 32  3  1  0  0  0
 24  4  1  0  0  0
  5  7  4  0  0  0
 11  5  4  0  0  0
 27  6  4  0  0  0
  6 28  4  0  0  0
 16  7  4  0  0  0
 25  8  4  0  0  0
  8 26  4  0  0  0
  8 30  1  0  0  0
 19  9  4  0  0  0
  9 20  4  0  0  0
 28 10  1  0  0  0
 22 11  4  0  0  0
 14 12  4  0  0  0
 12 21  4  0  0  0
 15 13  4  0  0  0
 13 21  4  0  0  0
 23 14  4  0  0  0
 23 15  4  0  0  0
 24 16  4  0  0  0
 17 18  4  0  0  0
 25 17  4  0  0  0
 18 26  4  0  0  0
 27 19  4  0  0  0
 28 20  4  0  0  0
 21 25  1  0  0  0
 22 24  4  0  0  0
 26 22  1  0  0  0
 30 27  1  0  0  0
 31 29  1  0  0  0
 31 32  1  0  0  0
  5 33  1  0  0  0
  7 34  1  0  0  0
  9 35  1  0  0  0
 10 36  1  0  0  0
 10 37  1  0  0  0
 11 38  1  0  0  0
 12 39  1  0  0  0
 13 40  1  0  0  0
 14 41  1  0  0  0
 15 42  1  0  0  0
 16 43  1  0  0  0
 17 44  1  0  0  0
 18 45  1  0  0  0
 19 46  1  0  0  0
 20 47  1  0  0  0
 29 48  1  0  0  0
 29 49  1  0  0  0
 30 50  1  0  0  0
 30 51  1  0  0  0
 31 52  1  0  0  0
 31 53  1  0  0  0
 32 54  1  0  0  0
 32 55  1  0  0  0
M  END
$$$$
