6hzu_ligand
  -I-interpret- 

 46 49  0  0  0  0  0  0  0  0999 V2000
    5.5080   60.8060    0.5120 C   0  0  0  0  0
    3.6060   59.9260    1.5820 C   0  0  0  0  0
    4.1440   58.6860    1.5930 C   0  0  0  0  0
    5.4200   58.4720    1.0460 C   0  0  0  0  0
    6.1150   59.5310    0.5030 C   0  0  0  0  0
    9.4910   58.7940   -0.6580 N   0  0  0  0  0
   10.4970   57.9420   -0.7700 C   0  0  0  0  0
   10.3190   56.6450   -0.3140 C   0  0  0  0  0
   11.1290   55.5210   -0.2870 N   0  0  0  0  0
    9.0680   56.2750    0.2370 C   0  0  0  0  0
    8.1600   54.0500    1.1180 C   0  0  0  0  0
    6.9790   54.0080    0.1460 C   0  0  0  0  0
    5.5330   53.0280    1.9360 C   0  0  0  0  0
    6.0930   61.7700    0.0360 O   0  0  0  0  0
    4.2840   60.9730    1.0500 N   0  0  0  0  0
    7.3890   59.4730   -0.0920 N   0  0  0  0  0
    8.3150   58.4410   -0.1230 C   0  0  0  0  0
   10.4220   54.5100    0.2330 C   0  0  0  0  0
   10.8570   53.3860    0.3800 O   0  0  0  0  0
    9.1840   54.9340    0.5710 N   0  0  0  0  0
    8.0960   57.1960    0.3090 N   0  0  0  0  0
    6.1100   52.8080    0.5270 C   0  0  0  0  0
    4.7900   51.7470    2.3970 C   0  0  0  0  0
    3.6900   51.4480    1.4790 C   0  0  0  0  0
    2.8040   51.1790    0.8020 N   0  0  0  0  0
    6.6960   53.2170    2.9480 C   0  0  0  0  0
    7.6350   54.3940    2.5140 C   0  0  0  0  0
    2.6148   60.0863    2.0061 H   0  0  0  0  0
    3.5887   57.8537    2.0255 H   0  0  0  0  0
    5.8580   57.4739    1.0510 H   0  0  0  0  0
   11.4442   58.2528   -1.2108 H   0  0  0  0  0
   12.0961   55.4723   -0.6077 H   0  0  0  0  0
    8.6556   53.0864    1.2356 H   0  0  0  0  0
    7.3339   53.9104   -0.8800 H   0  0  0  0  0
    6.4020   54.9307    0.2081 H   0  0  0  0  0
    4.8732   53.8950    1.9023 H   0  0  0  0  0
    3.8609   61.9011    1.0572 H   0  0  0  0  0
    7.6764   60.3233   -0.5764 H   0  0  0  0  0
    6.7143   51.9009    0.5168 H   0  0  0  0  0
    5.2953   52.7042   -0.1897 H   0  0  0  0  0
    4.3885   51.9061    3.3978 H   0  0  0  0  0
    5.4886   50.9103    2.4039 H   0  0  0  0  0
    7.2813   52.2981    2.9826 H   0  0  0  0  0
    6.2737   53.4498    3.9255 H   0  0  0  0  0
    7.0914   55.3387    2.5014 H   0  0  0  0  0
    8.4579   54.5130    3.2188 H   0  0  0  0  0
  5  1  1  0  0  0
  1 14  2  0  0  0
  1 15  1  0  0  0
  3  2  2  0  0  0
 15  2  1  0  0  0
  4  3  1  0  0  0
  5  4  2  0  0  0
 16  5  1  0  0  0
  6  7  4  0  0  0
 17  6  4  0  0  0
  7  8  4  0  0  0
  8  9  1  0  0  0
  8 10  4  0  0  0
  9 18  1  0  0  0
 10 20  1  0  0  0
 10 21  4  0  0  0
 11 12  1  0  0  0
 20 11  1  0  0  0
 11 27  1  0  0  0
 12 22  1  0  0  0
 22 13  1  0  0  0
 13 23  1  0  0  0
 13 26  1  0  0  0
 16 17  1  0  0  0
 17 21  4  0  0  0
 18 19  2  0  0  0
 18 20  1  0  0  0
 23 24  1  0  0  0
 24 25  3  0  0  0
 26 27  1  0  0  0
  2 28  1  0  0  0
  3 29  1  0  0  0
  4 30  1  0  0  0
  7 31  1  0  0  0
  9 32  1  0  0  0
 11 33  1  0  0  0
 12 34  1  0  0  0
 12 35  1  0  0  0
 13 36  1  0  0  0
 15 37  1  0  0  0
 16 38  1  0  0  0
 22 39  1  0  0  0
 22 40  1  0  0  0
 23 41  1  0  0  0
 23 42  1  0  0  0
 26 43  1  0  0  0
 26 44  1  0  0  0
 27 45  1  0  0  0
 27 46  1  0  0  0
M  END
$$$$
