5eje_ligand
  -I-interpret- 

 86 91  0  0  0  0  0  0  0  0999 V2000
   14.5080  -33.0250  -18.8040 P   0  0  0  0  0
   14.3750  -32.5800  -17.3720 O   0  0  0  0  0
   15.3920  -32.2570  -19.7540 O   0  0  0  0  0
   14.9300  -34.5830  -18.8420 O   0  0  0  0  0
   16.3480  -35.1600  -18.3450 P   0  0  0  0  0
   16.0280  -36.2560  -17.3590 O   0  0  0  0  0
   17.2590  -34.0330  -17.9420 O   0  0  0  0  0
   16.8550  -35.9140  -19.6750 O   0  0  0  0  0
   17.9730  -35.4060  -20.7170 P   0  0  0  0  0
   18.7670  -34.2570  -20.1410 O   0  0  0  0  0
   17.3200  -35.2550  -22.0700 O   0  0  0  0  0
   18.9010  -36.7180  -20.7590 O   0  0  0  0  0
   19.9980  -36.9770  -21.9080 P   0  0  0  0  0
   19.3050  -37.0110  -23.2470 O   0  0  0  0  0
   20.8140  -38.1610  -21.4560 O   0  0  0  0  0
   20.8460  -35.6130  -21.8340 O   0  0  0  0  0
   22.1930  -35.3480  -20.9990 P   0  0  0  0  0
   22.1050  -35.9800  -19.6320 O   0  0  0  0  0
   22.4220  -33.8620  -21.1340 O   0  0  0  0  0
   13.0350  -33.1370  -19.4430 O   0  0  0  0  0
   12.8700  -33.4580  -20.8240 C   0  0  0  0  0
   11.6270  -32.7710  -21.3610 C   0  0  0  0  0
   10.4740  -33.2350  -20.6640 O   0  0  0  0  0
   11.7190  -31.2740  -21.1510 C   0  0  0  0  0
   11.2840  -30.6120  -22.3380 O   0  0  0  0  0
   10.7940  -30.9800  -19.9930 C   0  0  0  0  0
   10.1610  -29.7050  -20.1090 O   0  0  0  0  0
    9.7990  -32.1310  -20.0570 C   0  0  0  0  0
    9.2950  -32.5490  -18.7310 N   0  0  0  0  0
    9.9940  -32.6230  -17.5790 C   0  0  0  0  0
    9.2030  -33.0540  -16.5670 N   0  0  0  0  0
    7.9850  -33.2630  -17.0850 C   0  0  0  0  0
    6.6960  -33.7200  -16.5630 C   0  0  0  0  0
    6.6090  -34.0280  -15.2600 N   0  0  0  0  0
    5.6510  -33.8090  -17.4100 N   0  0  0  0  0
    5.7700  -33.4890  -18.7140 C   0  0  0  0  0
    6.9230  -33.0610  -19.2620 N   0  0  0  0  0
    8.0410  -32.9300  -18.5060 C   0  0  0  0  0
   23.3440  -36.0860  -21.8420 O   0  0  0  0  0
   23.4780  -35.7880  -23.2270 C   0  0  0  0  0
   24.6880  -36.5140  -23.7840 C   0  0  0  0  0
   25.8330  -36.2280  -22.9800 O   0  0  0  0  0
   24.5100  -38.0210  -23.7570 C   0  0  0  0  0
   23.9440  -38.5180  -24.9760 O   0  0  0  0  0
   25.9150  -38.5190  -23.5190 C   0  0  0  0  0
   26.5600  -38.7310  -24.7680 O   0  0  0  0  0
   26.6300  -37.3960  -22.7980 C   0  0  0  0  0
   26.7270  -37.7020  -21.3570 N   0  0  0  0  0
   26.1870  -36.9720  -20.3640 C   0  0  0  0  0
   26.4640  -37.5300  -19.1600 N   0  0  0  0  0
   27.1960  -38.6320  -19.3870 C   0  0  0  0  0
   27.8190  -39.6780  -18.5600 C   0  0  0  0  0
   27.7000  -39.6280  -17.2200 N   0  0  0  0  0
   28.5020  -40.6590  -19.1830 N   0  0  0  0  0
   28.6210  -40.7020  -20.5240 C   0  0  0  0  0
   28.0780  -39.7810  -21.3390 N   0  0  0  0  0
   27.3730  -38.7410  -20.8350 C   0  0  0  0  0
   15.3644  -32.6704  -20.6200 H   0  0  0  0  0
   15.4383  -36.8924  -17.7699 H   0  0  0  0  0
   19.1151  -34.5087  -19.2825 H   0  0  0  0  0
   18.8320  -36.1867  -23.3823 H   0  0  0  0  0
   22.4517  -33.6272  -22.0644 H   0  0  0  0  0
   12.7642  -34.5372  -20.9351 H   0  0  0  0  0
   13.7421  -33.1172  -21.3820 H   0  0  0  0  0
   11.5509  -32.9989  -22.4242 H   0  0  0  0  0
   12.7321  -30.9321  -20.9396 H   0  0  0  0  0
   11.3397  -29.6619  -22.2119 H   0  0  0  0  0
   11.3144  -30.9180  -19.0373 H   0  0  0  0  0
    9.5859  -29.5646  -19.3532 H   0  0  0  0  0
    8.9302  -31.7998  -20.6259 H   0  0  0  0  0
   11.0495  -32.3708  -17.4768 H   0  0  0  0  0
    7.4290  -33.9412  -14.6596 H   0  0  0  0  0
    5.7229  -34.3490  -14.8699 H   0  0  0  0  0
    4.8926  -33.5809  -19.3542 H   0  0  0  0  0
   23.6065  -34.7135  -23.3573 H   0  0  0  0  0
   22.5828  -36.1126  -23.7574 H   0  0  0  0  0
   24.8106  -36.1733  -24.8121 H   0  0  0  0  0
   23.8092  -38.3603  -22.9942 H   0  0  0  0  0
   23.8484  -39.4714  -24.9177 H   0  0  0  0  0
   25.9198  -39.4507  -22.9534 H   0  0  0  0  0
   27.4534  -39.0477  -24.6158 H   0  0  0  0  0
   27.6392  -37.2604  -23.1870 H   0  0  0  0  0
   25.6079  -36.0598  -20.5076 H   0  0  0  0  0
   27.1799  -38.8676  -16.7822 H   0  0  0  0  0
   28.1299  -40.3505  -16.6425 H   0  0  0  0  0
   29.1841  -41.5222  -20.9694 H   0  0  0  0  0
  1  2  2  0  0  0
  1  3  1  0  0  0
  1  4  1  0  0  0
  1 20  1  0  0  0
  4  5  1  0  0  0
  5  6  1  0  0  0
  5  7  2  0  0  0
  5  8  1  0  0  0
  8  9  1  0  0  0
  9 10  1  0  0  0
  9 11  2  0  0  0
  9 12  1  0  0  0
 12 13  1  0  0  0
 13 14  1  0  0  0
 13 15  2  0  0  0
 13 16  1  0  0  0
 16 17  1  0  0  0
 17 18  2  0  0  0
 17 19  1  0  0  0
 17 39  1  0  0  0
 20 21  1  0  0  0
 21 22  1  0  0  0
 22 23  1  0  0  0
 22 24  1  0  0  0
 23 28  1  0  0  0
 24 25  1  0  0  0
 24 26  1  0  0  0
 26 27  1  0  0  0
 26 28  1  0  0  0
 28 29  1  0  0  0
 29 30  4  0  0  0
 29 38  4  0  0  0
 30 31  4  0  0  0
 31 32  4  0  0  0
 32 33  4  0  0  0
 32 38  4  0  0  0
 33 34  1  0  0  0
 33 35  4  0  0  0
 35 36  4  0  0  0
 36 37  4  0  0  0
 37 38  4  0  0  0
 39 40  1  0  0  0
 40 41  1  0  0  0
 41 42  1  0  0  0
 41 43  1  0  0  0
 42 47  1  0  0  0
 43 44  1  0  0  0
 43 45  1  0  0  0
 45 46  1  0  0  0
 45 47  1  0  0  0
 47 48  1  0  0  0
 48 49  4  0  0  0
 48 57  4  0  0  0
 49 50  4  0  0  0
 50 51  4  0  0  0
 51 52  4  0  0  0
 51 57  4  0  0  0
 52 53  1  0  0  0
 52 54  4  0  0  0
 54 55  4  0  0  0
 55 56  4  0  0  0
 56 57  4  0  0  0
  3 58  1  0  0  0
  6 59  1  0  0  0
 10 60  1  0  0  0
 14 61  1  0  0  0
 19 62  1  0  0  0
 21 63  1  0  0  0
 21 64  1  0  0  0
 22 65  1  0  0  0
 24 66  1  0  0  0
 25 67  1  0  0  0
 26 68  1  0  0  0
 27 69  1  0  0  0
 28 70  1  0  0  0
 30 71  1  0  0  0
 34 72  1  0  0  0
 34 73  1  0  0  0
 36 74  1  0  0  0
 40 75  1  0  0  0
 40 76  1  0  0  0
 41 77  1  0  0  0
 43 78  1  0  0  0
 44 79  1  0  0  0
 45 80  1  0  0  0
 46 81  1  0  0  0
 47 82  1  0  0  0
 49 83  1  0  0  0
 53 84  1  0  0  0
 53 85  1  0  0  0
 55 86  1  0  0  0
M  END
$$$$
