### 
### Created by X-TOOL on Mon Sep 10 21:13:28 2018
### 

@<TRIPOS>MOLECULE
5eje_ligand
   81    86     1     0     0
SMALL
GAST_HUCK


@<TRIPOS>ATOM
      1 PA         14.5080  -33.0250  -18.8040 P.3       1 AP5         0.2978
      2 O1A        14.3750  -32.5800  -17.3720 O.co2     1 AP5        -0.6127
      3 O2A        15.3920  -32.2570  -19.7540 O.co2     1 AP5        -0.6127
      4 O3A        14.9300  -34.5830  -18.8420 O.3       1 AP5        -0.1265
      5 PB         16.3480  -35.1600  -18.3450 P.3       1 AP5         0.3361
      6 O1B        16.0280  -36.2560  -17.3590 O.co2     1 AP5        -0.6079
      7 O2B        17.2590  -34.0330  -17.9420 O.co2     1 AP5        -0.6079
      8 O3B        16.8550  -35.9140  -19.6750 O.3       1 AP5        -0.1210
      9 PG         17.9730  -35.4060  -20.7170 P.3       1 AP5         0.3367
     10 O1G        18.7670  -34.2570  -20.1410 O.co2     1 AP5        -0.6078
     11 O2G        17.3200  -35.2550  -22.0700 O.co2     1 AP5        -0.6078
     12 O3G        18.9010  -36.7180  -20.7590 O.3       1 AP5        -0.1210
     13 PD         19.9980  -36.9770  -21.9080 P.3       1 AP5         0.3361
     14 O1D        19.3050  -37.0110  -23.2470 O.co2     1 AP5        -0.6079
     15 O2D        20.8140  -38.1610  -21.4560 O.co2     1 AP5        -0.6079
     16 O3D        20.8460  -35.6130  -21.8340 O.3       1 AP5        -0.1265
     17 PE         22.1930  -35.3480  -20.9990 P.3       1 AP5         0.2978
     18 O1E        22.1050  -35.9800  -19.6320 O.co2     1 AP5        -0.6127
     19 O2E        22.4220  -33.8620  -21.1340 O.co2     1 AP5        -0.6127
     20 O5F        13.0350  -33.1370  -19.4430 O.3       1 AP5        -0.2476
     21 C5F        12.8700  -33.4580  -20.8240 C.3       1 AP5         0.1128
     22 C4F        11.6270  -32.7710  -21.3610 C.3       1 AP5         0.1189
     23 O4F        10.4740  -33.2350  -20.6640 O.3       1 AP5        -0.3364
     24 C3F        11.7190  -31.2740  -21.1510 C.3       1 AP5         0.1149
     25 O3F        11.2840  -30.6120  -22.3380 O.3       1 AP5        -0.3864
     26 C2F        10.7940  -30.9800  -19.9930 C.3       1 AP5         0.1385
     27 O2F        10.1610  -29.7050  -20.1090 O.3       1 AP5        -0.3836
     28 C1F         9.7990  -32.1310  -20.0570 C.3       1 AP5         0.2010
     29 N9A         9.2950  -32.5490  -18.7310 N.pl3     1 AP5        -0.1919
     30 C8A         9.9940  -32.6230  -17.5790 C.2       1 AP5         0.1123
     31 N7A         9.2030  -33.0540  -16.5670 N.2       1 AP5        -0.2958
     32 C5A         7.9850  -33.2630  -17.0850 C.ar      1 AP5         0.1045
     33 C6A         6.6960  -33.7200  -16.5630 C.ar      1 AP5         0.1298
     34 N6A         6.6090  -34.0280  -15.2600 N.pl3     1 AP5        -0.3152
     35 N1A         5.6510  -33.8090  -17.4100 N.ar      1 AP5        -0.2698
     36 C2A         5.7700  -33.4890  -18.7140 C.ar      1 AP5         0.0533
     37 N3A         6.9230  -33.0610  -19.2620 N.ar      1 AP5        -0.2714
     38 C4A         8.0410  -32.9300  -18.5060 C.ar      1 AP5         0.1613
     39 O5J        23.3440  -36.0860  -21.8420 O.3       1 AP5        -0.2476
     40 C5J        23.4780  -35.7880  -23.2270 C.3       1 AP5         0.1128
     41 C4J        24.6880  -36.5140  -23.7840 C.3       1 AP5         0.1189
     42 O4J        25.8330  -36.2280  -22.9800 O.3       1 AP5        -0.3364
     43 C3J        24.5100  -38.0210  -23.7570 C.3       1 AP5         0.1149
     44 O3J        23.9440  -38.5180  -24.9760 O.3       1 AP5        -0.3864
     45 C2J        25.9150  -38.5190  -23.5190 C.3       1 AP5         0.1385
     46 O2J        26.5600  -38.7310  -24.7680 O.3       1 AP5        -0.3836
     47 C1J        26.6300  -37.3960  -22.7980 C.3       1 AP5         0.2010
     48 N9B        26.7270  -37.7020  -21.3570 N.pl3     1 AP5        -0.1919
     49 C8B        26.1870  -36.9720  -20.3640 C.2       1 AP5         0.1123
     50 N7B        26.4640  -37.5300  -19.1600 N.2       1 AP5        -0.2958
     51 C5B        27.1960  -38.6320  -19.3870 C.ar      1 AP5         0.1045
     52 C6B        27.8190  -39.6780  -18.5600 C.ar      1 AP5         0.1298
     53 N6B        27.7000  -39.6280  -17.2200 N.pl3     1 AP5        -0.3152
     54 N1B        28.5020  -40.6590  -19.1830 N.ar      1 AP5        -0.2698
     55 C2B        28.6210  -40.7020  -20.5240 C.ar      1 AP5         0.0533
     56 N3B        28.0780  -39.7810  -21.3390 N.ar      1 AP5        -0.2714
     57 C4B        27.3730  -38.7410  -20.8350 C.ar      1 AP5         0.1613
     58 H1         12.7640  -34.5471  -20.9367 H         1 AP5         0.0648
     59 H2         13.7503  -33.1150  -21.3874 H         1 AP5         0.0648
     60 H3         11.5267  -32.9897  -22.4343 H         1 AP5         0.0651
     61 H4         12.7487  -30.9712  -20.9103 H         1 AP5         0.0648
     62 H5         11.3391  -29.6719  -22.2132 H         1 AP5         0.2100
     63 H6         11.3494  -31.0073  -19.0439 H         1 AP5         0.0676
     64 H7          9.6478  -29.6790  -20.9080 H         1 AP5         0.2101
     65 H8          8.9429  -31.8287  -20.6780 H         1 AP5         0.0996
     66 H9         11.0485  -32.3710  -17.4769 H         1 AP5         0.1349
     67 H10         5.7142  -34.3521  -14.8661 H         1 AP5         0.1820
     68 H11         7.4370  -33.9403  -14.6537 H         1 AP5         0.1820
     69 H12         4.8974  -33.5804  -19.3507 H         1 AP5         0.0996
     70 H13        23.6082  -34.7036  -23.3582 H         1 AP5         0.0648
     71 H14        22.5747  -36.1162  -23.7621 H         1 AP5         0.0648
     72 H15        24.8599  -36.1811  -24.8182 H         1 AP5         0.0651
     73 H16        23.8552  -38.3153  -22.9236 H         1 AP5         0.0648
     74 H17        24.5167  -38.2998  -25.7018 H         1 AP5         0.2100
     75 H18        25.9134  -39.4427  -22.9217 H         1 AP5         0.0676
     76 H19        26.0748  -39.3768  -25.2681 H         1 AP5         0.2101
     77 H20        27.6359  -37.2479  -23.2179 H         1 AP5         0.0996
     78 H21        25.6085  -36.0606  -20.5074 H         1 AP5         0.1349
     79 H22        28.1342  -40.3576  -16.6368 H         1 AP5         0.1820
     80 H23        27.1748  -38.8601  -16.7779 H         1 AP5         0.1820
     81 H24        29.1810  -41.5177  -20.9669 H         1 AP5         0.0996
@<TRIPOS>BOND
     1    1    2 ar 
     2    1    3 ar 
     3    1    4 1  
     4    1   20 1  
     5    4    5 1  
     6    5    6 ar 
     7    5    7 ar 
     8    5    8 1  
     9    8    9 1  
    10    9   10 ar 
    11    9   11 ar 
    12    9   12 1  
    13   12   13 1  
    14   13   14 ar 
    15   13   15 ar 
    16   13   16 1  
    17   16   17 1  
    18   17   18 ar 
    19   17   19 ar 
    20   17   39 1  
    21   20   21 1  
    22   21   22 1  
    23   22   23 1  
    24   22   24 1  
    25   23   28 1  
    26   24   25 1  
    27   24   26 1  
    28   26   27 1  
    29   26   28 1  
    30   28   29 1  
    31   29   30 1  
    32   29   38 1  
    33   30   31 2  
    34   31   32 1  
    35   32   33 ar 
    36   32   38 ar 
    37   33   34 1  
    38   33   35 ar 
    39   35   36 ar 
    40   36   37 ar 
    41   37   38 ar 
    42   39   40 1  
    43   40   41 1  
    44   41   42 1  
    45   41   43 1  
    46   42   47 1  
    47   43   44 1  
    48   43   45 1  
    49   45   46 1  
    50   45   47 1  
    51   47   48 1  
    52   48   49 1  
    53   48   57 1  
    54   49   50 2  
    55   50   51 1  
    56   51   52 ar 
    57   51   57 ar 
    58   52   53 1  
    59   52   54 ar 
    60   54   55 ar 
    61   55   56 ar 
    62   56   57 ar 
    63   21   58 1  
    64   21   59 1  
    65   22   60 1  
    66   24   61 1  
    67   25   62 1  
    68   26   63 1  
    69   27   64 1  
    70   28   65 1  
    71   30   66 1  
    72   34   67 1  
    73   34   68 1  
    74   36   69 1  
    75   40   70 1  
    76   40   71 1  
    77   41   72 1  
    78   43   73 1  
    79   44   74 1  
    80   45   75 1  
    81   46   76 1  
    82   47   77 1  
    83   49   78 1  
    84   53   79 1  
    85   53   80 1  
    86   55   81 1  
@<TRIPOS>SUBSTRUCTURE
     1 AP5         1

