1b0f_ligand
  -I-interpret- 

 83 85  0  0  0  0  0  0  0  0999 V2000
   71.2490   42.2540   56.8290 C   0  0  0  0  0
   72.2980   43.1250   56.1970 C   0  0  0  0  0
   72.8480   45.4530   56.1250 C   0  0  0  0  0
   71.6850   49.6000   56.5790 C   0  0  0  0  0
   71.1360   48.6270   57.4150 C   0  0  0  0  0
   71.5470   47.3020   57.2760 C   0  0  0  0  0
   72.4860   46.8950   56.3030 C   0  0  0  0  0
   71.3080   51.0040   56.8410 C   0  0  0  0  0
   72.3500   53.8400   55.3100 C   0  0  0  0  0
   73.6340   53.4690   56.0020 C   0  0  0  0  0
   72.2240   55.3700   55.2560 C   0  0  0  0  0
   70.0630   42.6410   56.1860 O   0  0  0  0  0
   71.8870   44.5210   56.2210 N   0  0  0  0  0
   70.4780   44.8080   55.9770 C   0  0  0  0  0
   69.6200   43.8420   56.7290 C   0  0  0  0  0
   73.9750   45.0510   55.8550 O   0  0  0  0  0
   73.0420   47.8850   55.4740 C   0  0  0  0  0
   72.5970   49.2150   55.5640 C   0  0  0  0  0
   71.0500   51.7780   55.7480 N   0  0  0  0  0
   71.1510   53.1980   56.0630 C   0  0  0  0  0
   69.8270   53.8190   55.6360 C   0  0  0  0  0
   69.4560   53.7500   54.4700 O   0  0  0  0  0
   67.7610   54.8240   56.2350 C   0  0  0  0  0
   69.4120   54.4820   58.0150 C   0  0  0  0  0
   68.1260   54.9730   58.6700 C   0  0  0  0  0
   67.1620   55.2320   57.5670 C   0  0  0  0  0
   67.8700   56.0120   55.2990 C   0  0  0  0  0
   66.8730   56.0130   54.4100 N   0  0  0  0  0
   69.0810   54.3570   56.5950 N   0  0  0  0  0
   68.7790   56.8260   55.4180 O   0  0  0  0  0
   66.7250   57.0680   53.4370 C   0  0  0  0  0
   66.7560   56.4790   51.9920 C   0  0  0  0  0
   65.6970   55.4270   51.8040 C   0  0  0  0  0
   68.1280   55.8970   51.6880 C   0  0  0  0  0
   65.5360   58.0200   53.5610 C   0  0  0  0  0
   65.3910   58.7340   55.0350 C   0  0  0  0  0
   64.9960   58.4300   52.5410 O   0  0  0  0  0
   64.1220   59.1010   55.6040 F   0  0  0  0  0
   66.1200   57.9630   55.9050 F   0  0  0  0  0
   66.0170   60.0440   54.9430 C   0  0  0  0  0
   67.2730   59.8040   54.6830 F   0  0  0  0  0
   65.4350   60.7200   53.9670 F   0  0  0  0  0
   65.8030   60.6120   56.1060 F   0  0  0  0  0
   71.2520   51.4570   57.9890 O   0  0  0  0  0
   71.1971   42.3837   57.9100 H   0  0  0  0  0
   71.4611   41.1920   56.7058 H   0  0  0  0  0
   72.4370   42.8155   55.1612 H   0  0  0  0  0
   73.2276   43.0208   56.7565 H   0  0  0  0  0
   70.3954   48.8993   58.1670 H   0  0  0  0  0
   71.1270   46.5507   57.9447 H   0  0  0  0  0
   72.3502   53.4616   54.2878 H   0  0  0  0  0
   74.4764   53.8852   55.4495 H   0  0  0  0  0
   73.6283   53.8706   57.0153 H   0  0  0  0  0
   73.7239   52.3834   56.0406 H   0  0  0  0  0
   72.2203   55.7690   56.2703 H   0  0  0  0  0
   73.0684   55.7836   54.7046 H   0  0  0  0  0
   71.2942   55.6392   54.7549 H   0  0  0  0  0
   70.2730   44.7140   54.9106 H   0  0  0  0  0
   70.2556   45.8209   56.3127 H   0  0  0  0  0
   69.7177   43.9062   57.8127 H   0  0  0  0  0
   68.5494   44.0149   56.6193 H   0  0  0  0  0
   73.8209   47.6201   54.7590 H   0  0  0  0  0
   72.9553   49.9554   54.8488 H   0  0  0  0  0
   70.8158   51.4097   54.8261 H   0  0  0  0  0
   71.3319   53.3640   57.1250 H   0  0  0  0  0
   67.1589   54.0794   55.7143 H   0  0  0  0  0
   69.7489   53.5360   58.4389 H   0  0  0  0  0
   70.2411   55.1700   58.1804 H   0  0  0  0  0
   68.3051   55.8771   59.2519 H   0  0  0  0  0
   67.7337   54.2302   59.3646 H   0  0  0  0  0
   66.2570   54.6503   57.7424 H   0  0  0  0  0
   66.9301   56.2967   57.5408 H   0  0  0  0  0
   66.1986   55.2478   54.4193 H   0  0  0  0  0
   67.5824   57.7031   53.6597 H   0  0  0  0  0
   66.5499   57.2933   51.2973 H   0  0  0  0  0
   65.8632   54.6153   52.5123 H   0  0  0  0  0
   64.7149   55.8669   51.9775 H   0  0  0  0  0
   65.7483   55.0394   50.7866 H   0  0  0  0  0
   68.8802   56.6817   51.7691 H   0  0  0  0  0
   68.3507   55.1033   52.4011 H   0  0  0  0  0
   68.1328   55.4904   50.6767 H   0  0  0  0  0
   64.5975   57.4695   53.6269 H   0  0  0  0  0
   64.2711   59.0137   52.7765 H   0  0  0  0  0
  2  1  1  0  0  0
  1 12  1  0  0  0
 13  2  1  0  0  0
  7  3  1  0  0  0
  3 13  1  0  0  0
  3 16  2  0  0  0
  4  5  4  0  0  0
  8  4  1  0  0  0
  4 18  4  0  0  0
  5  6  4  0  0  0
  6  7  4  0  0  0
 17  7  4  0  0  0
 19  8  1  0  0  0
  8 44  2  0  0  0
  9 10  1  0  0  0
  9 11  1  0  0  0
 20  9  1  0  0  0
 15 12  1  0  0  0
 13 14  1  0  0  0
 14 15  1  0  0  0
 18 17  4  0  0  0
 20 19  1  0  0  0
 21 20  1  0  0  0
 21 22  2  0  0  0
 29 21  1  0  0  0
 23 26  1  0  0  0
 23 27  1  0  0  0
 29 23  1  0  0  0
 24 25  1  0  0  0
 24 29  1  0  0  0
 25 26  1  0  0  0
 27 28  1  0  0  0
 27 30  2  0  0  0
 28 31  1  0  0  0
 31 32  1  0  0  0
 31 35  1  0  0  0
 32 33  1  0  0  0
 32 34  1  0  0  0
 35 36  1  0  0  0
 35 37  1  0  0  0
 36 38  1  0  0  0
 36 39  1  0  0  0
 36 40  1  0  0  0
 40 41  1  0  0  0
 40 42  1  0  0  0
 40 43  1  0  0  0
  1 45  1  0  0  0
  1 46  1  0  0  0
  2 47  1  0  0  0
  2 48  1  0  0  0
  5 49  1  0  0  0
  6 50  1  0  0  0
  9 51  1  0  0  0
 10 52  1  0  0  0
 10 53  1  0  0  0
 10 54  1  0  0  0
 11 55  1  0  0  0
 11 56  1  0  0  0
 11 57  1  0  0  0
 14 58  1  0  0  0
 14 59  1  0  0  0
 15 60  1  0  0  0
 15 61  1  0  0  0
 17 62  1  0  0  0
 18 63  1  0  0  0
 19 64  1  0  0  0
 20 65  1  0  0  0
 23 66  1  0  0  0
 24 67  1  0  0  0
 24 68  1  0  0  0
 25 69  1  0  0  0
 25 70  1  0  0  0
 26 71  1  0  0  0
 26 72  1  0  0  0
 28 73  1  0  0  0
 31 74  1  0  0  0
 32 75  1  0  0  0
 33 76  1  0  0  0
 33 77  1  0  0  0
 33 78  1  0  0  0
 34 79  1  0  0  0
 34 80  1  0  0  0
 34 81  1  0  0  0
 35 82  1  0  0  0
 37 83  1  0  0  0
M  END
$$$$
