2gc8_ligand
  -I-interpret- 

 35 36  0  0  0  0  0  0  0  0999 V2000
    6.7990   43.0500   54.4950 C   0  0  0  0  0
    7.4540   43.5210   53.2210 C   0  0  0  0  0
    8.6050   44.3390   53.3300 C   0  0  0  0  0
    9.2780   44.8240   52.1750 C   0  0  0  0  0
    8.8090   44.5050   50.8520 C   0  0  0  0  0
    7.6400   43.6870   50.7430 C   0  0  0  0  0
    6.9620   43.2010   51.9040 C   0  0  0  0  0
    5.5500   42.2330   51.6510 Cl  0  0  0  0  0
    9.4300   44.9510   49.6860 N   0  0  0  0  0
   10.6940   45.8720   52.4530 S   0  0  0  0  0
   10.2540   47.2250   52.1370 O   0  0  0  0  0
   11.2330   45.5830   53.7710 O   0  0  0  0  0
   11.8410   45.3750   51.2710 N   0  0  0  0  0
   12.4760   44.0230   51.4280 C   0  0  0  0  0
   13.8930   44.3280   51.8810 C   0  0  0  0  0
   14.2450   45.5630   51.0660 C   0  0  0  0  0
   12.9470   46.3690   51.0060 C   0  0  0  0  0
   12.6050   47.0470   49.6610 C   0  0  0  0  0
   11.7970   46.4450   48.8900 O   0  0  0  0  0
   13.1770   48.1610   49.4910 O   0  0  0  0  0
    7.5122   42.4622   55.0729 H   0  0  0  0  0
    6.4802   43.9135   55.0789 H   0  0  0  0  0
    5.9328   42.4351   54.2509 H   0  0  0  0  0
    8.9823   44.6019   54.3183 H   0  0  0  0  0
    7.2588   43.4293   49.7549 H   0  0  0  0  0
   10.2633   45.5364   49.7439 H   0  0  0  0  0
    9.0510   44.6919   48.7752 H   0  0  0  0  0
   12.4547   43.4483   50.5021 H   0  0  0  0  0
   11.9411   43.3976   52.1427 H   0  0  0  0  0
   14.5806   43.4986   51.7153 H   0  0  0  0  0
   13.9703   44.4913   52.9559 H   0  0  0  0  0
   14.6104   45.3046   50.0721 H   0  0  0  0  0
   15.0572   46.1319   51.5186 H   0  0  0  0  0
   13.0613   47.1831   51.7218 H   0  0  0  0  0
   11.5304   45.6152   49.2925 H   0  0  0  0  0
  1  2  1  0  0  0
  2  3  4  0  0  0
  2  7  4  0  0  0
  3  4  4  0  0  0
  4  5  4  0  0  0
  4 10  1  0  0  0
  5  6  4  0  0  0
  5  9  1  0  0  0
  6  7  4  0  0  0
  7  8  1  0  0  0
 10 11  2  0  0  0
 10 12  2  0  0  0
 10 13  1  0  0  0
 13 14  1  0  0  0
 13 17  1  0  0  0
 14 15  1  0  0  0
 15 16  1  0  0  0
 16 17  1  0  0  0
 17 18  1  0  0  0
 18 19  1  0  0  0
 18 20  2  0  0  0
  1 21  1  0  0  0
  1 22  1  0  0  0
  1 23  1  0  0  0
  3 24  1  0  0  0
  6 25  1  0  0  0
  9 26  1  0  0  0
  9 27  1  0  0  0
 14 28  1  0  0  0
 14 29  1  0  0  0
 15 30  1  0  0  0
 15 31  1  0  0  0
 16 32  1  0  0  0
 16 33  1  0  0  0
 17 34  1  0  0  0
 19 35  1  0  0  0
M  END
$$$$
