1h1s_ligand
  -I-interpret- 

 49 52  0  0  0  0  0  0  0  0999 V2000
    7.6500   43.8340   49.7640 C   0  0  0  0  0
   10.4750   46.4910   51.9330 C   0  0  0  0  0
    4.8960   45.7490   51.7150 C   0  0  0  0  0
    3.9390   46.1020   52.8920 C   0  0  0  0  0
    4.2880   45.4670   54.2670 C   0  0  0  0  0
    3.3970   45.8570   55.4410 C   0  0  0  0  0
    1.8520   45.5580   55.1100 C   0  0  0  0  0
    1.5320   46.2430   53.7850 C   0  0  0  0  0
    2.4500   45.8720   52.5650 C   0  0  0  0  0
    4.4350   40.8130   47.8880 C   0  0  0  0  0
    3.6020   40.7530   48.9770 C   0  0  0  0  0
    4.0230   41.4320   50.1800 C   0  0  0  0  0
    5.2240   42.1010   50.1750 C   0  0  0  0  0
    1.0630   40.4980   49.8460 N   0  0  0  0  0
    6.6580   44.5200   50.5610 N   0  0  0  0  0
    7.0800   45.4670   51.3690 C   0  0  0  0  0
    6.2540   46.2290   52.0730 O   0  0  0  0  0
    8.4650   45.7670   51.5400 C   0  0  0  0  0
    9.2320   46.7290   52.2560 N   0  0  0  0  0
   10.5880   45.5050   51.0470 N   0  0  0  0  0
    9.3620   45.1110   50.8140 C   0  0  0  0  0
    8.8790   44.0990   49.9700 N   0  0  0  0  0
    7.2860   42.8560   48.9780 N   0  0  0  0  0
    6.0650   42.2250   49.0670 C   0  0  0  0  0
    5.6110   41.5340   47.9220 C   0  0  0  0  0
    2.1470   39.7960   48.9300 S   0  0  0  0  0
    2.4550   38.5120   49.5420 O   0  0  0  0  0
    1.5530   39.7400   47.5990 O   0  0  0  0  0
   11.3238   47.0383   52.3430 H   0  0  0  0  0
    4.9078   44.6720   51.5476 H   0  0  0  0  0
    4.5566   46.2264   50.7958 H   0  0  0  0  0
    4.1120   47.1722   53.0054 H   0  0  0  0  0
    5.2888   45.8191   54.5172 H   0  0  0  0  0
    4.1690   44.3908   54.1418 H   0  0  0  0  0
    3.5152   46.9235   55.6326 H   0  0  0  0  0
    3.6890   45.2720   56.3131 H   0  0  0  0  0
    1.2093   45.9393   55.9035 H   0  0  0  0  0
    1.6761   44.4846   55.0388 H   0  0  0  0  0
    1.6726   47.3104   53.9551 H   0  0  0  0  0
    0.5260   45.9224   53.5145 H   0  0  0  0  0
    2.3056   44.8173   52.3310 H   0  0  0  0  0
    2.1785   46.5068   51.7215 H   0  0  0  0  0
    4.1619   40.2800   46.9773 H   0  0  0  0  0
    3.4006   41.4144   51.0746 H   0  0  0  0  0
    5.5438   42.5698   51.1056 H   0  0  0  0  0
    0.1737   40.7971   49.4459 H   0  0  0  0  0
    1.2540   40.6512   50.8362 H   0  0  0  0  0
    7.9404   42.5433   48.2608 H   0  0  0  0  0
    6.2206   41.5722   47.0192 H   0  0  0  0  0
 23  1  1  0  0  0
  1 22  4  0  0  0
  1 15  4  0  0  0
 15 16  4  0  0  0
 16 18  4  0  0  0
 16 17  1  0  0  0
 17  3  1  0  0  0
  3  4  1  0  0  0
  4  9  1  0  0  0
  4  5  1  0  0  0
  5  6  1  0  0  0
  6  7  1  0  0  0
  7  8  1  0  0  0
  9  8  1  0  0  0
 18 21  4  0  0  0
 18 19  4  0  0  0
 19  2  4  0  0  0
  2 20  4  0  0  0
 21 20  4  0  0  0
 22 21  4  0  0  0
 23 24  1  0  0  0
 24 25  4  0  0  0
 24 13  4  0  0  0
 13 12  4  0  0  0
 12 11  4  0  0  0
 11 26  1  0  0  0
 11 10  4  0  0  0
 10 25  4  0  0  0
 26 14  1  0  0  0
 26 28  2  0  0  0
 26 27  2  0  0  0
  2 29  1  0  0  0
  3 30  1  0  0  0
  3 31  1  0  0  0
  4 32  1  0  0  0
  5 33  1  0  0  0
  5 34  1  0  0  0
  6 35  1  0  0  0
  6 36  1  0  0  0
  7 37  1  0  0  0
  7 38  1  0  0  0
  8 39  1  0  0  0
  8 40  1  0  0  0
  9 41  1  0  0  0
  9 42  1  0  0  0
 10 43  1  0  0  0
 12 44  1  0  0  0
 13 45  1  0  0  0
 14 46  1  0  0  0
 14 47  1  0  0  0
 23 48  1  0  0  0
 25 49  1  0  0  0
M  END
$$$$
