### 
### Created by X-TOOL on Mon Sep 10 21:13:11 2018
### 

@<TRIPOS>MOLECULE
4f20_ligand
  101   100     1     0     0
SMALL
GAST_HUCK


@<TRIPOS>ATOM
      1 N          -9.4190   32.3390   -0.9470 N.4       1 GLY         0.2357
      2 CA        -10.7940   31.8890   -0.8570 C.3       1 GLY         0.0545
      3 C         -11.0540   30.9470    0.3050 C.2       1 GLY         0.2237
      4 O         -10.5600   29.8190    0.3300 O.2       1 GLY        -0.3910
      5 N         -11.8290   31.4170    1.2760 N.am      1 SER        -0.2591
      6 CA        -12.3020   30.5650    2.3620 C.3       1 SER         0.1540
      7 C         -13.6390   31.0880    2.8640 C.2       1 SER         0.2063
      8 O         -13.8730   32.2960    2.8830 O.2       1 SER        -0.3943
      9 CB        -11.2870   30.5070    3.5070 C.3       1 SER         0.0843
     10 OG        -11.1690   31.7620    4.1550 O.3       1 SER        -0.3903
     11 N         -14.5180   30.1810    3.2710 N.am      1 SER        -0.2615
     12 CA        -15.8600   30.5770    3.6730 C.3       1 SER         0.1539
     13 C         -16.3780   29.7580    4.8530 C.2       1 SER         0.2060
     14 O         -16.0420   28.5850    5.0030 O.2       1 SER        -0.3943
     15 CB        -16.8130   30.4630    2.4830 C.3       1 SER         0.0843
     16 OG        -16.9190   29.1200    2.0430 O.3       1 SER        -0.3903
     17 N         -17.2030   30.3820    5.6880 N.am      1 GLY        -0.2663
     18 CA        -17.7310   29.7190    6.8660 C.3       1 GLY         0.1201
     19 C         -19.2170   29.4280    6.7910 C.2       1 GLY         0.2008
     20 O         -19.8660   29.6900    5.7760 O.2       1 GLY        -0.3947
     21 N         -19.7540   28.8780    7.8760 N.am      1 SER        -0.2618
     22 CA        -21.1780   28.5790    7.9730 C.3       1 SER         0.1539
     23 C         -21.6340   28.5750    9.4290 C.2       1 SER         0.2060
     24 O         -20.8970   28.1410   10.3150 O.2       1 SER        -0.3943
     25 CB        -21.4930   27.2320    7.3170 C.3       1 SER         0.0843
     26 OG        -20.5240   26.2590    7.6660 O.3       1 SER        -0.3903
     27 N         -22.8480   29.0660    9.6660 N.am      1 GLY        -0.2663
     28 CA        -23.4130   29.1150   11.0020 C.3       1 GLY         0.1201
     29 C         -24.9310   29.1580   10.9950 C.2       1 GLY         0.2008
     30 O         -25.5570   29.1510    9.9360 O.2       1 GLY        -0.3947
     31 N         -25.5220   29.2040   12.1850 N.am      1 SER        -0.2618
     32 CA        -26.9750   29.2210   12.3270 C.3       1 SER         0.1539
     33 C         -27.4550   30.4770   13.0470 C.2       1 SER         0.2063
     34 O         -26.7440   31.0380   13.8790 O.2       1 SER        -0.3943
     35 CB        -27.4490   27.9800   13.0890 C.3       1 SER         0.0843
     36 OG        -28.8420   28.0340   13.3470 O.3       1 SER        -0.3903
     37 N         -28.6650   30.9170   12.7210 N.am      1 ASN        -0.2615
     38 CA        -29.2690   32.0580   13.3960 C.3       1 ASN         0.1476
     39 C         -30.4350   31.6400   14.2830 C.2       1 ASN         0.2061
     40 O         -30.9070   32.4180   15.1110 O.2       1 ASN        -0.3942
     41 CB        -29.7200   33.1170   12.3890 C.3       1 ASN         0.0773
     42 CG        -28.5550   33.8030   11.7070 C.2       1 ASN         0.1780
     43 OD1       -27.4310   33.7890   12.2100 O.2       1 ASN        -0.3970
     44 ND2       -28.8180   34.4150   10.5570 N.am      1 ASN        -0.3007
     45 N         -30.8950   30.4070   14.1010 N.am      1 GLY        -0.2663
     46 CA        -32.0240   29.8910   14.8530 C.3       1 GLY         0.1201
     47 C         -33.3550   30.3770   14.3130 C.2       1 GLY         0.2003
     48 O         -34.3050   29.6040   14.1860 O.2       1 GLY        -0.3947
     49 N         -33.4220   31.6670   13.9990 N.am      1 ASP        -0.2682
     50 CA        -34.6140   32.2630   13.4110 C.3       1 ASP         0.1057
     51 C         -34.3510   32.6850   11.9690 C.2       1 ASP         0.0618
     52 O         -35.2217   33.3160   11.3124 O.co2     1 ASP        -0.5665
     53 CB        -35.0740   33.4660   14.2360 C.3       1 ASP         0.0351
     54 CG        -35.7890   33.0620   15.5100 C.2       1 ASP         0.0387
     55 OD1       -35.8400   31.8500   15.8080 O.co2     1 ASP        -0.5688
     56 OD2       -36.2980   33.9570   16.2170 O.co2     1 ASP        -0.5688
     57 O         -33.2496   32.3991   11.4279 O.co2     1 ASP        -0.5665
     58 H1         -9.3190   32.9577   -1.7365 H         1 GLY         0.2012
     59 H2         -8.8120   31.5430   -1.0649 H         1 GLY         0.2012
     60 H3         -9.1699   32.8293   -0.1023 H         1 GLY         0.2012
     61 H4        -11.0503   31.3672   -1.7908 H         1 GLY         0.1061
     62 H5        -11.4409   32.7709   -0.7403 H         1 GLY         0.1061
     63 H6        -12.0955   32.3807    1.2624 H         1 SER         0.1885
     64 H7        -12.4438   29.5461    1.9725 H         1 SER         0.0823
     65 H8        -10.3057   30.2195    3.1017 H         1 SER         0.0606
     66 H9        -11.6158   29.7551    4.2395 H         1 SER         0.0606
     67 H10       -10.5343   31.6954    4.8586 H         1 SER         0.2097
     68 H11       -14.2561   29.2164    3.3019 H         1 SER         0.1884
     69 H12       -15.8227   31.6309    3.9857 H         1 SER         0.0823
     70 H13       -16.4332   31.0828    1.6575 H         1 SER         0.0606
     71 H14       -17.8082   30.8224    2.7836 H         1 SER         0.0606
     72 H15       -17.2503   28.5810    2.7517 H         1 SER         0.2097
     73 H16       -17.4654   31.3285    5.5004 H         1 GLY         0.1881
     74 H17       -17.5477   30.3638    7.7381 H         1 GLY         0.0763
     75 H18       -17.1973   28.7660    6.9959 H         1 GLY         0.0763
     76 H19       -19.1612   28.6621    8.6519 H         1 SER         0.1884
     77 H20       -21.7326   29.3640    7.4381 H         1 SER         0.0823
     78 H21       -21.5001   27.3569    6.2241 H         1 SER         0.0606
     79 H22       -22.4831   26.8906    7.6535 H         1 SER         0.0606
     80 H23       -20.5167   26.1451    8.6091 H         1 SER         0.2097
     81 H24       -23.3882   29.4123    8.8990 H         1 GLY         0.1881
     82 H25       -23.0378   30.0156   11.5100 H         1 GLY         0.0763
     83 H26       -23.0889   28.2206   11.5542 H         1 GLY         0.0763
     84 H27       -24.9541   29.2277   13.0078 H         1 SER         0.1884
     85 H28       -27.4194   29.2068   11.3209 H         1 SER         0.0823
     86 H29       -26.9096   27.9194   14.0458 H         1 SER         0.0606
     87 H30       -27.2306   27.0852   12.4876 H         1 SER         0.0606
     88 H31       -29.1060   27.2531   13.8194 H         1 SER         0.2097
     89 H32       -29.1735   30.4541   11.9950 H         1 ASN         0.1885
     90 H33       -28.5007   32.5091   14.0411 H         1 ASN         0.0826
     91 H34       -30.3154   33.8757   12.9180 H         1 ASN         0.0551
     92 H35       -30.3418   32.6322   11.6220 H         1 ASN         0.0551
     93 H36       -28.0871   34.8848   10.0621 H         1 ASN         0.1814
     94 H37       -29.7468   34.4057   10.1866 H         1 ASN         0.1814
     95 H38       -30.4506   29.8175   13.4265 H         1 GLY         0.1881
     96 H39       -31.9285   30.2161   15.8995 H         1 GLY         0.0763
     97 H40       -32.0053   28.7921   14.8072 H         1 GLY         0.0763
     98 H41       -32.6269   32.2481   14.1724 H         1 ASP         0.1876
     99 H42       -35.4161   31.5103   13.4134 H         1 ASP         0.0745
    100 H43       -35.7595   34.0709   13.6243 H         1 ASP         0.0471
    101 H44       -34.1926   34.0677   14.5027 H         1 ASP         0.0471
@<TRIPOS>BOND
     1    1    2 1  
     2    2    3 1  
     3    3    4 2  
     4    3    5 am 
     5    5    6 1  
     6    6    7 1  
     7    6    9 1  
     8    7    8 2  
     9    7   11 am 
    10    9   10 1  
    11   11   12 1  
    12   12   13 1  
    13   12   15 1  
    14   13   14 2  
    15   13   17 am 
    16   15   16 1  
    17   17   18 1  
    18   18   19 1  
    19   19   20 2  
    20   19   21 am 
    21   21   22 1  
    22   22   23 1  
    23   22   25 1  
    24   23   24 2  
    25   23   27 am 
    26   25   26 1  
    27   27   28 1  
    28   28   29 1  
    29   29   30 2  
    30   29   31 am 
    31   31   32 1  
    32   32   33 1  
    33   32   35 1  
    34   33   34 2  
    35   33   37 am 
    36   35   36 1  
    37   37   38 1  
    38   38   39 1  
    39   38   41 1  
    40   39   40 2  
    41   39   45 am 
    42   41   42 1  
    43   42   43 2  
    44   42   44 am 
    45   45   46 1  
    46   46   47 1  
    47   47   48 2  
    48   47   49 am 
    49   49   50 1  
    50   50   51 1  
    51   50   53 1  
    52   51   52 ar 
    53   53   54 1  
    54   54   55 ar 
    55   54   56 ar 
    56   51   57 ar 
    57    1   58 1  
    58    1   59 1  
    59    1   60 1  
    60    2   61 1  
    61    2   62 1  
    62    5   63 1  
    63    6   64 1  
    64    9   65 1  
    65    9   66 1  
    66   10   67 1  
    67   11   68 1  
    68   12   69 1  
    69   15   70 1  
    70   15   71 1  
    71   16   72 1  
    72   17   73 1  
    73   18   74 1  
    74   18   75 1  
    75   21   76 1  
    76   22   77 1  
    77   25   78 1  
    78   25   79 1  
    79   26   80 1  
    80   27   81 1  
    81   28   82 1  
    82   28   83 1  
    83   31   84 1  
    84   32   85 1  
    85   35   86 1  
    86   35   87 1  
    87   36   88 1  
    88   37   89 1  
    89   38   90 1  
    90   41   91 1  
    91   41   92 1  
    92   44   93 1  
    93   44   94 1  
    94   45   95 1  
    95   46   96 1  
    96   46   97 1  
    97   49   98 1  
    98   50   99 1  
    99   53  100 1  
   100   53  101 1  
@<TRIPOS>SUBSTRUCTURE
     1 GLY         1

