4f20_ligand
  -I-interpret- 

103102  0  0  0  0  0  0  0  0999 V2000
   -9.4190   32.3390   -0.9470 N   0  3  0  0  0
  -10.7940   31.8890   -0.8570 C   0  0  0  0  0
  -11.0540   30.9470    0.3050 C   0  0  0  0  0
  -10.5600   29.8190    0.3300 O   0  0  0  0  0
  -11.8290   31.4170    1.2760 N   0  0  0  0  0
  -12.3020   30.5650    2.3620 C   0  0  0  0  0
  -13.6390   31.0880    2.8640 C   0  0  0  0  0
  -13.8730   32.2960    2.8830 O   0  0  0  0  0
  -11.2870   30.5070    3.5070 C   0  0  0  0  0
  -11.1690   31.7620    4.1550 O   0  0  0  0  0
  -14.5180   30.1810    3.2710 N   0  0  0  0  0
  -15.8600   30.5770    3.6730 C   0  0  0  0  0
  -16.3780   29.7580    4.8530 C   0  0  0  0  0
  -16.0420   28.5850    5.0030 O   0  0  0  0  0
  -16.8130   30.4630    2.4830 C   0  0  0  0  0
  -16.9190   29.1200    2.0430 O   0  0  0  0  0
  -17.2030   30.3820    5.6880 N   0  0  0  0  0
  -17.7310   29.7190    6.8660 C   0  0  0  0  0
  -19.2170   29.4280    6.7910 C   0  0  0  0  0
  -19.8660   29.6900    5.7760 O   0  0  0  0  0
  -19.7540   28.8780    7.8760 N   0  0  0  0  0
  -21.1780   28.5790    7.9730 C   0  0  0  0  0
  -21.6340   28.5750    9.4290 C   0  0  0  0  0
  -20.8970   28.1410   10.3150 O   0  0  0  0  0
  -21.4930   27.2320    7.3170 C   0  0  0  0  0
  -20.5240   26.2590    7.6660 O   0  0  0  0  0
  -22.8480   29.0660    9.6660 N   0  0  0  0  0
  -23.4130   29.1150   11.0020 C   0  0  0  0  0
  -24.9310   29.1580   10.9950 C   0  0  0  0  0
  -25.5570   29.1510    9.9360 O   0  0  0  0  0
  -25.5220   29.2040   12.1850 N   0  0  0  0  0
  -26.9750   29.2210   12.3270 C   0  0  0  0  0
  -27.4550   30.4770   13.0470 C   0  0  0  0  0
  -26.7440   31.0380   13.8790 O   0  0  0  0  0
  -27.4490   27.9800   13.0890 C   0  0  0  0  0
  -28.8420   28.0340   13.3470 O   0  0  0  0  0
  -28.6650   30.9170   12.7210 N   0  0  0  0  0
  -29.2690   32.0580   13.3960 C   0  0  0  0  0
  -30.4350   31.6400   14.2830 C   0  0  0  0  0
  -30.9070   32.4180   15.1110 O   0  0  0  0  0
  -29.7200   33.1170   12.3890 C   0  0  0  0  0
  -28.5550   33.8030   11.7070 C   0  0  0  0  0
  -27.4310   33.7890   12.2100 O   0  0  0  0  0
  -28.8180   34.4150   10.5570 N   0  0  0  0  0
  -30.8950   30.4070   14.1010 N   0  0  0  0  0
  -32.0240   29.8910   14.8530 C   0  0  0  0  0
  -33.3550   30.3770   14.3130 C   0  0  0  0  0
  -34.3050   29.6040   14.1860 O   0  0  0  0  0
  -33.4220   31.6670   13.9990 N   0  0  0  0  0
  -34.6140   32.2630   13.4110 C   0  0  0  0  0
  -34.3510   32.6850   11.9690 C   0  0  0  0  0
  -35.2217   33.3160   11.3124 O   0  0  0  0  0
  -35.0740   33.4660   14.2360 C   0  0  0  0  0
  -35.7890   33.0620   15.5100 C   0  0  0  0  0
  -35.8400   31.8500   15.8080 O   0  0  0  0  0
  -36.2980   33.9570   16.2170 O   0  0  0  0  0
  -33.2496   32.3991   11.4279 O   0  0  0  0  0
   -9.3190   32.9649   -1.7461 H   0  0  0  0  0
   -9.1681   32.8349   -0.0917 H   0  0  0  0  0
   -8.8058   31.5327   -1.0663 H   0  0  0  0  0
  -11.0191   31.3446   -1.7741 H   0  0  0  0  0
  -11.4161   32.7713   -0.7064 H   0  0  0  0  0
  -12.1008   32.4000    1.2621 H   0  0  0  0  0
  -12.4250   29.5509    1.9819 H   0  0  0  0  0
  -10.3147   30.2364    3.0953 H   0  0  0  0  0
  -11.6275   29.7711    4.2355 H   0  0  0  0  0
  -10.5276   31.6947    4.8661 H   0  0  0  0  0
  -14.2509   29.1971    3.3025 H   0  0  0  0  0
  -15.8121   31.6144    4.0040 H   0  0  0  0  0
  -16.4242   31.0691    1.6647 H   0  0  0  0  0
  -17.7997   30.8086    2.7913 H   0  0  0  0  0
  -17.5215   29.0755    1.2970 H   0  0  0  0  0
  -17.4706   31.3475    5.4966 H   0  0  0  0  0
  -17.5732   30.3870    7.7127 H   0  0  0  0  0
  -17.2170   28.7622    6.9580 H   0  0  0  0  0
  -19.1493   28.6577    8.6674 H   0  0  0  0  0
  -21.7224   29.3606    7.4431 H   0  0  0  0  0
  -21.4864   27.3599    6.2345 H   0  0  0  0  0
  -22.4694   26.8936    7.6639 H   0  0  0  0  0
  -20.7428   25.4252    7.2435 H   0  0  0  0  0
  -23.3990   29.4192    8.8837 H   0  0  0  0  0
  -23.0546   30.0247   11.4838 H   0  0  0  0  0
  -23.1062   28.2113   11.5285 H   0  0  0  0  0
  -24.9428   29.2281   13.0242 H   0  0  0  0  0
  -27.4016   29.2193   11.3239 H   0  0  0  0  0
  -26.9214   27.9356   14.0418 H   0  0  0  0  0
  -27.2430   27.0996   12.4802 H   0  0  0  0  0
  -29.1087   27.2449   13.8244 H   0  0  0  0  0
  -29.1837   30.4448   11.9804 H   0  0  0  0  0
  -28.5017   32.4919   14.0372 H   0  0  0  0  0
  -30.2867   33.8751   12.9296 H   0  0  0  0  0
  -30.3133   32.6199   11.6216 H   0  0  0  0  0
  -28.0735   34.8984   10.0546 H   0  0  0  0  0
  -29.7644   34.4013   10.1768 H   0  0  0  0  0
  -30.4417   29.8057   13.4130 H   0  0  0  0  0
  -31.9308   30.2414   15.8809 H   0  0  0  0  0
  -32.0083   28.8037   14.7780 H   0  0  0  0  0
  -32.6110   32.2597   14.1759 H   0  0  0  0  0
  -35.4051   31.5132   13.4137 H   0  0  0  0  0
  -35.7722   34.0415   13.6283 H   0  0  0  0  0
  -34.1894   34.0383   14.5155 H   0  0  0  0  0
  -35.3894   31.3366   15.1335 H   0  0  0  0  0
  -32.7008   31.9219   12.0546 H   0  0  0  0  0
  1  2  1  0  0  0
  2  3  1  0  0  0
  3  4  2  0  0  0
  3  5  1  0  0  0
  5  6  1  0  0  0
  6  7  1  0  0  0
  6  9  1  0  0  0
  7  8  2  0  0  0
  7 11  1  0  0  0
  9 10  1  0  0  0
 11 12  1  0  0  0
 12 13  1  0  0  0
 12 15  1  0  0  0
 13 14  2  0  0  0
 13 17  1  0  0  0
 15 16  1  0  0  0
 17 18  1  0  0  0
 18 19  1  0  0  0
 19 20  2  0  0  0
 19 21  1  0  0  0
 21 22  1  0  0  0
 22 23  1  0  0  0
 22 25  1  0  0  0
 23 24  2  0  0  0
 23 27  1  0  0  0
 25 26  1  0  0  0
 27 28  1  0  0  0
 28 29  1  0  0  0
 29 30  2  0  0  0
 29 31  1  0  0  0
 31 32  1  0  0  0
 32 33  1  0  0  0
 32 35  1  0  0  0
 33 34  2  0  0  0
 33 37  1  0  0  0
 35 36  1  0  0  0
 37 38  1  0  0  0
 38 39  1  0  0  0
 38 41  1  0  0  0
 39 40  2  0  0  0
 39 45  1  0  0  0
 41 42  1  0  0  0
 42 43  2  0  0  0
 42 44  1  0  0  0
 45 46  1  0  0  0
 46 47  1  0  0  0
 47 48  2  0  0  0
 47 49  1  0  0  0
 49 50  1  0  0  0
 50 51  1  0  0  0
 50 53  1  0  0  0
 51 52  2  0  0  0
 53 54  1  0  0  0
 54 55  1  0  0  0
 54 56  2  0  0  0
 51 57  1  0  0  0
  1 58  1  0  0  0
  1 59  1  0  0  0
  1 60  1  0  0  0
  2 61  1  0  0  0
  2 62  1  0  0  0
  5 63  1  0  0  0
  6 64  1  0  0  0
  9 65  1  0  0  0
  9 66  1  0  0  0
 10 67  1  0  0  0
 11 68  1  0  0  0
 12 69  1  0  0  0
 15 70  1  0  0  0
 15 71  1  0  0  0
 16 72  1  0  0  0
 17 73  1  0  0  0
 18 74  1  0  0  0
 18 75  1  0  0  0
 21 76  1  0  0  0
 22 77  1  0  0  0
 25 78  1  0  0  0
 25 79  1  0  0  0
 26 80  1  0  0  0
 27 81  1  0  0  0
 28 82  1  0  0  0
 28 83  1  0  0  0
 31 84  1  0  0  0
 32 85  1  0  0  0
 35 86  1  0  0  0
 35 87  1  0  0  0
 36 88  1  0  0  0
 37 89  1  0  0  0
 38 90  1  0  0  0
 41 91  1  0  0  0
 41 92  1  0  0  0
 44 93  1  0  0  0
 44 94  1  0  0  0
 45 95  1  0  0  0
 46 96  1  0  0  0
 46 97  1  0  0  0
 49 98  1  0  0  0
 50 99  1  0  0  0
 53100  1  0  0  0
 53101  1  0  0  0
 55102  1  0  0  0
 57103  1  0  0  0
M  END
$$$$
