3iej_ligand
  -I-interpret- 

 69 73  0  0  0  0  0  0  0  0999 V2000
   -5.1660  -22.1770    8.8400 C   0  0  0  0  0
   -4.9770  -21.3910    7.6340 N   0  3  0  0  0
   -6.1370  -20.6820    7.0940 C   0  0  0  0  0
   -6.5570  -19.7320    8.2340 C   0  0  0  0  0
   -6.6950  -20.4170    9.4980 O   0  0  0  0  0
   -5.5600  -21.1750    9.9310 C   0  0  0  0  0
   -3.6530  -21.2560    7.0430 C   0  0  0  0  0
   -3.5080  -22.2970    5.9520 C   0  0  0  0  0
   -2.1600  -22.1560    5.2430 C   0  0  0  0  0
   -1.3020  -23.2720    5.6430 N   0  0  0  0  0
   -0.4110  -22.9710    6.6630 N   0  0  0  0  0
    0.2870  -24.0990    6.9070 C   0  0  0  0  0
   -0.1870  -25.1060    6.0780 C   0  0  0  0  0
   -1.1890  -24.5610    5.2870 C   0  0  0  0  0
   -1.9300  -25.3460    4.2330 C   0  0  0  0  0
   -1.5950  -26.8350    4.3500 C   0  0  0  0  0
   -0.1430  -26.9390    4.5710 N   0  0  0  0  0
    0.2610  -26.5510    5.9380 C   0  0  0  0  0
    1.3300  -24.1640    7.9480 C   0  0  0  0  0
    2.2520  -23.1200    8.0180 C   0  0  0  0  0
    3.2290  -23.1230    8.9990 C   0  0  0  0  0
    3.2630  -24.1680    9.9250 C   0  0  0  0  0
    2.3400  -25.2100    9.8640 C   0  0  0  0  0
    1.3550  -25.2110    8.8720 C   0  0  0  0  0
    2.3660  -26.1530   10.7410 C   0  0  0  0  0
    2.4790  -26.8770   11.6820 C   0  0  0  0  0
    2.4340  -27.6420   12.7210 C   0  0  0  0  0
    1.6180  -28.7780   12.7190 C   0  0  0  0  0
    1.5870  -29.6230   13.8320 C   0  0  0  0  0
    2.3820  -29.3360   14.9450 C   0  0  0  0  0
    3.2090  -28.2040   14.9350 C   0  0  0  0  0
    3.2260  -27.3550   13.8250 C   0  0  0  0  0
    0.7440  -27.3020    3.6440 C   0  0  0  0  0
    0.3280  -27.4090    2.1890 C   0  0  0  0  0
    1.5010  -27.4360    1.3560 O   0  0  0  0  0
    1.8950  -27.5290    3.9310 O   0  0  0  0  0
    4.5270  -24.1460   11.1880 Cl  0  0  0  0  0
    2.3300  -30.4130   16.3840 Cl  0  0  0  0  0
   -4.2590  -22.7192    9.1072 H   0  0  0  0  0
   -5.9347  -22.9374    8.7024 H   0  0  0  0  0
   -4.7672  -21.9334    6.7960 H   0  0  0  0  0
   -6.9391  -21.3613    6.8055 H   0  0  0  0  0
   -5.9024  -20.1458    6.1745 H   0  0  0  0  0
   -7.5248  -19.3021    7.9757 H   0  0  0  0  0
   -5.7819  -18.9735    8.3440 H   0  0  0  0  0
   -4.7253  -20.5007   10.1227 H   0  0  0  0  0
   -5.8109  -21.7138   10.8447 H   0  0  0  0  0
   -2.8876  -21.4048    7.8047 H   0  0  0  0  0
   -3.5317  -20.2571    6.6239 H   0  0  0  0  0
   -4.3055  -22.1553    5.2226 H   0  0  0  0  0
   -3.5668  -23.2882    6.4017 H   0  0  0  0  0
   -1.6925  -21.2111    5.5199 H   0  0  0  0  0
   -2.3060  -22.1692    4.1629 H   0  0  0  0  0
   -1.6318  -24.9895    3.2471 H   0  0  0  0  0
   -3.0021  -25.2093    4.3741 H   0  0  0  0  0
   -1.8840  -27.3657    3.4429 H   0  0  0  0  0
   -2.1423  -27.2876    5.1769 H   0  0  0  0  0
   -0.1932  -27.1922    6.6934 H   0  0  0  0  0
    1.3347  -26.6602    6.0908 H   0  0  0  0  0
    2.2034  -22.3013    7.3001 H   0  0  0  0  0
    3.9633  -22.3189    9.0481 H   0  0  0  0  0
    0.6199  -26.0142    8.8206 H   0  0  0  0  0
    1.0046  -29.0050   11.8471 H   0  0  0  0  0
    0.9445  -30.5035   13.8319 H   0  0  0  0  0
    3.8408  -27.9853   15.7958 H   0  0  0  0  0
    3.8602  -26.4685   13.8258 H   0  0  0  0  0
   -0.2873  -26.5496    1.9227 H   0  0  0  0  0
   -0.2442  -28.3249    2.0409 H   0  0  0  0  0
    1.2369  -27.5037    0.4355 H   0  0  0  0  0
  1  2  1  0  0  0
  1  6  1  0  0  0
  2  3  1  0  0  0
  2  7  1  0  0  0
  3  4  1  0  0  0
  4  5  1  0  0  0
  5  6  1  0  0  0
  7  8  1  0  0  0
  8  9  1  0  0  0
  9 10  1  0  0  0
 10 11  4  0  0  0
 10 14  4  0  0  0
 11 12  4  0  0  0
 12 13  4  0  0  0
 12 19  1  0  0  0
 13 14  4  0  0  0
 13 18  1  0  0  0
 14 15  1  0  0  0
 15 16  1  0  0  0
 16 17  1  0  0  0
 17 18  1  0  0  0
 17 33  1  0  0  0
 19 20  4  0  0  0
 19 24  4  0  0  0
 20 21  4  0  0  0
 21 22  4  0  0  0
 22 23  4  0  0  0
 22 37  1  0  0  0
 23 24  4  0  0  0
 23 25  1  0  0  0
 25 26  3  0  0  0
 26 27  1  0  0  0
 27 28  4  0  0  0
 27 32  4  0  0  0
 28 29  4  0  0  0
 29 30  4  0  0  0
 30 31  4  0  0  0
 30 38  1  0  0  0
 31 32  4  0  0  0
 33 34  1  0  0  0
 33 36  2  0  0  0
 34 35  1  0  0  0
  1 39  1  0  0  0
  1 40  1  0  0  0
  2 41  1  0  0  0
  3 42  1  0  0  0
  3 43  1  0  0  0
  4 44  1  0  0  0
  4 45  1  0  0  0
  6 46  1  0  0  0
  6 47  1  0  0  0
  7 48  1  0  0  0
  7 49  1  0  0  0
  8 50  1  0  0  0
  8 51  1  0  0  0
  9 52  1  0  0  0
  9 53  1  0  0  0
 15 54  1  0  0  0
 15 55  1  0  0  0
 16 56  1  0  0  0
 16 57  1  0  0  0
 18 58  1  0  0  0
 18 59  1  0  0  0
 20 60  1  0  0  0
 21 61  1  0  0  0
 24 62  1  0  0  0
 28 63  1  0  0  0
 29 64  1  0  0  0
 31 65  1  0  0  0
 32 66  1  0  0  0
 34 67  1  0  0  0
 34 68  1  0  0  0
 35 69  1  0  0  0
M  END
$$$$
