### 
### Created by X-TOOL on Mon Sep 10 21:13:26 2018
### 

@<TRIPOS>MOLECULE
5iv2_ligand
  193   195     1     0     0
SMALL
GAST_HUCK


@<TRIPOS>ATOM
      1 N          16.6720  -32.2920  -29.5720 N.am      1 GLY        -0.0895
      2 CA         16.5490  -32.7650  -28.2050 C.3       1 GLY         0.2896
      3 C          17.2510  -34.0770  -27.9040 C.2       1 GLY         0.2370
      4 O          17.4600  -34.4160  -26.7390 O.2       1 GLY        -0.3915
      5 N          17.6200  -34.8190  -28.9440 N.am      1 GLN        -0.2614
      6 CA         18.2490  -36.1220  -28.7830 C.3       1 GLN         0.1331
      7 C          19.7430  -36.0480  -29.0640 C.2       1 GLN         0.2042
      8 O          20.1950  -35.2820  -29.9220 O.2       1 GLN        -0.3944
      9 CB         17.6060  -37.1650  -29.6990 C.3       1 GLN         0.0045
     10 CG         16.2230  -37.5910  -29.2580 C.3       1 GLN         0.0412
     11 CD         15.9890  -39.0720  -29.4610 C.2       1 GLN         0.1737
     12 OE1        16.6060  -39.6960  -30.3240 O.2       1 GLN        -0.3973
     13 NE2        15.1030  -39.6480  -28.6560 N.am      1 GLN        -0.3009
     14 N          20.5000  -36.8580  -28.3330 N.am      1 PHE        -0.2619
     15 CA         21.9390  -36.9320  -28.5240 C.3       1 PHE         0.1404
     16 C          22.2520  -37.6620  -29.8220 C.2       1 PHE         0.2060
     17 O          21.7100  -38.7400  -30.0860 O.2       1 PHE        -0.3942
     18 CB         22.5780  -37.6430  -27.3350 C.3       1 PHE         0.0214
     19 CG         24.0680  -37.7480  -27.4120 C.ar      1 PHE        -0.0386
     20 CD1        24.8700  -36.6420  -27.1800 C.ar      1 PHE        -0.0601
     21 CD2        24.6720  -38.9640  -27.6840 C.ar      1 PHE        -0.0601
     22 CE1        26.2410  -36.7470  -27.2350 C.ar      1 PHE        -0.0686
     23 CE2        26.0460  -39.0760  -27.7420 C.ar      1 PHE        -0.0686
     24 CZ         26.8330  -37.9690  -27.5160 C.ar      1 PHE        -0.0687
     25 N          23.1210  -37.0680  -30.6360 N.am      1 ASP        -0.2620
     26 CA         23.4830  -37.6050  -31.9430 C.3       1 ASP         0.1423
     27 C          24.8770  -38.2150  -31.8560 C.2       1 ASP         0.2056
     28 O          25.8520  -37.5100  -31.5670 O.2       1 ASP        -0.3943
     29 CB         23.4290  -36.5100  -33.0120 C.3       1 ASP         0.0406
     30 CG         24.0120  -36.9520  -34.3470 C.2       1 ASP         0.0393
     31 OD1        23.9890  -38.1640  -34.6540 O.co2     1 ASP        -0.5688
     32 OD2        24.4950  -36.0790  -35.0960 O.co2     1 ASP        -0.5688
     33 N          24.9670  -39.5220  -32.1220 N.am      1 LEU        -0.2636
     34 CA         26.2370  -40.2290  -31.9790 C.3       1 LEU         0.1312
     35 C          27.2780  -39.7520  -32.9830 C.2       1 LEU         0.2040
     36 O          28.4810  -39.8650  -32.7230 O.2       1 LEU        -0.3944
     37 CB         26.0160  -41.7350  -32.1240 C.3       1 LEU        -0.0101
     38 CG         25.1610  -42.3780  -31.0350 C.3       1 LEU        -0.0425
     39 CD1        24.6770  -43.7510  -31.4670 C.3       1 LEU        -0.0625
     40 CD2        25.9440  -42.4640  -29.7320 C.3       1 LEU        -0.0625
     41 N          26.8430  -39.2210  -34.1290 N.am      1 SER        -0.2616
     42 CA         27.7890  -38.7760  -35.1480 C.3       1 SER         0.1539
     43 C          28.5600  -37.5340  -34.7120 C.2       1 SER         0.2063
     44 O          29.7430  -37.3960  -35.0440 O.2       1 SER        -0.3943
     45 CB         27.0540  -38.5060  -36.4610 C.3       1 SER         0.0843
     46 OG         26.4740  -39.6950  -36.9730 O.3       1 SER        -0.3903
     47 N          27.9190  -36.6290  -33.9660 N.am      1 THR        -0.2613
     48 CA         28.5140  -35.3480  -33.6130 C.3       1 THR         0.1565
     49 C          28.6830  -35.1290  -32.1180 C.2       1 THR         0.2065
     50 O          29.3070  -34.1350  -31.7290 O.2       1 THR        -0.3943
     51 CB         27.6690  -34.1930  -34.1730 C.3       1 THR         0.0924
     52 OG1        26.3550  -34.2390  -33.5990 O.3       1 THR        -0.3874
     53 CG2        27.5540  -34.3000  -35.6800 C.3       1 THR        -0.0346
     54 N          28.1470  -36.0070  -31.2780 N.am      1 ARG        -0.2636
     55 CA         28.1400  -35.8060  -29.8320 C.3       1 ARG         0.1311
     56 C          27.4650  -34.4890  -29.4600 C.2       1 ARG         0.2039
     57 O          27.8680  -33.8150  -28.5100 O.2       1 ARG        -0.3944
     58 CB         29.5590  -35.8460  -29.2610 C.3       1 ARG        -0.0092
     59 CG         30.3370  -37.0820  -29.6440 C.3       1 ARG        -0.0156
     60 CD         31.5940  -37.2180  -28.8100 C.3       1 ARG         0.0627
     61 NE         32.3890  -38.3630  -29.2380 N.pl3     1 ARG        -0.2723
     62 CZ         33.4010  -38.8710  -28.5440 C.cat     1 ARG         0.2882
     63 NH1        33.7420  -38.3390  -27.3790 N.pl3     1 ARG        -0.2849
     64 NH2        34.0660  -39.9170  -29.0150 N.pl3     1 ARG        -0.2849
     65 C1         24.2420  -33.2090  -29.9630 C.2       1 CIR         0.2039
     66 O1         23.8050  -34.2110  -30.5160 O.2       1 CIR        -0.3944
     67 C2         25.7140  -32.9090  -29.9850 C.3       1 CIR         0.1310
     68 N2         26.4320  -34.1330  -30.2140 N.am      1 CIR        -0.2637
     69 C3         26.0810  -31.9090  -31.0820 C.3       1 CIR        -0.0106
     70 C4         27.4640  -31.2870  -31.0030 C.3       1 CIR        -0.0288
     71 C5         27.8230  -30.5820  -29.6960 C.3       1 CIR         0.0314
     72 N6         26.9390  -29.4850  -29.2560 N.am      1 CIR        -0.2733
     73 C7         26.8960  -28.2990  -29.8760 C.2       1 CIR         0.2548
     74 O7         27.5850  -28.0380  -30.8450 O.2       1 CIR        -0.4010
     75 N8         26.0500  -27.3890  -29.3760 N.am      1 CIR        -0.2870
     76 N          23.4730  -32.3390  -29.3170 N.am      1 LEU        -0.2637
     77 CA         22.0230  -32.4890  -29.2680 C.3       1 LEU         0.1312
     78 C          21.4030  -32.0810  -30.6000 C.2       1 LEU         0.2039
     79 O          21.7420  -31.0390  -31.1590 O.2       1 LEU        -0.3944
     80 CB         21.4310  -31.6610  -28.1250 C.3       1 LEU        -0.0101
     81 CG         21.7990  -32.1120  -26.7100 C.3       1 LEU        -0.0425
     82 CD1        21.2090  -31.1730  -25.6690 C.3       1 LEU        -0.0625
     83 CD2        21.3360  -33.5400  -26.4690 C.3       1 LEU        -0.0625
     84 N          20.4980  -32.9140  -31.1090 N.am      1 LYS        -0.2637
     85 CA         19.8340  -32.6630  -32.3840 C.3       1 LYS         0.1310
     86 C          18.3590  -32.9800  -32.1960 C.2       1 LYS         0.2037
     87 O          17.9920  -34.1510  -32.0590 O.2       1 LYS        -0.3944
     88 CB         20.4390  -33.5160  -33.4980 C.3       1 LYS        -0.0122
     89 CG         20.6880  -32.7680  -34.7930 C.3       1 LYS        -0.0440
     90 CD         20.8540  -33.7300  -35.9610 C.3       1 LYS        -0.0124
     91 CE         21.3490  -33.0160  -37.2090 C.3       1 LYS        -0.0354
     92 NZ         21.3170  -33.9070  -38.4040 N.4       1 LYS         0.2185
     93 N          17.5210  -31.9480  -32.1880 N.am      1 GLY        -0.2664
     94 CA         16.1080  -32.1270  -31.9140 C.3       1 GLY         0.1222
     95 C          15.8800  -32.7340  -30.5430 C.2       1 GLY         0.2295
     96 O          15.0210  -33.5960  -30.3670 O.2       1 GLY        -0.3942
     97 OXT        16.5490  -32.3790  -29.5740 O.3       1 GLY        -0.1970
     98 H1         16.0659  -32.2908  -27.3380 H         1 GLY         0.1177
     99 H2         17.4601  -34.4703  -29.8675 H         1 GLN         0.1884
    100 H3         18.1075  -36.4424  -27.7403 H         1 GLN         0.0801
    101 H4         18.2530  -38.0544  -29.7207 H         1 GLN         0.0337
    102 H5         17.5324  -36.7403  -30.7110 H         1 GLN         0.0337
    103 H6         15.4771  -37.0314  -29.8414 H         1 GLN         0.0504
    104 H7         16.1040  -37.3568  -28.1898 H         1 GLN         0.0504
    105 H8         14.9079  -40.6248  -28.7445 H         1 GLN         0.1814
    106 H9         14.6312  -39.1048  -27.9615 H         1 GLN         0.1814
    107 H10        20.0700  -37.4304  -27.6348 H         1 PHE         0.1885
    108 H11        22.3444  -35.9113  -28.5860 H         1 PHE         0.0823
    109 H12        22.1630  -38.6601  -27.2775 H         1 PHE         0.0474
    110 H13        22.3180  -37.0887  -26.4211 H         1 PHE         0.0474
    111 H14        24.4133  -35.6854  -26.9531 H         1 PHE         0.0557
    112 H15        24.0568  -39.8402  -27.8537 H         1 PHE         0.0557
    113 H16        26.8586  -35.8738  -27.0585 H         1 PHE         0.0599
    114 H17        26.5045  -40.0326  -27.9648 H         1 PHE         0.0599
    115 H18        27.9130  -38.0526  -27.5577 H         1 PHE         0.0559
    116 H19        23.5459  -36.2133  -30.3377 H         1 ASP         0.1884
    117 H20        22.7663  -38.3938  -32.2153 H         1 ASP         0.0819
    118 H21        23.9981  -35.6403  -32.6519 H         1 ASP         0.0478
    119 H22        22.3785  -36.2225  -33.1664 H         1 ASP         0.0478
    120 H23        24.1547  -40.0218  -32.4226 H         1 LEU         0.1883
    121 H24        26.6244  -40.0307  -30.9688 H         1 LEU         0.0800
    122 H25        27.0008  -42.2251  -32.1162 H         1 LEU         0.0315
    123 H26        25.5247  -41.9145  -33.0917 H         1 LEU         0.0315
    124 H27        24.2800  -41.7411  -30.8668 H         1 LEU         0.0298
    125 H28        24.0645  -44.1923  -30.6669 H         1 LEU         0.0232
    126 H29        25.5431  -44.3994  -31.6657 H         1 LEU         0.0232
    127 H30        24.0727  -43.6559  -32.3812 H         1 LEU         0.0232
    128 H31        26.2829  -41.4588  -29.4409 H         1 LEU         0.0232
    129 H32        26.8166  -43.1192  -29.8711 H         1 LEU         0.0232
    130 H33        25.2982  -42.8760  -28.9426 H         1 LEU         0.0232
    131 H34        25.8605  -39.1275  -34.2903 H         1 SER         0.1884
    132 H35        28.5148  -39.5854  -35.3159 H         1 SER         0.0823
    133 H36        27.7676  -38.1079  -37.1974 H         1 SER         0.0606
    134 H37        26.2597  -37.7661  -36.2830 H         1 SER         0.0606
    135 H38        27.1568  -40.3362  -37.1318 H         1 SER         0.2097
    136 H39        26.9978  -36.8393  -33.6386 H         1 THR         0.1884
    137 H40        29.5117  -35.3097  -34.0746 H         1 THR         0.0826
    138 H41        28.1481  -33.2374  -33.9137 H         1 THR         0.0639
    139 H42        25.9441  -35.0672  -33.8173 H         1 THR         0.2101
    140 H43        26.9467  -33.4660  -36.0615 H         1 THR         0.0257
    141 H44        27.0742  -35.2539  -35.9443 H         1 THR         0.0257
    142 H45        28.5576  -34.2577  -36.1283 H         1 THR         0.0257
    143 H46        27.7324  -36.8374  -31.6502 H         1 ARG         0.1883
    144 H47        27.5644  -36.6265  -29.3787 H         1 ARG         0.0800
    145 H48        29.4923  -35.8047  -28.1638 H         1 ARG         0.0313
    146 H49        30.1054  -34.9649  -29.6286 H         1 ARG         0.0313
    147 H50        30.6164  -37.0155  -30.7058 H         1 ARG         0.0301
    148 H51        29.7041  -37.9677  -29.4861 H         1 ARG         0.0301
    149 H52        31.3121  -37.3511  -27.7551 H         1 ARG         0.0689
    150 H53        32.1959  -36.3034  -28.9162 H         1 ARG         0.0689
    151 H54        32.1503  -38.8064  -30.1365 H         1 ARG         0.2642
    152 H55        34.5272  -38.7345  -26.8423 H         1 ARG         0.2615
    153 H56        33.2218  -37.5301  -27.0103 H         1 ARG         0.2615
    154 H57        33.8011  -40.3306  -29.9204 H         1 ARG         0.2615
    155 H58        34.8475  -40.3160  -28.4755 H         1 ARG         0.2615
    156 H59        26.0054  -32.4895  -29.0108 H         1 CIR         0.0800
    157 H60        26.1457  -34.7325  -30.9614 H         1 CIR         0.1883
    158 H61        25.3456  -31.0917  -31.0476 H         1 CIR         0.0313
    159 H62        26.0048  -32.4305  -32.0475 H         1 CIR         0.0313
    160 H63        27.5445  -30.5480  -31.8138 H         1 CIR         0.0287
    161 H64        28.2001  -32.0885  -31.1630 H         1 CIR         0.0287
    162 H65        28.8345  -30.1655  -29.8117 H         1 CIR         0.0517
    163 H66        27.8281  -31.3419  -28.9007 H         1 CIR         0.0517
    164 H67        26.3484  -29.6335  -28.4628 H         1 CIR         0.1845
    165 H68        25.9781  -26.4866  -29.8008 H         1 CIR         0.1808
    166 H69        25.4902  -27.6120  -28.5779 H         1 CIR         0.1808
    167 H70        23.8989  -31.5623  -28.8530 H         1 LEU         0.1883
    168 H71        21.7895  -33.5483  -29.0854 H         1 LEU         0.0800
    169 H72        20.3353  -31.6972  -28.2155 H         1 LEU         0.0315
    170 H73        21.7750  -30.6234  -28.2477 H         1 LEU         0.0315
    171 H74        22.8945  -32.0845  -26.6148 H         1 LEU         0.0298
    172 H75        21.4880  -31.5192  -24.6629 H         1 LEU         0.0232
    173 H76        20.1131  -31.1637  -25.7627 H         1 LEU         0.0232
    174 H77        21.5993  -30.1570  -25.8284 H         1 LEU         0.0232
    175 H78        21.7736  -34.2010  -27.2317 H         1 LEU         0.0232
    176 H79        20.2387  -33.5851  -26.5308 H         1 LEU         0.0232
    177 H80        21.6608  -33.8672  -25.4703 H         1 LEU         0.0232
    178 H81        20.2647  -33.7420  -30.5991 H         1 LYS         0.1883
    179 H82        19.9484  -31.6023  -32.6521 H         1 LYS         0.0800
    180 H83        19.7500  -34.3474  -33.7078 H         1 LYS         0.0312
    181 H84        21.3995  -33.9167  -33.1418 H         1 LYS         0.0312
    182 H85        21.6037  -32.1672  -34.6901 H         1 LYS         0.0269
    183 H86        19.8344  -32.1039  -34.9937 H         1 LYS         0.0269
    184 H87        19.8825  -34.1976  -36.1791 H         1 LYS         0.0317
    185 H88        21.5809  -34.5073  -35.6826 H         1 LYS         0.0317
    186 H89        22.3834  -32.6814  -37.0416 H         1 LYS         0.0813
    187 H90        20.7073  -32.1429  -37.3983 H         1 LYS         0.0813
    188 H91        21.6509  -33.4011  -39.2093 H         1 LYS         0.1994
    189 H92        20.3713  -34.2144  -38.5688 H         1 LYS         0.1994
    190 H93        21.9072  -34.7079  -38.2419 H         1 LYS         0.1994
    191 H94        17.8717  -31.0303  -32.3746 H         1 GLY         0.1880
    192 H95        15.6778  -32.7936  -32.6760 H         1 GLY         0.0763
    193 H96        15.6084  -31.1480  -31.9590 H         1 GLY         0.0763
@<TRIPOS>BOND
     1    2    1 1  
     2    1   95 am 
     3   97    1 1  
     4    3    2 1  
     5    2   97 1  
     6    3    4 2  
     7    5    3 am 
     8    6    5 1  
     9    7    6 1  
    10    6    9 1  
    11    7    8 2  
    12   14    7 am 
    13    9   10 1  
    14   10   11 1  
    15   11   12 2  
    16   11   13 am 
    17   15   14 1  
    18   16   15 1  
    19   15   18 1  
    20   16   17 2  
    21   25   16 am 
    22   18   19 1  
    23   19   20 ar 
    24   19   21 ar 
    25   20   22 ar 
    26   21   23 ar 
    27   22   24 ar 
    28   23   24 ar 
    29   26   25 1  
    30   27   26 1  
    31   26   29 1  
    32   27   28 2  
    33   33   27 am 
    34   29   30 1  
    35   30   31 ar 
    36   30   32 ar 
    37   34   33 1  
    38   35   34 1  
    39   34   37 1  
    40   35   36 2  
    41   41   35 am 
    42   37   38 1  
    43   38   39 1  
    44   38   40 1  
    45   42   41 1  
    46   43   42 1  
    47   42   45 1  
    48   43   44 2  
    49   47   43 am 
    50   45   46 1  
    51   48   47 1  
    52   49   48 1  
    53   48   51 1  
    54   49   50 2  
    55   54   49 am 
    56   51   52 1  
    57   51   53 1  
    58   55   54 1  
    59   56   55 1  
    60   55   58 1  
    61   56   57 2  
    62   68   56 am 
    63   58   59 1  
    64   59   60 1  
    65   60   61 1  
    66   61   62 ar 
    67   62   63 ar 
    68   62   64 ar 
    69   65   66 2  
    70   67   65 1  
    71   65   76 am 
    72   67   68 1  
    73   67   69 1  
    74   69   70 1  
    75   70   71 1  
    76   71   72 1  
    77   72   73 am 
    78   73   74 2  
    79   73   75 am 
    80   76   77 1  
    81   77   78 1  
    82   77   80 1  
    83   78   79 2  
    84   78   84 am 
    85   80   81 1  
    86   81   82 1  
    87   81   83 1  
    88   84   85 1  
    89   85   86 1  
    90   85   88 1  
    91   86   87 2  
    92   86   93 am 
    93   88   89 1  
    94   89   90 1  
    95   90   91 1  
    96   91   92 1  
    97   93   94 1  
    98   94   95 1  
    99   95   96 2  
   100    2   98 1  
   101    5   99 1  
   102    6  100 1  
   103    9  101 1  
   104    9  102 1  
   105   10  103 1  
   106   10  104 1  
   107   13  105 1  
   108   13  106 1  
   109   14  107 1  
   110   15  108 1  
   111   18  109 1  
   112   18  110 1  
   113   20  111 1  
   114   21  112 1  
   115   22  113 1  
   116   23  114 1  
   117   24  115 1  
   118   25  116 1  
   119   26  117 1  
   120   29  118 1  
   121   29  119 1  
   122   33  120 1  
   123   34  121 1  
   124   37  122 1  
   125   37  123 1  
   126   38  124 1  
   127   39  125 1  
   128   39  126 1  
   129   39  127 1  
   130   40  128 1  
   131   40  129 1  
   132   40  130 1  
   133   41  131 1  
   134   42  132 1  
   135   45  133 1  
   136   45  134 1  
   137   46  135 1  
   138   47  136 1  
   139   48  137 1  
   140   51  138 1  
   141   52  139 1  
   142   53  140 1  
   143   53  141 1  
   144   53  142 1  
   145   54  143 1  
   146   55  144 1  
   147   58  145 1  
   148   58  146 1  
   149   59  147 1  
   150   59  148 1  
   151   60  149 1  
   152   60  150 1  
   153   61  151 1  
   154   63  152 1  
   155   63  153 1  
   156   64  154 1  
   157   64  155 1  
   158   67  156 1  
   159   68  157 1  
   160   69  158 1  
   161   69  159 1  
   162   70  160 1  
   163   70  161 1  
   164   71  162 1  
   165   71  163 1  
   166   72  164 1  
   167   75  165 1  
   168   75  166 1  
   169   76  167 1  
   170   77  168 1  
   171   80  169 1  
   172   80  170 1  
   173   81  171 1  
   174   82  172 1  
   175   82  173 1  
   176   82  174 1  
   177   83  175 1  
   178   83  176 1  
   179   83  177 1  
   180   84  178 1  
   181   85  179 1  
   182   88  180 1  
   183   88  181 1  
   184   89  182 1  
   185   89  183 1  
   186   90  184 1  
   187   90  185 1  
   188   91  186 1  
   189   91  187 1  
   190   92  188 1  
   191   92  189 1  
   192   92  190 1  
   193   93  191 1  
   194   94  192 1  
   195   94  193 1  
@<TRIPOS>SUBSTRUCTURE
     1 GLY         1

