5iv2_ligand
  -I-interpret- 

193195  0  0  0  0  0  0  0  0999 V2000
   16.6720  -32.2920  -29.5720 N   0  0  0  0  0
   16.5490  -32.7650  -28.2050 C   0  0  0  0  0
   17.2510  -34.0770  -27.9040 C   0  0  0  0  0
   17.4600  -34.4160  -26.7390 O   0  0  0  0  0
   17.6200  -34.8190  -28.9440 N   0  0  0  0  0
   18.2490  -36.1220  -28.7830 C   0  0  0  0  0
   19.7430  -36.0480  -29.0640 C   0  0  0  0  0
   20.1950  -35.2820  -29.9220 O   0  0  0  0  0
   17.6060  -37.1650  -29.6990 C   0  0  0  0  0
   16.2230  -37.5910  -29.2580 C   0  0  0  0  0
   15.9890  -39.0720  -29.4610 C   0  0  0  0  0
   16.6060  -39.6960  -30.3240 O   0  0  0  0  0
   15.1030  -39.6480  -28.6560 N   0  0  0  0  0
   20.5000  -36.8580  -28.3330 N   0  0  0  0  0
   21.9390  -36.9320  -28.5240 C   0  0  0  0  0
   22.2520  -37.6620  -29.8220 C   0  0  0  0  0
   21.7100  -38.7400  -30.0860 O   0  0  0  0  0
   22.5780  -37.6430  -27.3350 C   0  0  0  0  0
   24.0680  -37.7480  -27.4120 C   0  0  0  0  0
   24.8700  -36.6420  -27.1800 C   0  0  0  0  0
   24.6720  -38.9640  -27.6840 C   0  0  0  0  0
   26.2410  -36.7470  -27.2350 C   0  0  0  0  0
   26.0460  -39.0760  -27.7420 C   0  0  0  0  0
   26.8330  -37.9690  -27.5160 C   0  0  0  0  0
   23.1210  -37.0680  -30.6360 N   0  0  0  0  0
   23.4830  -37.6050  -31.9430 C   0  0  0  0  0
   24.8770  -38.2150  -31.8560 C   0  0  0  0  0
   25.8520  -37.5100  -31.5670 O   0  0  0  0  0
   23.4290  -36.5100  -33.0120 C   0  0  0  0  0
   24.0120  -36.9520  -34.3470 C   0  0  0  0  0
   23.9890  -38.1640  -34.6540 O   0  0  0  0  0
   24.4950  -36.0790  -35.0960 O   0  0  0  0  0
   24.9670  -39.5220  -32.1220 N   0  0  0  0  0
   26.2370  -40.2290  -31.9790 C   0  0  0  0  0
   27.2780  -39.7520  -32.9830 C   0  0  0  0  0
   28.4810  -39.8650  -32.7230 O   0  0  0  0  0
   26.0160  -41.7350  -32.1240 C   0  0  0  0  0
   25.1610  -42.3780  -31.0350 C   0  0  0  0  0
   24.6770  -43.7510  -31.4670 C   0  0  0  0  0
   25.9440  -42.4640  -29.7320 C   0  0  0  0  0
   26.8430  -39.2210  -34.1290 N   0  0  0  0  0
   27.7890  -38.7760  -35.1480 C   0  0  0  0  0
   28.5600  -37.5340  -34.7120 C   0  0  0  0  0
   29.7430  -37.3960  -35.0440 O   0  0  0  0  0
   27.0540  -38.5060  -36.4610 C   0  0  0  0  0
   26.4740  -39.6950  -36.9730 O   0  0  0  0  0
   27.9190  -36.6290  -33.9660 N   0  0  0  0  0
   28.5140  -35.3480  -33.6130 C   0  0  0  0  0
   28.6830  -35.1290  -32.1180 C   0  0  0  0  0
   29.3070  -34.1350  -31.7290 O   0  0  0  0  0
   27.6690  -34.1930  -34.1730 C   0  0  0  0  0
   26.3550  -34.2390  -33.5990 O   0  0  0  0  0
   27.5540  -34.3000  -35.6800 C   0  0  0  0  0
   28.1470  -36.0070  -31.2780 N   0  0  0  0  0
   28.1400  -35.8060  -29.8320 C   0  0  0  0  0
   27.4650  -34.4890  -29.4600 C   0  0  0  0  0
   27.8680  -33.8150  -28.5100 O   0  0  0  0  0
   29.5590  -35.8460  -29.2610 C   0  0  0  0  0
   30.3370  -37.0820  -29.6440 C   0  0  0  0  0
   31.5940  -37.2180  -28.8100 C   0  0  0  0  0
   32.3890  -38.3630  -29.2380 N   0  0  0  0  0
   33.4010  -38.8710  -28.5440 C   0  0  0  0  0
   33.7420  -38.3390  -27.3790 N   0  0  0  0  0
   34.0660  -39.9170  -29.0150 N   0  0  0  0  0
   24.2420  -33.2090  -29.9630 C   0  0  0  0  0
   23.8050  -34.2110  -30.5160 O   0  0  0  0  0
   25.7140  -32.9090  -29.9850 C   0  0  0  0  0
   26.4320  -34.1330  -30.2140 N   0  0  0  0  0
   26.0810  -31.9090  -31.0820 C   0  0  0  0  0
   27.4640  -31.2870  -31.0030 C   0  0  0  0  0
   27.8230  -30.5820  -29.6960 C   0  0  0  0  0
   26.9390  -29.4850  -29.2560 N   0  0  0  0  0
   26.8960  -28.2990  -29.8760 C   0  0  0  0  0
   27.5850  -28.0380  -30.8450 O   0  0  0  0  0
   26.0500  -27.3890  -29.3760 N   0  0  0  0  0
   23.4730  -32.3390  -29.3170 N   0  0  0  0  0
   22.0230  -32.4890  -29.2680 C   0  0  0  0  0
   21.4030  -32.0810  -30.6000 C   0  0  0  0  0
   21.7420  -31.0390  -31.1590 O   0  0  0  0  0
   21.4310  -31.6610  -28.1250 C   0  0  0  0  0
   21.7990  -32.1120  -26.7100 C   0  0  0  0  0
   21.2090  -31.1730  -25.6690 C   0  0  0  0  0
   21.3360  -33.5400  -26.4690 C   0  0  0  0  0
   20.4980  -32.9140  -31.1090 N   0  0  0  0  0
   19.8340  -32.6630  -32.3840 C   0  0  0  0  0
   18.3590  -32.9800  -32.1960 C   0  0  0  0  0
   17.9920  -34.1510  -32.0590 O   0  0  0  0  0
   20.4390  -33.5160  -33.4980 C   0  0  0  0  0
   20.6880  -32.7680  -34.7930 C   0  0  0  0  0
   20.8540  -33.7300  -35.9610 C   0  0  0  0  0
   21.3490  -33.0160  -37.2090 C   0  0  0  0  0
   21.3170  -33.9070  -38.4040 N   0  3  0  0  0
   17.5210  -31.9480  -32.1880 N   0  0  0  0  0
   16.1080  -32.1270  -31.9140 C   0  0  0  0  0
   15.8800  -32.7340  -30.5430 C   0  0  0  0  0
   15.0210  -33.5960  -30.3670 O   0  0  0  0  0
   16.5490  -32.3790  -29.5740 O   0  0  0  0  0
   16.2197  -32.6043  -27.1784 H   0  0  0  0  0
   17.4569  -34.4633  -29.8860 H   0  0  0  0  0
   18.0992  -36.4255  -27.7469 H   0  0  0  0  0
   18.2412  -38.0506  -29.6811 H   0  0  0  0  0
   17.5091  -36.7156  -30.6873 H   0  0  0  0  0
   15.4933  -37.0471  -29.8579 H   0  0  0  0  0
   16.1248  -37.3749  -28.1942 H   0  0  0  0  0
   14.9114  -40.6463  -28.7396 H   0  0  0  0  0
   14.6144  -39.0919  -27.9543 H   0  0  0  0  0
   20.0614  -37.4419  -27.6209 H   0  0  0  0  0
   22.3504  -35.9247  -28.5890 H   0  0  0  0  0
   22.1844  -38.6593  -27.3185 H   0  0  0  0  0
   22.3423  -37.0581  -26.4459 H   0  0  0  0  0
   24.4107  -35.6802  -26.9519 H   0  0  0  0  0
   24.0533  -39.8450  -27.8547 H   0  0  0  0  0
   26.8620  -35.8690  -27.0576 H   0  0  0  0  0
   26.5071  -40.0379  -27.9661 H   0  0  0  0  0
   27.9189  -38.0531  -27.5579 H   0  0  0  0  0
   23.5544  -36.1962  -30.3317 H   0  0  0  0  0
   22.7696  -38.3770  -32.2312 H   0  0  0  0  0
   24.0207  -35.6674  -32.6542 H   0  0  0  0  0
   22.3814  -36.2567  -33.1749 H   0  0  0  0  0
   23.5779  -38.6647  -33.9455 H   0  0  0  0  0
   24.1385  -40.0318  -32.4286 H   0  0  0  0  0
   26.6232  -40.0097  -30.9836 H   0  0  0  0  0
   26.9993  -42.2015  -32.0643 H   0  0  0  0  0
   25.4856  -41.8830  -33.0647 H   0  0  0  0  0
   24.2841  -41.7520  -30.8701 H   0  0  0  0  0
   24.0784  -43.6554  -32.3729 H   0  0  0  0  0
   25.5361  -44.3924  -31.6636 H   0  0  0  0  0
   24.0703  -44.1872  -30.6735 H   0  0  0  0  0
   26.8385  -43.0674  -29.8863 H   0  0  0  0  0
   26.2308  -41.4613  -29.4151 H   0  0  0  0  0
   25.3213  -42.9246  -28.9651 H   0  0  0  0  0
   25.8409  -39.1256  -34.2936 H   0  0  0  0  0
   28.5155  -39.5754  -35.2936 H   0  0  0  0  0
   27.7689  -38.1239  -37.1897 H   0  0  0  0  0
   26.2607  -37.7820  -36.2751 H   0  0  0  0  0
   26.0195  -39.4995  -37.7957 H   0  0  0  0  0
   26.9794  -36.8435  -33.6321 H   0  0  0  0  0
   29.5100  -35.3665  -34.0555 H   0  0  0  0  0
   28.1561  -33.2515  -33.9194 H   0  0  0  0  0
   25.8284  -33.5170  -33.9497 H   0  0  0  0  0
   28.5491  -34.2581  -36.1229 H   0  0  0  0  0
   27.0785  -35.2455  -35.9406 H   0  0  0  0  0
   26.9520  -33.4731  -36.0568 H   0  0  0  0  0
   27.7241  -36.8540  -31.6576 H   0  0  0  0  0
   27.5670  -36.6239  -29.3951 H   0  0  0  0  0
   29.4718  -35.8412  -28.1745 H   0  0  0  0  0
   30.0954  -34.9870  -29.6642 H   0  0  0  0  0
   30.6223  -37.0025  -30.6930 H   0  0  0  0  0
   29.7088  -37.9559  -29.4717 H   0  0  0  0  0
   31.3067  -37.3635  -27.7686 H   0  0  0  0  0
   32.1916  -36.3145  -28.9312 H   0  0  0  0  0
   32.1526  -38.8021  -30.1278 H   0  0  0  0  0
   33.2269  -37.5379  -27.0138 H   0  0  0  0  0
   34.8399  -40.3121  -28.4807 H   0  0  0  0  0
   33.8037  -40.3266  -29.9116 H   0  0  0  0  0
   25.9814  -32.4668  -29.0253 H   0  0  0  0  0
   26.1399  -34.7445  -30.9764 H   0  0  0  0  0
   25.3749  -31.0843  -30.9849 H   0  0  0  0  0
   26.0559  -32.4673  -32.0178 H   0  0  0  0  0
   27.4938  -30.5200  -31.7769 H   0  0  0  0  0
   28.1708  -32.1105  -31.1049 H   0  0  0  0  0
   28.7988  -30.1262  -29.8641 H   0  0  0  0  0
   27.7562  -31.3449  -28.9204 H   0  0  0  0  0
   26.3365  -29.6365  -28.4470 H   0  0  0  0  0
   25.9788  -26.4675  -29.8075 H   0  0  0  0  0
   25.4770  -27.6174  -28.5637 H   0  0  0  0  0
   23.9074  -31.5467  -28.8437 H   0  0  0  0  0
   21.7919  -33.5381  -29.0834 H   0  0  0  0  0
   20.3483  -31.7580  -28.2055 H   0  0  0  0  0
   21.8299  -30.6530  -28.2386 H   0  0  0  0  0
   22.8844  -32.0805  -26.6147 H   0  0  0  0  0
   21.5965  -30.1667  -25.8281 H   0  0  0  0  0
   20.1231  -31.1647  -25.7630 H   0  0  0  0  0
   21.4861  -31.5171  -24.6726 H   0  0  0  0  0
   20.2540  -33.5948  -26.5886 H   0  0  0  0  0
   21.8165  -34.2027  -27.1887 H   0  0  0  0  0
   21.6068  -33.8426  -25.4575 H   0  0  0  0  0
   20.2600  -33.7585  -30.5889 H   0  0  0  0  0
   19.9661  -31.6227  -32.6813 H   0  0  0  0  0
   19.7242  -34.3088  -33.7184 H   0  0  0  0  0
   21.4064  -33.8695  -33.1412 H   0  0  0  0  0
   21.6039  -32.1864  -34.6883 H   0  0  0  0  0
   19.8322  -32.1230  -34.9924 H   0  0  0  0  0
   19.8836  -34.1749  -36.1811 H   0  0  0  0  0
   21.5885  -34.4858  -35.6827 H   0  0  0  0  0
   22.3800  -32.7049  -37.0403 H   0  0  0  0  0
   20.6963  -32.1639  -37.3986 H   0  0  0  0  0
   21.6551  -33.3940  -39.2182 H   0  0  0  0  0
   21.9145  -34.7170  -38.2388 H   0  0  0  0  0
   20.3596  -34.2174  -38.5697 H   0  0  0  0  0
   17.8788  -31.0119  -32.3783 H   0  0  0  0  0
   15.6938  -32.8015  -32.6634 H   0  0  0  0  0
   15.6242  -31.1507  -31.9441 H   0  0  0  0  0
  2  1  1  0  0  0
  1 95  1  0  0  0
 97  1  1  0  0  0
  3  2  1  0  0  0
  2 97  1  0  0  0
  3  4  2  0  0  0
  5  3  1  0  0  0
  6  5  1  0  0  0
  7  6  1  0  0  0
  6  9  1  0  0  0
  7  8  2  0  0  0
 14  7  1  0  0  0
  9 10  1  0  0  0
 10 11  1  0  0  0
 11 12  2  0  0  0
 11 13  1  0  0  0
 15 14  1  0  0  0
 16 15  1  0  0  0
 15 18  1  0  0  0
 16 17  2  0  0  0
 25 16  1  0  0  0
 18 19  1  0  0  0
 19 20  4  0  0  0
 19 21  4  0  0  0
 20 22  4  0  0  0
 21 23  4  0  0  0
 22 24  4  0  0  0
 23 24  4  0  0  0
 26 25  1  0  0  0
 27 26  1  0  0  0
 26 29  1  0  0  0
 27 28  2  0  0  0
 33 27  1  0  0  0
 29 30  1  0  0  0
 30 31  1  0  0  0
 30 32  2  0  0  0
 34 33  1  0  0  0
 35 34  1  0  0  0
 34 37  1  0  0  0
 35 36  2  0  0  0
 41 35  1  0  0  0
 37 38  1  0  0  0
 38 39  1  0  0  0
 38 40  1  0  0  0
 42 41  1  0  0  0
 43 42  1  0  0  0
 42 45  1  0  0  0
 43 44  2  0  0  0
 47 43  1  0  0  0
 45 46  1  0  0  0
 48 47  1  0  0  0
 49 48  1  0  0  0
 48 51  1  0  0  0
 49 50  2  0  0  0
 54 49  1  0  0  0
 51 52  1  0  0  0
 51 53  1  0  0  0
 55 54  1  0  0  0
 56 55  1  0  0  0
 55 58  1  0  0  0
 56 57  2  0  0  0
 68 56  1  0  0  0
 58 59  1  0  0  0
 59 60  1  0  0  0
 60 61  1  0  0  0
 61 62  1  0  0  0
 62 63  2  0  0  0
 62 64  1  0  0  0
 65 66  2  0  0  0
 67 65  1  0  0  0
 65 76  1  0  0  0
 67 68  1  0  0  0
 67 69  1  0  0  0
 69 70  1  0  0  0
 70 71  1  0  0  0
 71 72  1  0  0  0
 72 73  1  0  0  0
 73 74  2  0  0  0
 73 75  1  0  0  0
 76 77  1  0  0  0
 77 78  1  0  0  0
 77 80  1  0  0  0
 78 79  2  0  0  0
 78 84  1  0  0  0
 80 81  1  0  0  0
 81 82  1  0  0  0
 81 83  1  0  0  0
 84 85  1  0  0  0
 85 86  1  0  0  0
 85 88  1  0  0  0
 86 87  2  0  0  0
 86 93  1  0  0  0
 88 89  1  0  0  0
 89 90  1  0  0  0
 90 91  1  0  0  0
 91 92  1  0  0  0
 93 94  1  0  0  0
 94 95  1  0  0  0
 95 96  2  0  0  0
  2 98  1  0  0  0
  5 99  1  0  0  0
  6100  1  0  0  0
  9101  1  0  0  0
  9102  1  0  0  0
 10103  1  0  0  0
 10104  1  0  0  0
 13105  1  0  0  0
 13106  1  0  0  0
 14107  1  0  0  0
 15108  1  0  0  0
 18109  1  0  0  0
 18110  1  0  0  0
 20111  1  0  0  0
 21112  1  0  0  0
 22113  1  0  0  0
 23114  1  0  0  0
 24115  1  0  0  0
 25116  1  0  0  0
 26117  1  0  0  0
 29118  1  0  0  0
 29119  1  0  0  0
 31120  1  0  0  0
 33121  1  0  0  0
 34122  1  0  0  0
 37123  1  0  0  0
 37124  1  0  0  0
 38125  1  0  0  0
 39126  1  0  0  0
 39127  1  0  0  0
 39128  1  0  0  0
 40129  1  0  0  0
 40130  1  0  0  0
 40131  1  0  0  0
 41132  1  0  0  0
 42133  1  0  0  0
 45134  1  0  0  0
 45135  1  0  0  0
 46136  1  0  0  0
 47137  1  0  0  0
 48138  1  0  0  0
 51139  1  0  0  0
 52140  1  0  0  0
 53141  1  0  0  0
 53142  1  0  0  0
 53143  1  0  0  0
 54144  1  0  0  0
 55145  1  0  0  0
 58146  1  0  0  0
 58147  1  0  0  0
 59148  1  0  0  0
 59149  1  0  0  0
 60150  1  0  0  0
 60151  1  0  0  0
 61152  1  0  0  0
 63153  1  0  0  0
 64154  1  0  0  0
 64155  1  0  0  0
 67156  1  0  0  0
 68157  1  0  0  0
 69158  1  0  0  0
 69159  1  0  0  0
 70160  1  0  0  0
 70161  1  0  0  0
 71162  1  0  0  0
 71163  1  0  0  0
 72164  1  0  0  0
 75165  1  0  0  0
 75166  1  0  0  0
 76167  1  0  0  0
 77168  1  0  0  0
 80169  1  0  0  0
 80170  1  0  0  0
 81171  1  0  0  0
 82172  1  0  0  0
 82173  1  0  0  0
 82174  1  0  0  0
 83175  1  0  0  0
 83176  1  0  0  0
 83177  1  0  0  0
 84178  1  0  0  0
 85179  1  0  0  0
 88180  1  0  0  0
 88181  1  0  0  0
 89182  1  0  0  0
 89183  1  0  0  0
 90184  1  0  0  0
 90185  1  0  0  0
 91186  1  0  0  0
 91187  1  0  0  0
 92188  1  0  0  0
 92189  1  0  0  0
 92190  1  0  0  0
 93191  1  0  0  0
 94192  1  0  0  0
 94193  1  0  0  0
M  END
$$$$
