3mrv_ligand
  -I-interpret- 

 43 44  0  0  0  0  0  0  0  0999 V2000
   19.1840   14.9040   55.8610 C   0  0  0  0  0
   18.7750   13.6190   55.2950 N   0  0  0  0  0
   18.2150   12.6870   57.7310 S   0  0  0  0  0
   20.5850   15.3640   55.3960 C   0  0  0  0  0
   17.9290   11.4760   55.3970 N   0  0  0  0  0
   21.6350   14.5900   56.0150 O   0  0  0  0  0
   20.7750   16.8640   55.7190 C   0  0  0  0  0
   17.9580   11.3500   54.1530 N   0  0  0  0  0
   22.0410   17.3970   55.2670 O   0  0  0  0  0
   19.6060   17.6990   55.1750 C   0  0  0  0  0
   19.7280   19.0430   55.6160 O   0  0  0  0  0
   18.2950   17.1360   55.7100 C   0  0  0  0  0
   18.1960   15.7690   55.3020 O   0  0  0  0  0
   17.0570   17.8790   55.2230 C   0  0  0  0  0
   15.9180   17.0130   55.3920 O   0  0  0  0  0
   18.3040   12.5990   56.0240 C   0  0  0  0  0
   18.3600   11.4260   48.8960 O   0  0  0  0  0
   17.5810   10.2610   53.6360 C   0  0  0  0  0
   17.5330   10.0030   52.1700 C   0  0  0  0  0
   18.0210   10.9040   51.2180 C   0  0  0  0  0
   17.8950   10.5850   49.8540 C   0  0  0  0  0
   17.2750    9.4030   49.4450 C   0  0  0  0  0
   16.7750    8.5160   50.3890 C   0  0  0  0  0
   16.8920    8.8340   51.7430 C   0  0  0  0  0
   19.2503   14.8789   56.9487 H   0  0  0  0  0
   18.8530   13.4922   54.2859 H   0  0  0  0  0
   20.6493   15.2072   54.3192 H   0  0  0  0  0
   21.5095   13.6607   55.8096 H   0  0  0  0  0
   20.7855   16.9361   56.8066 H   0  0  0  0  0
   22.7561   16.8612   55.6179 H   0  0  0  0  0
   19.6204   17.6630   54.0857 H   0  0  0  0  0
   18.9948   19.5590   55.2728 H   0  0  0  0  0
   18.3192   17.2481   56.7940 H   0  0  0  0  0
   17.1704   18.1491   54.1731 H   0  0  0  0  0
   16.9197   18.7956   55.7967 H   0  0  0  0  0
   15.1265   17.4646   55.0900 H   0  0  0  0  0
   18.1891   11.0485   48.0300 H   0  0  0  0  0
   16.5302   10.2123   53.9215 H   0  0  0  0  0
   18.3416    9.5588   53.9772 H   0  0  0  0  0
   18.4909   11.8374   51.5279 H   0  0  0  0  0
   17.1833    9.1760   48.3828 H   0  0  0  0  0
   16.2988    7.5863   50.0777 H   0  0  0  0  0
   16.4739    8.1553   52.4864 H   0  0  0  0  0
  2  1  1  0  0  0
  1  4  1  0  0  0
  1 13  1  0  0  0
 16  2  1  0  0  0
 16  3  2  0  0  0
  4  6  1  0  0  0
  4  7  1  0  0  0
  8  5  2  0  0  0
  5 16  1  0  0  0
  7  9  1  0  0  0
  7 10  1  0  0  0
 18  8  1  0  0  0
 10 11  1  0  0  0
 12 10  1  0  0  0
 13 12  1  0  0  0
 12 14  1  0  0  0
 14 15  1  0  0  0
 21 17  1  0  0  0
 19 18  1  0  0  0
 20 19  4  0  0  0
 19 24  4  0  0  0
 20 21  4  0  0  0
 21 22  4  0  0  0
 22 23  4  0  0  0
 23 24  4  0  0  0
  1 25  1  0  0  0
  2 26  1  0  0  0
  4 27  1  0  0  0
  6 28  1  0  0  0
  7 29  1  0  0  0
  9 30  1  0  0  0
 10 31  1  0  0  0
 11 32  1  0  0  0
 12 33  1  0  0  0
 14 34  1  0  0  0
 14 35  1  0  0  0
 15 36  1  0  0  0
 17 37  1  0  0  0
 18 38  1  0  0  0
 18 39  1  0  0  0
 20 40  1  0  0  0
 22 41  1  0  0  0
 23 42  1  0  0  0
 24 43  1  0  0  0
M  END
$$$$
