2ei6_ligand
  -I-interpret- 

 58 62  0  0  0  0  0  0  0  0999 V2000
   14.0770    7.7180   26.5680 Cl  0  0  0  0  0
   12.3270    7.8370   26.5040 C   0  0  0  0  0
   11.6240    7.5030   27.6670 C   0  0  0  0  0
   10.2400    7.5420   27.7080 C   0  0  0  0  0
    9.5830    7.9160   26.5340 C   0  0  0  0  0
    8.2360    8.0270   26.3520 N   0  0  0  0  0
   11.7000    8.2250   25.3240 C   0  0  0  0  0
   10.2930    8.2640   25.3350 C   0  0  0  0  0
    9.3760    8.5820   24.3380 C   0  0  0  0  0
    8.1160    8.4280   24.9900 C   0  0  0  0  0
    6.7270    8.7670   24.4790 C   0  0  0  0  0
    5.7740    8.6560   25.2400 O   0  0  0  0  0
    6.5760    9.1670   23.2220 N   0  0  0  0  0
    5.2150    9.1900   22.6150 C   0  0  0  0  0
    5.3070    9.8700   21.2070 C   0  0  0  0  0
    4.2090    9.4060   20.2050 C   0  0  0  0  0
    2.9310    8.9470   20.9560 C   0  0  0  0  0
    3.1650    7.7310   21.9360 C   0  0  0  0  0
    4.6070    7.7120   22.5180 C   0  0  0  0  0
    5.3980    6.7500   21.7000 N   0  0  0  0  0
    5.4950    5.4190   21.8810 C   0  0  0  0  0
    4.9370    4.8300   22.7780 O   0  0  0  0  0
    6.3900    4.6510   20.9340 C   0  0  0  0  0
    6.5400    2.9290   21.0340 S   0  0  0  0  0
    7.6460    3.0170   19.7250 C   0  0  0  0  0
    8.3200    1.7890   19.1180 C   0  0  0  0  0
    8.9010    2.0930   17.7690 N   0  3  0  0  0
    9.7450    1.0050   17.2170 C   0  0  0  0  0
    9.5740    3.4330   17.5840 C   0  0  0  0  0
    8.8020    4.6480   18.1630 C   0  0  0  0  0
    7.8530    4.3070   19.3040 C   0  0  0  0  0
    7.1460    5.2510   19.9800 N   0  0  0  0  0
   12.1766    7.2062   28.5584 H   0  0  0  0  0
    9.6892    7.2923   28.6148 H   0  0  0  0  0
   12.2713    8.4864   24.4333 H   0  0  0  0  0
    9.5727    8.8775   23.3074 H   0  0  0  0  0
    7.3867    9.4568   22.6750 H   0  0  0  0  0
    4.5384    9.7663   23.2460 H   0  0  0  0  0
    6.2713    9.5964   20.7787 H   0  0  0  0  0
    5.1753   10.9416   21.3568 H   0  0  0  0  0
    4.5952    8.5672   19.6260 H   0  0  0  0  0
    3.9519   10.2425   19.5551 H   0  0  0  0  0
    2.2123    8.6226   20.2035 H   0  0  0  0  0
    2.5905    9.7883   21.5596 H   0  0  0  0  0
    3.0149    6.8094   21.3737 H   0  0  0  0  0
    2.4660    7.8266   22.7668 H   0  0  0  0  0
    4.6270    7.3650   23.5511 H   0  0  0  0  0
    5.9229    7.1420   20.9182 H   0  0  0  0  0
    7.5715    1.0050   19.0034 H   0  0  0  0  0
    9.1275    1.4754   19.7796 H   0  0  0  0  0
    8.0460    2.1601   17.2169 H   0  0  0  0  0
   10.5794    0.8159   17.8924 H   0  0  0  0  0
    9.1469    0.0996   17.1140 H   0  0  0  0  0
   10.1267    1.3029   16.2404 H   0  0  0  0  0
    9.6532    3.5968   16.5093 H   0  0  0  0  0
   10.5226    3.3824   18.1185 H   0  0  0  0  0
    8.1954    5.0556   17.3543 H   0  0  0  0  0
    9.5456    5.3381   18.5617 H   0  0  0  0  0
  1  2  1  0  0  0
  2  3  4  0  0  0
  2  7  4  0  0  0
  3  4  4  0  0  0
  4  5  4  0  0  0
  5  6  4  0  0  0
  5  8  4  0  0  0
  6 10  4  0  0  0
  7  8  4  0  0  0
  8  9  4  0  0  0
  9 10  4  0  0  0
 10 11  1  0  0  0
 11 12  2  0  0  0
 11 13  1  0  0  0
 13 14  1  0  0  0
 14 15  1  0  0  0
 14 19  1  0  0  0
 15 16  1  0  0  0
 16 17  1  0  0  0
 17 18  1  0  0  0
 18 19  1  0  0  0
 19 20  1  0  0  0
 20 21  1  0  0  0
 21 22  2  0  0  0
 21 23  1  0  0  0
 23 24  4  0  0  0
 23 32  4  0  0  0
 24 25  4  0  0  0
 25 26  1  0  0  0
 25 31  4  0  0  0
 26 27  1  0  0  0
 27 28  1  0  0  0
 27 29  1  0  0  0
 29 30  1  0  0  0
 30 31  1  0  0  0
 31 32  4  0  0  0
  3 33  1  0  0  0
  4 34  1  0  0  0
  7 35  1  0  0  0
  9 36  1  0  0  0
 13 37  1  0  0  0
 14 38  1  0  0  0
 15 39  1  0  0  0
 15 40  1  0  0  0
 16 41  1  0  0  0
 16 42  1  0  0  0
 17 43  1  0  0  0
 17 44  1  0  0  0
 18 45  1  0  0  0
 18 46  1  0  0  0
 19 47  1  0  0  0
 20 48  1  0  0  0
 26 49  1  0  0  0
 26 50  1  0  0  0
 27 51  1  0  0  0
 28 52  1  0  0  0
 28 53  1  0  0  0
 28 54  1  0  0  0
 29 55  1  0  0  0
 29 56  1  0  0  0
 30 57  1  0  0  0
 30 58  1  0  0  0
M  END
$$$$
