3rxl_ligand
  -I-interpret- 

 21 21  0  0  0  0  0  0  0  0999 V2000
   -3.0610  -13.5410   19.0190 N   0  3  0  0  0
   -1.7990  -15.8270   15.4890 O   0  0  0  0  0
   -1.2030  -14.4140   13.4960 C   0  0  0  0  0
   -1.4650  -14.6050   14.9670 C   0  0  0  0  0
   -1.3840  -13.5520   15.8610 C   0  0  0  0  0
   -1.6880  -14.1050   17.0970 C   0  0  0  0  0
   -1.7460  -13.3980   18.4320 C   0  0  0  0  0
   -1.9430  -15.5490   16.8230 C   0  0  0  0  0
   -2.3130  -16.7250   17.6870 C   0  0  0  0  0
   -3.0849  -13.0596   19.9179 H   0  0  0  0  0
   -3.7569  -13.1329   18.3948 H   0  0  0  0  0
   -3.2648  -14.5309   19.1565 H   0  0  0  0  0
   -0.3698  -15.0473   13.1914 H   0  0  0  0  0
   -2.0942  -14.6872   12.9310 H   0  0  0  0  0
   -0.9561  -13.3697   13.3048 H   0  0  0  0  0
   -1.1354  -12.5136   15.6420 H   0  0  0  0  0
   -1.0075  -13.8397   19.1011 H   0  0  0  0  0
   -1.5358  -12.3388   18.2833 H   0  0  0  0  0
   -3.2648  -17.1361   17.3507 H   0  0  0  0  0
   -1.5387  -17.4884   17.6104 H   0  0  0  0  0
   -2.4024  -16.3990   18.7233 H   0  0  0  0  0
  7  1  1  0  0  0
  4  2  4  0  0  0
  2  8  4  0  0  0
  4  3  1  0  0  0
  5  4  4  0  0  0
  6  5  4  0  0  0
  6  7  1  0  0  0
  6  8  4  0  0  0
  8  9  1  0  0  0
  1 10  1  0  0  0
  1 11  1  0  0  0
  1 12  1  0  0  0
  3 13  1  0  0  0
  3 14  1  0  0  0
  3 15  1  0  0  0
  5 16  1  0  0  0
  7 17  1  0  0  0
  7 18  1  0  0  0
  9 19  1  0  0  0
  9 20  1  0  0  0
  9 21  1  0  0  0
M  END
$$$$
