3i5z_ligand
  -I-interpret- 

 53 56  0  0  0  0  0  0  0  0999 V2000
    7.6000   -0.5660   47.8710 C   0  0  0  0  0
    6.4970   -0.9340   46.9140 C   0  0  0  0  0
    5.2170   -0.4830   47.1830 C   0  0  0  0  0
    4.2290   -0.7780   46.3510 N   0  0  0  0  0
    4.4240   -1.5120   45.2620 C   0  0  0  0  0
    3.3250   -1.7810   44.4450 N   0  0  0  0  0
    3.2600   -2.6250   43.3230 C   0  0  0  0  0
    4.3020   -2.7290   42.3980 C   0  0  0  0  0
    4.1910   -3.5720   41.3000 C   0  0  0  0  0
    3.0250   -4.3150   41.1270 C   0  0  0  0  0
    1.9810   -4.2200   42.0400 C   0  0  0  0  0
    2.1010   -3.3730   43.1300 C   0  0  0  0  0
    5.6330   -1.9500   44.9650 N   0  0  0  0  0
    6.6930   -1.7050   45.7420 C   0  0  0  0  0
    8.0090   -2.2350   45.2820 C   0  0  0  0  0
    8.2430   -2.6300   43.9890 C   0  0  0  0  0
    9.5180   -3.0280   43.8690 N   0  0  0  0  0
   10.1390   -2.9050   45.0850 C   0  0  0  0  0
    9.2320   -2.4000   45.9790 C   0  0  0  0  0
   11.5590   -3.2390   45.2780 C   0  0  0  0  0
   12.2200   -2.6840   46.1480 O   0  0  0  0  0
   12.0930   -4.1480   44.4260 N   0  0  0  0  0
   13.5080   -4.5580   44.4270 C   0  0  0  0  0
   13.8610   -4.9560   42.9810 C   0  0  0  0  0
   13.4680   -3.9030   42.0760 O   0  0  0  0  0
   13.8150   -5.6820   45.3890 C   0  0  0  0  0
   12.8010   -6.4900   45.9010 C   0  0  0  0  0
   13.1140   -7.5170   46.7740 C   0  0  0  0  0
   14.4320   -7.7380   47.1450 C   0  0  0  0  0
   15.4390   -6.9350   46.6380 C   0  0  0  0  0
   15.1350   -5.9040   45.7600 C   0  0  0  0  0
    7.6893    0.5192   47.9205 H   0  0  0  0  0
    7.3664   -0.9582   48.8608 H   0  0  0  0  0
    8.5399   -0.9936   47.5219 H   0  0  0  0  0
    5.0223    0.1122   48.0752 H   0  0  0  0  0
    2.4583   -1.3042   44.6939 H   0  0  0  0  0
    5.2102   -2.1432   42.5395 H   0  0  0  0  0
    5.0069   -3.6515   40.5816 H   0  0  0  0  0
    2.9305   -4.9777   40.2668 H   0  0  0  0  0
    1.0740   -4.8079   41.8993 H   0  0  0  0  0
    1.2807   -3.2913   43.8431 H   0  0  0  0  0
    7.5073   -2.6216   43.1848 H   0  0  0  0  0
    9.4162   -2.1688   47.0282 H   0  0  0  0  0
   11.4737   -4.5768   43.7382 H   0  0  0  0  0
   14.1167   -3.7237   44.7756 H   0  0  0  0  0
   13.3323   -5.8726   42.7196 H   0  0  0  0  0
   14.9363   -5.1163   42.9030 H   0  0  0  0  0
   13.6900   -4.1559   41.1769 H   0  0  0  0  0
   11.7643   -6.3133   45.6144 H   0  0  0  0  0
   12.3232   -8.1535   47.1709 H   0  0  0  0  0
   14.6751   -8.5448   47.8365 H   0  0  0  0  0
   16.4742   -7.1130   46.9293 H   0  0  0  0  0
   15.9288   -5.2711   45.3632 H   0  0  0  0  0
  1  2  1  0  0  0
  2  3  4  0  0  0
  2 14  4  0  0  0
  3  4  4  0  0  0
  4  5  4  0  0  0
  5  6  1  0  0  0
  5 13  4  0  0  0
  6  7  1  0  0  0
  7  8  4  0  0  0
  7 12  4  0  0  0
  8  9  4  0  0  0
  9 10  4  0  0  0
 10 11  4  0  0  0
 11 12  4  0  0  0
 13 14  4  0  0  0
 14 15  1  0  0  0
 15 16  4  0  0  0
 15 19  4  0  0  0
 16 17  4  0  0  0
 17 18  4  0  0  0
 18 19  4  0  0  0
 18 20  1  0  0  0
 20 21  2  0  0  0
 20 22  1  0  0  0
 22 23  1  0  0  0
 23 24  1  0  0  0
 23 26  1  0  0  0
 24 25  1  0  0  0
 26 27  4  0  0  0
 26 31  4  0  0  0
 27 28  4  0  0  0
 28 29  4  0  0  0
 29 30  4  0  0  0
 30 31  4  0  0  0
  1 32  1  0  0  0
  1 33  1  0  0  0
  1 34  1  0  0  0
  3 35  1  0  0  0
  6 36  1  0  0  0
  8 37  1  0  0  0
  9 38  1  0  0  0
 10 39  1  0  0  0
 11 40  1  0  0  0
 12 41  1  0  0  0
 16 42  1  0  0  0
 19 43  1  0  0  0
 22 44  1  0  0  0
 23 45  1  0  0  0
 24 46  1  0  0  0
 24 47  1  0  0  0
 25 48  1  0  0  0
 27 49  1  0  0  0
 28 50  1  0  0  0
 29 51  1  0  0  0
 30 52  1  0  0  0
 31 53  1  0  0  0
M  END
$$$$
