4yrg_ligand
  -I-interpret- 

 15 15  0  0  0  0  0  0  0  0999 V2000
   65.5660    8.5220   18.8420 C   0  0  0  0  0
   66.2400    8.8680   20.0040 C   0  0  0  0  0
   65.5270    8.9350   21.1890 C   0  0  0  0  0
   64.1670    8.6730   21.1960 C   0  0  0  0  0
   63.6000    8.3310   19.9840 C   0  0  0  0  0
   61.7410    7.9110   19.9330 Br  0  0  0  0  0
   64.2440    8.2500   18.8270 N   0  0  0  0  0
   66.2550    8.4050   17.5070 C   0  0  0  0  0
   67.5420    7.8180   17.6140 O   0  0  0  0  0
   67.3085    9.0826   19.9846 H   0  0  0  0  0
   66.0364    9.1941   22.1171 H   0  0  0  0  0
   63.5756    8.7335   22.1096 H   0  0  0  0  0
   66.3744    9.4088   17.0993 H   0  0  0  0  0
   65.6451    7.7676   16.8668 H   0  0  0  0  0
   67.9413    7.7640   16.7427 H   0  0  0  0  0
  1  2  4  0  0  0
  1  7  4  0  0  0
  1  8  1  0  0  0
  2  3  4  0  0  0
  3  4  4  0  0  0
  4  5  4  0  0  0
  5  6  1  0  0  0
  5  7  4  0  0  0
  8  9  1  0  0  0
  2 10  1  0  0  0
  3 11  1  0  0  0
  4 12  1  0  0  0
  8 13  1  0  0  0
  8 14  1  0  0  0
  9 15  1  0  0  0
M  END
$$$$
