### 
### Created by X-TOOL on Wed Jan  1 15:39:36 2020
### 

@<TRIPOS>MOLECULE
5osy_ligand
   80    85     1     0     0
SMALL
GAST_HUCK


@<TRIPOS>ATOM
      1 C1        -25.9000    5.6260   -0.5280 C.2       1 AJQ         0.2331
      2 C2        -27.0780    5.0400   -0.1180 C.2       1 AJQ         0.1910
      3 C3        -27.9790    5.7310    0.6870 C.2       1 AJQ         0.3089
      4 C4        -26.0130    3.6150   -1.3250 C.2       1 AJQ         0.1422
      5 C5        -26.4990    7.5660    0.6390 C.2       1 AJQ         0.3134
      6 O1        -15.2830   -4.9960   -1.1990 O.2       1 AJQ        -0.4091
      7 C6        -15.5190   -3.9340   -0.5830 C.2       1 AJQ         0.2135
      8 N1        -14.5830   -3.3900    0.2020 N.am      1 AJQ        -0.1839
      9 C7        -14.8180   -2.2530    0.8700 C.2       1 AJQ         0.2340
     10 N2        -13.8490   -1.7270    1.6570 N.pl3     1 AJQ        -0.2807
     11 N3        -16.0100   -1.6210    0.7700 N.2       1 AJQ        -0.2765
     12 C8        -16.9860   -2.1360   -0.0140 C.2       1 AJQ         0.1159
     13 C9        -16.7530   -3.3100   -0.7080 C.2       1 AJQ         0.0926
     14 N4        -17.8720   -3.6000   -1.4010 N.2       1 AJQ        -0.3235
     15 C10       -18.7750   -2.6260   -1.1410 C.2       1 AJQ         0.0957
     16 N5        -18.2300   -1.7390   -0.2960 N.pl3     1 AJQ        -0.2101
     17 C11       -18.8880   -0.5200    0.2360 C.3       1 AJQ         0.1991
     18 O2        -19.9550   -0.8520    1.1290 O.3       1 AJQ        -0.3381
     19 C12       -19.5060    0.2740   -0.9000 C.3       1 AJQ         0.1386
     20 O3        -18.6120    1.3070   -1.3250 O.3       1 AJQ        -0.3836
     21 C13       -20.7660    0.8620   -0.3020 C.3       1 AJQ         0.1133
     22 O4        -20.5120    2.2000    0.1360 O.3       1 AJQ        -0.3864
     23 C14       -21.0960   -0.0220    0.8920 C.3       1 AJQ         0.1011
     24 C15       -22.3050   -0.9170    0.6370 C.3       1 AJQ         0.0425
     25 S1        -23.7600    0.0400    0.3610 S.3       1 AJQ        -0.0250
     26 P1        -24.4280   -0.2600   -1.5540 P.3       1 AJQ         0.2344
     27 O5        -25.6720    0.5560   -1.8120 O.co2     1 AJQ        -0.6058
     28 O6        -24.7190   -1.7220   -1.7900 O.co2     1 AJQ        -0.6058
     29 O7        -23.2890    0.2160   -2.5830 O.3       1 AJQ        -0.1128
     30 P2        -22.3010   -0.8330   -3.2950 P.3       1 AJQ         0.4031
     31 S2        -23.3010   -1.8740   -4.7780 S.3       1 AJQ         0.0041
     32 O8        -21.8320   -1.8330   -2.3100 O.2       1 AJQ        -0.5142
     33 O9        -21.0290   -0.0160   -3.8590 O.3       1 AJQ        -0.1128
     34 P3        -20.9990    1.0450   -5.0790 P.3       1 AJQ         0.2344
     35 O10       -20.4470    0.2990   -6.2680 O.co2     1 AJQ        -0.6058
     36 O11       -20.0240    2.1370   -4.7090 O.co2     1 AJQ        -0.6058
     37 S3        -22.8150    1.9100   -5.6350 S.3       1 AJQ        -0.0250
     38 C16       -23.7110    2.7030   -4.3380 C.3       1 AJQ         0.0425
     39 C17       -23.0650    4.0120   -3.9100 C.3       1 AJQ         0.1011
     40 O12       -24.0720    4.8660   -3.3540 O.3       1 AJQ        -0.3373
     41 C18       -22.0850    3.7540   -2.7860 C.3       1 AJQ         0.1133
     42 O13       -21.1160    4.8030   -2.7650 O.3       1 AJQ        -0.3864
     43 C19       -22.9600    3.8320   -1.5570 C.3       1 AJQ         0.1396
     44 O14       -22.1910    4.1860   -0.4050 O.3       1 AJQ        -0.3835
     45 C20       -23.9420    4.9310   -1.9280 C.3       1 AJQ         0.2100
     46 N6        -25.2580    4.7240   -1.2720 N.pl3     1 AJQ        -0.1529
     47 N7        -27.1380    3.7970   -0.6150 N.2       1 AJQ        -0.3076
     48 C21       -28.2100    2.7810   -0.4480 C.3       1 AJQ        -0.0039
     49 N8        -25.6230    6.8930   -0.1410 N.2       1 AJQ        -0.1481
     50 N9        -26.2110    8.8340    1.0210 N.pl3     1 AJQ        -0.2552
     51 N10       -27.6580    6.9930    1.0460 N.am      1 AJQ        -0.1404
     52 O15       -29.1550    5.1940    1.1170 O.2       1 AJQ        -0.3308
     53 H1        -25.7522    2.7048   -1.8629 H         1 AJQ         0.1610
     54 H2        -13.6939   -3.8389    0.2917 H         1 AJQ         0.2515
     55 H3        -14.0230   -0.8530    2.1735 H         1 AJQ         0.1897
     56 H4        -12.9383   -2.2011    1.7389 H         1 AJQ         0.1897
     57 H5        -19.7820   -2.5715   -1.5519 H         1 AJQ         0.1179
     58 H6        -18.1403    0.0926    0.7610 H         1 AJQ         0.0998
     59 H7        -19.7462   -0.3798   -1.7514 H         1 AJQ         0.0676
     60 H8        -18.4357    1.8911   -0.5968 H         1 AJQ         0.2101
     61 H9        -21.5878    0.8552   -1.0331 H         1 AJQ         0.0647
     62 H10       -20.2380    2.7279   -0.6048 H         1 AJQ         0.2100
     63 H11       -21.2947    0.6096    1.7704 H         1 AJQ         0.0632
     64 H12       -22.4625   -1.5651    1.5117 H         1 AJQ         0.0418
     65 H13       -22.1108   -1.5384   -0.2496 H         1 AJQ         0.0418
     66 H14       -23.6449   -1.2254   -5.4687 H         1 AJQ         0.1321
     67 H15       -23.7510    2.0276   -3.4707 H         1 AJQ         0.0418
     68 H16       -24.7328    2.9104   -4.6887 H         1 AJQ         0.0418
     69 H17       -22.5664    4.4904   -4.7659 H         1 AJQ         0.0632
     70 H18       -21.5947    2.7738   -2.8797 H         1 AJQ         0.0647
     71 H19       -20.4973    4.6470   -2.0611 H         1 AJQ         0.2100
     72 H20       -23.4789    2.8795   -1.3742 H         1 AJQ         0.0677
     73 H21       -21.5187    3.5305   -0.2608 H         1 AJQ         0.2101
     74 H22       -23.5419    5.9107   -1.6279 H         1 AJQ         0.1009
     75 H23       -29.0126    3.1947    0.1802 H         1 AJQ         0.0360
     76 H24       -27.7933    1.8840    0.0333 H         1 AJQ         0.0360
     77 H25       -28.6175    2.5125   -1.4338 H         1 AJQ         0.0360
     78 H26       -25.3324    9.2767    0.7161 H         1 AJQ         0.2040
     79 H27       -26.8707    9.3549    1.6163 H         1 AJQ         0.2040
     80 H28       -28.2871    7.5142    1.6227 H         1 AJQ         0.2760
@<TRIPOS>BOND
     1    1    2 2  
     2   46    1 1  
     3    1   49 1  
     4    2    3 1  
     5   47    2 1  
     6    3   51 am 
     7    3   52 2  
     8   46    4 1  
     9    4   47 2  
    10   49    5 2  
    11    5   50 1  
    12    5   51 am 
    13    7    6 2  
    14    7    8 am 
    15   13    7 1  
    16    9    8 am 
    17    9   10 1  
    18   11    9 2  
    19   12   11 1  
    20   12   13 2  
    21   16   12 1  
    22   14   13 1  
    23   15   14 2  
    24   16   15 1  
    25   17   16 1  
    26   18   17 1  
    27   19   17 1  
    28   23   18 1  
    29   19   20 1  
    30   21   19 1  
    31   21   22 1  
    32   23   21 1  
    33   24   23 1  
    34   25   24 1  
    35   26   25 1  
    36   26   27 ar 
    37   26   28 ar 
    38   29   26 1  
    39   30   29 1  
    40   30   31 1  
    41   30   32 2  
    42   33   30 1  
    43   34   33 1  
    44   34   35 ar 
    45   34   36 ar 
    46   37   34 1  
    47   38   37 1  
    48   39   38 1  
    49   40   39 1  
    50   41   39 1  
    51   45   40 1  
    52   41   42 1  
    53   43   41 1  
    54   43   44 1  
    55   45   43 1  
    56   45   46 1  
    57   47   48 1  
    58    4   53 1  
    59    8   54 1  
    60   10   55 1  
    61   10   56 1  
    62   15   57 1  
    63   17   58 1  
    64   19   59 1  
    65   20   60 1  
    66   21   61 1  
    67   22   62 1  
    68   23   63 1  
    69   24   64 1  
    70   24   65 1  
    71   31   66 1  
    72   38   67 1  
    73   38   68 1  
    74   39   69 1  
    75   41   70 1  
    76   42   71 1  
    77   43   72 1  
    78   44   73 1  
    79   45   74 1  
    80   48   75 1  
    81   48   76 1  
    82   48   77 1  
    83   50   78 1  
    84   50   79 1  
    85   51   80 1  
@<TRIPOS>SUBSTRUCTURE
     1 AJQ         1

