5osy_ligand
  -I-interpret- 

 82 87  0  0  0  0  0  0  0  0999 V2000
  -25.9000    5.6260   -0.5280 C   0  0  0  0  0
  -27.0780    5.0400   -0.1180 C   0  0  0  0  0
  -27.9790    5.7310    0.6870 C   0  0  0  0  0
  -26.0130    3.6150   -1.3250 C   0  0  0  0  0
  -26.4990    7.5660    0.6390 C   0  0  0  0  0
  -15.2830   -4.9960   -1.1990 O   0  0  0  0  0
  -15.5190   -3.9340   -0.5830 C   0  0  0  0  0
  -14.5830   -3.3900    0.2020 N   0  0  0  0  0
  -14.8180   -2.2530    0.8700 C   0  0  0  0  0
  -13.8490   -1.7270    1.6570 N   0  0  0  0  0
  -16.0100   -1.6210    0.7700 N   0  0  0  0  0
  -16.9860   -2.1360   -0.0140 C   0  0  0  0  0
  -16.7530   -3.3100   -0.7080 C   0  0  0  0  0
  -17.8720   -3.6000   -1.4010 N   0  0  0  0  0
  -18.7750   -2.6260   -1.1410 C   0  0  0  0  0
  -18.2300   -1.7390   -0.2960 N   0  0  0  0  0
  -18.8880   -0.5200    0.2360 C   0  0  0  0  0
  -19.9550   -0.8520    1.1290 O   0  0  0  0  0
  -19.5060    0.2740   -0.9000 C   0  0  0  0  0
  -18.6120    1.3070   -1.3250 O   0  0  0  0  0
  -20.7660    0.8620   -0.3020 C   0  0  0  0  0
  -20.5120    2.2000    0.1360 O   0  0  0  0  0
  -21.0960   -0.0220    0.8920 C   0  0  0  0  0
  -22.3050   -0.9170    0.6370 C   0  0  0  0  0
  -23.7600    0.0400    0.3610 S   0  0  0  0  0
  -24.4280   -0.2600   -1.5540 P   0  0  0  0  0
  -25.6720    0.5560   -1.8120 O   0  0  0  0  0
  -24.7190   -1.7220   -1.7900 O   0  0  0  0  0
  -23.2890    0.2160   -2.5830 O   0  0  0  0  0
  -22.3010   -0.8330   -3.2950 P   0  0  0  0  0
  -23.3010   -1.8740   -4.7780 S   0  0  0  0  0
  -21.8320   -1.8330   -2.3100 O   0  0  0  0  0
  -21.0290   -0.0160   -3.8590 O   0  0  0  0  0
  -20.9990    1.0450   -5.0790 P   0  0  0  0  0
  -20.4470    0.2990   -6.2680 O   0  0  0  0  0
  -20.0240    2.1370   -4.7090 O   0  0  0  0  0
  -22.8150    1.9100   -5.6350 S   0  0  0  0  0
  -23.7110    2.7030   -4.3380 C   0  0  0  0  0
  -23.0650    4.0120   -3.9100 C   0  0  0  0  0
  -24.0720    4.8660   -3.3540 O   0  0  0  0  0
  -22.0850    3.7540   -2.7860 C   0  0  0  0  0
  -21.1160    4.8030   -2.7650 O   0  0  0  0  0
  -22.9600    3.8320   -1.5570 C   0  0  0  0  0
  -22.1910    4.1860   -0.4050 O   0  0  0  0  0
  -23.9420    4.9310   -1.9280 C   0  0  0  0  0
  -25.2580    4.7240   -1.2720 N   0  0  0  0  0
  -27.1380    3.7970   -0.6150 N   0  3  0  0  0
  -28.2100    2.7810   -0.4480 C   0  0  0  0  0
  -25.6230    6.8930   -0.1410 N   0  0  0  0  0
  -26.2110    8.8340    1.0210 N   0  0  0  0  0
  -27.6580    6.9930    1.0460 N   0  0  0  0  0
  -29.1550    5.1940    1.1170 O   0  0  0  0  0
  -25.7519    2.7039   -1.8634 H   0  0  0  0  0
  -13.6762   -3.8479    0.2935 H   0  0  0  0  0
  -14.0211   -0.8613    2.1682 H   0  0  0  0  0
  -12.9472   -2.1966    1.7384 H   0  0  0  0  0
  -19.7830   -2.5714   -1.5523 H   0  0  0  0  0
  -18.1213    0.0529    0.7576 H   0  0  0  0  0
  -19.7133   -0.3359   -1.7793 H   0  0  0  0  0
  -19.0142    1.8013   -2.0430 H   0  0  0  0  0
  -21.5850    0.8972   -1.0204 H   0  0  0  0  0
  -21.3133    2.5692    0.5145 H   0  0  0  0  0
  -21.3366    0.6133    1.7444 H   0  0  0  0  0
  -22.4632   -1.5459    1.5131 H   0  0  0  0  0
  -22.1111   -1.5191   -0.2507 H   0  0  0  0  0
  -25.4814    1.4846   -1.6605 H   0  0  0  0  0
  -23.7461   -1.0191   -5.6945 H   0  0  0  0  0
  -20.3610    2.6224   -3.9524 H   0  0  0  0  0
  -23.7247    2.0343   -3.4773 H   0  0  0  0  0
  -24.7137    2.9235   -4.7042 H   0  0  0  0  0
  -22.5752    4.4558   -4.7768 H   0  0  0  0  0
  -21.5446    2.8112   -2.8703 H   0  0  0  0  0
  -20.4908    4.6454   -2.0538 H   0  0  0  0  0
  -23.4429    2.8896   -1.2988 H   0  0  0  0  0
  -22.7669    4.2294    0.3618 H   0  0  0  0  0
  -23.5866    5.9065   -1.5960 H   0  0  0  0  0
  -28.3303    2.5523    0.6109 H   0  0  0  0  0
  -29.1461    3.1738   -0.8449 H   0  0  0  0  0
  -27.9369    1.8744   -0.9880 H   0  0  0  0  0
  -25.3403    9.2719    0.7202 H   0  0  0  0  0
  -26.8650    9.3504    1.6093 H   0  0  0  0  0
  -28.2997    7.5246    1.6343 H   0  0  0  0  0
  1  2  4  0  0  0
 46  1  4  0  0  0
  1 49  1  0  0  0
  2  3  1  0  0  0
 47  2  4  0  0  0
  3 51  1  0  0  0
  3 52  2  0  0  0
 46  4  4  0  0  0
  4 47  4  0  0  0
 49  5  2  0  0  0
  5 50  1  0  0  0
  5 51  1  0  0  0
  7  6  2  0  0  0
  7  8  1  0  0  0
 13  7  1  0  0  0
  9  8  1  0  0  0
  9 10  1  0  0  0
 11  9  2  0  0  0
 12 11  1  0  0  0
 12 13  4  0  0  0
 16 12  4  0  0  0
 14 13  4  0  0  0
 15 14  4  0  0  0
 16 15  4  0  0  0
 17 16  1  0  0  0
 18 17  1  0  0  0
 19 17  1  0  0  0
 23 18  1  0  0  0
 19 20  1  0  0  0
 21 19  1  0  0  0
 21 22  1  0  0  0
 23 21  1  0  0  0
 24 23  1  0  0  0
 25 24  1  0  0  0
 26 25  1  0  0  0
 26 27  1  0  0  0
 26 28  2  0  0  0
 29 26  1  0  0  0
 30 29  1  0  0  0
 30 31  1  0  0  0
 30 32  2  0  0  0
 33 30  1  0  0  0
 34 33  1  0  0  0
 34 35  2  0  0  0
 34 36  1  0  0  0
 37 34  1  0  0  0
 38 37  1  0  0  0
 39 38  1  0  0  0
 40 39  1  0  0  0
 41 39  1  0  0  0
 45 40  1  0  0  0
 41 42  1  0  0  0
 43 41  1  0  0  0
 43 44  1  0  0  0
 45 43  1  0  0  0
 45 46  1  0  0  0
 47 48  1  0  0  0
  4 53  1  0  0  0
  8 54  1  0  0  0
 10 55  1  0  0  0
 10 56  1  0  0  0
 15 57  1  0  0  0
 17 58  1  0  0  0
 19 59  1  0  0  0
 20 60  1  0  0  0
 21 61  1  0  0  0
 22 62  1  0  0  0
 23 63  1  0  0  0
 24 64  1  0  0  0
 24 65  1  0  0  0
 27 66  1  0  0  0
 31 67  1  0  0  0
 36 68  1  0  0  0
 38 69  1  0  0  0
 38 70  1  0  0  0
 39 71  1  0  0  0
 41 72  1  0  0  0
 42 73  1  0  0  0
 43 74  1  0  0  0
 44 75  1  0  0  0
 45 76  1  0  0  0
 48 77  1  0  0  0
 48 78  1  0  0  0
 48 79  1  0  0  0
 50 80  1  0  0  0
 50 81  1  0  0  0
 51 82  1  0  0  0
M  END
$$$$
