3bjc_ligand
  -I-interpret- 

 45 47  0  0  0  0  0  0  0  0999 V2000
   43.6480   10.7090   50.4750 C   0  0  0  0  0
   43.8720   12.0090   49.6990 C   0  0  0  0  0
   42.6780   12.9520   49.8560 C   0  0  0  0  0
   43.1360   14.4090   49.9560 C   0  0  0  0  0
   43.6790   15.1740   48.9320 C   0  0  0  0  0
   43.9690   14.9360   47.6450 N   0  0  0  0  0
   43.0740   15.1880   51.0340 N   0  0  0  0  0
   43.5060   16.3120   50.7730 N   0  0  0  0  0
   43.5380   17.4270   51.7460 C   0  0  0  0  0
   43.9090   16.4160   49.5090 C   0  0  0  0  0
   44.4550   17.4350   48.7400 C   0  0  0  0  0
   44.6600   18.5520   49.2130 O   0  0  0  0  0
   44.7540   17.1670   47.3990 N   0  0  0  0  0
   44.4950   15.8960   46.8710 C   0  0  0  0  0
   44.7640   15.6430   45.5300 C   0  0  0  0  0
   43.9400   15.0500   44.6610 C   0  0  0  0  0
   44.3960   14.9670   43.4120 C   0  0  0  0  0
   43.5100   14.3180   42.0510 S   0  0  0  0  0
   42.0470   14.2860   42.3800 O   0  0  0  0  0
   43.9960   12.9290   41.7640 O   0  0  0  0  0
   43.7590   15.2740   40.7560 N   0  0  0  0  0
   45.9560   15.6630   43.3050 S   0  0  0  0  0
   45.9660   16.0660   44.9700 C   0  0  0  0  0
   46.9700   16.6990   45.6350 O   0  0  0  0  0
   47.8670   17.3150   44.6980 C   0  0  0  0  0
   49.1340   17.7480   45.4380 C   0  0  0  0  0
   43.5177   10.9367   51.5330 H   0  0  0  0  0
   42.7554   10.2107   50.0967 H   0  0  0  0  0
   44.5119   10.0570   50.3461 H   0  0  0  0  0
   43.9928   11.7698   48.6425 H   0  0  0  0  0
   44.7616   12.5020   50.0910 H   0  0  0  0  0
   42.1448   12.6905   50.7700 H   0  0  0  0  0
   42.0341   12.8479   48.9827 H   0  0  0  0  0
   42.5235   17.6462   52.0790 H   0  0  0  0  0
   44.1495   17.1428   52.6024 H   0  0  0  0  0
   43.9645   18.3103   51.2706 H   0  0  0  0  0
   45.1587   17.8941   46.8091 H   0  0  0  0  0
   42.9643   14.6619   44.9533 H   0  0  0  0  0
   42.9703   15.7383   40.3057 H   0  0  0  0  0
   44.7036   15.4084   40.3954 H   0  0  0  0  0
   47.3887   18.1839   44.2460 H   0  0  0  0  0
   48.1235   16.6052   43.9116 H   0  0  0  0  0
   48.8709   18.4599   46.2204 H   0  0  0  0  0
   49.6089   16.8744   45.8846 H   0  0  0  0  0
   49.8217   18.2172   44.7344 H   0  0  0  0  0
  1  2  1  0  0  0
  2  3  1  0  0  0
  3  4  1  0  0  0
  4  5  4  0  0  0
  4  7  4  0  0  0
  5  6  1  0  0  0
  5 10  4  0  0  0
  6 14  2  0  0  0
  7  8  4  0  0  0
  8  9  1  0  0  0
  8 10  4  0  0  0
 10 11  1  0  0  0
 11 12  2  0  0  0
 11 13  1  0  0  0
 13 14  1  0  0  0
 14 15  1  0  0  0
 15 16  4  0  0  0
 15 23  4  0  0  0
 16 17  4  0  0  0
 17 18  1  0  0  0
 17 22  4  0  0  0
 18 19  2  0  0  0
 18 20  2  0  0  0
 18 21  1  0  0  0
 22 23  4  0  0  0
 23 24  1  0  0  0
 24 25  1  0  0  0
 25 26  1  0  0  0
  1 27  1  0  0  0
  1 28  1  0  0  0
  1 29  1  0  0  0
  2 30  1  0  0  0
  2 31  1  0  0  0
  3 32  1  0  0  0
  3 33  1  0  0  0
  9 34  1  0  0  0
  9 35  1  0  0  0
  9 36  1  0  0  0
 13 37  1  0  0  0
 16 38  1  0  0  0
 21 39  1  0  0  0
 21 40  1  0  0  0
 25 41  1  0  0  0
 25 42  1  0  0  0
 26 43  1  0  0  0
 26 44  1  0  0  0
 26 45  1  0  0  0
M  END
$$$$
