### 
### Created by X-TOOL on Mon Sep 10 21:12:58 2018
### 

@<TRIPOS>MOLECULE
3bl2_ligand
  318   318     1     0     0
SMALL
GAST_HUCK


@<TRIPOS>ATOM
      1 N         -12.2890    3.4400   29.9030 N.4       1 THR         0.2398
      2 CA        -12.2940    4.6110   28.9790 C.3       1 THR         0.0910
      3 C         -11.1740    4.4800   27.9560 C.2       1 THR         0.2293
      4 O         -10.1500    3.8440   28.2120 O.2       1 THR        -0.3906
      5 CB        -12.0890    5.9480   29.7430 C.3       1 THR         0.1120
      6 OG1       -13.0970    6.0890   30.7500 O.3       1 THR        -0.3840
      7 CG2       -12.1790    7.1360   28.7860 C.3       1 THR        -0.0314
      8 N         -11.3870    5.0840   26.7930 N.am      1 MET        -0.2609
      9 CA        -10.4010    5.0700   25.7220 C.3       1 MET         0.1318
     10 C          -9.2370    5.9540   26.1480 C.2       1 MET         0.2039
     11 O          -8.1040    5.7900   25.6970 O.2       1 MET        -0.3944
     12 CB        -11.0450    5.5840   24.4220 C.3       1 MET        -0.0034
     13 CG        -10.0970    6.2350   23.4150 C.3       1 MET        -0.0024
     14 SD         -9.6610    7.9430   23.8560 S.3       1 MET        -0.1639
     15 CE        -11.1500    8.8100   23.3430 C.3       1 MET        -0.0181
     16 N          -9.5340    6.8850   27.0430 N.am      1 GLU        -0.2636
     17 CA         -8.5400    7.8140   27.5480 C.3       1 GLU         0.1325
     18 C          -7.5520    7.1280   28.4800 C.2       1 GLU         0.2041
     19 O          -6.3730    7.4700   28.5040 O.2       1 GLU        -0.3944
     20 CB         -9.2470    8.9630   28.2560 C.3       1 GLU        -0.0008
     21 CG        -10.1890    9.6990   27.3220 C.3       1 GLU         0.0044
     22 CD        -10.9270   10.8290   27.9960 C.2       1 GLU         0.0350
     23 OE1       -11.5680   11.6200   27.2670 O.co2     1 GLU        -0.5690
     24 OE2       -10.8710   10.9200   29.2450 O.co2     1 GLU        -0.5690
     25 N          -8.0320    6.1600   29.2490 N.am      1 ASN        -0.2616
     26 CA         -7.1540    5.4300   30.1480 C.3       1 ASN         0.1476
     27 C          -6.2250    4.5500   29.3220 C.2       1 ASN         0.2063
     28 O          -5.0160    4.5100   29.5610 O.2       1 ASN        -0.3942
     29 CB         -7.9710    4.5710   31.1090 C.3       1 ASN         0.0773
     30 CG         -8.7060    5.3980   32.1390 C.2       1 ASN         0.1780
     31 OD1        -8.0910    6.1450   32.9060 O.2       1 ASN        -0.3970
     32 ND2       -10.0290    5.2710   32.1680 N.am      1 ASN        -0.3007
     33 N          -6.7940    3.8480   28.3460 N.am      1 LEU        -0.2636
     34 CA         -6.0090    2.9820   27.4800 C.3       1 LEU         0.1312
     35 C          -4.9170    3.8140   26.8320 C.2       1 LEU         0.2040
     36 O          -3.7940    3.3540   26.6340 O.2       1 LEU        -0.3944
     37 CB         -6.8880    2.3840   26.3840 C.3       1 LEU        -0.0101
     38 CG         -6.1000    1.6360   25.3060 C.3       1 LEU        -0.0425
     39 CD1        -5.4610    0.4030   25.9150 C.3       1 LEU        -0.0625
     40 CD2        -7.0230    1.2540   24.1610 C.3       1 LEU        -0.0625
     41 N          -5.2730    5.0470   26.4980 N.am      1 SER        -0.2616
     42 CA         -4.3500    5.9700   25.8650 C.3       1 SER         0.1539
     43 C          -3.1620    6.2900   26.7700 C.2       1 SER         0.2062
     44 O          -2.0320    6.4280   26.2960 O.2       1 SER        -0.3943
     45 CB         -5.0810    7.2570   25.4940 C.3       1 SER         0.0843
     46 OG         -4.2240    8.1230   24.7750 O.3       1 SER        -0.3903
     47 N          -3.4080    6.4080   28.0710 N.am      1 ARG        -0.2637
     48 CA         -2.3200    6.7130   28.9950 C.3       1 ARG         0.1311
     49 C          -1.4360    5.4850   29.1570 C.2       1 ARG         0.2039
     50 O          -0.2090    5.5870   29.1870 O.2       1 ARG        -0.3944
     51 CB         -2.8670    7.1380   30.3560 C.3       1 ARG        -0.0092
     52 CG         -1.8630    7.9070   31.2000 C.3       1 ARG        -0.0156
     53 CD         -2.3460    8.0440   32.6370 C.3       1 ARG         0.0627
     54 NE         -1.4430    8.8680   33.4420 N.pl3     1 ARG        -0.2723
     55 CZ         -1.4760    8.9500   34.7700 C.cat     1 ARG         0.2882
     56 NH1        -2.3680    8.2570   35.4670 N.pl3     1 ARG        -0.2849
     57 NH2        -0.6110    9.7290   35.4030 N.pl3     1 ARG        -0.2849
     58 N          -2.0730    4.3220   29.2470 N.am      1 ARG        -0.2637
     59 CA         -1.3630    3.0560   29.4000 C.3       1 ARG         0.1311
     60 C          -0.4780    2.7350   28.1850 C.2       1 ARG         0.2039
     61 O           0.6430    2.2200   28.3320 O.2       1 ARG        -0.3944
     62 CB         -2.3740    1.9280   29.6430 C.3       1 ARG        -0.0092
     63 CG         -3.1860    2.1070   30.9320 C.3       1 ARG        -0.0156
     64 CD         -3.9670    0.8460   31.3160 C.3       1 ARG         0.0627
     65 NE         -4.4770    0.9320   32.6860 N.pl3     1 ARG        -0.2723
     66 CZ         -5.0710   -0.0610   33.3460 C.cat     1 ARG         0.2882
     67 NH1        -5.2450   -1.2420   32.7700 N.pl3     1 ARG        -0.2849
     68 NH2        -5.4910    0.1250   34.5910 N.pl3     1 ARG        -0.2849
     69 N          -0.9800    3.0480   26.9910 N.am      1 LEU        -0.2637
     70 CA         -0.2360    2.8100   25.7630 C.3       1 LEU         0.1312
     71 C           0.9500    3.7630   25.6720 C.2       1 LEU         0.2039
     72 O           2.0030    3.4010   25.1480 O.2       1 LEU        -0.3944
     73 CB         -1.1480    2.9880   24.5380 C.3       1 LEU        -0.0101
     74 CG         -2.2070    1.9020   24.2870 C.3       1 LEU        -0.0425
     75 CD1        -3.1620    2.3750   23.1950 C.3       1 LEU        -0.0625
     76 CD2        -1.5350    0.5800   23.8960 C.3       1 LEU        -0.0625
     77 N           0.7790    4.9840   26.1770 N.am      1 LYS        -0.2637
     78 CA          1.8640    5.9650   26.1600 C.3       1 LYS         0.1310
     79 C           2.9310    5.5600   27.1590 C.2       1 LYS         0.2039
     80 O           4.1250    5.6900   26.8880 O.2       1 LYS        -0.3944
     81 CB          1.3410    7.3700   26.4800 C.3       1 LYS        -0.0122
     82 CG          0.7530    8.0590   25.2600 C.3       1 LYS        -0.0440
     83 CD          0.2030    9.4340   25.5650 C.3       1 LYS        -0.0124
     84 CE         -1.1780    9.3550   26.1730 C.3       1 LYS        -0.0354
     85 NZ         -1.9280   10.6260   25.9190 N.4       1 LYS         0.2185
     86 N           2.4970    5.0620   28.3120 N.am      1 VAL        -0.2635
     87 CA          3.4240    4.6110   29.3390 C.3       1 VAL         0.1333
     88 C           4.2440    3.4530   28.7940 C.2       1 VAL         0.2042
     89 O           5.4690    3.4010   28.9660 O.2       1 VAL        -0.3944
     90 CB          2.6740    4.1210   30.5940 C.3       1 VAL        -0.0063
     91 CG1         3.6200    3.3580   31.4990 C.3       1 VAL        -0.0584
     92 CG2         2.0680    5.3160   31.3330 C.3       1 VAL        -0.0584
     93 N           3.5530    2.5300   28.1320 N.am      1 THR        -0.2613
     94 CA          4.1920    1.3550   27.5570 C.3       1 THR         0.1565
     95 C           5.1110    1.7470   26.3980 C.2       1 THR         0.2063
     96 O           6.2210    1.2260   26.2740 O.2       1 THR        -0.3943
     97 CB          3.1410    0.3320   27.0500 C.3       1 THR         0.0924
     98 OG1         2.1970    0.0530   28.0940 O.3       1 THR        -0.3874
     99 CG2         3.8290   -0.9830   26.6270 C.3       1 THR        -0.0346
    100 N           4.6500    2.6690   25.5580 N.am      1 GLY        -0.2663
    101 CA          5.4530    3.0990   24.4280 C.3       1 GLY         0.1201
    102 C           6.7200    3.7870   24.8840 C.2       1 GLY         0.2008
    103 O           7.7940    3.5780   24.3120 O.2       1 GLY        -0.3947
    104 N           6.6040    4.6140   25.9190 N.am      1 ASP        -0.2624
    105 CA          7.7640    5.3190   26.4430 C.3       1 ASP         0.1423
    106 C           8.7480    4.3520   27.0970 C.2       1 ASP         0.2056
    107 O           9.9660    4.4900   26.9410 O.2       1 ASP        -0.3943
    108 CB          7.3300    6.3920   27.4420 C.3       1 ASP         0.0406
    109 CG          6.4190    7.4420   26.8130 C.2       1 ASP         0.0393
    110 OD1         6.5820    7.7190   25.6030 O.co2     1 ASP        -0.5688
    111 OD2         5.5500    7.9960   27.5290 O.co2     1 ASP        -0.5688
    112 N           8.2220    3.3690   27.8200 N.am      1 LEU        -0.2636
    113 CA          9.0720    2.3850   28.4830 C.3       1 LEU         0.1312
    114 C           9.5500    1.3240   27.5040 C.2       1 LEU         0.2040
    115 O          10.4650    0.5670   27.8090 O.2       1 LEU        -0.3944
    116 CB          8.3160    1.6880   29.6180 C.3       1 LEU        -0.0101
    117 CG          7.8600    2.5440   30.8000 C.3       1 LEU        -0.0425
    118 CD1         7.1360    1.6580   31.7910 C.3       1 LEU        -0.0625
    119 CD2         9.0590    3.2220   31.4610 C.3       1 LEU        -0.0625
    120 N           8.9180    1.2650   26.3360 N.am      1 PHE        -0.2619
    121 CA          9.2780    0.2820   25.3220 C.3       1 PHE         0.1404
    122 C          10.6600    0.5660   24.7560 C.2       1 PHE         0.2060
    123 O          11.4950   -0.3310   24.6520 O.2       1 PHE        -0.3942
    124 CB          8.2610    0.2940   24.1800 C.3       1 PHE         0.0214
    125 CG          8.5290   -0.7390   23.1220 C.ar      1 PHE        -0.0386
    126 CD1         8.0330   -2.0330   23.2520 C.ar      1 PHE        -0.0601
    127 CD2         9.2970   -0.4250   22.0010 C.ar      1 PHE        -0.0601
    128 CE1         8.2950   -3.0000   22.2860 C.ar      1 PHE        -0.0686
    129 CE2         9.5670   -1.3840   21.0290 C.ar      1 PHE        -0.0686
    130 CZ          9.0630   -2.6780   21.1730 C.ar      1 PHE        -0.0687
    131 N          10.8850    1.8190   24.3730 N.am      1 ASP        -0.2620
    132 CA         12.1660    2.2350   23.8100 C.3       1 ASP         0.1423
    133 C          13.3000    1.9300   24.7860 C.2       1 ASP         0.2056
    134 O          14.4680    1.8540   24.4000 O.2       1 ASP        -0.3943
    135 CB         12.1410    3.7360   23.4990 C.3       1 ASP         0.0406
    136 CG         11.0820    4.1040   22.4730 C.2       1 ASP         0.0393
    137 OD1        11.2000    3.6840   21.3030 O.co2     1 ASP        -0.5688
    138 OD2        10.1250    4.8150   22.8380 O.co2     1 ASP        -0.5688
    139 N          12.9380    1.7540   26.0520 N.am      1 ILE        -0.2634
    140 CA         13.8990    1.4630   27.1040 C.3       1 ILE         0.1335
    141 C          13.9760   -0.0440   27.3590 C.2       1 ILE         0.2036
    142 O          14.7300   -0.7660   26.7040 O.2       1 ILE        -0.3944
    143 CB         13.4880    2.1680   28.4160 C.3       1 ILE        -0.0037
    144 CG1        13.2050    3.6470   28.1430 C.3       1 ILE        -0.0491
    145 CG2        14.5870    2.0200   29.4560 C.3       1 ILE        -0.0582
    146 CD1        12.6880    4.4020   29.3490 C.3       1 ILE        -0.0648
    147 N          13.1770   -0.4920   28.3210 N.am      1 MET        -0.2694
    148 CA         13.0820   -1.8870   28.7350 C.3       1 MET         0.0951
    149 C          12.9750   -2.8900   27.5830 C.2       1 MET         0.0601
    150 O          13.7940   -3.8340   27.5410 O.co2     1 MET        -0.5666
    151 CB         11.8800   -2.0190   29.6680 C.3       1 MET        -0.0089
    152 CG         11.4170   -3.4230   29.9540 C.3       1 MET        -0.0030
    153 SD         10.0420   -3.3620   31.1230 S.3       1 MET        -0.1639
    154 CE          8.8760   -2.2940   30.2570 C.3       1 MET        -0.0181
    155 OXT        12.0690   -2.7320   26.7420 O.co2     1 MET        -0.5666
    156 H1        -12.4242    2.5933   29.3730 H         1 THR         0.2016
    157 H2        -13.0343    3.5386   30.5745 H         1 THR         0.2016
    158 H3        -11.4052    3.3967   30.3858 H         1 THR         0.2016
    159 H4        -13.2619    4.6411   28.4572 H         1 THR         0.1125
    160 H5        -11.0969    5.9407   30.2180 H         1 THR         0.0674
    161 H6        -12.9672    6.9077   31.2140 H         1 THR         0.2102
    162 H7        -12.0312    8.0706   29.3469 H         1 THR         0.0258
    163 H8        -13.1698    7.1478   28.3083 H         1 THR         0.0258
    164 H9        -11.4008    7.0448   28.0140 H         1 THR         0.0258
    165 H10       -12.2523    5.5638   26.6481 H         1 MET         0.1885
    166 H11       -10.0405    4.0431   25.5625 H         1 MET         0.0800
    167 H12       -11.8074    6.3281   24.6957 H         1 MET         0.0320
    168 H13       -11.5281    4.7297   23.9253 H         1 MET         0.0320
    169 H14       -10.5830    6.2405   22.4282 H         1 MET         0.0378
    170 H15        -9.1739    5.6388   23.3658 H         1 MET         0.0378
    171 H16       -11.0384    9.8845   23.5503 H         1 MET         0.0340
    172 H17       -12.0134    8.4169   23.8997 H         1 MET         0.0340
    173 H18       -11.3092    8.6592   22.2651 H         1 MET         0.0340
    174 H19       -10.4729    6.9495   27.3812 H         1 GLU         0.1883
    175 H20        -7.9781    8.2206   26.6942 H         1 GLU         0.0801
    176 H21        -8.4922    9.6696   28.6314 H         1 GLU         0.0330
    177 H22        -9.8246    8.5603   29.1011 H         1 GLU         0.0330
    178 H23       -10.9268    8.9821   26.9325 H         1 GLU         0.0433
    179 H24        -9.6030   10.1120   26.4877 H         1 GLU         0.0433
    180 H25        -9.0046    5.9309   29.2100 H         1 ASN         0.1885
    181 H26        -6.5546    6.1460   30.7295 H         1 ASN         0.0826
    182 H27        -7.2917    3.8803   31.6300 H         1 ASN         0.0551
    183 H28        -8.7065    3.9942   30.5290 H         1 ASN         0.0551
    184 H29       -10.5671    5.7940   32.8290 H         1 ASN         0.1814
    185 H30       -10.4861    4.6524   31.5289 H         1 ASN         0.1814
    186 H31        -7.7816    3.9169   28.2046 H         1 LEU         0.1883
    187 H32        -5.5611    2.1725   28.0750 H         1 LEU         0.0800
    188 H33        -7.4470    3.2000   25.9027 H         1 LEU         0.0315
    189 H34        -7.5940    1.6806   26.8496 H         1 LEU         0.0315
    190 H35        -5.3079    2.2935   24.9184 H         1 LEU         0.0298
    191 H36        -4.8941   -0.1361   25.1417 H         1 LEU         0.0232
    192 H37        -6.2447   -0.2541   26.3200 H         1 LEU         0.0232
    193 H38        -4.7806    0.7047   26.7250 H         1 LEU         0.0232
    194 H39        -7.4744    2.1623   23.7353 H         1 LEU         0.0232
    195 H40        -7.8168    0.5910   24.5355 H         1 LEU         0.0232
    196 H41        -6.4460    0.7323   23.3833 H         1 LEU         0.0232
    197 H42        -6.2068    5.3500   26.6884 H         1 SER         0.1884
    198 H43        -3.9686    5.5027   24.9452 H         1 SER         0.0823
    199 H44        -5.4168    7.7604   26.4126 H         1 SER         0.0606
    200 H45        -5.9533    7.0112   24.8706 H         1 SER         0.0606
    201 H46        -4.6936    8.9181   24.5521 H         1 SER         0.2097
    202 H47        -4.3386    6.2878   28.4167 H         1 ARG         0.1883
    203 H48        -1.7203    7.5366   28.5803 H         1 ARG         0.0800
    204 H49        -3.1668    6.2351   30.9082 H         1 ARG         0.0313
    205 H50        -3.7471    7.7774   30.1933 H         1 ARG         0.0313
    206 H51        -1.7258    8.9101   30.7700 H         1 ARG         0.0301
    207 H52        -0.9026    7.3707   31.1934 H         1 ARG         0.0301
    208 H53        -2.4095    7.0425   33.0875 H         1 ARG         0.0689
    209 H54        -3.3430    8.5086   32.6339 H         1 ARG         0.0689
    210 H55        -0.7318    9.4236   32.9457 H         1 ARG         0.2642
    211 H56        -2.3858    8.3269   36.4945 H         1 ARG         0.2615
    212 H57        -3.0424    7.6493   34.9804 H         1 ARG         0.2615
    213 H58         0.0835   10.2691   34.8674 H         1 ARG         0.2615
    214 H59        -0.6331    9.7944   36.4307 H         1 ARG         0.2615
    215 H60        -3.0722    4.3141   29.2086 H         1 ARG         0.1883
    216 H61        -0.7106    3.1344   30.2821 H         1 ARG         0.0800
    217 H62        -1.8265    0.9760   29.7049 H         1 ARG         0.0313
    218 H63        -3.0714    1.8953   28.7930 H         1 ARG         0.0313
    219 H64        -3.8986    2.9325   30.7878 H         1 ARG         0.0301
    220 H65        -2.4959    2.3571   31.7513 H         1 ARG         0.0301
    221 H66        -3.3013   -0.0260   31.2357 H         1 ARG         0.0689
    222 H67        -4.8145    0.7253   30.6252 H         1 ARG         0.0689
    223 H68        -4.3679    1.8305   33.1777 H         1 ARG         0.2642
    224 H69        -5.7053   -2.0045   33.2874 H         1 ARG         0.2615
    225 H70        -4.9200   -1.3972   31.8050 H         1 ARG         0.2615
    226 H71        -5.3604    1.0391   35.0474 H         1 ARG         0.2615
    227 H72        -5.9476   -0.6447   35.1009 H         1 ARG         0.2615
    228 H73        -1.8911    3.4568   26.9374 H         1 LEU         0.1883
    229 H74         0.1409    1.7767   25.7748 H         1 LEU         0.0800
    230 H75        -0.5025    3.0326   23.6485 H         1 LEU         0.0315
    231 H76        -1.6771    3.9452   24.6555 H         1 LEU         0.0315
    232 H77        -2.7795    1.7424   25.2126 H         1 LEU         0.0298
    233 H78        -3.9218    1.6009   23.0119 H         1 LEU         0.0232
    234 H79        -2.5975    2.5608   22.2694 H         1 LEU         0.0232
    235 H80        -3.6553    3.3041   23.5165 H         1 LEU         0.0232
    236 H81        -0.8537    0.2634   24.6995 H         1 LEU         0.0232
    237 H82        -0.9650    0.7195   22.9656 H         1 LEU         0.0232
    238 H83        -2.3043   -0.1911   23.7426 H         1 LEU         0.0232
    239 H84        -0.1044    5.2336   26.5736 H         1 LYS         0.1883
    240 H85         2.3085    5.9795   25.1539 H         1 LYS         0.0800
    241 H86         2.1735    7.9786   26.8628 H         1 LYS         0.0312
    242 H87         0.5607    7.2897   27.2511 H         1 LYS         0.0312
    243 H88        -0.0622    7.4354   24.8643 H         1 LYS         0.0269
    244 H89         1.5414    8.1578   24.4994 H         1 LYS         0.0269
    245 H90         0.1499   10.0131   24.6313 H         1 LYS         0.0317
    246 H91         0.8766    9.9397   26.2724 H         1 LYS         0.0317
    247 H92        -1.0890    9.1962   27.2578 H         1 LYS         0.0813
    248 H93        -1.7256    8.5138   25.7230 H         1 LYS         0.0813
    249 H94        -2.8467   10.5616   26.3287 H         1 LYS         0.1994
    250 H95        -2.0128   10.7733   24.9254 H         1 LYS         0.1994
    251 H96        -1.4294   11.3986   26.3319 H         1 LYS         0.1994
    252 H97         1.5130    4.9958   28.4773 H         1 VAL         0.1883
    253 H98         4.0902    5.4419   29.6142 H         1 VAL         0.0802
    254 H99         1.8617    3.4474   30.2836 H         1 VAL         0.0343
    255 H100        3.0760    3.0130   32.3906 H         1 VAL         0.0234
    256 H101        4.4457    4.0170   31.8055 H         1 VAL         0.0234
    257 H102        4.0250    2.4901   30.9579 H         1 VAL         0.0234
    258 H103        1.3855    5.8556   30.6599 H         1 VAL         0.0234
    259 H104        2.8723    5.9920   31.6586 H         1 VAL         0.0234
    260 H105        1.5104    4.9595   32.2116 H         1 VAL         0.0234
    261 H106        2.5655    2.6462   28.0259 H         1 THR         0.1884
    262 H107        4.7980    0.8754   28.3397 H         1 THR         0.0826
    263 H108        2.6123    0.7582   26.1846 H         1 THR         0.0639
    264 H109        1.7589    0.8572   28.3465 H         1 THR         0.2101
    265 H110        3.0704   -1.6956   26.2709 H         1 THR         0.0257
    266 H111        4.3598   -1.4130   27.4892 H         1 THR         0.0257
    267 H112        4.5471   -0.7778   25.8194 H         1 THR         0.0257
    268 H113        3.7451    3.0683   25.7057 H         1 GLY         0.1881
    269 H114        4.8652    3.7995   23.8166 H         1 GLY         0.0763
    270 H115        5.7205    2.2199   23.8234 H         1 GLY         0.0763
    271 H116        5.7087    4.7530   26.3423 H         1 ASP         0.1884
    272 H117        8.2741    5.8133   25.6031 H         1 ASP         0.0819
    273 H118        8.2275    6.8929   27.8338 H         1 ASP         0.0478
    274 H119        6.7906    5.9067   28.2687 H         1 ASP         0.0478
    275 H120        7.2284    3.3024   27.9113 H         1 LEU         0.1883
    276 H121        9.9463    2.9053   28.9012 H         1 LEU         0.0800
    277 H122        8.9740    0.9017   30.0165 H         1 LEU         0.0315
    278 H123        7.4180    1.2276   29.1803 H         1 LEU         0.0315
    279 H124        7.1691    3.3199   30.4386 H         1 LEU         0.0298
    280 H125        6.8022    2.2623   32.6474 H         1 LEU         0.0232
    281 H126        7.8165    0.8685   32.1424 H         1 LEU         0.0232
    282 H127        6.2631    1.1995   31.3034 H         1 LEU         0.0232
    283 H128        9.5707    3.8602   30.7256 H         1 LEU         0.0232
    284 H129        9.7566    2.4555   31.8295 H         1 LEU         0.0232
    285 H130        8.7130    3.8385   32.3037 H         1 LEU         0.0232
    286 H131        8.1777    1.9107   26.1486 H         1 PHE         0.1885
    287 H132        9.2819   -0.7151   25.7865 H         1 PHE         0.0823
    288 H133        8.2802    1.2875   23.7082 H         1 PHE         0.0474
    289 H134        7.2625    0.1078   24.6021 H         1 PHE         0.0474
    290 H135        7.4342   -2.2912   24.1179 H         1 PHE         0.0557
    291 H136        9.6888    0.5791   21.8852 H         1 PHE         0.0557
    292 H137        7.9006   -4.0031   22.4014 H         1 PHE         0.0599
    293 H138       10.1665   -1.1271   20.1632 H         1 PHE         0.0599
    294 H139        9.2699   -3.4291   20.4193 H         1 PHE         0.0559
    295 H140       10.1558    2.4959   24.4735 H         1 ASP         0.1884
    296 H141       12.3405    1.6797   22.8766 H         1 ASP         0.0819
    297 H142       13.1263    4.0313   23.1093 H         1 ASP         0.0478
    298 H143       11.9352    4.2850   24.4297 H         1 ASP         0.0478
    299 H144       11.9693    1.8242   26.2903 H         1 ILE         0.1883
    300 H145       14.8888    1.8275   26.7920 H         1 ILE         0.0803
    301 H146       12.5716    1.6969   28.8010 H         1 ILE         0.0345
    302 H147       12.4531    3.7145   27.3429 H         1 ILE         0.0267
    303 H148       14.1389    4.1232   27.8097 H         1 ILE         0.0267
    304 H149       14.7768    0.9521   29.6394 H         1 ILE         0.0235
    305 H150       14.2725    2.5027   30.3931 H         1 ILE         0.0235
    306 H151       15.5068    2.4980   29.0880 H         1 ILE         0.0235
    307 H152       12.5092    5.4522   29.0751 H         1 ILE         0.0230
    308 H153       13.4324    4.3556   30.1575 H         1 ILE         0.0230
    309 H154       11.7467    3.9469   29.6907 H         1 ILE         0.0230
    310 H155       12.6004    0.1739   28.7944 H         1 MET         0.1875
    311 H156       13.9938   -2.1328   29.2991 H         1 MET         0.0726
    312 H157       11.0397   -1.4737   29.2135 H         1 MET         0.0313
    313 H158       12.1454   -1.5503   30.6271 H         1 MET         0.0313
    314 H159       12.2447   -4.0030   30.3882 H         1 MET         0.0378
    315 H160       11.0857   -3.8996   29.0196 H         1 MET         0.0378
    316 H161        7.9706   -2.1674   30.8688 H         1 MET         0.0340
    317 H162        8.6064   -2.7508   29.2933 H         1 MET         0.0340
    318 H163        9.3394   -1.3121   30.0805 H         1 MET         0.0340
@<TRIPOS>BOND
     1    1    2 1  
     2    2    3 1  
     3    2    5 1  
     4    3    4 2  
     5    3    8 am 
     6    5    6 1  
     7    5    7 1  
     8    8    9 1  
     9    9   10 1  
    10    9   12 1  
    11   10   11 2  
    12   10   16 am 
    13   12   13 1  
    14   13   14 1  
    15   14   15 1  
    16   16   17 1  
    17   17   18 1  
    18   17   20 1  
    19   18   19 2  
    20   18   25 am 
    21   20   21 1  
    22   21   22 1  
    23   22   23 ar 
    24   22   24 ar 
    25   25   26 1  
    26   26   27 1  
    27   26   29 1  
    28   27   28 2  
    29   27   33 am 
    30   29   30 1  
    31   30   31 2  
    32   30   32 am 
    33   33   34 1  
    34   34   35 1  
    35   34   37 1  
    36   35   36 2  
    37   35   41 am 
    38   37   38 1  
    39   38   39 1  
    40   38   40 1  
    41   41   42 1  
    42   42   43 1  
    43   42   45 1  
    44   43   44 2  
    45   43   47 am 
    46   45   46 1  
    47   47   48 1  
    48   48   49 1  
    49   48   51 1  
    50   49   50 2  
    51   49   58 am 
    52   51   52 1  
    53   52   53 1  
    54   53   54 1  
    55   54   55 ar 
    56   55   56 ar 
    57   55   57 ar 
    58   58   59 1  
    59   59   60 1  
    60   59   62 1  
    61   60   61 2  
    62   60   69 am 
    63   62   63 1  
    64   63   64 1  
    65   64   65 1  
    66   65   66 ar 
    67   66   67 ar 
    68   66   68 ar 
    69   69   70 1  
    70   70   71 1  
    71   70   73 1  
    72   71   72 2  
    73   71   77 am 
    74   73   74 1  
    75   74   75 1  
    76   74   76 1  
    77   77   78 1  
    78   78   79 1  
    79   78   81 1  
    80   79   80 2  
    81   79   86 am 
    82   81   82 1  
    83   82   83 1  
    84   83   84 1  
    85   84   85 1  
    86   86   87 1  
    87   87   88 1  
    88   87   90 1  
    89   88   89 2  
    90   88   93 am 
    91   90   91 1  
    92   90   92 1  
    93   93   94 1  
    94   94   95 1  
    95   94   97 1  
    96   95   96 2  
    97   95  100 am 
    98   97   98 1  
    99   97   99 1  
   100  100  101 1  
   101  101  102 1  
   102  102  103 2  
   103  102  104 am 
   104  104  105 1  
   105  105  106 1  
   106  105  108 1  
   107  106  107 2  
   108  106  112 am 
   109  108  109 1  
   110  109  110 ar 
   111  109  111 ar 
   112  112  113 1  
   113  113  114 1  
   114  113  116 1  
   115  114  115 2  
   116  114  120 am 
   117  116  117 1  
   118  117  118 1  
   119  117  119 1  
   120  120  121 1  
   121  121  122 1  
   122  121  124 1  
   123  122  123 2  
   124  122  131 am 
   125  124  125 1  
   126  125  126 ar 
   127  125  127 ar 
   128  126  128 ar 
   129  127  129 ar 
   130  128  130 ar 
   131  129  130 ar 
   132  131  132 1  
   133  132  133 1  
   134  132  135 1  
   135  133  134 2  
   136  133  139 am 
   137  135  136 1  
   138  136  137 ar 
   139  136  138 ar 
   140  139  140 1  
   141  140  141 1  
   142  140  143 1  
   143  141  142 2  
   144  141  147 am 
   145  143  144 1  
   146  143  145 1  
   147  144  146 1  
   148  147  148 1  
   149  148  149 1  
   150  148  151 1  
   151  149  150 ar 
   152  149  155 ar 
   153  151  152 1  
   154  152  153 1  
   155  153  154 1  
   156    1  156 1  
   157    1  157 1  
   158    1  158 1  
   159    2  159 1  
   160    5  160 1  
   161    6  161 1  
   162    7  162 1  
   163    7  163 1  
   164    7  164 1  
   165    8  165 1  
   166    9  166 1  
   167   12  167 1  
   168   12  168 1  
   169   13  169 1  
   170   13  170 1  
   171   15  171 1  
   172   15  172 1  
   173   15  173 1  
   174   16  174 1  
   175   17  175 1  
   176   20  176 1  
   177   20  177 1  
   178   21  178 1  
   179   21  179 1  
   180   25  180 1  
   181   26  181 1  
   182   29  182 1  
   183   29  183 1  
   184   32  184 1  
   185   32  185 1  
   186   33  186 1  
   187   34  187 1  
   188   37  188 1  
   189   37  189 1  
   190   38  190 1  
   191   39  191 1  
   192   39  192 1  
   193   39  193 1  
   194   40  194 1  
   195   40  195 1  
   196   40  196 1  
   197   41  197 1  
   198   42  198 1  
   199   45  199 1  
   200   45  200 1  
   201   46  201 1  
   202   47  202 1  
   203   48  203 1  
   204   51  204 1  
   205   51  205 1  
   206   52  206 1  
   207   52  207 1  
   208   53  208 1  
   209   53  209 1  
   210   54  210 1  
   211   56  211 1  
   212   56  212 1  
   213   57  213 1  
   214   57  214 1  
   215   58  215 1  
   216   59  216 1  
   217   62  217 1  
   218   62  218 1  
   219   63  219 1  
   220   63  220 1  
   221   64  221 1  
   222   64  222 1  
   223   65  223 1  
   224   67  224 1  
   225   67  225 1  
   226   68  226 1  
   227   68  227 1  
   228   69  228 1  
   229   70  229 1  
   230   73  230 1  
   231   73  231 1  
   232   74  232 1  
   233   75  233 1  
   234   75  234 1  
   235   75  235 1  
   236   76  236 1  
   237   76  237 1  
   238   76  238 1  
   239   77  239 1  
   240   78  240 1  
   241   81  241 1  
   242   81  242 1  
   243   82  243 1  
   244   82  244 1  
   245   83  245 1  
   246   83  246 1  
   247   84  247 1  
   248   84  248 1  
   249   85  249 1  
   250   85  250 1  
   251   85  251 1  
   252   86  252 1  
   253   87  253 1  
   254   90  254 1  
   255   91  255 1  
   256   91  256 1  
   257   91  257 1  
   258   92  258 1  
   259   92  259 1  
   260   92  260 1  
   261   93  261 1  
   262   94  262 1  
   263   97  263 1  
   264   98  264 1  
   265   99  265 1  
   266   99  266 1  
   267   99  267 1  
   268  100  268 1  
   269  101  269 1  
   270  101  270 1  
   271  104  271 1  
   272  105  272 1  
   273  108  273 1  
   274  108  274 1  
   275  112  275 1  
   276  113  276 1  
   277  116  277 1  
   278  116  278 1  
   279  117  279 1  
   280  118  280 1  
   281  118  281 1  
   282  118  282 1  
   283  119  283 1  
   284  119  284 1  
   285  119  285 1  
   286  120  286 1  
   287  121  287 1  
   288  124  288 1  
   289  124  289 1  
   290  126  290 1  
   291  127  291 1  
   292  128  292 1  
   293  129  293 1  
   294  130  294 1  
   295  131  295 1  
   296  132  296 1  
   297  135  297 1  
   298  135  298 1  
   299  139  299 1  
   300  140  300 1  
   301  143  301 1  
   302  144  302 1  
   303  144  303 1  
   304  145  304 1  
   305  145  305 1  
   306  145  306 1  
   307  146  307 1  
   308  146  308 1  
   309  146  309 1  
   310  147  310 1  
   311  148  311 1  
   312  151  312 1  
   313  151  313 1  
   314  152  314 1  
   315  152  315 1  
   316  154  316 1  
   317  154  317 1  
   318  154  318 1  
@<TRIPOS>SUBSTRUCTURE
     1 THR         1

