3bl2_ligand
  -I-interpret- 

320320  0  0  0  0  0  0  0  0999 V2000
  -12.2890    3.4400   29.9030 N   0  3  0  0  0
  -12.2940    4.6110   28.9790 C   0  0  0  0  0
  -11.1740    4.4800   27.9560 C   0  0  0  0  0
  -10.1500    3.8440   28.2120 O   0  0  0  0  0
  -12.0890    5.9480   29.7430 C   0  0  0  0  0
  -13.0970    6.0890   30.7500 O   0  0  0  0  0
  -12.1790    7.1360   28.7860 C   0  0  0  0  0
  -11.3870    5.0840   26.7930 N   0  0  0  0  0
  -10.4010    5.0700   25.7220 C   0  0  0  0  0
   -9.2370    5.9540   26.1480 C   0  0  0  0  0
   -8.1040    5.7900   25.6970 O   0  0  0  0  0
  -11.0450    5.5840   24.4220 C   0  0  0  0  0
  -10.0970    6.2350   23.4150 C   0  0  0  0  0
   -9.6610    7.9430   23.8560 S   0  0  0  0  0
  -11.1500    8.8100   23.3430 C   0  0  0  0  0
   -9.5340    6.8850   27.0430 N   0  0  0  0  0
   -8.5400    7.8140   27.5480 C   0  0  0  0  0
   -7.5520    7.1280   28.4800 C   0  0  0  0  0
   -6.3730    7.4700   28.5040 O   0  0  0  0  0
   -9.2470    8.9630   28.2560 C   0  0  0  0  0
  -10.1890    9.6990   27.3220 C   0  0  0  0  0
  -10.9270   10.8290   27.9960 C   0  0  0  0  0
  -11.5680   11.6200   27.2670 O   0  0  0  0  0
  -10.8710   10.9200   29.2450 O   0  0  0  0  0
   -8.0320    6.1600   29.2490 N   0  0  0  0  0
   -7.1540    5.4300   30.1480 C   0  0  0  0  0
   -6.2250    4.5500   29.3220 C   0  0  0  0  0
   -5.0160    4.5100   29.5610 O   0  0  0  0  0
   -7.9710    4.5710   31.1090 C   0  0  0  0  0
   -8.7060    5.3980   32.1390 C   0  0  0  0  0
   -8.0910    6.1450   32.9060 O   0  0  0  0  0
  -10.0290    5.2710   32.1680 N   0  0  0  0  0
   -6.7940    3.8480   28.3460 N   0  0  0  0  0
   -6.0090    2.9820   27.4800 C   0  0  0  0  0
   -4.9170    3.8140   26.8320 C   0  0  0  0  0
   -3.7940    3.3540   26.6340 O   0  0  0  0  0
   -6.8880    2.3840   26.3840 C   0  0  0  0  0
   -6.1000    1.6360   25.3060 C   0  0  0  0  0
   -5.4610    0.4030   25.9150 C   0  0  0  0  0
   -7.0230    1.2540   24.1610 C   0  0  0  0  0
   -5.2730    5.0470   26.4980 N   0  0  0  0  0
   -4.3500    5.9700   25.8650 C   0  0  0  0  0
   -3.1620    6.2900   26.7700 C   0  0  0  0  0
   -2.0320    6.4280   26.2960 O   0  0  0  0  0
   -5.0810    7.2570   25.4940 C   0  0  0  0  0
   -4.2240    8.1230   24.7750 O   0  0  0  0  0
   -3.4080    6.4080   28.0710 N   0  0  0  0  0
   -2.3200    6.7130   28.9950 C   0  0  0  0  0
   -1.4360    5.4850   29.1570 C   0  0  0  0  0
   -0.2090    5.5870   29.1870 O   0  0  0  0  0
   -2.8670    7.1380   30.3560 C   0  0  0  0  0
   -1.8630    7.9070   31.2000 C   0  0  0  0  0
   -2.3460    8.0440   32.6370 C   0  0  0  0  0
   -1.4430    8.8680   33.4420 N   0  0  0  0  0
   -1.4760    8.9500   34.7700 C   0  0  0  0  0
   -2.3680    8.2570   35.4670 N   0  0  0  0  0
   -0.6110    9.7290   35.4030 N   0  0  0  0  0
   -2.0730    4.3220   29.2470 N   0  0  0  0  0
   -1.3630    3.0560   29.4000 C   0  0  0  0  0
   -0.4780    2.7350   28.1850 C   0  0  0  0  0
    0.6430    2.2200   28.3320 O   0  0  0  0  0
   -2.3740    1.9280   29.6430 C   0  0  0  0  0
   -3.1860    2.1070   30.9320 C   0  0  0  0  0
   -3.9670    0.8460   31.3160 C   0  0  0  0  0
   -4.4770    0.9320   32.6860 N   0  0  0  0  0
   -5.0710   -0.0610   33.3460 C   0  0  0  0  0
   -5.2450   -1.2420   32.7700 N   0  0  0  0  0
   -5.4910    0.1250   34.5910 N   0  0  0  0  0
   -0.9800    3.0480   26.9910 N   0  0  0  0  0
   -0.2360    2.8100   25.7630 C   0  0  0  0  0
    0.9500    3.7630   25.6720 C   0  0  0  0  0
    2.0030    3.4010   25.1480 O   0  0  0  0  0
   -1.1480    2.9880   24.5380 C   0  0  0  0  0
   -2.2070    1.9020   24.2870 C   0  0  0  0  0
   -3.1620    2.3750   23.1950 C   0  0  0  0  0
   -1.5350    0.5800   23.8960 C   0  0  0  0  0
    0.7790    4.9840   26.1770 N   0  0  0  0  0
    1.8640    5.9650   26.1600 C   0  0  0  0  0
    2.9310    5.5600   27.1590 C   0  0  0  0  0
    4.1250    5.6900   26.8880 O   0  0  0  0  0
    1.3410    7.3700   26.4800 C   0  0  0  0  0
    0.7530    8.0590   25.2600 C   0  0  0  0  0
    0.2030    9.4340   25.5650 C   0  0  0  0  0
   -1.1780    9.3550   26.1730 C   0  0  0  0  0
   -1.9280   10.6260   25.9190 N   0  3  0  0  0
    2.4970    5.0620   28.3120 N   0  0  0  0  0
    3.4240    4.6110   29.3390 C   0  0  0  0  0
    4.2440    3.4530   28.7940 C   0  0  0  0  0
    5.4690    3.4010   28.9660 O   0  0  0  0  0
    2.6740    4.1210   30.5940 C   0  0  0  0  0
    3.6200    3.3580   31.4990 C   0  0  0  0  0
    2.0680    5.3160   31.3330 C   0  0  0  0  0
    3.5530    2.5300   28.1320 N   0  0  0  0  0
    4.1920    1.3550   27.5570 C   0  0  0  0  0
    5.1110    1.7470   26.3980 C   0  0  0  0  0
    6.2210    1.2260   26.2740 O   0  0  0  0  0
    3.1410    0.3320   27.0500 C   0  0  0  0  0
    2.1970    0.0530   28.0940 O   0  0  0  0  0
    3.8290   -0.9830   26.6270 C   0  0  0  0  0
    4.6500    2.6690   25.5580 N   0  0  0  0  0
    5.4530    3.0990   24.4280 C   0  0  0  0  0
    6.7200    3.7870   24.8840 C   0  0  0  0  0
    7.7940    3.5780   24.3120 O   0  0  0  0  0
    6.6040    4.6140   25.9190 N   0  0  0  0  0
    7.7640    5.3190   26.4430 C   0  0  0  0  0
    8.7480    4.3520   27.0970 C   0  0  0  0  0
    9.9660    4.4900   26.9410 O   0  0  0  0  0
    7.3300    6.3920   27.4420 C   0  0  0  0  0
    6.4190    7.4420   26.8130 C   0  0  0  0  0
    6.5820    7.7190   25.6030 O   0  0  0  0  0
    5.5500    7.9960   27.5290 O   0  0  0  0  0
    8.2220    3.3690   27.8200 N   0  0  0  0  0
    9.0720    2.3850   28.4830 C   0  0  0  0  0
    9.5500    1.3240   27.5040 C   0  0  0  0  0
   10.4650    0.5670   27.8090 O   0  0  0  0  0
    8.3160    1.6880   29.6180 C   0  0  0  0  0
    7.8600    2.5440   30.8000 C   0  0  0  0  0
    7.1360    1.6580   31.7910 C   0  0  0  0  0
    9.0590    3.2220   31.4610 C   0  0  0  0  0
    8.9180    1.2650   26.3360 N   0  0  0  0  0
    9.2780    0.2820   25.3220 C   0  0  0  0  0
   10.6600    0.5660   24.7560 C   0  0  0  0  0
   11.4950   -0.3310   24.6520 O   0  0  0  0  0
    8.2610    0.2940   24.1800 C   0  0  0  0  0
    8.5290   -0.7390   23.1220 C   0  0  0  0  0
    8.0330   -2.0330   23.2520 C   0  0  0  0  0
    9.2970   -0.4250   22.0010 C   0  0  0  0  0
    8.2950   -3.0000   22.2860 C   0  0  0  0  0
    9.5670   -1.3840   21.0290 C   0  0  0  0  0
    9.0630   -2.6780   21.1730 C   0  0  0  0  0
   10.8850    1.8190   24.3730 N   0  0  0  0  0
   12.1660    2.2350   23.8100 C   0  0  0  0  0
   13.3000    1.9300   24.7860 C   0  0  0  0  0
   14.4680    1.8540   24.4000 O   0  0  0  0  0
   12.1410    3.7360   23.4990 C   0  0  0  0  0
   11.0820    4.1040   22.4730 C   0  0  0  0  0
   11.2000    3.6840   21.3030 O   0  0  0  0  0
   10.1250    4.8150   22.8380 O   0  0  0  0  0
   12.9380    1.7540   26.0520 N   0  0  0  0  0
   13.8990    1.4630   27.1040 C   0  0  0  0  0
   13.9760   -0.0440   27.3590 C   0  0  0  0  0
   14.7300   -0.7660   26.7040 O   0  0  0  0  0
   13.4880    2.1680   28.4160 C   0  0  0  0  0
   13.2050    3.6470   28.1430 C   0  0  0  0  0
   14.5870    2.0200   29.4560 C   0  0  0  0  0
   12.6880    4.4020   29.3490 C   0  0  0  0  0
   13.1770   -0.4920   28.3210 N   0  0  0  0  0
   13.0820   -1.8870   28.7350 C   0  0  0  0  0
   12.9750   -2.8900   27.5830 C   0  0  0  0  0
   13.7940   -3.8340   27.5410 O   0  0  0  0  0
   11.8800   -2.0190   29.6680 C   0  0  0  0  0
   11.4170   -3.4230   29.9540 C   0  0  0  0  0
   10.0420   -3.3620   31.1230 S   0  0  0  0  0
    8.8760   -2.2940   30.2570 C   0  0  0  0  0
   12.0690   -2.7320   26.7420 O   0  0  0  0  0
  -12.4258    2.5839   29.3657 H   0  0  0  0  0
  -11.3943    3.3973   30.3909 H   0  0  0  0  0
  -13.0435    3.5410   30.5820 H   0  0  0  0  0
  -13.2671    4.6226   28.4881 H   0  0  0  0  0
  -11.1002    5.9312   30.2013 H   0  0  0  0  0
  -13.0480    5.3464   31.3564 H   0  0  0  0  0
  -13.1653    7.1534   28.3222 H   0  0  0  0  0
  -12.0207    8.0607   29.3409 H   0  0  0  0  0
  -11.4151    7.0383   28.0147 H   0  0  0  0  0
  -12.2696    5.5734   26.6452 H   0  0  0  0  0
  -10.0388    4.0591   25.5351 H   0  0  0  0  0
  -11.7548    6.3567   24.7173 H   0  0  0  0  0
  -11.4672    4.7111   23.9242 H   0  0  0  0  0
  -10.6024    6.2592   22.4496 H   0  0  0  0  0
   -9.1771    5.6505   23.3978 H   0  0  0  0  0
  -11.3066    8.6597   22.2748 H   0  0  0  0  0
  -12.0048    8.4196   23.8953 H   0  0  0  0  0
  -11.0382    9.8745   23.5489 H   0  0  0  0  0
  -10.4917    6.9508   27.3879 H   0  0  0  0  0
   -7.9643    8.2021   26.7078 H   0  0  0  0  0
   -8.4928    9.6663   28.6091 H   0  0  0  0  0
   -9.8302    8.5529   29.0805 H   0  0  0  0  0
  -10.9310    8.9832   26.9681 H   0  0  0  0  0
   -9.5906   10.1272   26.5178 H   0  0  0  0  0
  -10.3257   10.2103   29.5923 H   0  0  0  0  0
   -9.0241    5.9263   29.2092 H   0  0  0  0  0
   -6.5680    6.1364   30.7359 H   0  0  0  0  0
   -7.2843    3.9086   31.6361 H   0  0  0  0  0
   -8.7113    4.0235   30.5256 H   0  0  0  0  0
  -10.5777    5.8031   32.8434 H   0  0  0  0  0
  -10.4954    4.6415   31.5148 H   0  0  0  0  0
   -7.8013    3.9183   28.2018 H   0  0  0  0  0
   -5.5824    2.1721   28.0718 H   0  0  0  0  0
   -7.4077    3.2084   25.8959 H   0  0  0  0  0
   -7.5570    1.6654   26.8575 H   0  0  0  0  0
   -5.3149    2.2809   24.9113 H   0  0  0  0  0
   -4.7872    0.7033   26.7174 H   0  0  0  0  0
   -6.2385   -0.2472   26.3160 H   0  0  0  0  0
   -4.8996   -0.1303   25.1478 H   0  0  0  0  0
   -7.8187    0.6107   24.5366 H   0  0  0  0  0
   -7.4566    2.1560   23.7291 H   0  0  0  0  0
   -6.4534    0.7222   23.3988 H   0  0  0  0  0
   -6.2255    5.3560   26.6922 H   0  0  0  0  0
   -3.9633    5.4925   24.9647 H   0  0  0  0  0
   -5.4048    7.7565   26.4071 H   0  0  0  0  0
   -5.9397    7.0096   24.8699 H   0  0  0  0  0
   -4.6986    8.9265   24.5497 H   0  0  0  0  0
   -4.3572    6.2854   28.4236 H   0  0  0  0  0
   -1.7356    7.5378   28.5873 H   0  0  0  0  0
   -3.1276    6.2313   30.9020 H   0  0  0  0  0
   -3.7166    7.7968   30.1764 H   0  0  0  0  0
   -1.7421    8.9039   30.7761 H   0  0  0  0  0
   -0.9183    7.3633   31.1999 H   0  0  0  0  0
   -2.3856    7.0488   33.0799 H   0  0  0  0  0
   -3.3247    8.5237   32.6236 H   0  0  0  0  0
   -0.7387    9.4182   32.9505 H   0  0  0  0  0
   -2.3852    8.3257   36.4845 H   0  0  0  0  0
   -3.0363    7.6557   34.9851 H   0  0  0  0  0
    0.0772   10.2633   34.8726 H   0  0  0  0  0
   -3.0922    4.3139   29.2078 H   0  0  0  0  0
   -0.6986    3.1455   30.2595 H   0  0  0  0  0
   -1.8135    0.9976   29.7337 H   0  0  0  0  0
   -3.0758    1.9298   28.8090 H   0  0  0  0  0
   -3.9048    2.9096   30.7670 H   0  0  0  0  0
   -2.4886    2.3287   31.7398 H   0  0  0  0  0
   -3.2968   -0.0110   31.2486 H   0  0  0  0  0
   -4.8132    0.7419   30.6368 H   0  0  0  0  0
   -4.3690    1.8217   33.1729 H   0  0  0  0  0
   -4.9231   -1.3957   31.8144 H   0  0  0  0  0
   -5.9431   -0.6372   35.0960 H   0  0  0  0  0
   -5.3617    1.0302   35.0430 H   0  0  0  0  0
   -1.9093    3.4650   26.9363 H   0  0  0  0  0
    0.1338    1.7847   25.7774 H   0  0  0  0  0
   -0.4876    2.9634   23.6712 H   0  0  0  0  0
   -1.7042    3.9087   24.7143 H   0  0  0  0  0
   -2.7743    1.7272   25.2012 H   0  0  0  0  0
   -3.6501    3.2957   23.5147 H   0  0  0  0  0
   -2.6014    2.5588   22.2785 H   0  0  0  0  0
   -3.9143    1.6072   23.0145 H   0  0  0  0  0
   -0.9522    0.7253   22.9864 H   0  0  0  0  0
   -0.8774    0.2557   24.7025 H   0  0  0  0  0
   -2.2995   -0.1772   23.7221 H   0  0  0  0  0
   -0.1221    5.2386   26.5816 H   0  0  0  0  0
    2.2958    5.9890   25.1595 H   0  0  0  0  0
    2.1789    7.9696   26.8356 H   0  0  0  0  0
    0.5530    7.2752   27.2271 H   0  0  0  0  0
   -0.0712    7.4449   24.8972 H   0  0  0  0  0
    1.5519    8.1761   24.5278 H   0  0  0  0  0
    0.1384    9.9949   24.6326 H   0  0  0  0  0
    0.8673    9.9213   26.2786 H   0  0  0  0  0
   -1.0863    9.2035   27.2485 H   0  0  0  0  0
   -1.7200    8.5243   25.7210 H   0  0  0  0  0
   -2.8574   10.5597   26.3340 H   0  0  0  0  0
   -1.4225   11.4070   26.3372 H   0  0  0  0  0
   -2.0132   10.7740   24.9134 H   0  0  0  0  0
    1.4933    4.9945   28.4806 H   0  0  0  0  0
    4.0618    5.4516   29.6125 H   0  0  0  0  0
    1.8688    3.4504   30.2940 H   0  0  0  0  0
    4.0206    2.4984   30.9617 H   0  0  0  0  0
    4.4377    4.0120   31.8019 H   0  0  0  0  0
    3.0798    3.0166   32.3821 H   0  0  0  0  0
    2.8636    5.9989   31.6307 H   0  0  0  0  0
    1.3708    5.8336   30.6741 H   0  0  0  0  0
    1.5394    4.9638   32.2188 H   0  0  0  0  0
    2.5457    2.6486   28.0238 H   0  0  0  0  0
    4.7831    0.8918   28.3471 H   0  0  0  0  0
    2.6275    0.7595   26.1888 H   0  0  0  0  0
    1.5486   -0.5800   27.7769 H   0  0  0  0  0
    4.5403   -0.7784   25.8268 H   0  0  0  0  0
    4.3546   -1.4080   27.4821 H   0  0  0  0  0
    3.0764   -1.6882   26.2743 H   0  0  0  0  0
    3.7270    3.0763   25.7086 H   0  0  0  0  0
    4.8693    3.8039   23.8360 H   0  0  0  0  0
    5.7264    2.2211   23.8427 H   0  0  0  0  0
    5.6908    4.7558   26.3507 H   0  0  0  0  0
    8.2700    5.8012   25.6066 H   0  0  0  0  0
    8.2258    6.8971   27.8033 H   0  0  0  0  0
    6.7756    5.9018   28.2423 H   0  0  0  0  0
    5.5951    7.6389   28.4190 H   0  0  0  0  0
    7.2085    3.3010   27.9131 H   0  0  0  0  0
    9.9299    2.9241   28.8850 H   0  0  0  0  0
    9.0177    0.9656   30.0349 H   0  0  0  0  0
    7.4013    1.3041   29.1662 H   0  0  0  0  0
    7.1860    3.3258   30.4497 H   0  0  0  0  0
    6.2714    1.2042   31.3067 H   0  0  0  0  0
    7.8114    0.8761   32.1384 H   0  0  0  0  0
    6.8058    2.2579   32.6391 H   0  0  0  0  0
    9.7527    2.4615   31.8195 H   0  0  0  0  0
    9.5611    3.8595   30.7332 H   0  0  0  0  0
    8.7156    3.8270   32.3001 H   0  0  0  0  0
    8.1629    1.9236   26.1448 H   0  0  0  0  0
    9.2813   -0.6979   25.7993 H   0  0  0  0  0
    8.3184    1.2722   23.7026 H   0  0  0  0  0
    7.2843    0.0736   24.6109 H   0  0  0  0  0
    7.4309   -2.2927   24.1227 H   0  0  0  0  0
    9.6910    0.5846   21.8845 H   0  0  0  0  0
    7.8985   -4.0087   22.4020 H   0  0  0  0  0
   10.1698   -1.1256   20.1584 H   0  0  0  0  0
    9.2711   -3.4333   20.4152 H   0  0  0  0  0
   10.1413    2.5095   24.4755 H   0  0  0  0  0
   12.3357    1.6801   22.8873 H   0  0  0  0  0
   13.1134    4.0095   23.0895 H   0  0  0  0  0
   11.9103    4.2658   24.4232 H   0  0  0  0  0
   12.0003    3.1586   21.2320 H   0  0  0  0  0
   11.9500    1.8256   26.2951 H   0  0  0  0  0
   14.8733    1.8280   26.7790 H   0  0  0  0  0
   12.5816    1.7026   28.8032 H   0  0  0  0  0
   12.4336    3.6942   27.3744 H   0  0  0  0  0
   14.1471    4.1096   27.8488 H   0  0  0  0  0
   14.7562    0.9619   29.6559 H   0  0  0  0  0
   15.5050    2.4713   29.0794 H   0  0  0  0  0
   14.2850    2.5211   30.3757 H   0  0  0  0  0
   11.7553    3.9500   29.6866 H   0  0  0  0  0
   13.4265    4.3552   30.1493 H   0  0  0  0  0
   12.5112    5.4424   29.0763 H   0  0  0  0  0
   12.5888    0.1872   28.8038 H   0  0  0  0  0
   14.0158   -2.1408   29.2367 H   0  0  0  0  0
   14.4008   -3.7629   28.2815 H   0  0  0  0  0
   11.0496   -1.5185   29.1699 H   0  0  0  0  0
   12.1877   -1.5974   30.6249 H   0  0  0  0  0
   12.2369   -4.0007   30.3808 H   0  0  0  0  0
   11.0919   -3.8985   29.0286 H   0  0  0  0  0
    9.3364   -1.3215   30.0827 H   0  0  0  0  0
    8.6097   -2.7477   29.3023 H   0  0  0  0  0
    7.9794   -2.1694   30.8642 H   0  0  0  0  0
  1  2  1  0  0  0
  2  3  1  0  0  0
  2  5  1  0  0  0
  3  4  2  0  0  0
  3  8  1  0  0  0
  5  6  1  0  0  0
  5  7  1  0  0  0
  8  9  1  0  0  0
  9 10  1  0  0  0
  9 12  1  0  0  0
 10 11  2  0  0  0
 10 16  1  0  0  0
 12 13  1  0  0  0
 13 14  1  0  0  0
 14 15  1  0  0  0
 16 17  1  0  0  0
 17 18  1  0  0  0
 17 20  1  0  0  0
 18 19  2  0  0  0
 18 25  1  0  0  0
 20 21  1  0  0  0
 21 22  1  0  0  0
 22 23  2  0  0  0
 22 24  1  0  0  0
 25 26  1  0  0  0
 26 27  1  0  0  0
 26 29  1  0  0  0
 27 28  2  0  0  0
 27 33  1  0  0  0
 29 30  1  0  0  0
 30 31  2  0  0  0
 30 32  1  0  0  0
 33 34  1  0  0  0
 34 35  1  0  0  0
 34 37  1  0  0  0
 35 36  2  0  0  0
 35 41  1  0  0  0
 37 38  1  0  0  0
 38 39  1  0  0  0
 38 40  1  0  0  0
 41 42  1  0  0  0
 42 43  1  0  0  0
 42 45  1  0  0  0
 43 44  2  0  0  0
 43 47  1  0  0  0
 45 46  1  0  0  0
 47 48  1  0  0  0
 48 49  1  0  0  0
 48 51  1  0  0  0
 49 50  2  0  0  0
 49 58  1  0  0  0
 51 52  1  0  0  0
 52 53  1  0  0  0
 53 54  1  0  0  0
 54 55  1  0  0  0
 55 56  1  0  0  0
 55 57  2  0  0  0
 58 59  1  0  0  0
 59 60  1  0  0  0
 59 62  1  0  0  0
 60 61  2  0  0  0
 60 69  1  0  0  0
 62 63  1  0  0  0
 63 64  1  0  0  0
 64 65  1  0  0  0
 65 66  1  0  0  0
 66 67  2  0  0  0
 66 68  1  0  0  0
 69 70  1  0  0  0
 70 71  1  0  0  0
 70 73  1  0  0  0
 71 72  2  0  0  0
 71 77  1  0  0  0
 73 74  1  0  0  0
 74 75  1  0  0  0
 74 76  1  0  0  0
 77 78  1  0  0  0
 78 79  1  0  0  0
 78 81  1  0  0  0
 79 80  2  0  0  0
 79 86  1  0  0  0
 81 82  1  0  0  0
 82 83  1  0  0  0
 83 84  1  0  0  0
 84 85  1  0  0  0
 86 87  1  0  0  0
 87 88  1  0  0  0
 87 90  1  0  0  0
 88 89  2  0  0  0
 88 93  1  0  0  0
 90 91  1  0  0  0
 90 92  1  0  0  0
 93 94  1  0  0  0
 94 95  1  0  0  0
 94 97  1  0  0  0
 95 96  2  0  0  0
 95100  1  0  0  0
 97 98  1  0  0  0
 97 99  1  0  0  0
100101  1  0  0  0
101102  1  0  0  0
102103  2  0  0  0
102104  1  0  0  0
104105  1  0  0  0
105106  1  0  0  0
105108  1  0  0  0
106107  2  0  0  0
106112  1  0  0  0
108109  1  0  0  0
109110  2  0  0  0
109111  1  0  0  0
112113  1  0  0  0
113114  1  0  0  0
113116  1  0  0  0
114115  2  0  0  0
114120  1  0  0  0
116117  1  0  0  0
117118  1  0  0  0
117119  1  0  0  0
120121  1  0  0  0
121122  1  0  0  0
121124  1  0  0  0
122123  2  0  0  0
122131  1  0  0  0
124125  1  0  0  0
125126  4  0  0  0
125127  4  0  0  0
126128  4  0  0  0
127129  4  0  0  0
128130  4  0  0  0
129130  4  0  0  0
131132  1  0  0  0
132133  1  0  0  0
132135  1  0  0  0
133134  2  0  0  0
133139  1  0  0  0
135136  1  0  0  0
136137  1  0  0  0
136138  2  0  0  0
139140  1  0  0  0
140141  1  0  0  0
140143  1  0  0  0
141142  2  0  0  0
141147  1  0  0  0
143144  1  0  0  0
143145  1  0  0  0
144146  1  0  0  0
147148  1  0  0  0
148149  1  0  0  0
148151  1  0  0  0
149150  1  0  0  0
149155  2  0  0  0
151152  1  0  0  0
152153  1  0  0  0
153154  1  0  0  0
  1156  1  0  0  0
  1157  1  0  0  0
  1158  1  0  0  0
  2159  1  0  0  0
  5160  1  0  0  0
  6161  1  0  0  0
  7162  1  0  0  0
  7163  1  0  0  0
  7164  1  0  0  0
  8165  1  0  0  0
  9166  1  0  0  0
 12167  1  0  0  0
 12168  1  0  0  0
 13169  1  0  0  0
 13170  1  0  0  0
 15171  1  0  0  0
 15172  1  0  0  0
 15173  1  0  0  0
 16174  1  0  0  0
 17175  1  0  0  0
 20176  1  0  0  0
 20177  1  0  0  0
 21178  1  0  0  0
 21179  1  0  0  0
 24180  1  0  0  0
 25181  1  0  0  0
 26182  1  0  0  0
 29183  1  0  0  0
 29184  1  0  0  0
 32185  1  0  0  0
 32186  1  0  0  0
 33187  1  0  0  0
 34188  1  0  0  0
 37189  1  0  0  0
 37190  1  0  0  0
 38191  1  0  0  0
 39192  1  0  0  0
 39193  1  0  0  0
 39194  1  0  0  0
 40195  1  0  0  0
 40196  1  0  0  0
 40197  1  0  0  0
 41198  1  0  0  0
 42199  1  0  0  0
 45200  1  0  0  0
 45201  1  0  0  0
 46202  1  0  0  0
 47203  1  0  0  0
 48204  1  0  0  0
 51205  1  0  0  0
 51206  1  0  0  0
 52207  1  0  0  0
 52208  1  0  0  0
 53209  1  0  0  0
 53210  1  0  0  0
 54211  1  0  0  0
 56212  1  0  0  0
 56213  1  0  0  0
 57214  1  0  0  0
 58215  1  0  0  0
 59216  1  0  0  0
 62217  1  0  0  0
 62218  1  0  0  0
 63219  1  0  0  0
 63220  1  0  0  0
 64221  1  0  0  0
 64222  1  0  0  0
 65223  1  0  0  0
 67224  1  0  0  0
 68225  1  0  0  0
 68226  1  0  0  0
 69227  1  0  0  0
 70228  1  0  0  0
 73229  1  0  0  0
 73230  1  0  0  0
 74231  1  0  0  0
 75232  1  0  0  0
 75233  1  0  0  0
 75234  1  0  0  0
 76235  1  0  0  0
 76236  1  0  0  0
 76237  1  0  0  0
 77238  1  0  0  0
 78239  1  0  0  0
 81240  1  0  0  0
 81241  1  0  0  0
 82242  1  0  0  0
 82243  1  0  0  0
 83244  1  0  0  0
 83245  1  0  0  0
 84246  1  0  0  0
 84247  1  0  0  0
 85248  1  0  0  0
 85249  1  0  0  0
 85250  1  0  0  0
 86251  1  0  0  0
 87252  1  0  0  0
 90253  1  0  0  0
 91254  1  0  0  0
 91255  1  0  0  0
 91256  1  0  0  0
 92257  1  0  0  0
 92258  1  0  0  0
 92259  1  0  0  0
 93260  1  0  0  0
 94261  1  0  0  0
 97262  1  0  0  0
 98263  1  0  0  0
 99264  1  0  0  0
 99265  1  0  0  0
 99266  1  0  0  0
100267  1  0  0  0
101268  1  0  0  0
101269  1  0  0  0
104270  1  0  0  0
105271  1  0  0  0
108272  1  0  0  0
108273  1  0  0  0
111274  1  0  0  0
112275  1  0  0  0
113276  1  0  0  0
116277  1  0  0  0
116278  1  0  0  0
117279  1  0  0  0
118280  1  0  0  0
118281  1  0  0  0
118282  1  0  0  0
119283  1  0  0  0
119284  1  0  0  0
119285  1  0  0  0
120286  1  0  0  0
121287  1  0  0  0
124288  1  0  0  0
124289  1  0  0  0
126290  1  0  0  0
127291  1  0  0  0
128292  1  0  0  0
129293  1  0  0  0
130294  1  0  0  0
131295  1  0  0  0
132296  1  0  0  0
135297  1  0  0  0
135298  1  0  0  0
137299  1  0  0  0
139300  1  0  0  0
140301  1  0  0  0
143302  1  0  0  0
144303  1  0  0  0
144304  1  0  0  0
145305  1  0  0  0
145306  1  0  0  0
145307  1  0  0  0
146308  1  0  0  0
146309  1  0  0  0
146310  1  0  0  0
147311  1  0  0  0
148312  1  0  0  0
150313  1  0  0  0
151314  1  0  0  0
151315  1  0  0  0
152316  1  0  0  0
152317  1  0  0  0
154318  1  0  0  0
154319  1  0  0  0
154320  1  0  0  0
M  END
$$$$
