6fqo_ligand
  -I-interpret- 

 58 61  0  0  0  0  0  0  0  0999 V2000
    6.8330   -8.5440   28.7330 C   0  0  0  0  0
   10.8950   -3.7860   23.7420 C   0  0  0  0  0
    5.6120   -3.4650   22.2140 C   0  0  0  0  0
    1.0490   -4.4690   20.6980 C   0  0  0  0  0
    6.1270  -13.7330   19.5140 C   0  0  0  0  0
    6.8230  -14.4000   20.4270 C   0  0  0  0  0
    6.0650  -12.4420   19.8960 C   0  0  0  0  0
   10.1550   -6.0870   26.6710 C   0  0  0  0  0
    9.2660   -7.1110   26.9910 C   0  0  0  0  0
    7.1380   -8.5370   23.3040 C   0  0  0  0  0
    5.2670   -7.9260   21.9280 C   0  0  0  0  0
    6.1830   -6.3500   23.4620 C   0  0  0  0  0
    9.0470   -5.8650   24.5490 C   0  0  0  0  0
    7.5890   -9.2050   27.5880 C   0  0  0  0  0
   11.0130   -4.4620   25.1060 C   0  0  0  0  0
    6.9260  -11.1950   21.8430 C   0  0  0  0  0
    6.2030   -8.8950   22.3220 C   0  0  0  0  0
   10.0650   -5.4520   25.4350 C   0  0  0  0  0
    7.1500   -7.2580   23.8940 C   0  0  0  0  0
    5.2160   -6.6370   22.4760 C   0  0  0  0  0
    4.4120   -4.3650   21.9010 C   0  0  0  0  0
    8.2560   -7.5000   26.1060 C   0  0  0  0  0
    6.7020  -12.2910   21.0660 C   0  0  0  0  0
    8.1270   -6.8900   24.8620 C   0  0  0  0  0
    4.2630   -5.7130   22.0330 C   0  0  0  0  0
    2.9860   -5.9430   21.5940 C   0  0  0  0  0
    6.1280  -10.1160   21.6670 N   0  0  0  0  0
    2.4030   -4.7900   21.2330 N   0  0  0  0  0
   11.9970   -4.2150   25.8130 O   0  0  0  0  0
    7.8190  -11.2540   22.6860 O   0  0  0  0  0
    2.3860   -7.0340   21.5240 O   0  0  0  0  0
    7.3430   -8.4890   26.3760 O   0  0  0  0  0
    7.2020  -13.5040   21.4050 O   0  0  0  0  0
    3.2870   -3.7860   21.4230 O   0  0  0  0  0
    7.1725   -7.5142   28.8442 H   0  0  0  0  0
    5.7650   -8.5544   28.5154 H   0  0  0  0  0
    7.0224   -9.0920   29.6560 H   0  0  0  0  0
   10.8734   -2.7043   23.8747 H   0  0  0  0  0
   11.7515   -4.0608   23.1264 H   0  0  0  0  0
    9.9761   -4.1120   23.2546 H   0  0  0  0  0
    5.8610   -3.5484   23.2719 H   0  0  0  0  0
    6.4657   -3.7777   21.6128 H   0  0  0  0  0
    5.3600   -2.4309   21.9792 H   0  0  0  0  0
    0.8976   -4.9961   19.7560 H   0  0  0  0  0
    0.2920   -4.7823   21.4169 H   0  0  0  0  0
    0.9709   -3.3947   20.5312 H   0  0  0  0  0
    5.6832  -14.1558   18.6127 H   0  0  0  0  0
    7.0537  -15.4651   20.4073 H   0  0  0  0  0
    5.5731  -11.6441   19.3398 H   0  0  0  0  0
   10.9192   -5.7836   27.3866 H   0  0  0  0  0
    9.3599   -7.6191   27.9508 H   0  0  0  0  0
    7.8786   -9.2714   23.6206 H   0  0  0  0  0
    4.5431   -8.1893   21.1568 H   0  0  0  0  0
    6.1742   -5.3582   23.9140 H   0  0  0  0  0
    8.9672   -5.3712   23.5805 H   0  0  0  0  0
    7.2496  -10.2347   27.4761 H   0  0  0  0  0
    8.6571   -9.1945   27.8049 H   0  0  0  0  0
    5.3864  -10.2113   20.9733 H   0  0  0  0  0
 14  1  1  0  0  0
 15  2  1  0  0  0
 21  3  1  0  0  0
 28  4  1  0  0  0
  6  5  4  0  0  0
  7  5  4  0  0  0
 33  6  4  0  0  0
 23  7  4  0  0  0
  9  8  4  0  0  0
 18  8  4  0  0  0
 22  9  4  0  0  0
 17 10  4  0  0  0
 19 10  4  0  0  0
 11 17  4  0  0  0
 20 11  4  0  0  0
 12 19  4  0  0  0
 20 12  4  0  0  0
 13 18  4  0  0  0
 24 13  4  0  0  0
 32 14  1  0  0  0
 18 15  1  0  0  0
 15 29  2  0  0  0
 16 23  1  0  0  0
 27 16  1  0  0  0
 16 30  2  0  0  0
 17 27  1  0  0  0
 19 24  1  0  0  0
 25 20  1  0  0  0
 25 21  2  0  0  0
 21 34  1  0  0  0
 24 22  4  0  0  0
 22 32  1  0  0  0
 23 33  4  0  0  0
 26 25  1  0  0  0
 26 28  1  0  0  0
 26 31  2  0  0  0
 28 34  1  0  0  0
  1 35  1  0  0  0
  1 36  1  0  0  0
  1 37  1  0  0  0
  2 38  1  0  0  0
  2 39  1  0  0  0
  2 40  1  0  0  0
  3 41  1  0  0  0
  3 42  1  0  0  0
  3 43  1  0  0  0
  4 44  1  0  0  0
  4 45  1  0  0  0
  4 46  1  0  0  0
  5 47  1  0  0  0
  6 48  1  0  0  0
  7 49  1  0  0  0
  8 50  1  0  0  0
  9 51  1  0  0  0
 10 52  1  0  0  0
 11 53  1  0  0  0
 12 54  1  0  0  0
 13 55  1  0  0  0
 14 56  1  0  0  0
 14 57  1  0  0  0
 27 58  1  0  0  0
M  END
$$$$
