3zeb_ligand
  -I-interpret- 

 38 39  0  0  0  0  0  0  0  0999 V2000
    8.7320   -4.6760   48.4330 O   0  0  0  0  0
    8.9570   -4.8690   49.6050 C   0  0  0  0  0
   10.1310   -5.6430   50.1450 C   0  0  0  0  0
   11.3880   -4.8110   50.1040 C   0  0  0  0  0
   11.2640   -3.4190   50.1750 C   0  0  0  0  0
   12.3320   -2.5730   49.9500 C   0  0  0  0  0
   13.5960   -3.0930   49.6770 C   0  0  0  0  0
   14.6710   -2.2640   49.4630 N   0  0  0  0  0
   13.7430   -4.4790   49.6490 C   0  0  0  0  0
   12.6720   -5.3530   49.8670 C   0  0  0  0  0
   12.9690   -6.8320   49.7720 C   0  0  0  0  0
   12.1540   -7.7050   49.9850 O   0  0  0  0  0
    8.2010   -4.3790   50.6020 O   0  0  0  0  0
    7.1130   -3.4720   50.2650 C   0  0  0  0  0
    7.6140   -2.0460   50.3380 C   0  0  0  0  0
    6.5510   -1.0090   50.0530 C   0  0  0  0  0
    6.1220   -0.7670   48.7550 C   0  0  0  0  0
    5.1500    0.1870   48.4940 C   0  0  0  0  0
    4.5980    0.9150   49.5250 C   0  0  0  0  0
    5.0130    0.6870   50.8170 C   0  0  0  0  0
    5.9830   -0.2690   51.0810 C   0  0  0  0  0
   10.2781   -6.5312   49.5305 H   0  0  0  0  0
    9.9249   -5.9163   51.1799 H   0  0  0  0  0
   10.2922   -2.9882   50.4159 H   0  0  0  0  0
   12.1858   -1.4935   49.9861 H   0  0  0  0  0
   14.5504   -1.2519   49.5028 H   0  0  0  0  0
   15.5894   -2.6608   49.2644 H   0  0  0  0  0
   14.7294   -4.8978   49.4498 H   0  0  0  0  0
   13.9792   -7.1332   49.4946 H   0  0  0  0  0
    6.2919   -3.6079   50.9689 H   0  0  0  0  0
    6.7587   -3.6843   49.2563 H   0  0  0  0  0
    8.3880   -1.9346   49.5786 H   0  0  0  0  0
    7.9671   -1.8777   51.3554 H   0  0  0  0  0
    6.5546   -1.3340   47.9307 H   0  0  0  0  0
    4.8216    0.3615   47.4694 H   0  0  0  0  0
    3.8368    1.6674   49.3185 H   0  0  0  0  0
    4.5780    1.2597   51.6361 H   0  0  0  0  0
    6.3032   -0.4413   52.1086 H   0  0  0  0  0
  1  2  2  0  0  0
  2  3  1  0  0  0
  2 13  1  0  0  0
  3  4  1  0  0  0
  4  5  4  0  0  0
  4 10  4  0  0  0
  5  6  4  0  0  0
  6  7  4  0  0  0
  7  8  1  0  0  0
  7  9  4  0  0  0
  9 10  4  0  0  0
 10 11  1  0  0  0
 11 12  2  0  0  0
 13 14  1  0  0  0
 14 15  1  0  0  0
 15 16  1  0  0  0
 16 17  4  0  0  0
 16 21  4  0  0  0
 17 18  4  0  0  0
 18 19  4  0  0  0
 19 20  4  0  0  0
 20 21  4  0  0  0
  3 22  1  0  0  0
  3 23  1  0  0  0
  5 24  1  0  0  0
  6 25  1  0  0  0
  8 26  1  0  0  0
  8 27  1  0  0  0
  9 28  1  0  0  0
 11 29  1  0  0  0
 14 30  1  0  0  0
 14 31  1  0  0  0
 15 32  1  0  0  0
 15 33  1  0  0  0
 17 34  1  0  0  0
 18 35  1  0  0  0
 19 36  1  0  0  0
 20 37  1  0  0  0
 21 38  1  0  0  0
M  END
$$$$
