5glu_ligand
  -I-interpret- 

 82 84  0  0  0  0  0  0  0  0999 V2000
  -19.3420  -42.3560   -6.2640 C   0  0  0  0  0
  -20.0800  -43.4960   -6.9170 C   0  0  0  0  0
  -21.2000  -43.9730   -5.9890 C   0  0  0  0  0
  -22.1480  -42.8030   -5.7060 C   0  0  0  0  0
  -22.6140  -42.2180   -7.0430 C   0  0  0  0  0
  -21.3900  -41.8730   -7.8930 C   0  0  0  0  0
  -21.8440  -41.2570   -9.2180 C   0  0  0  0  0
  -20.6200  -40.9350  -10.0760 C   0  0  0  0  0
  -21.0690  -40.2510  -11.3690 C   0  0  0  0  0
  -24.7330  -41.0870   -6.6340 C   0  0  0  0  0
  -25.5410  -39.8390   -6.3830 C   0  0  0  0  0
  -23.3980  -41.0050   -6.7980 N   0  0  0  0  0
  -18.9270  -41.4420   -6.9350 O   0  0  0  0  0
  -19.1440  -42.3580   -4.9370 O   0  0  0  0  0
  -23.2790  -43.2660   -4.9650 O   0  0  0  0  0
  -20.6340  -43.0540   -8.1540 O   0  0  0  0  0
  -22.6800  -42.1840   -9.9110 O   0  0  0  0  0
  -19.7480  -40.0630   -9.3550 O   0  0  0  0  0
  -19.9270  -39.9480  -12.1720 O   0  0  0  0  0
  -25.2850  -42.1650   -6.6850 O   0  0  0  0  0
  -17.0240  -44.6210  -10.2340 C   0  0  0  0  0
  -18.1680  -45.0440   -9.3110 C   0  0  0  0  0
  -18.2140  -44.0990   -8.1070 C   0  0  0  0  0
  -16.8260  -44.0590   -7.4550 C   0  0  0  0  0
  -15.7870  -43.7080   -8.5220 C   0  0  0  0  0
  -14.4010  -43.6330   -7.8770 C   0  0  0  0  0
  -19.4060  -44.9850  -10.0220 O   0  0  0  0  0
  -19.1720  -44.5720   -7.1590 O   0  0  0  0  0
  -16.5250  -45.3370   -6.8940 O   0  0  0  0  0
  -15.7820  -44.7070   -9.5390 O   0  0  0  0  0
  -13.4290  -43.3060   -8.8710 O   0  0  0  0  0
  -14.9240  -44.9740  -14.8980 C   0  0  0  0  0
  -14.0550  -45.3790  -13.7040 C   0  0  0  0  0
  -14.9560  -45.9410  -12.6010 C   0  0  0  0  0
  -16.0530  -44.9180  -12.2910 C   0  0  0  0  0
  -16.7700  -44.5470  -13.5910 C   0  0  0  0  0
  -17.8900  -43.5480  -13.2900 C   0  0  0  0  0
  -15.6440  -46.1130  -15.3680 O   0  0  0  0  0
  -13.1150  -46.3730  -14.1100 O   0  0  0  0  0
  -14.1820  -46.1840  -11.4230 O   0  0  0  0  0
  -16.9910  -45.4830  -11.3730 O   0  0  0  0  0
  -15.8450  -43.9600  -14.5040 O   0  0  0  0  0
  -18.5650  -43.2080  -14.5010 O   0  0  0  0  0
  -20.7727  -44.3336   -5.0533 H   0  0  0  0  0
  -21.7505  -44.7844   -6.4652 H   0  0  0  0  0
  -21.6323  -42.0398   -5.1231 H   0  0  0  0  0
  -23.2314  -42.9466   -7.5683 H   0  0  0  0  0
  -20.7685  -41.1593   -7.3522 H   0  0  0  0  0
  -22.4011  -40.3410   -9.0214 H   0  0  0  0  0
  -20.0929  -41.8582  -10.3167 H   0  0  0  0  0
  -21.5965  -39.3285  -11.1265 H   0  0  0  0  0
  -21.7327  -40.9175  -11.9198 H   0  0  0  0  0
  -26.2801  -39.7208   -7.1753 H   0  0  0  0  0
  -26.0475  -39.9229   -5.4215 H   0  0  0  0  0
  -24.8775  -38.9743   -6.3714 H   0  0  0  0  0
  -22.9333  -40.0982   -6.7515 H   0  0  0  0  0
  -19.5335  -43.1492   -4.5577 H   0  0  0  0  0
  -22.9838  -43.6319   -4.1280 H   0  0  0  0  0
  -23.4482  -42.3856   -9.3716 H   0  0  0  0  0
  -18.9802  -39.8619   -9.8950 H   0  0  0  0  0
  -20.2117  -39.5191  -12.9823 H   0  0  0  0  0
  -17.1841  -43.5919  -10.5555 H   0  0  0  0  0
  -18.0057  -46.0655   -8.9671 H   0  0  0  0  0
  -18.5002  -43.0996   -8.4347 H   0  0  0  0  0
  -16.8098  -43.3090   -6.6642 H   0  0  0  0  0
  -16.0385  -42.7445   -8.9653 H   0  0  0  0  0
  -14.1550  -44.5973   -7.4324 H   0  0  0  0  0
  -14.4017  -42.8648   -7.1037 H   0  0  0  0  0
  -20.1212  -45.2511   -9.4395 H   0  0  0  0  0
  -15.6562  -45.3098   -6.4866 H   0  0  0  0  0
  -12.5605  -43.2594   -8.4646 H   0  0  0  0  0
  -14.2857  -44.5896  -15.6935 H   0  0  0  0  0
  -13.5141  -44.5097  -13.3300 H   0  0  0  0  0
  -15.4038  -46.8780  -12.9320 H   0  0  0  0  0
  -15.6093  -44.0271  -11.8466 H   0  0  0  0  0
  -17.1925  -45.4479  -14.0360 H   0  0  0  0  0
  -17.4637  -42.6477  -12.8474 H   0  0  0  0  0
  -18.5985  -43.9965  -12.5936 H   0  0  0  0  0
  -16.1888  -45.8592  -16.1166 H   0  0  0  0  0
  -12.5722  -46.6242  -13.3591 H   0  0  0  0  0
  -14.7510  -46.5361  -10.7346 H   0  0  0  0  0
  -19.2668  -42.5815  -14.3098 H   0  0  0  0  0
  2  1  1  0  0  0
  1 13  2  0  0  0
  1 14  1  0  0  0
  2  3  1  0  0  0
  2 16  1  0  0  0
 28  2  1  0  0  0
  3  4  1  0  0  0
  4  5  1  0  0  0
  4 15  1  0  0  0
  6  5  1  0  0  0
  5 12  1  0  0  0
  6  7  1  0  0  0
 16  6  1  0  0  0
  7  8  1  0  0  0
  7 17  1  0  0  0
  8  9  1  0  0  0
  8 18  1  0  0  0
  9 19  1  0  0  0
 10 11  1  0  0  0
 12 10  1  0  0  0
 10 20  2  0  0  0
 21 22  1  0  0  0
 21 30  1  0  0  0
 41 21  1  0  0  0
 22 23  1  0  0  0
 22 27  1  0  0  0
 23 24  1  0  0  0
 23 28  1  0  0  0
 25 24  1  0  0  0
 24 29  1  0  0  0
 25 26  1  0  0  0
 30 25  1  0  0  0
 26 31  1  0  0  0
 33 32  1  0  0  0
 32 38  1  0  0  0
 32 42  1  0  0  0
 34 33  1  0  0  0
 33 39  1  0  0  0
 35 34  1  0  0  0
 34 40  1  0  0  0
 35 36  1  0  0  0
 35 41  1  0  0  0
 36 37  1  0  0  0
 36 42  1  0  0  0
 37 43  1  0  0  0
  3 44  1  0  0  0
  3 45  1  0  0  0
  4 46  1  0  0  0
  5 47  1  0  0  0
  6 48  1  0  0  0
  7 49  1  0  0  0
  8 50  1  0  0  0
  9 51  1  0  0  0
  9 52  1  0  0  0
 11 53  1  0  0  0
 11 54  1  0  0  0
 11 55  1  0  0  0
 12 56  1  0  0  0
 14 57  1  0  0  0
 15 58  1  0  0  0
 17 59  1  0  0  0
 18 60  1  0  0  0
 19 61  1  0  0  0
 21 62  1  0  0  0
 22 63  1  0  0  0
 23 64  1  0  0  0
 24 65  1  0  0  0
 25 66  1  0  0  0
 26 67  1  0  0  0
 26 68  1  0  0  0
 27 69  1  0  0  0
 29 70  1  0  0  0
 31 71  1  0  0  0
 32 72  1  0  0  0
 33 73  1  0  0  0
 34 74  1  0  0  0
 35 75  1  0  0  0
 36 76  1  0  0  0
 37 77  1  0  0  0
 37 78  1  0  0  0
 38 79  1  0  0  0
 39 80  1  0  0  0
 40 81  1  0  0  0
 43 82  1  0  0  0
M  END
$$$$
