4esg_ligand
  -I-interpret- 

230234  0  0  0  0  0  0  0  0999 V2000
  -15.2710  -18.5530   21.0770 N   0  3  0  0  0
  -15.1510  -18.4080   19.6240 C   0  0  0  0  0
  -14.2010  -17.2640   19.2720 C   0  0  0  0  0
  -14.0850  -16.2980   20.0270 O   0  0  0  0  0
  -16.5320  -18.1890   18.9870 C   0  0  0  0  0
  -17.4750  -19.3910   19.1200 C   0  0  0  0  0
  -17.8110  -20.0310   17.7790 C   0  0  0  0  0
  -17.8910  -19.2960   16.7700 O   0  0  0  0  0
  -17.9820  -21.2700   17.7330 O   0  0  0  0  0
  -13.4940  -17.3800   18.1350 N   0  0  0  0  0
  -12.6400  -16.2580   17.7320 C   0  0  0  0  0
  -13.4870  -15.0940   17.2150 C   0  0  0  0  0
  -14.6180  -15.3210   16.7660 O   0  0  0  0  0
  -11.7920  -16.8460   16.5930 C   0  0  0  0  0
  -11.9320  -18.3530   16.7200 C   0  0  0  0  0
  -13.3130  -18.5590   17.2690 C   0  0  0  0  0
  -12.9550  -13.8610   17.2930 N   0  0  0  0  0
  -13.6400  -12.6850   16.7370 C   0  0  0  0  0
  -13.9470  -12.8600   15.2460 C   0  0  0  0  0
  -13.1610  -13.5010   14.5350 O   0  0  0  0  0
  -12.6220  -11.5500   16.9440 C   0  0  0  0  0
  -11.3010  -12.2210   17.3310 C   0  0  0  0  0
  -11.7060  -13.5010   17.9930 C   0  0  0  0  0
  -15.0720  -12.3120   14.7840 N   0  0  0  0  0
  -15.4550  -12.4440   13.3830 C   0  0  0  0  0
  -14.4570  -11.7910   12.4440 C   0  0  0  0  0
  -14.2460  -12.2670   11.3310 O   0  0  0  0  0
  -16.8310  -11.8280   13.1290 C   0  0  0  0  0
  -18.0320  -12.7240   13.3730 C   0  0  0  0  0
  -19.2050  -12.2040   12.5730 C   0  0  0  0  0
  -17.7150  -14.1770   13.0180 C   0  0  0  0  0
  -13.8650  -10.6870   12.8930 N   0  0  0  0  0
  -12.9150   -9.9440   12.0910 C   0  0  0  0  0
  -11.6390   -9.7630   12.8770 C   0  0  0  0  0
  -11.4260   -8.7130   13.4700 O   0  0  0  0  0
  -13.4620   -8.5570   11.7600 C   0  0  0  0  0
  -14.7480   -8.6100   10.9660 C   0  0  0  0  0
  -14.8220   -9.2690    9.9320 O   0  0  0  0  0
  -15.7770   -7.9320   11.4610 N   0  0  0  0  0
  -10.7770  -10.7830   12.8840 N   0  0  0  0  0
   -9.5030  -10.6870   13.6050 C   0  0  0  0  0
   -8.7570   -9.4450   13.1410 C   0  0  0  0  0
   -8.5960   -9.2260   11.9300 O   0  0  0  0  0
   -8.7470  -11.9450   13.1510 C   0  0  0  0  0
   -9.8330  -12.9110   12.7260 C   0  0  0  0  0
  -10.8880  -12.0310   12.1070 C   0  0  0  0  0
   -8.3230   -8.6170   14.0810 N   0  0  0  0  0
   -7.6400   -7.3980   13.6910 C   0  0  0  0  0
   -6.3200   -7.7660   13.0260 C   0  0  0  0  0
   -5.5910   -8.6220   13.5270 O   0  0  0  0  0
   -7.3960   -6.4960   14.8930 C   0  0  0  0  0
   -7.0390   -5.0950   14.5170 C   0  0  0  0  0
   -7.8580   -4.0150   14.7740 N   0  0  0  0  0
   -5.9480   -4.5950   13.8850 C   0  0  0  0  0
   -7.2890   -2.9130   14.3210 C   0  0  0  0  0
   -6.1270   -3.2410   13.7760 N   0  0  0  0  0
   -6.0280   -7.1320   11.8910 N   0  0  0  0  0
   -4.8050   -7.4210   11.1490 C   0  0  0  0  0
   -3.9510   -6.1750   11.1310 C   0  0  0  0  0
   -3.5360   -5.7110   12.1820 O   0  0  0  0  0
   -3.6840   -5.6120    9.9570 N   0  0  0  0  0
   -2.9300   -4.3630    9.9070 C   0  0  0  0  0
   -3.4720   -3.5360    8.7720 C   0  0  0  0  0
   -3.9770   -4.0850    7.7870 O   0  0  0  0  0
   -1.4500   -4.6140    9.6960 C   0  0  0  0  0
   -1.2080   -5.2210    8.4660 O   0  0  0  0  0
   -3.3220   -2.2250    8.8890 N   0  0  0  0  0
   -3.9420   -1.3010    7.9620 C   0  0  0  0  0
   -3.4970   -1.5700    6.5300 C   0  0  0  0  0
   -4.2900   -1.4400    5.5850 O   0  0  0  0  0
   -3.6460    0.1210    8.3850 C   0  0  0  0  0
   -2.2310   -1.9310    6.3380 N   0  0  0  0  0
   -1.7700   -2.1400    4.9630 C   0  0  0  0  0
   -2.4610   -3.2830    4.2440 C   0  0  0  0  0
   -2.5590   -3.2890    3.0210 O   0  0  0  0  0
   -0.2600   -2.3030    4.8620 C   0  0  0  0  0
    0.1980   -2.0600    3.4140 C   0  0  0  0  0
    1.6600   -2.1580    3.2630 C   0  0  0  0  0
    2.3660   -1.1080    3.9910 N   0  0  0  0  0
    2.7820    0.0270    3.4430 C   0  0  0  0  0
    2.5160    0.2950    2.1630 N   0  0  0  0  0
    3.4430    0.9010    4.1830 N   0  0  0  0  0
   -2.9590   -4.2410    5.0110 N   0  0  0  0  0
   -3.5910   -5.4270    4.4560 C   0  0  0  0  0
   -5.0910   -5.2280    4.2470 C   0  0  0  0  0
   -5.7820   -6.1300    3.7430 O   0  0  0  0  0
   -3.3140   -6.6340    5.3450 C   0  0  0  0  0
   -5.5980   -4.0480    4.6150 N   0  0  0  0  0
   -7.0200   -3.7290    4.4690 C   0  0  0  0  0
   -7.2050   -2.6620    3.3920 C   0  0  0  0  0
   -6.2520   -1.9590    3.0460 O   0  0  0  0  0
   -7.5970   -3.2240    5.8020 C   0  0  0  0  0
   -7.3290   -4.1280    7.0220 C   0  0  0  0  0
   -8.2560   -5.3380    7.0990 C   0  0  0  0  0
   -9.2410   -5.3990    6.3290 O   0  0  0  0  0
   -7.9980   -6.2230    7.9460 O   0  0  0  0  0
   -8.4170   -2.5400    2.8510 N   0  0  0  0  0
   -8.6960   -1.4460    1.9080 C   0  0  0  0  0
   -9.1980   -0.1750    2.6030 C   0  0  0  0  0
  -10.2710   -0.1750    3.2190 O   0  0  0  0  0
   -9.7090   -1.8380    0.8150 C   0  0  0  0  0
   -9.9360   -0.6560   -0.1410 C   0  0  0  0  0
   -9.2190   -3.0590    0.0410 C   0  0  0  0  0
   -8.4290    0.9120    2.5060 N   0  0  0  0  0
   -8.8830    2.2030    3.0310 C   0  0  0  0  0
   -9.7300    2.9240    1.9810 C   0  0  0  0  0
   -9.2940    3.1170    0.8480 O   0  0  0  0  0
   -7.6950    3.0740    3.4460 C   0  0  0  0  0
   -8.0850    4.4130    3.9760 C   0  0  0  0  0
   -8.6720    4.5890    5.2120 N   0  0  0  0  0
   -7.9780    5.6520    3.4300 C   0  0  0  0  0
   -8.9110    5.8760    5.4050 C   0  0  0  0  0
   -8.5000    6.5400    4.3380 N   0  0  0  0  0
  -10.9450    3.3150    2.3510 N   0  0  0  0  0
  -11.8230    4.0250    1.4160 C   0  0  0  0  0
  -11.3130    5.4360    1.1350 C   0  0  0  0  0
  -10.9900    6.1790    2.0630 O   0  0  0  0  0
  -13.2400    4.0710    1.9500 C   0  0  0  0  0
  -11.2218    5.8434   -0.0538 O   0  0  0  0  0
  -14.3455  -18.6972   21.4807 H   0  0  0  0  0
  -15.6861  -17.7076   21.4687 H   0  0  0  0  0
  -15.8647  -19.3547   21.2896 H   0  0  0  0  0
  -14.7331  -19.3302   19.2203 H   0  0  0  0  0
  -16.3744  -18.0168   17.9223 H   0  0  0  0  0
  -16.9990  -17.3515   19.5053 H   0  0  0  0  0
  -18.4059  -19.0368   19.5628 H   0  0  0  0  0
  -16.9739  -20.1416   19.7312 H   0  0  0  0  0
  -17.8765  -21.6393   18.6128 H   0  0  0  0  0
  -12.0429  -15.8629   18.5539 H   0  0  0  0  0
  -10.7504  -16.5337   16.6680 H   0  0  0  0  0
  -12.1317  -16.4938   15.6190 H   0  0  0  0  0
  -11.1673  -18.7804   17.3686 H   0  0  0  0  0
  -11.7938  -18.8575   15.7637 H   0  0  0  0  0
  -14.0732  -18.6375   16.4918 H   0  0  0  0  0
  -13.4223  -19.5020   17.8047 H   0  0  0  0  0
  -14.6024  -12.5018   17.2148 H   0  0  0  0  0
  -12.9547  -10.8627   17.7218 H   0  0  0  0  0
  -12.5084  -10.9557   16.0374 H   0  0  0  0  0
  -10.7033  -11.5926   17.9913 H   0  0  0  0  0
  -10.6635  -12.3950   16.4641 H   0  0  0  0  0
  -10.9422  -14.2748   17.9158 H   0  0  0  0  0
  -11.8426  -13.3935   19.0691 H   0  0  0  0  0
  -15.6747  -11.7917   15.4215 H   0  0  0  0  0
  -15.4782  -13.5145   13.1791 H   0  0  0  0  0
  -16.8558  -11.5730   12.0695 H   0  0  0  0  0
  -16.9249  -11.0005   13.8322 H   0  0  0  0  0
  -18.2878  -12.7054   14.4324 H   0  0  0  0  0
  -19.4351  -11.1861   12.8877 H   0  0  0  0  0
  -18.9511  -12.2093   11.5130 H   0  0  0  0  0
  -20.0714  -12.8431   12.7436 H   0  0  0  0  0
  -17.4396  -14.2407   11.9653 H   0  0  0  0  0
  -16.8866  -14.5276   13.6335 H   0  0  0  0  0
  -18.5937  -14.7949   13.2030 H   0  0  0  0  0
  -14.0872  -10.3537   13.8311 H   0  0  0  0  0
  -12.7337  -10.4973   11.1696 H   0  0  0  0  0
  -12.7171   -8.0393   11.1557 H   0  0  0  0  0
  -13.6704   -8.0466   12.7003 H   0  0  0  0  0
  -16.6757   -7.9450   10.9788 H   0  0  0  0  0
  -15.6686   -7.3982   12.3234 H   0  0  0  0  0
   -9.6160  -10.6197   14.6870 H   0  0  0  0  0
   -8.1248  -12.3556   13.9462 H   0  0  0  0  0
   -8.0511  -11.7316   12.3396 H   0  0  0  0  0
  -10.2201  -13.4899   13.5645 H   0  0  0  0  0
   -9.4645  -13.6640   12.0293 H   0  0  0  0  0
  -10.7366  -11.8781   11.0385 H   0  0  0  0  0
  -11.8846  -12.4701   12.1533 H   0  0  0  0  0
   -8.4676   -8.8345   15.0670 H   0  0  0  0  0
   -8.2667   -6.8464   12.9903 H   0  0  0  0  0
   -6.5573   -6.9112   15.4518 H   0  0  0  0  0
   -8.3205   -6.4573   15.4691 H   0  0  0  0  0
   -5.0889   -5.1643   13.5300 H   0  0  0  0  0
   -7.7038   -1.9070   14.3845 H   0  0  0  0  0
   -6.6740   -6.4287   11.5326 H   0  0  0  0  0
   -5.0495   -7.7198   10.1297 H   0  0  0  0  0
   -4.2632   -8.2371   11.6271 H   0  0  0  0  0
   -4.0048   -6.0511    9.0940 H   0  0  0  0  0
   -3.0404   -3.8410   10.8575 H   0  0  0  0  0
   -1.0953   -5.2771   10.4851 H   0  0  0  0  0
   -0.9299   -3.6564    9.7178 H   0  0  0  0  0
   -0.2648   -5.3664    8.3623 H   0  0  0  0  0
   -2.7547   -1.8565    9.6524 H   0  0  0  0  0
   -5.0217   -1.4488    7.9859 H   0  0  0  0  0
   -4.0431    0.2912    9.3857 H   0  0  0  0  0
   -2.5678    0.2807    8.3886 H   0  0  0  0  0
   -4.1146    0.8121    7.6844 H   0  0  0  0  0
   -1.5978   -2.0589    7.1274 H   0  0  0  0  0
   -2.0544   -1.2197    4.4528 H   0  0  0  0  0
    0.0127   -3.3154    5.1599 H   0  0  0  0  0
    0.2240   -1.5795    5.5180 H   0  0  0  0  0
   -0.1034   -1.0518    3.1299 H   0  0  0  0  0
   -0.2579   -2.8235    2.7837 H   0  0  0  0  0
    1.8976   -2.0528    2.2044 H   0  0  0  0  0
    1.9771   -3.1198    3.6662 H   0  0  0  0  0
    2.5512   -1.2559    4.9831 H   0  0  0  0  0
    2.8228    1.1767    1.7521 H   0  0  0  0  0
    2.0058   -0.3819    1.5956 H   0  0  0  0  0
    3.6290    0.7000    5.1656 H   0  0  0  0  0
   -2.8971   -4.1436    6.0245 H   0  0  0  0  0
   -3.1570   -5.6101    3.4730 H   0  0  0  0  0
   -2.2382   -6.7979    5.4081 H   0  0  0  0  0
   -3.7137   -6.4487    6.3420 H   0  0  0  0  0
   -3.7927   -7.5154    4.9183 H   0  0  0  0  0
   -4.9736   -3.3454    5.0111 H   0  0  0  0  0
   -7.5512   -4.6348    4.1765 H   0  0  0  0  0
   -8.6790   -3.1816    5.6772 H   0  0  0  0  0
   -7.1134   -2.2694    6.0092 H   0  0  0  0  0
   -7.4976   -3.5289    7.9168 H   0  0  0  0  0
   -6.3089   -4.5020    6.9346 H   0  0  0  0  0
   -7.2041   -5.9809    8.4284 H   0  0  0  0  0
   -9.1516   -3.2057    3.0910 H   0  0  0  0  0
   -7.7325   -1.2411    1.4414 H   0  0  0  0  0
  -10.6550   -2.0925    1.2930 H   0  0  0  0  0
  -10.3243    0.1940    0.4200 H   0  0  0  0  0
   -8.9905   -0.3824   -0.6094 H   0  0  0  0  0
  -10.6535   -0.9443   -0.9092 H   0  0  0  0  0
   -8.2626   -2.8299   -0.4290 H   0  0  0  0  0
   -9.0967   -3.8973    0.7269 H   0  0  0  0  0
   -9.9491   -3.3187   -0.7256 H   0  0  0  0  0
   -7.5138    0.8432    2.0609 H   0  0  0  0  0
   -9.4922    2.0202    3.9162 H   0  0  0  0  0
   -7.0883    3.2412    2.5560 H   0  0  0  0  0
   -7.1706    2.5489    4.2444 H   0  0  0  0  0
   -7.5570    5.8956    2.4546 H   0  0  0  0  0
   -9.3685    6.3140    6.2921 H   0  0  0  0  0
  -11.2708    3.1187    3.2974 H   0  0  0  0  0
  -11.8203    3.4756    0.4746 H   0  0  0  0  0
  -13.6103    3.0544    2.0821 H   0  0  0  0  0
  -13.2490    4.5897    2.9086 H   0  0  0  0  0
  -13.8766    4.6019    1.2422 H   0  0  0  0  0
  -11.5098    5.1497   -0.6516 H   0  0  0  0  0
  1  2  1  0  0  0
  2  3  1  0  0  0
  2  5  1  0  0  0
  3  4  2  0  0  0
  3 10  1  0  0  0
  5  6  1  0  0  0
  6  7  1  0  0  0
  7  8  2  0  0  0
  7  9  1  0  0  0
 10 11  1  0  0  0
 10 16  1  0  0  0
 11 12  1  0  0  0
 11 14  1  0  0  0
 12 13  2  0  0  0
 12 17  1  0  0  0
 14 15  1  0  0  0
 15 16  1  0  0  0
 17 18  1  0  0  0
 17 23  1  0  0  0
 18 19  1  0  0  0
 18 21  1  0  0  0
 19 20  2  0  0  0
 19 24  1  0  0  0
 21 22  1  0  0  0
 22 23  1  0  0  0
 24 25  1  0  0  0
 25 26  1  0  0  0
 25 28  1  0  0  0
 26 27  2  0  0  0
 26 32  1  0  0  0
 28 29  1  0  0  0
 29 30  1  0  0  0
 29 31  1  0  0  0
 32 33  1  0  0  0
 33 34  1  0  0  0
 33 36  1  0  0  0
 34 35  2  0  0  0
 34 40  1  0  0  0
 36 37  1  0  0  0
 37 38  2  0  0  0
 37 39  1  0  0  0
 40 41  1  0  0  0
 40 46  1  0  0  0
 41 42  1  0  0  0
 41 44  1  0  0  0
 42 43  2  0  0  0
 42 47  1  0  0  0
 44 45  1  0  0  0
 45 46  1  0  0  0
 47 48  1  0  0  0
 48 49  1  0  0  0
 48 51  1  0  0  0
 49 50  2  0  0  0
 49 57  1  0  0  0
 51 52  1  0  0  0
 52 53  4  0  0  0
 52 54  4  0  0  0
 53 55  4  0  0  0
 54 56  4  0  0  0
 55 56  4  0  0  0
 57 58  1  0  0  0
 58 59  1  0  0  0
 59 60  2  0  0  0
 59 61  1  0  0  0
 61 62  1  0  0  0
 62 63  1  0  0  0
 62 65  1  0  0  0
 63 64  2  0  0  0
 63 67  1  0  0  0
 65 66  1  0  0  0
 67 68  1  0  0  0
 68 69  1  0  0  0
 68 71  1  0  0  0
 69 70  2  0  0  0
 69 72  1  0  0  0
 72 73  1  0  0  0
 73 74  1  0  0  0
 73 76  1  0  0  0
 74 75  2  0  0  0
 74 83  1  0  0  0
 76 77  1  0  0  0
 77 78  1  0  0  0
 78 79  1  0  0  0
 79 80  1  0  0  0
 80 81  1  0  0  0
 80 82  2  0  0  0
 83 84  1  0  0  0
 84 85  1  0  0  0
 84 87  1  0  0  0
 85 86  2  0  0  0
 85 88  1  0  0  0
 88 89  1  0  0  0
 89 90  1  0  0  0
 89 92  1  0  0  0
 90 91  2  0  0  0
 90 97  1  0  0  0
 92 93  1  0  0  0
 93 94  1  0  0  0
 94 95  2  0  0  0
 94 96  1  0  0  0
 97 98  1  0  0  0
 98 99  1  0  0  0
 98101  1  0  0  0
 99100  2  0  0  0
 99104  1  0  0  0
101102  1  0  0  0
101103  1  0  0  0
104105  1  0  0  0
105106  1  0  0  0
105108  1  0  0  0
106107  2  0  0  0
106114  1  0  0  0
108109  1  0  0  0
109110  4  0  0  0
109111  4  0  0  0
110112  4  0  0  0
111113  4  0  0  0
112113  4  0  0  0
114115  1  0  0  0
115116  1  0  0  0
115118  1  0  0  0
116117  2  0  0  0
116119  1  0  0  0
  1120  1  0  0  0
  1121  1  0  0  0
  1122  1  0  0  0
  2123  1  0  0  0
  5124  1  0  0  0
  5125  1  0  0  0
  6126  1  0  0  0
  6127  1  0  0  0
  9128  1  0  0  0
 11129  1  0  0  0
 14130  1  0  0  0
 14131  1  0  0  0
 15132  1  0  0  0
 15133  1  0  0  0
 16134  1  0  0  0
 16135  1  0  0  0
 18136  1  0  0  0
 21137  1  0  0  0
 21138  1  0  0  0
 22139  1  0  0  0
 22140  1  0  0  0
 23141  1  0  0  0
 23142  1  0  0  0
 24143  1  0  0  0
 25144  1  0  0  0
 28145  1  0  0  0
 28146  1  0  0  0
 29147  1  0  0  0
 30148  1  0  0  0
 30149  1  0  0  0
 30150  1  0  0  0
 31151  1  0  0  0
 31152  1  0  0  0
 31153  1  0  0  0
 32154  1  0  0  0
 33155  1  0  0  0
 36156  1  0  0  0
 36157  1  0  0  0
 39158  1  0  0  0
 39159  1  0  0  0
 41160  1  0  0  0
 44161  1  0  0  0
 44162  1  0  0  0
 45163  1  0  0  0
 45164  1  0  0  0
 46165  1  0  0  0
 46166  1  0  0  0
 47167  1  0  0  0
 48168  1  0  0  0
 51169  1  0  0  0
 51170  1  0  0  0
 54171  1  0  0  0
 55172  1  0  0  0
 57173  1  0  0  0
 58174  1  0  0  0
 58175  1  0  0  0
 61176  1  0  0  0
 62177  1  0  0  0
 65178  1  0  0  0
 65179  1  0  0  0
 66180  1  0  0  0
 67181  1  0  0  0
 68182  1  0  0  0
 71183  1  0  0  0
 71184  1  0  0  0
 71185  1  0  0  0
 72186  1  0  0  0
 73187  1  0  0  0
 76188  1  0  0  0
 76189  1  0  0  0
 77190  1  0  0  0
 77191  1  0  0  0
 78192  1  0  0  0
 78193  1  0  0  0
 79194  1  0  0  0
 81195  1  0  0  0
 81196  1  0  0  0
 82197  1  0  0  0
 83198  1  0  0  0
 84199  1  0  0  0
 87200  1  0  0  0
 87201  1  0  0  0
 87202  1  0  0  0
 88203  1  0  0  0
 89204  1  0  0  0
 92205  1  0  0  0
 92206  1  0  0  0
 93207  1  0  0  0
 93208  1  0  0  0
 96209  1  0  0  0
 97210  1  0  0  0
 98211  1  0  0  0
101212  1  0  0  0
102213  1  0  0  0
102214  1  0  0  0
102215  1  0  0  0
103216  1  0  0  0
103217  1  0  0  0
103218  1  0  0  0
104219  1  0  0  0
105220  1  0  0  0
108221  1  0  0  0
108222  1  0  0  0
111223  1  0  0  0
112224  1  0  0  0
114225  1  0  0  0
115226  1  0  0  0
118227  1  0  0  0
118228  1  0  0  0
118229  1  0  0  0
119230  1  0  0  0
M  END
$$$$
