### 
### Created by X-TOOL on Mon Sep 10 21:13:08 2018
### 

@<TRIPOS>MOLECULE
4esg_ligand
  230   234     1     0     0
SMALL
GAST_HUCK


@<TRIPOS>ATOM
      1 N         -15.2710  -18.5530   21.0770 N.4       1 GLU         0.2380
      2 CA        -15.1510  -18.4080   19.6240 C.3       1 GLU         0.0667
      3 C         -14.2010  -17.2640   19.2720 C.2       1 GLU         0.2293
      4 O         -14.0850  -16.2980   20.0270 O.2       1 GLU        -0.3905
      5 CB        -16.5320  -18.1890   18.9870 C.3       1 GLU         0.0194
      6 CG        -17.4750  -19.3910   19.1200 C.3       1 GLU         0.0075
      7 CD        -17.8110  -20.0310   17.7790 C.2       1 GLU         0.0351
      8 OE1       -17.8910  -19.2960   16.7700 O.co2     1 GLU        -0.5690
      9 OE2       -17.9820  -21.2700   17.7330 O.co2     1 GLU        -0.5690
     10 N         -13.4940  -17.3800   18.1350 N.am      1 PRO        -0.2471
     11 CA        -12.6400  -16.2580   17.7320 C.3       1 PRO         0.1341
     12 C         -13.4870  -15.0940   17.2150 C.2       1 PRO         0.2066
     13 O         -14.6180  -15.3210   16.7660 O.2       1 PRO        -0.3942
     14 CB        -11.7920  -16.8460   16.5930 C.3       1 PRO        -0.0104
     15 CG        -11.9320  -18.3530   16.7200 C.3       1 PRO        -0.0281
     16 CD        -13.3130  -18.5590   17.2690 C.3       1 PRO         0.0371
     17 N         -12.9550  -13.8610   17.2930 N.am      1 PRO        -0.2498
     18 CA        -13.6400  -12.6850   16.7370 C.3       1 PRO         0.1338
     19 C         -13.9470  -12.8600   15.2460 C.2       1 PRO         0.2041
     20 O         -13.1610  -13.5010   14.5350 O.2       1 PRO        -0.3944
     21 CB        -12.6220  -11.5500   16.9440 C.3       1 PRO        -0.0104
     22 CG        -11.3010  -12.2210   17.3310 C.3       1 PRO        -0.0281
     23 CD        -11.7060  -13.5010   17.9930 C.3       1 PRO         0.0369
     24 N         -15.0720  -12.3120   14.7840 N.am      1 LEU        -0.2637
     25 CA        -15.4550  -12.4440   13.3830 C.3       1 LEU         0.1312
     26 C         -14.4570  -11.7910   12.4440 C.2       1 LEU         0.2040
     27 O         -14.2460  -12.2670   11.3310 O.2       1 LEU        -0.3944
     28 CB        -16.8310  -11.8280   13.1290 C.3       1 LEU        -0.0101
     29 CG        -18.0320  -12.7240   13.3730 C.3       1 LEU        -0.0425
     30 CD1       -19.2050  -12.2040   12.5730 C.3       1 LEU        -0.0625
     31 CD2       -17.7150  -14.1770   13.0180 C.3       1 LEU        -0.0625
     32 N         -13.8650  -10.6870   12.8930 N.am      1 ASN        -0.2616
     33 CA        -12.9150   -9.9440   12.0910 C.3       1 ASN         0.1478
     34 C         -11.6390   -9.7630   12.8770 C.2       1 ASN         0.2088
     35 O         -11.4260   -8.7130   13.4700 O.2       1 ASN        -0.3940
     36 CB        -13.4620   -8.5570   11.7600 C.3       1 ASN         0.0773
     37 CG        -14.7480   -8.6100   10.9660 C.2       1 ASN         0.1780
     38 OD1       -14.8220   -9.2690    9.9320 O.2       1 ASN        -0.3970
     39 ND2       -15.7770   -7.9320   11.4610 N.am      1 ASN        -0.3007
     40 N         -10.7770  -10.7830   12.8840 N.am      1 PRO        -0.2497
     41 CA         -9.5030  -10.6870   13.6050 C.3       1 PRO         0.1338
     42 C          -8.7570   -9.4450   13.1410 C.2       1 PRO         0.2042
     43 O          -8.5960   -9.2260   11.9300 O.2       1 PRO        -0.3944
     44 CB         -8.7470  -11.9450   13.1510 C.3       1 PRO        -0.0104
     45 CG         -9.8330  -12.9110   12.7260 C.3       1 PRO        -0.0281
     46 CD        -10.8880  -12.0310   12.1070 C.3       1 PRO         0.0369
     47 N          -8.3230   -8.6170   14.0810 N.am      1 HIS        -0.2625
     48 CA         -7.6400   -7.3980   13.6910 C.3       1 HIS         0.1369
     49 C          -6.3200   -7.7660   13.0260 C.2       1 HIS         0.2052
     50 O          -5.5910   -8.6220   13.5270 O.2       1 HIS        -0.3942
     51 CB         -7.3960   -6.4960   14.8930 C.3       1 HIS         0.0145
     52 CG         -7.0390   -5.0950   14.5170 C.2       1 HIS        -0.0027
     53 ND1        -7.8580   -4.0150   14.7740 N.2       1 HIS        -0.3252
     54 CD2        -5.9480   -4.5950   13.8850 C.2       1 HIS         0.0291
     55 CE1        -7.2890   -2.9130   14.3210 C.2       1 HIS         0.0907
     56 NE2        -6.1270   -3.2410   13.7760 N.pl3     1 HIS        -0.2752
     57 N          -6.0280   -7.1320   11.8910 N.am      1 GLY        -0.2663
     58 CA         -4.8050   -7.4210   11.1490 C.3       1 GLY         0.1201
     59 C          -3.9510   -6.1750   11.1310 C.2       1 GLY         0.2008
     60 O          -3.5360   -5.7110   12.1820 O.2       1 GLY        -0.3947
     61 N          -3.6840   -5.6120    9.9570 N.am      1 SER        -0.2618
     62 CA         -2.9300   -4.3630    9.9070 C.3       1 SER         0.1539
     63 C          -3.4720   -3.5360    8.7720 C.2       1 SER         0.2062
     64 O          -3.9770   -4.0850    7.7870 O.2       1 SER        -0.3943
     65 CB         -1.4500   -4.6140    9.6960 C.3       1 SER         0.0843
     66 OG         -1.2080   -5.2210    8.4660 O.3       1 SER        -0.3903
     67 N          -3.3220   -2.2250    8.8890 N.am      1 ALA        -0.2639
     68 CA         -3.9420   -1.3010    7.9620 C.3       1 ALA         0.1282
     69 C          -3.4970   -1.5700    6.5300 C.2       1 ALA         0.2036
     70 O          -4.2900   -1.4400    5.5850 O.2       1 ALA        -0.3944
     71 CB         -3.6460    0.1210    8.3850 C.3       1 ALA        -0.0244
     72 N          -2.2310   -1.9310    6.3380 N.am      1 ARG        -0.2637
     73 CA         -1.7700   -2.1400    4.9630 C.3       1 ARG         0.1311
     74 C          -2.4610   -3.2830    4.2440 C.2       1 ARG         0.2039
     75 O          -2.5590   -3.2890    3.0210 O.2       1 ARG        -0.3944
     76 CB         -0.2600   -2.3030    4.8620 C.3       1 ARG        -0.0092
     77 CG          0.1980   -2.0600    3.4140 C.3       1 ARG        -0.0156
     78 CD          1.6600   -2.1580    3.2630 C.3       1 ARG         0.0627
     79 NE          2.3660   -1.1080    3.9910 N.pl3     1 ARG        -0.2723
     80 CZ          2.7820    0.0270    3.4430 C.cat     1 ARG         0.2882
     81 NH1         2.5160    0.2950    2.1630 N.pl3     1 ARG        -0.2849
     82 NH2         3.4430    0.9010    4.1830 N.pl3     1 ARG        -0.2849
     83 N          -2.9590   -4.2410    5.0110 N.am      1 ALA        -0.2640
     84 CA         -3.5910   -5.4270    4.4560 C.3       1 ALA         0.1282
     85 C          -5.0910   -5.2280    4.2470 C.2       1 ALA         0.2036
     86 O          -5.7820   -6.1300    3.7430 O.2       1 ALA        -0.3944
     87 CB         -3.3140   -6.6340    5.3450 C.3       1 ALA        -0.0244
     88 N          -5.5980   -4.0480    4.6150 N.am      1 GLU        -0.2636
     89 CA         -7.0200   -3.7290    4.4690 C.3       1 GLU         0.1325
     90 C          -7.2050   -2.6620    3.3920 C.2       1 GLU         0.2040
     91 O          -6.2520   -1.9590    3.0460 O.2       1 GLU        -0.3944
     92 CB         -7.5970   -3.2240    5.8020 C.3       1 GLU        -0.0008
     93 CG         -7.3290   -4.1280    7.0220 C.3       1 GLU         0.0044
     94 CD         -8.2560   -5.3380    7.0990 C.2       1 GLU         0.0350
     95 OE1        -9.2410   -5.3990    6.3290 O.co2     1 GLU        -0.5690
     96 OE2        -7.9980   -6.2230    7.9460 O.co2     1 GLU        -0.5690
     97 N          -8.4170   -2.5400    2.8510 N.am      1 VAL        -0.2635
     98 CA         -8.6960   -1.4460    1.9080 C.3       1 VAL         0.1333
     99 C          -9.1980   -0.1750    2.6030 C.2       1 VAL         0.2042
    100 O         -10.2710   -0.1750    3.2190 O.2       1 VAL        -0.3944
    101 CB         -9.7090   -1.8380    0.8150 C.3       1 VAL        -0.0063
    102 CG1        -9.9360   -0.6560   -0.1410 C.3       1 VAL        -0.0584
    103 CG2        -9.2190   -3.0590    0.0410 C.3       1 VAL        -0.0584
    104 N          -8.4290    0.9120    2.5060 N.am      1 HIS        -0.2625
    105 CA         -8.8830    2.2030    3.0310 C.3       1 HIS         0.1369
    106 C          -9.7300    2.9240    1.9810 C.2       1 HIS         0.2049
    107 O          -9.2940    3.1170    0.8480 O.2       1 HIS        -0.3943
    108 CB         -7.6950    3.0740    3.4460 C.3       1 HIS         0.0145
    109 CG         -8.0850    4.4130    3.9760 C.2       1 HIS        -0.0027
    110 ND1        -8.6720    4.5890    5.2120 N.2       1 HIS        -0.3252
    111 CD2        -7.9780    5.6520    3.4300 C.2       1 HIS         0.0291
    112 CE1        -8.9110    5.8760    5.4050 C.2       1 HIS         0.0907
    113 NE2        -8.5000    6.5400    4.3380 N.pl3     1 HIS        -0.2752
    114 N         -10.9450    3.3150    2.3510 N.am      1 LEU        -0.2672
    115 CA        -11.8230    4.0250    1.4160 C.3       1 LEU         0.1198
    116 C         -11.3130    5.4360    1.1350 C.2       1 LEU         0.2147
    117 O         -10.9900    6.1790    2.0630 O.co2     1 LEU        -0.4120
    118 CB        -13.2400    4.0710    1.9500 C.3       1 LEU        -0.0276
    119 H         -15.9007  -19.3113   21.2881 H         1 GLU         0.2015
    120 H         -15.6306  -17.6979   21.4715 H         1 GLU         0.2015
    121 H         -14.3643  -18.7496   21.4711 H         1 GLU         0.2015
    122 H         -14.7301  -19.3401   19.2189 H         1 GLU         0.1099
    123 H         -16.3902  -17.9767   17.9170 H         1 GLU         0.0363
    124 H         -17.0044  -17.3227   19.4733 H         1 GLU         0.0363
    125 H         -18.4095  -19.0536   19.5920 H         1 GLU         0.0434
    126 H         -16.9934  -20.1462   19.7586 H         1 GLU         0.0434
    127 H         -12.0083  -15.9189   18.5662 H         1 PRO         0.0802
    128 H         -10.7392  -16.5470   16.7035 H         1 PRO         0.0313
    129 H         -12.1694  -16.5057   15.6174 H         1 PRO         0.0313
    130 H         -11.1758  -18.7567   17.4093 H         1 PRO         0.0287
    131 H         -11.8283  -18.8370   15.7376 H         1 PRO         0.0287
    132 H         -14.0617  -18.5786   16.4633 H         1 PRO         0.0524
    133 H         -13.3745  -19.4913   17.8495 H         1 PRO         0.0524
    134 H         -14.5741  -12.4831   17.2817 H         1 PRO         0.0802
    135 H         -12.9581  -10.8792   17.7484 H         1 PRO         0.0313
    136 H         -12.4988  -10.9749   16.0144 H         1 PRO         0.0313
    137 H         -10.7329  -11.5868   18.0274 H         1 PRO         0.0287
    138 H         -10.6915  -12.4221   16.4377 H         1 PRO         0.0287
    139 H         -10.9385  -14.2768   17.8548 H         1 PRO         0.0524
    140 H         -11.8854  -13.3499   19.0677 H         1 PRO         0.0524
    141 H         -15.6629  -11.8019   15.4090 H         1 LEU         0.1883
    142 H         -15.5016  -13.5173   13.1465 H         1 LEU         0.0800
    143 H         -16.8634  -11.5053   12.0779 H         1 LEU         0.0315
    144 H         -16.9303  -10.9507   13.7852 H         1 LEU         0.0315
    145 H         -18.2906  -12.6812   14.4413 H         1 LEU         0.0298
    146 H         -20.0800  -12.8482   12.7443 H         1 LEU         0.0232
    147 H         -18.9501  -12.2089   11.5030 H         1 LEU         0.0232
    148 H         -19.4383  -11.1768   12.8897 H         1 LEU         0.0232
    149 H         -16.8591  -14.5223   13.6165 H         1 LEU         0.0232
    150 H         -17.4668  -14.2475   11.9487 H         1 LEU         0.0232
    151 H         -18.5909  -14.8066   13.2334 H         1 LEU         0.0232
    152 H         -14.0828  -10.3602   13.8127 H         1 ASN         0.1885
    153 H         -12.7099  -10.4943   11.1609 H         1 ASN         0.0826
    154 H         -12.7081   -8.0126   11.1725 H         1 ASN         0.0551
    155 H         -13.6516   -8.0199   12.7010 H         1 ASN         0.0551
    156 H         -16.6532   -7.9305   10.9790 H         1 ASN         0.1814
    157 H         -15.6757   -7.4229   12.3157 H         1 ASN         0.1814
    158 H          -9.6480  -10.6677   14.6952 H         1 PRO         0.0802
    159 H          -8.1573  -12.3639   13.9797 H         1 PRO         0.0313
    160 H          -8.0806  -11.7141   12.3068 H         1 PRO         0.0313
    161 H         -10.2364  -13.4516   13.5949 H         1 PRO         0.0287
    162 H          -9.4473  -13.6333   11.9915 H         1 PRO         0.0287
    163 H         -10.6793  -11.8533   11.0417 H         1 PRO         0.0524
    164 H         -11.8878  -12.4766   12.2154 H         1 PRO         0.0524
    165 H          -8.4648   -8.8302   15.0477 H         1 HIS         0.1885
    166 H          -8.2664   -6.8552   12.9679 H         1 HIS         0.0817
    167 H          -6.5717   -6.9193   15.4857 H         1 HIS         0.0420
    168 H          -8.3112   -6.4715   15.5028 H         1 HIS         0.0420
    169 H          -5.0897   -5.1638   13.5303 H         1 HIS         0.0729
    170 H          -7.7034   -1.9079   14.3845 H         1 HIS         0.1199
    171 H          -5.4644   -2.5837   13.3403 H         1 HIS         0.2361
    172 H          -6.6613   -6.4425   11.5396 H         1 GLY         0.1881
    173 H          -5.0561   -7.7138   10.1189 H         1 GLY         0.0763
    174 H          -4.2576   -8.2392   11.6397 H         1 GLY         0.0763
    175 H          -3.9985   -6.0425    9.1110 H         1 SER         0.1884
    176 H          -3.0664   -3.8210   10.8544 H         1 SER         0.0823
    177 H          -1.0803   -5.2701   10.4978 H         1 SER         0.0606
    178 H          -0.9153   -3.6534    9.7324 H         1 SER         0.0606
    179 H          -0.2746   -5.3649    8.3633 H         1 SER         0.2097
    180 H          -2.7658   -1.8637    9.6374 H         1 ALA         0.1883
    181 H          -5.0309   -1.4499    8.0074 H         1 ALA         0.0797
    182 H          -4.1184    0.8195    7.6787 H         1 ALA         0.0277
    183 H          -2.5581    0.2835    8.3890 H         1 ALA         0.0277
    184 H          -4.0463    0.2940    9.3948 H         1 ALA         0.0277
    185 H          -1.6102   -2.0564    7.1119 H         1 ARG         0.1883
    186 H          -2.0283   -1.2223    4.4143 H         1 ARG         0.0800
    187 H           0.0177   -3.3231    5.1658 H         1 ARG         0.0313
    188 H           0.2304   -1.5762    5.5263 H         1 ARG         0.0313
    189 H          -0.1221   -1.0535    3.1065 H         1 ARG         0.0301
    190 H          -0.2753   -2.8101    2.7633 H         1 ARG         0.0301
    191 H           1.9111   -2.0775    2.1951 H         1 ARG         0.0689
    192 H           1.9899   -3.1355    3.6446 H         1 ARG         0.0689
    193 H           2.5531   -1.2573    4.9928 H         1 ARG         0.2642
    194 H           2.8414    1.1775    1.7432 H         1 ARG         0.2615
    195 H           1.9853   -0.3806    1.5949 H         1 ARG         0.2615
    196 H           3.6463    0.6903    5.1705 H         1 ARG         0.2615
    197 H           3.7546    1.7925    3.7719 H         1 ARG         0.2615
    198 H          -2.8983   -4.1455    6.0046 H         1 ALA         0.1883
    199 H          -3.1400   -5.6198    3.4714 H         1 ALA         0.0797
    200 H          -3.7966   -7.5242    4.9154 H         1 ALA         0.0277
    201 H          -3.7169   -6.4483    6.3515 H         1 ALA         0.0277
    202 H          -2.2286   -6.8005    5.4095 H         1 ALA         0.0277
    203 H          -4.9858   -3.3592    5.0033 H         1 GLU         0.1883
    204 H          -7.5599   -4.6391    4.1687 H         1 GLU         0.0801
    205 H          -8.6863   -3.1256    5.6850 H         1 GLU         0.0330
    206 H          -7.1597   -2.2361    6.0088 H         1 GLU         0.0330
    207 H          -7.4620   -3.5290    7.9350 H         1 GLU         0.0433
    208 H          -6.2909   -4.4878    6.9674 H         1 GLU         0.0433
    209 H          -9.1372   -3.1926    3.0863 H         1 VAL         0.1883
    210 H          -7.7452   -1.2029    1.4111 H         1 VAL         0.0802
    211 H         -10.6653   -2.0898    1.2968 H         1 VAL         0.0343
    212 H         -10.6600   -0.9457   -0.9168 H         1 VAL         0.0234
    213 H          -8.9825   -0.3789   -0.6144 H         1 VAL         0.0234
    214 H         -10.3280    0.2025    0.4240 H         1 VAL         0.0234
    215 H          -9.0612   -3.8956    0.7376 H         1 VAL         0.0234
    216 H          -8.2714   -2.8178   -0.4629 H         1 VAL         0.0234
    217 H          -9.9712   -3.3436   -0.7094 H         1 VAL         0.0234
    218 H          -7.5318    0.8446    2.0696 H         1 HIS         0.1885
    219 H          -9.5058    2.0191    3.9188 H         1 HIS         0.0817
    220 H          -7.0509    3.2234    2.5669 H         1 HIS         0.0420
    221 H          -7.1318    2.5426    4.2273 H         1 HIS         0.0420
    222 H          -7.5574    5.8954    2.4554 H         1 HIS         0.0729
    223 H          -9.3681    6.3136    6.2913 H         1 HIS         0.1199
    224 H          -8.5615    7.5600    4.2086 H         1 HIS         0.2361
    225 H         -11.2644    3.1225    3.2789 H         1 LEU         0.1876
    226 H         -11.8306    3.4696    0.4666 H         1 LEU         0.0748
    227 O1        -11.2218    5.8434   -0.0538 O.co2     1 LEU        -0.4120
    228 H         -13.8835    4.6066    1.2365 H         1 LEU         0.0271
    229 H         -13.2505    4.5943    2.9175 H         1 LEU         0.0271
    230 H         -13.6150    3.0456    2.0837 H         1 LEU         0.0271
@<TRIPOS>BOND
     1    1    2 1  
     2    2    3 1  
     3    2    5 1  
     4    3    4 2  
     5    3   10 am 
     6    5    6 1  
     7    6    7 1  
     8    7    8 ar 
     9    7    9 ar 
    10   10   11 1  
    11   10   16 1  
    12   11   12 1  
    13   11   14 1  
    14   12   13 2  
    15   12   17 am 
    16   14   15 1  
    17   15   16 1  
    18   17   18 1  
    19   17   23 1  
    20   18   19 1  
    21   18   21 1  
    22   19   20 2  
    23   19   24 am 
    24   21   22 1  
    25   22   23 1  
    26   24   25 1  
    27   25   26 1  
    28   25   28 1  
    29   26   27 2  
    30   26   32 am 
    31   28   29 1  
    32   29   30 1  
    33   29   31 1  
    34   32   33 1  
    35   33   34 1  
    36   33   36 1  
    37   34   35 2  
    38   34   40 am 
    39   36   37 1  
    40   37   38 2  
    41   37   39 am 
    42   40   41 1  
    43   40   46 1  
    44   41   42 1  
    45   41   44 1  
    46   42   43 2  
    47   42   47 am 
    48   44   45 1  
    49   45   46 1  
    50   47   48 1  
    51   48   49 1  
    52   48   51 1  
    53   49   50 2  
    54   49   57 am 
    55   51   52 1  
    56   52   53 1  
    57   52   54 2  
    58   53   55 2  
    59   54   56 1  
    60   55   56 1  
    61   57   58 1  
    62   58   59 1  
    63   59   60 2  
    64   59   61 am 
    65   61   62 1  
    66   62   63 1  
    67   62   65 1  
    68   63   64 2  
    69   63   67 am 
    70   65   66 1  
    71   67   68 1  
    72   68   69 1  
    73   68   71 1  
    74   69   70 2  
    75   69   72 am 
    76   72   73 1  
    77   73   74 1  
    78   73   76 1  
    79   74   75 2  
    80   74   83 am 
    81   76   77 1  
    82   77   78 1  
    83   78   79 1  
    84   79   80 ar 
    85   80   81 ar 
    86   80   82 ar 
    87   83   84 1  
    88   84   85 1  
    89   84   87 1  
    90   85   86 2  
    91   85   88 am 
    92   88   89 1  
    93   89   90 1  
    94   89   92 1  
    95   90   91 2  
    96   90   97 am 
    97   92   93 1  
    98   93   94 1  
    99   94   95 ar 
   100   94   96 ar 
   101   97   98 1  
   102   98   99 1  
   103   98  101 1  
   104   99  100 2  
   105   99  104 am 
   106  101  102 1  
   107  101  103 1  
   108  104  105 1  
   109  105  106 1  
   110  105  108 1  
   111  106  107 2  
   112  106  114 am 
   113  108  109 1  
   114  109  110 1  
   115  109  111 2  
   116  110  112 2  
   117  111  113 1  
   118  112  113 1  
   119  114  115 1  
   120  115  116 1  
   121  115  118 1  
   122  116  117 ar 
   123    1  119 1  
   124    1  120 1  
   125    1  121 1  
   126    2  122 1  
   127    5  123 1  
   128    5  124 1  
   129    6  125 1  
   130    6  126 1  
   131   11  127 1  
   132   14  128 1  
   133   14  129 1  
   134   15  130 1  
   135   15  131 1  
   136   16  132 1  
   137   16  133 1  
   138   18  134 1  
   139   21  135 1  
   140   21  136 1  
   141   22  137 1  
   142   22  138 1  
   143   23  139 1  
   144   23  140 1  
   145   24  141 1  
   146   25  142 1  
   147   28  143 1  
   148   28  144 1  
   149   29  145 1  
   150   30  146 1  
   151   30  147 1  
   152   30  148 1  
   153   31  149 1  
   154   31  150 1  
   155   31  151 1  
   156   32  152 1  
   157   33  153 1  
   158   36  154 1  
   159   36  155 1  
   160   39  156 1  
   161   39  157 1  
   162   41  158 1  
   163   44  159 1  
   164   44  160 1  
   165   45  161 1  
   166   45  162 1  
   167   46  163 1  
   168   46  164 1  
   169   47  165 1  
   170   48  166 1  
   171   51  167 1  
   172   51  168 1  
   173   54  169 1  
   174   55  170 1  
   175   56  171 1  
   176   57  172 1  
   177   58  173 1  
   178   58  174 1  
   179   61  175 1  
   180   62  176 1  
   181   65  177 1  
   182   65  178 1  
   183   66  179 1  
   184   67  180 1  
   185   68  181 1  
   186   71  182 1  
   187   71  183 1  
   188   71  184 1  
   189   72  185 1  
   190   73  186 1  
   191   76  187 1  
   192   76  188 1  
   193   77  189 1  
   194   77  190 1  
   195   78  191 1  
   196   78  192 1  
   197   79  193 1  
   198   81  194 1  
   199   81  195 1  
   200   82  196 1  
   201   82  197 1  
   202   83  198 1  
   203   84  199 1  
   204   87  200 1  
   205   87  201 1  
   206   87  202 1  
   207   88  203 1  
   208   89  204 1  
   209   92  205 1  
   210   92  206 1  
   211   93  207 1  
   212   93  208 1  
   213   97  209 1  
   214   98  210 1  
   215  101  211 1  
   216  102  212 1  
   217  102  213 1  
   218  102  214 1  
   219  103  215 1  
   220  103  216 1  
   221  103  217 1  
   222  104  218 1  
   223  105  219 1  
   224  108  220 1  
   225  108  221 1  
   226  111  222 1  
   227  112  223 1  
   228  113  224 1  
   229  114  225 1  
   230  115  226 1  
   231  116  227 ar 
   232  118  228 1  
   233  118  229 1  
   234  118  230 1  
@<TRIPOS>SUBSTRUCTURE
     1 GLU         1

