### 
### Created by X-TOOL on Mon Sep 10 21:13:29 2018
### 

@<TRIPOS>MOLECULE
5e2w_ligand
  114   115     1     0     0
SMALL
GAST_HUCK


@<TRIPOS>ATOM
      1 N          28.2310    3.2950  -11.3970 N.4       1 SEP         0.2398
      2 CA         27.1170    2.3830  -11.0010 C.3       1 SEP         0.0934
      3 CB         27.6020    0.9380  -11.0520 C.3       1 SEP         0.1380
      4 OG         26.6090    0.0950  -10.4670 O.3       1 SEP        -0.2680
      5 C          26.6540    2.6970   -9.6030 C.2       1 SEP         0.2318
      6 O          27.4800    2.9480   -8.7240 O.2       1 SEP        -0.3904
      7 P          26.7520   -1.5050  -10.4620 P.3       1 SEP         0.2012
      8 O1P        26.9840   -1.8720  -11.9090 O.co2     1 SEP        -0.5537
      9 O2P        25.4240   -1.9710   -9.9180 O.co2     1 SEP        -0.5537
     10 O3P        27.9230   -1.7790   -9.5470 O.co2     1 SEP        -0.5537
     11 N          25.3240    2.6810   -9.3750 N.am      1 PRO        -0.2471
     12 CA         24.7580    2.9140   -8.0390 C.3       1 PRO         0.1339
     13 C          25.0310    1.7920   -7.0320 C.2       1 PRO         0.2039
     14 O          24.8780    2.0030   -5.8300 O.2       1 PRO        -0.3944
     15 CB         23.2490    3.0180   -8.3030 C.3       1 PRO        -0.0104
     16 CG         23.1230    3.3050   -9.7590 C.3       1 PRO        -0.0281
     17 CD         24.2700    2.5910  -10.4010 C.3       1 PRO         0.0371
     18 N          25.4240    0.6140   -7.5150 N.am      1 GLY        -0.2664
     19 CA         25.7510   -0.5150   -6.6310 C.3       1 GLY         0.1201
     20 C          27.0240   -0.3010   -5.8250 C.2       1 GLY         0.2008
     21 O          27.8120    0.5980   -6.1260 O.2       1 GLY        -0.3947
     22 N          27.2280   -1.1210   -4.7980 N.am      1 TPO        -0.2613
     23 CA         28.4560   -1.0540   -4.0030 C.3       1 TPO         0.1614
     24 CB         28.3730   -1.9690   -2.7800 C.3       1 TPO         0.1262
     25 CG2        29.5770   -1.7940   -1.8650 C.3       1 TPO        -0.0298
     26 OG1        27.1910   -1.7060   -2.0340 O.3       1 TPO        -0.2685
     27 P          26.0440   -2.8300   -1.9270 P.3       1 TPO         0.2014
     28 O1P        25.5750   -3.0730   -3.3380 O.co2     1 TPO        -0.5537
     29 O2P        25.0310   -2.1600   -1.0560 O.co2     1 TPO        -0.5537
     30 O3P        26.6760   -4.0290   -1.2610 O.co2     1 TPO        -0.5537
     31 C          29.6110   -1.5100   -4.8550 C.2       1 TPO         0.2093
     32 O          29.5690   -2.6110   -5.4130 O.2       1 TPO        -0.3941
     33 N          30.6640   -0.6730   -4.9720 N.am      1 PRO        -0.2498
     34 CA         31.8590   -1.1100   -5.6950 C.3       1 PRO         0.1338
     35 C          32.5590   -2.2440   -4.9560 C.2       1 PRO         0.2039
     36 O          32.7670   -2.1570   -3.7460 O.2       1 PRO        -0.3944
     37 CB         32.7410    0.1450   -5.7280 C.3       1 PRO        -0.0104
     38 CG         32.2470    1.0050   -4.6200 C.3       1 PRO        -0.0281
     39 CD         30.7780    0.7200   -4.5050 C.3       1 PRO         0.0369
     40 N          32.8990   -3.3040   -5.6830 N.am      1 GLY        -0.2664
     41 CA         33.5140   -4.4810   -5.0910 C.3       1 GLY         0.1201
     42 C          35.0030   -4.3280   -4.8830 C.2       1 GLY         0.2008
     43 O          35.5050   -3.2190   -4.6940 O.2       1 GLY        -0.3947
     44 N          35.7080   -5.4540   -4.9170 N.am      1 SEP        -0.2615
     45 CA         37.1540   -5.4790   -4.7340 C.3       1 SEP         0.1585
     46 CB         37.6250   -6.9150   -4.5530 C.3       1 SEP         0.1184
     47 OG         36.5850   -7.6940   -3.9680 O.3       1 SEP        -0.2714
     48 C          37.8310   -4.9070   -5.9400 C.2       1 SEP         0.2060
     49 O          37.4730   -5.2250   -7.0780 O.2       1 SEP        -0.3943
     50 P          36.9460   -9.0440   -3.1790 P.3       1 SEP         0.2010
     51 O1P        37.0900  -10.0550   -4.2910 O.co2     1 SEP        -0.5537
     52 O2P        35.7740   -9.2950   -2.2600 O.co2     1 SEP        -0.5537
     53 O3P        38.2330   -8.7250   -2.4520 O.co2     1 SEP        -0.5537
     54 N          38.8170   -4.0490   -5.6960 N.am      1 ARG        -0.2694
     55 CA         39.5970   -3.4380   -6.7660 C.3       1 ARG         0.0945
     56 C          40.6080   -4.4240   -7.3450 C.2       1 ARG         0.0601
     57 O          41.1340   -5.2800   -6.6330 O.co2     1 ARG        -0.5666
     58 CB         40.3110   -2.1870   -6.2580 C.3       1 ARG        -0.0148
     59 CG         39.3840   -1.0220   -5.9610 C.3       1 ARG        -0.0162
     60 CD         40.1500    0.1160   -5.3120 C.3       1 ARG         0.0627
     61 NE         40.9030    0.9220   -6.2730 N.pl3     1 ARG        -0.2723
     62 CZ         41.5340    2.0570   -5.9740 C.cat     1 ARG         0.2882
     63 NH1        41.5120    2.5340   -4.7340 N.pl3     1 ARG        -0.2849
     64 NH2        42.1920    2.7230   -6.9150 N.pl3     1 ARG        -0.2849
     65 OXT        40.9180   -4.3840   -8.5360 O.co2     1 ARG        -0.5666
     66 H1         28.5300    3.0731  -12.3337 H         1 SEP         0.2016
     67 H2         29.0040    3.1772  -10.7609 H         1 SEP         0.2016
     68 H3         27.9111    4.2503  -11.3638 H         1 SEP         0.2016
     69 H4         26.2772    2.5129  -11.6995 H         1 SEP         0.1125
     70 H5         28.5430    0.8445  -10.4902 H         1 SEP         0.0696
     71 H6         27.7684    0.6412  -12.0980 H         1 SEP         0.0696
     72 H7         25.1481    3.8568   -7.6281 H         1 PRO         0.0802
     73 H8         22.8096    3.8338   -7.7102 H         1 PRO         0.0313
     74 H9         22.7479    2.0714   -8.0523 H         1 PRO         0.0313
     75 H10        23.1891    4.3870   -9.9459 H         1 PRO         0.0287
     76 H11        22.1664    2.9238  -10.1458 H         1 PRO         0.0287
     77 H12        24.0143    1.5430  -10.6159 H         1 PRO         0.0524
     78 H13        24.5781    3.0914  -11.3309 H         1 PRO         0.0524
     79 H14        25.4986    0.4944   -8.5050 H         1 GLY         0.1881
     80 H15        25.8765   -1.4167   -7.2485 H         1 GLY         0.0763
     81 H16        24.9156   -0.6633   -5.9309 H         1 GLY         0.0763
     82 H17        26.5290   -1.7967   -4.5640 H         1 TPO         0.1884
     83 H18        28.6201   -0.0173   -3.6737 H         1 TPO         0.0830
     84 H19        28.3466   -3.0112   -3.1309 H         1 TPO         0.0695
     85 H20        29.4809   -2.4666   -0.9999 H         1 TPO         0.0260
     86 H21        29.6238   -0.7520   -1.5158 H         1 TPO         0.0260
     87 H22        30.4963   -2.0371   -2.4180 H         1 TPO         0.0260
     88 H23        31.6037   -1.4380   -6.7134 H         1 PRO         0.0802
     89 H24        32.6370    0.6631   -6.6928 H         1 PRO         0.0313
     90 H25        33.7959   -0.1218   -5.5669 H         1 PRO         0.0313
     91 H26        32.4139    2.0665   -4.8553 H         1 PRO         0.0287
     92 H27        32.7608    0.7524   -3.6808 H         1 PRO         0.0287
     93 H28        30.4389    0.8150   -3.4629 H         1 PRO         0.0524
     94 H29        30.1940    1.3987   -5.1440 H         1 PRO         0.0524
     95 H30        32.7263   -3.2913   -6.6679 H         1 GLY         0.1881
     96 H31        33.3394   -5.3397   -5.7560 H         1 GLY         0.0763
     97 H32        33.0416   -4.6704   -4.1159 H         1 GLY         0.0763
     98 H33        35.2282   -6.3172   -5.0741 H         1 SEP         0.1884
     99 H34        37.4197   -4.8874   -3.8456 H         1 SEP         0.0827
    100 H35        38.5065   -6.9300   -3.8953 H         1 SEP         0.0662
    101 H36        37.8912   -7.3383   -5.5328 H         1 SEP         0.0662
    102 H37        39.0307   -3.8150   -4.7475 H         1 ARG         0.1875
    103 H38        38.9061   -3.1416   -7.5690 H         1 ARG         0.0726
    104 H39        41.0337   -1.8670   -7.0230 H         1 ARG         0.0307
    105 H40        40.8468   -2.4466   -5.3331 H         1 ARG         0.0307
    106 H41        38.5883   -1.3574   -5.2796 H         1 ARG         0.0301
    107 H42        38.9364   -0.6670   -6.9010 H         1 ARG         0.0301
    108 H43        40.8552   -0.3080   -4.5821 H         1 ARG         0.0689
    109 H44        39.4333    0.7692   -4.7927 H         1 ARG         0.0689
    110 H45        40.9485    0.5896   -7.2468 H         1 ARG         0.2642
    111 H46        42.0023    3.4120   -4.5112 H         1 ARG         0.2615
    112 H47        41.0046    2.0258   -3.9956 H         1 ARG         0.2615
    113 H48        42.2159    2.3628   -7.8797 H         1 ARG         0.2615
    114 H49        42.6787    3.6000   -6.6805 H         1 ARG         0.2615
@<TRIPOS>BOND
     1    1    2 1  
     2    2    3 1  
     3    2    5 1  
     4    3    4 1  
     5    4    7 1  
     6    5    6 2  
     7    5   11 am 
     8    7    8 ar 
     9    7    9 ar 
    10    7   10 ar 
    11   11   12 1  
    12   11   17 1  
    13   12   13 1  
    14   12   15 1  
    15   13   14 2  
    16   13   18 am 
    17   15   16 1  
    18   16   17 1  
    19   18   19 1  
    20   19   20 1  
    21   20   21 2  
    22   20   22 am 
    23   22   23 1  
    24   23   24 1  
    25   23   31 1  
    26   24   25 1  
    27   24   26 1  
    28   26   27 1  
    29   27   28 ar 
    30   27   29 ar 
    31   27   30 ar 
    32   31   32 2  
    33   31   33 am 
    34   33   34 1  
    35   33   39 1  
    36   34   35 1  
    37   34   37 1  
    38   35   36 2  
    39   35   40 am 
    40   37   38 1  
    41   38   39 1  
    42   40   41 1  
    43   41   42 1  
    44   42   43 2  
    45   42   44 am 
    46   44   45 1  
    47   45   46 1  
    48   45   48 1  
    49   46   47 1  
    50   47   50 1  
    51   48   49 2  
    52   48   54 am 
    53   50   51 ar 
    54   50   52 ar 
    55   50   53 ar 
    56   54   55 1  
    57   55   56 1  
    58   55   58 1  
    59   56   57 ar 
    60   56   65 ar 
    61   58   59 1  
    62   59   60 1  
    63   60   61 1  
    64   61   62 ar 
    65   62   63 ar 
    66   62   64 ar 
    67    1   66 1  
    68    1   67 1  
    69    1   68 1  
    70    2   69 1  
    71    3   70 1  
    72    3   71 1  
    73   12   72 1  
    74   15   73 1  
    75   15   74 1  
    76   16   75 1  
    77   16   76 1  
    78   17   77 1  
    79   17   78 1  
    80   18   79 1  
    81   19   80 1  
    82   19   81 1  
    83   22   82 1  
    84   23   83 1  
    85   24   84 1  
    86   25   85 1  
    87   25   86 1  
    88   25   87 1  
    89   34   88 1  
    90   37   89 1  
    91   37   90 1  
    92   38   91 1  
    93   38   92 1  
    94   39   93 1  
    95   39   94 1  
    96   40   95 1  
    97   41   96 1  
    98   41   97 1  
    99   44   98 1  
   100   45   99 1  
   101   46  100 1  
   102   46  101 1  
   103   54  102 1  
   104   55  103 1  
   105   58  104 1  
   106   58  105 1  
   107   59  106 1  
   108   59  107 1  
   109   60  108 1  
   110   60  109 1  
   111   61  110 1  
   112   63  111 1  
   113   63  112 1  
   114   64  113 1  
   115   64  114 1  
@<TRIPOS>SUBSTRUCTURE
     1 SEP         1

