5e2w_ligand
  -I-interpret- 

120121  0  0  0  0  0  0  0  0999 V2000
   28.2310    3.2950  -11.3970 N   0  3  0  0  0
   27.1170    2.3830  -11.0010 C   0  0  0  0  0
   27.6020    0.9380  -11.0520 C   0  0  0  0  0
   26.6090    0.0950  -10.4670 O   0  0  0  0  0
   26.6540    2.6970   -9.6030 C   0  0  0  0  0
   27.4800    2.9480   -8.7240 O   0  0  0  0  0
   26.7520   -1.5050  -10.4620 P   0  0  0  0  0
   26.9840   -1.8720  -11.9090 O   0  0  0  0  0
   25.4240   -1.9710   -9.9180 O   0  0  0  0  0
   27.9230   -1.7790   -9.5470 O   0  0  0  0  0
   25.3240    2.6810   -9.3750 N   0  0  0  0  0
   24.7580    2.9140   -8.0390 C   0  0  0  0  0
   25.0310    1.7920   -7.0320 C   0  0  0  0  0
   24.8780    2.0030   -5.8300 O   0  0  0  0  0
   23.2490    3.0180   -8.3030 C   0  0  0  0  0
   23.1230    3.3050   -9.7590 C   0  0  0  0  0
   24.2700    2.5910  -10.4010 C   0  0  0  0  0
   25.4240    0.6140   -7.5150 N   0  0  0  0  0
   25.7510   -0.5150   -6.6310 C   0  0  0  0  0
   27.0240   -0.3010   -5.8250 C   0  0  0  0  0
   27.8120    0.5980   -6.1260 O   0  0  0  0  0
   27.2280   -1.1210   -4.7980 N   0  0  0  0  0
   28.4560   -1.0540   -4.0030 C   0  0  0  0  0
   28.3730   -1.9690   -2.7800 C   0  0  0  0  0
   29.5770   -1.7940   -1.8650 C   0  0  0  0  0
   27.1910   -1.7060   -2.0340 O   0  0  0  0  0
   26.0440   -2.8300   -1.9270 P   0  0  0  0  0
   25.5750   -3.0730   -3.3380 O   0  0  0  0  0
   25.0310   -2.1600   -1.0560 O   0  0  0  0  0
   26.6760   -4.0290   -1.2610 O   0  0  0  0  0
   29.6110   -1.5100   -4.8550 C   0  0  0  0  0
   29.5690   -2.6110   -5.4130 O   0  0  0  0  0
   30.6640   -0.6730   -4.9720 N   0  0  0  0  0
   31.8590   -1.1100   -5.6950 C   0  0  0  0  0
   32.5590   -2.2440   -4.9560 C   0  0  0  0  0
   32.7670   -2.1570   -3.7460 O   0  0  0  0  0
   32.7410    0.1450   -5.7280 C   0  0  0  0  0
   32.2470    1.0050   -4.6200 C   0  0  0  0  0
   30.7780    0.7200   -4.5050 C   0  0  0  0  0
   32.8990   -3.3040   -5.6830 N   0  0  0  0  0
   33.5140   -4.4810   -5.0910 C   0  0  0  0  0
   35.0030   -4.3280   -4.8830 C   0  0  0  0  0
   35.5050   -3.2190   -4.6940 O   0  0  0  0  0
   35.7080   -5.4540   -4.9170 N   0  0  0  0  0
   37.1540   -5.4790   -4.7340 C   0  0  0  0  0
   37.6250   -6.9150   -4.5530 C   0  0  0  0  0
   36.5850   -7.6940   -3.9680 O   0  0  0  0  0
   37.8310   -4.9070   -5.9400 C   0  0  0  0  0
   37.4730   -5.2250   -7.0780 O   0  0  0  0  0
   36.9460   -9.0440   -3.1790 P   0  0  0  0  0
   37.0900  -10.0550   -4.2910 O   0  0  0  0  0
   35.7740   -9.2950   -2.2600 O   0  0  0  0  0
   38.2330   -8.7250   -2.4520 O   0  0  0  0  0
   38.8170   -4.0490   -5.6960 N   0  0  0  0  0
   39.5970   -3.4380   -6.7660 C   0  0  0  0  0
   40.6080   -4.4240   -7.3450 C   0  0  0  0  0
   41.1340   -5.2800   -6.6330 O   0  0  0  0  0
   40.3110   -2.1870   -6.2580 C   0  0  0  0  0
   39.3840   -1.0220   -5.9610 C   0  0  0  0  0
   40.1500    0.1160   -5.3120 C   0  0  0  0  0
   40.9030    0.9220   -6.2730 N   0  0  0  0  0
   41.5340    2.0570   -5.9740 C   0  0  0  0  0
   41.5120    2.5340   -4.7340 N   0  0  0  0  0
   42.1920    2.7230   -6.9150 N   0  0  0  0  0
   40.9180   -4.3840   -8.5360 O   0  0  0  0  0
   28.5327    3.0696  -12.3449 H   0  0  0  0  0
   27.9061    4.2613  -11.3630 H   0  0  0  0  0
   29.0125    3.1749  -10.7526 H   0  0  0  0  0
   26.2863    2.5237  -11.6925 H   0  0  0  0  0
   28.5369    0.8437  -10.4995 H   0  0  0  0  0
   27.7718    0.6430  -12.0875 H   0  0  0  0  0
   27.8431   -1.5460  -12.1869 H   0  0  0  0  0
   28.7296   -1.4572   -9.9563 H   0  0  0  0  0
   25.2078    3.7967   -7.5845 H   0  0  0  0  0
   22.7892    3.8001   -7.6989 H   0  0  0  0  0
   22.7298    2.0996   -8.0289 H   0  0  0  0  0
   23.1521    4.3756   -9.9615 H   0  0  0  0  0
   22.1659    2.9647  -10.1543 H   0  0  0  0  0
   24.0309    1.5636  -10.6754 H   0  0  0  0  0
   24.5653    3.0316  -11.3532 H   0  0  0  0  0
   25.5001    0.4920   -8.5248 H   0  0  0  0  0
   25.9035   -1.3920   -7.2601 H   0  0  0  0  0
   24.9291   -0.6280   -5.9240 H   0  0  0  0  0
   26.5150   -1.8102   -4.5593 H   0  0  0  0  0
   28.5927   -0.0260   -3.6674 H   0  0  0  0  0
   28.3569   -2.9935   -3.1519 H   0  0  0  0  0
   30.4872   -2.0351   -2.4142 H   0  0  0  0  0
   29.6223   -0.7611   -1.5197 H   0  0  0  0  0
   29.4806   -2.4609   -1.0083 H   0  0  0  0  0
   26.2733   -3.5038   -3.8364 H   0  0  0  0  0
   27.3168   -4.4238   -1.8569 H   0  0  0  0  0
   31.6331   -1.4965   -6.6888 H   0  0  0  0  0
   32.6758    0.6545   -6.6894 H   0  0  0  0  0
   33.7949   -0.1033   -5.6022 H   0  0  0  0  0
   32.4315    2.0597   -4.8242 H   0  0  0  0  0
   32.7673    0.7877   -3.6872 H   0  0  0  0  0
   30.4033    0.8539   -3.4902 H   0  0  0  0  0
   30.1702    1.4095   -5.0908 H   0  0  0  0  0
   32.7229   -3.2911   -6.6876 H   0  0  0  0  0
   33.3583   -5.3160   -5.7741 H   0  0  0  0  0
   33.0568   -4.6387   -4.1142 H   0  0  0  0  0
   35.2186   -6.3345   -5.0773 H   0  0  0  0  0
   37.4037   -4.8886   -3.8524 H   0  0  0  0  0
   38.4969   -6.9286   -3.8990 H   0  0  0  0  0
   37.8859   -7.3339   -5.5249 H   0  0  0  0  0
   35.7485   -8.6151   -1.5828 H   0  0  0  0  0
   38.0588   -8.0785   -1.7641 H   0  0  0  0  0
   39.0350   -3.8103   -4.7286 H   0  0  0  0  0
   38.9082   -3.1533   -7.5613 H   0  0  0  0  0
   40.8029   -5.1960   -5.7358 H   0  0  0  0  0
   40.9937   -1.8638   -7.0438 H   0  0  0  0  0
   40.8034   -2.4539   -5.3229 H   0  0  0  0  0
   38.6025   -1.3567   -5.2789 H   0  0  0  0  0
   38.9497   -0.6682   -6.8961 H   0  0  0  0  0
   40.8644   -0.3209   -4.6143 H   0  0  0  0  0
   39.4247    0.7698   -4.8276 H   0  0  0  0  0
   40.9481    0.5929   -7.2374 H   0  0  0  0  0
   41.9975    3.4035   -4.5133 H   0  0  0  0  0
   41.0096    2.0307   -4.0028 H   0  0  0  0  0
   42.2157    2.3663   -7.8703 H   0  0  0  0  0
  1  2  1  0  0  0
  2  3  1  0  0  0
  2  5  1  0  0  0
  3  4  1  0  0  0
  4  7  1  0  0  0
  5  6  2  0  0  0
  5 11  1  0  0  0
  7  8  1  0  0  0
  7  9  2  0  0  0
  7 10  1  0  0  0
 11 12  1  0  0  0
 11 17  1  0  0  0
 12 13  1  0  0  0
 12 15  1  0  0  0
 13 14  2  0  0  0
 13 18  1  0  0  0
 15 16  1  0  0  0
 16 17  1  0  0  0
 18 19  1  0  0  0
 19 20  1  0  0  0
 20 21  2  0  0  0
 20 22  1  0  0  0
 22 23  1  0  0  0
 23 24  1  0  0  0
 23 31  1  0  0  0
 24 25  1  0  0  0
 24 26  1  0  0  0
 26 27  1  0  0  0
 27 28  1  0  0  0
 27 29  2  0  0  0
 27 30  1  0  0  0
 31 32  2  0  0  0
 31 33  1  0  0  0
 33 34  1  0  0  0
 33 39  1  0  0  0
 34 35  1  0  0  0
 34 37  1  0  0  0
 35 36  2  0  0  0
 35 40  1  0  0  0
 37 38  1  0  0  0
 38 39  1  0  0  0
 40 41  1  0  0  0
 41 42  1  0  0  0
 42 43  2  0  0  0
 42 44  1  0  0  0
 44 45  1  0  0  0
 45 46  1  0  0  0
 45 48  1  0  0  0
 46 47  1  0  0  0
 47 50  1  0  0  0
 48 49  2  0  0  0
 48 54  1  0  0  0
 50 51  2  0  0  0
 50 52  1  0  0  0
 50 53  1  0  0  0
 54 55  1  0  0  0
 55 56  1  0  0  0
 55 58  1  0  0  0
 56 57  1  0  0  0
 56 65  2  0  0  0
 58 59  1  0  0  0
 59 60  1  0  0  0
 60 61  1  0  0  0
 61 62  1  0  0  0
 62 63  1  0  0  0
 62 64  2  0  0  0
  1 66  1  0  0  0
  1 67  1  0  0  0
  1 68  1  0  0  0
  2 69  1  0  0  0
  3 70  1  0  0  0
  3 71  1  0  0  0
  8 72  1  0  0  0
 10 73  1  0  0  0
 12 74  1  0  0  0
 15 75  1  0  0  0
 15 76  1  0  0  0
 16 77  1  0  0  0
 16 78  1  0  0  0
 17 79  1  0  0  0
 17 80  1  0  0  0
 18 81  1  0  0  0
 19 82  1  0  0  0
 19 83  1  0  0  0
 22 84  1  0  0  0
 23 85  1  0  0  0
 24 86  1  0  0  0
 25 87  1  0  0  0
 25 88  1  0  0  0
 25 89  1  0  0  0
 28 90  1  0  0  0
 30 91  1  0  0  0
 34 92  1  0  0  0
 37 93  1  0  0  0
 37 94  1  0  0  0
 38 95  1  0  0  0
 38 96  1  0  0  0
 39 97  1  0  0  0
 39 98  1  0  0  0
 40 99  1  0  0  0
 41100  1  0  0  0
 41101  1  0  0  0
 44102  1  0  0  0
 45103  1  0  0  0
 46104  1  0  0  0
 46105  1  0  0  0
 52106  1  0  0  0
 53107  1  0  0  0
 54108  1  0  0  0
 55109  1  0  0  0
 57110  1  0  0  0
 58111  1  0  0  0
 58112  1  0  0  0
 59113  1  0  0  0
 59114  1  0  0  0
 60115  1  0  0  0
 60116  1  0  0  0
 61117  1  0  0  0
 63118  1  0  0  0
 63119  1  0  0  0
 64120  1  0  0  0
M  END
$$$$
