6a9o_ligand
  -I-interpret- 

 38 41  0  0  0  0  0  0  0  0999 V2000
   25.5230  221.8870   53.0160 C   0  0  0  0  0
   19.2330  224.6970   49.1540 C   0  0  0  0  0
   20.2160  224.2250   50.2130 C   0  0  0  0  0
   23.8560  221.8840   54.9630 C   0  0  0  0  0
   18.4680  223.7030   48.3960 C   0  0  0  0  0
   26.3000  221.1650   55.2730 C   0  0  0  0  0
   24.7490  222.6580   50.7070 C   0  0  0  0  0
   24.4910  222.3830   52.1250 C   0  0  0  0  0
   22.4450  223.3210   50.4690 C   0  0  0  0  0
   23.1650  222.5950   52.7130 C   0  0  0  0  0
   22.1710  223.0560   51.8510 C   0  0  0  0  0
   23.7330  223.1400   49.8610 C   0  0  0  0  0
   18.2020  226.4440   48.0120 C   0  0  0  0  0
   19.1270  226.0810   48.9940 C   0  0  0  0  0
   22.8560  222.3620   54.0690 N   0  0  0  0  0
   25.2260  221.6410   54.4340 C   0  0  0  0  0
   27.5760  220.9470   54.7260 C   0  0  0  0  0
   26.8390  221.6700   52.5210 C   0  0  0  0  0
   27.8370  221.2030   53.3670 C   0  0  0  0  0
   23.5520  221.6840   56.2200 O   0  0  0  0  0
   21.3970  223.7670   49.7040 N   0  0  0  0  0
   17.5450  224.0920   47.4260 C   0  0  0  0  0
   17.4460  225.4820   47.2750 C   0  0  0  0  0
   19.8660  224.2610   51.4410 O   0  0  0  0  0
   18.6231  222.6424   48.5937 H   0  0  0  0  0
   26.1212  220.9746   56.3312 H   0  0  0  0  0
   25.7460  222.4858   50.3014 H   0  0  0  0  0
   21.1642  223.2184   52.2359 H   0  0  0  0  0
   23.9128  223.3622   48.8091 H   0  0  0  0  0
   18.0514  227.5025   47.8000 H   0  0  0  0  0
   19.7046  226.8009   49.5738 H   0  0  0  0  0
   21.9112  222.5368   54.4113 H   0  0  0  0  0
   28.3765  220.5736   55.3646 H   0  0  0  0  0
   27.0651  221.8710   51.4738 H   0  0  0  0  0
   28.8384  221.0321   52.9719 H   0  0  0  0  0
   21.5074  223.7556   48.6901 H   0  0  0  0  0
   16.9574  223.3838   46.8418 H   0  0  0  0  0
   16.7368  225.8581   46.5377 H   0  0  0  0  0
  8  1  1  0  0  0
  1 16  4  0  0  0
  1 18  4  0  0  0
  3  2  1  0  0  0
  2  5  4  0  0  0
  2 14  4  0  0  0
 21  3  1  0  0  0
  3 24  2  0  0  0
  4 15  1  0  0  0
 16  4  1  0  0  0
  4 20  2  0  0  0
  5 22  4  0  0  0
 16  6  4  0  0  0
  6 17  4  0  0  0
  7  8  4  0  0  0
 12  7  4  0  0  0
  8 10  4  0  0  0
  9 11  4  0  0  0
  9 12  4  0  0  0
  9 21  1  0  0  0
 10 11  4  0  0  0
 10 15  1  0  0  0
 14 13  4  0  0  0
 13 23  4  0  0  0
 17 19  4  0  0  0
 18 19  4  0  0  0
 22 23  4  0  0  0
  5 25  1  0  0  0
  6 26  1  0  0  0
  7 27  1  0  0  0
 11 28  1  0  0  0
 12 29  1  0  0  0
 13 30  1  0  0  0
 14 31  1  0  0  0
 15 32  1  0  0  0
 17 33  1  0  0  0
 18 34  1  0  0  0
 19 35  1  0  0  0
 21 36  1  0  0  0
 22 37  1  0  0  0
 23 38  1  0  0  0
M  END
$$$$
