2y54_ligand
  -I-interpret- 

 35 37  0  0  0  0  0  0  0  0999 V2000
   87.7860   34.2380  -30.2470 C   0  0  0  0  0
   87.1410   35.4140  -27.8040 C   0  0  0  0  0
   87.6940   34.1330  -27.8350 C   0  0  0  0  0
   91.3100   31.6960  -32.1800 C   0  0  0  0  0
   88.6030   32.1520  -29.1080 C   0  0  0  0  0
   89.0250   29.5290  -31.7330 C   0  0  0  0  0
   86.9080   36.1050  -28.9920 C   0  0  0  0  0
   90.8870   30.3100  -30.1480 C   0  0  0  0  0
   91.7370   30.4480  -31.4130 C   0  0  0  0  0
   87.2250   35.5150  -30.2160 C   0  0  0  0  0
   90.2120   31.2290  -33.1240 C   0  0  0  0  0
   90.0610   29.7390  -32.8380 C   0  0  0  0  0
   88.0190   33.5390  -29.0570 C   0  0  0  0  0
   89.3790   30.2220  -30.4130 C   0  0  0  0  0
   88.8860   31.5540  -28.0810 O   0  0  0  0  0
   91.3650   29.3290  -32.2910 N   0  3  0  0  0
   88.8130   31.5310  -30.4130 O   0  0  0  0  0
   88.0442   33.7823  -31.2029 H   0  0  0  0  0
   86.8907   35.8752  -26.8486 H   0  0  0  0  0
   87.8727   33.5950  -26.9040 H   0  0  0  0  0
   92.1449   32.1393  -32.7228 H   0  0  0  0  0
   90.9567   32.4788  -31.5088 H   0  0  0  0  0
   88.9742   28.4584  -31.5345 H   0  0  0  0  0
   88.0855   29.9569  -32.0829 H   0  0  0  0  0
   86.4781   37.1063  -28.9647 H   0  0  0  0  0
   91.0570   31.2029  -29.5464 H   0  0  0  0  0
   91.1833   29.3814  -29.6602 H   0  0  0  0  0
   92.7937   30.4804  -31.1477 H   0  0  0  0  0
   87.0347   36.0507  -31.1460 H   0  0  0  0  0
   90.4655   31.4186  -34.1670 H   0  0  0  0  0
   89.2798   31.7701  -32.9617 H   0  0  0  0  0
   89.7592   29.1875  -33.7285 H   0  0  0  0  0
   88.9647   29.6123  -29.6101 H   0  0  0  0  0
   91.3176   28.4404  -31.7925 H   0  0  0  0  0
   92.0577   29.1572  -33.0197 H   0  0  0  0  0
  1 10  4  0  0  0
 13  1  4  0  0  0
  3  2  4  0  0  0
  2  7  4  0  0  0
 13  3  4  0  0  0
  9  4  1  0  0  0
  4 11  1  0  0  0
  5 13  1  0  0  0
  5 15  2  0  0  0
 17  5  1  0  0  0
  6 12  1  0  0  0
 14  6  1  0  0  0
 10  7  4  0  0  0
  8  9  1  0  0  0
 14  8  1  0  0  0
  9 16  1  0  0  0
 12 11  1  0  0  0
 12 16  1  0  0  0
 14 17  1  0  0  0
  1 18  1  0  0  0
  2 19  1  0  0  0
  3 20  1  0  0  0
  4 21  1  0  0  0
  4 22  1  0  0  0
  6 23  1  0  0  0
  6 24  1  0  0  0
  7 25  1  0  0  0
  8 26  1  0  0  0
  8 27  1  0  0  0
  9 28  1  0  0  0
 10 29  1  0  0  0
 11 30  1  0  0  0
 11 31  1  0  0  0
 12 32  1  0  0  0
 14 33  1  0  0  0
 16 34  1  0  0  0
 16 35  1  0  0  0
M  END
$$$$
