4tkf_ligand
  -I-interpret- 

 50 55  0  0  0  0  0  0  0  0999 V2000
   19.7260   33.1860   -0.3080 C   0  0  0  0  0
   20.5320   34.3290   -0.2050 C   0  0  0  0  0
   16.8290   36.8990    1.3750 C   0  0  0  0  0
   20.4790   40.4550    0.6680 C   0  0  0  0  0
   24.4190   43.9250   -0.8090 C   0  0  0  0  0
   25.2070   42.8410   -0.8260 C   0  0  0  0  0
   21.6210   41.2450    0.6720 C   0  0  0  0  0
   18.3740   33.2530    0.0350 C   0  0  0  0  0
   18.7980   38.9770    1.8590 C   0  0  0  0  0
   16.5120   34.5730    0.8410 C   0  0  0  0  0
   26.4430   44.5600    0.1650 C   0  0  0  0  0
   22.3060   41.4730    1.8570 C   0  0  0  0  0
   19.9920   39.9380    1.8580 C   0  0  0  0  0
   26.2740   43.0500    0.2670 C   0  0  0  0  0
   24.9660   44.8590    0.3010 C   0  0  0  0  0
   18.6990   35.5950    0.5540 C   0  0  0  0  0
   17.8540   34.4740    0.4700 C   0  0  0  0  0
   24.6540   41.8200    1.7800 C   0  0  0  0  0
   18.1830   36.8120    1.0250 C   0  0  0  0  0
   20.0110   35.4830    0.2200 N   0  0  0  0  0
   15.9920   35.7950    1.2850 C   0  0  0  0  0
   19.0150   37.8580    1.1520 N   0  0  0  0  0
   17.7900   39.2220    2.5050 O   0  0  0  0  0
   20.6630   40.1890    3.0430 C   0  0  0  0  0
   21.8260   40.9490    3.0480 C   0  0  0  0  0
   23.3850   42.2580    1.8340 N   0  0  0  0  0
   23.3160   43.5900    1.7760 C   0  0  0  0  0
   22.2620   44.2360    1.7850 O   0  0  0  0  0
   24.7140   44.2140    1.6840 C   0  0  0  0  0
   25.6350   42.9840    1.6740 C   0  0  0  0  0
   25.0090   40.6410    1.7940 O   0  0  0  0  0
   20.1546   32.2460   -0.6555 H   0  0  0  0  0
   21.5873   34.2754   -0.4727 H   0  0  0  0  0
   16.4259   37.8497    1.7239 H   0  0  0  0  0
   19.9663   40.2418   -0.2699 H   0  0  0  0  0
   23.5591   44.1136   -1.4518 H   0  0  0  0  0
   25.1118   41.9782   -1.4853 H   0  0  0  0  0
   21.9800   41.6869   -0.2575 H   0  0  0  0  0
   17.7378   32.3707   -0.0353 H   0  0  0  0  0
   15.8668   33.6963    0.7849 H   0  0  0  0  0
   26.9532   44.9481   -0.7166 H   0  0  0  0  0
   27.1178   45.0373    0.8756 H   0  0  0  0  0
   27.1131   42.3636    0.1541 H   0  0  0  0  0
   24.5812   45.8762    0.2272 H   0  0  0  0  0
   14.9399   35.8787    1.5574 H   0  0  0  0  0
   19.9057   37.7951    0.6590 H   0  0  0  0  0
   20.2757   39.7871    3.9793 H   0  0  0  0  0
   22.3577   41.1322    3.9817 H   0  0  0  0  0
   24.8538   44.9544    2.4716 H   0  0  0  0  0
   26.4018   42.9097    2.4451 H   0  0  0  0  0
  2  1  4  0  0  0
  8  1  4  0  0  0
 20  2  4  0  0  0
 19  3  4  0  0  0
  3 21  4  0  0  0
  4  7  4  0  0  0
 13  4  4  0  0  0
  6  5  2  0  0  0
 15  5  1  0  0  0
 14  6  1  0  0  0
  7 12  4  0  0  0
 17  8  4  0  0  0
  9 13  1  0  0  0
 22  9  1  0  0  0
  9 23  2  0  0  0
 17 10  4  0  0  0
 21 10  4  0  0  0
 14 11  1  0  0  0
 11 15  1  0  0  0
 12 25  4  0  0  0
 12 26  1  0  0  0
 13 24  4  0  0  0
 30 14  1  0  0  0
 15 29  1  0  0  0
 16 17  4  0  0  0
 19 16  4  0  0  0
 16 20  4  0  0  0
 26 18  1  0  0  0
 18 30  1  0  0  0
 18 31  2  0  0  0
 19 22  1  0  0  0
 24 25  4  0  0  0
 26 27  1  0  0  0
 27 28  2  0  0  0
 27 29  1  0  0  0
 29 30  1  0  0  0
  1 32  1  0  0  0
  2 33  1  0  0  0
  3 34  1  0  0  0
  4 35  1  0  0  0
  5 36  1  0  0  0
  6 37  1  0  0  0
  7 38  1  0  0  0
  8 39  1  0  0  0
 10 40  1  0  0  0
 11 41  1  0  0  0
 11 42  1  0  0  0
 14 43  1  0  0  0
 15 44  1  0  0  0
 21 45  1  0  0  0
 22 46  1  0  0  0
 24 47  1  0  0  0
 25 48  1  0  0  0
 29 49  1  0  0  0
 30 50  1  0  0  0
M  END
$$$$
