4d1y_ligand
  -I-interpret- 

 47 49  0  0  0  0  0  0  0  0999 V2000
  -35.0430   -7.4820   31.7770 N   0  0  0  0  0
  -35.2090   -6.8610   32.9730 C   0  0  0  0  0
  -35.0130   -7.5090   34.0240 O   0  0  0  0  0
  -35.5710   -5.5710   33.0750 N   0  0  0  0  0
  -35.7970   -4.8040   32.0030 C   0  0  0  0  0
  -36.1360   -3.6090   32.1360 O   0  0  0  0  0
  -35.6430   -5.4080   30.6580 C   0  0  0  0  0
  -35.8570   -4.6970   29.5300 N   0  0  0  0  0
  -35.7110   -5.2720   28.3150 C   0  0  0  0  0
  -35.9440   -4.5200   27.1700 C   0  0  0  0  0
  -35.7980   -5.0990   25.9150 C   0  0  0  0  0
  -36.0510   -4.2780   24.6790 C   0  0  0  0  0
  -35.3920   -6.5250   25.7950 C   0  0  0  0  0
  -35.2360   -7.1480   24.4330 C   0  0  0  0  0
  -35.1590   -7.2810   26.9380 C   0  0  0  0  0
  -35.3050   -6.7030   28.1950 C   0  0  0  0  0
  -35.0840   -7.4670   29.3610 N   0  0  0  0  0
  -35.2380   -6.8320   30.6100 C   0  0  0  0  0
  -34.6690   -8.8730   29.2640 C   0  0  0  0  0
  -35.7470   -9.8610   29.6930 C   0  0  0  0  0
  -35.9740   -9.7340   31.0990 O   0  0  0  0  0
  -35.2930  -11.2850   29.3900 C   0  0  0  0  0
  -34.5770  -11.3130   28.1480 O   0  0  0  0  0
  -36.4680  -12.2570   29.3280 C   0  0  0  0  0
  -37.6760  -11.5440   29.0390 O   0  0  0  0  0
  -36.6340  -13.0040   30.6450 C   0  0  0  0  0
  -35.4940  -13.8430   30.8640 O   0  0  0  0  0
  -35.6772   -5.1621   34.0034 H   0  0  0  0  0
  -36.2416   -3.4750   27.2562 H   0  0  0  0  0
  -37.0796   -3.9176   24.6881 H   0  0  0  0  0
  -35.3674   -3.4292   24.6619 H   0  0  0  0  0
  -35.8886   -4.8948   23.7951 H   0  0  0  0  0
  -36.1856   -7.0965   23.9004 H   0  0  0  0  0
  -34.4738   -6.6068   23.8725 H   0  0  0  0  0
  -34.9361   -8.1901   24.5437 H   0  0  0  0  0
  -34.8621   -8.3260   26.8495 H   0  0  0  0  0
  -33.8183   -9.0085   29.9319 H   0  0  0  0  0
  -34.4407   -9.0739   28.2173 H   0  0  0  0  0
  -36.6658   -9.6476   29.1468 H   0  0  0  0  0
  -36.6530  -10.3562   31.3699 H   0  0  0  0  0
  -34.6406  -11.6034   30.2030 H   0  0  0  0  0
  -34.2942  -12.2116   27.9632 H   0  0  0  0  0
  -36.2631  -12.9801   28.5385 H   0  0  0  0  0
  -38.4098  -12.1619   29.0017 H   0  0  0  0  0
  -37.5343  -13.6171   30.6044 H   0  0  0  0  0
  -36.7200  -12.2870   31.4614 H   0  0  0  0  0
  -35.5991  -14.3135   31.6941 H   0  0  0  0  0
  1  2  1  0  0  0
  1 18  2  0  0  0
  2  3  2  0  0  0
  2  4  1  0  0  0
  4  5  1  0  0  0
  5  6  2  0  0  0
  5  7  1  0  0  0
  7  8  2  0  0  0
  7 18  1  0  0  0
  8  9  1  0  0  0
  9 10  4  0  0  0
  9 16  4  0  0  0
 10 11  4  0  0  0
 11 12  1  0  0  0
 11 13  4  0  0  0
 13 14  1  0  0  0
 13 15  4  0  0  0
 15 16  4  0  0  0
 16 17  1  0  0  0
 17 18  1  0  0  0
 17 19  1  0  0  0
 19 20  1  0  0  0
 20 21  1  0  0  0
 20 22  1  0  0  0
 22 23  1  0  0  0
 22 24  1  0  0  0
 24 25  1  0  0  0
 24 26  1  0  0  0
 26 27  1  0  0  0
  4 28  1  0  0  0
 10 29  1  0  0  0
 12 30  1  0  0  0
 12 31  1  0  0  0
 12 32  1  0  0  0
 14 33  1  0  0  0
 14 34  1  0  0  0
 14 35  1  0  0  0
 15 36  1  0  0  0
 19 37  1  0  0  0
 19 38  1  0  0  0
 20 39  1  0  0  0
 21 40  1  0  0  0
 22 41  1  0  0  0
 23 42  1  0  0  0
 24 43  1  0  0  0
 25 44  1  0  0  0
 26 45  1  0  0  0
 26 46  1  0  0  0
 27 47  1  0  0  0
M  END
$$$$
