6eq3_ligand
  -I-interpret- 

 24 26  0  0  0  0  0  0  0  0999 V2000
  -15.8850   10.1790  -21.8190 C   0  0  0  0  0
  -18.0470    9.1100  -21.6650 C   0  0  0  0  0
  -19.1490   10.7760  -23.2820 C   0  0  0  0  0
  -14.4120   12.2110  -23.7070 C   0  0  0  0  0
  -13.3500   12.9540  -24.1890 C   0  0  0  0  0
  -12.5590   11.7760  -22.4190 C   0  0  0  0  0
  -13.9390   11.4610  -22.5850 C   0  0  0  0  0
  -14.4930   10.5480  -21.6900 C   0  0  0  0  0
  -13.6850   10.0130  -20.7060 C   0  0  0  0  0
  -12.3200   10.4110  -20.6340 C   0  0  0  0  0
  -18.0080   10.2010  -22.4930 C   0  0  0  0  0
  -12.2040   12.7070  -23.4220 N   0  0  0  0  0
  -11.7320   11.2790  -21.4640 N   0  0  0  0  0
  -16.7530   10.8160  -22.5780 N   0  0  0  0  0
  -20.3060   10.0940  -22.8820 O   0  0  0  0  0
  -16.5160    8.8060  -20.9740 S   0  0  0  0  0
  -18.9391    8.5140  -21.4727 H   0  0  0  0  0
  -18.9791   10.6543  -24.3518 H   0  0  0  0  0
  -19.2471   11.8455  -23.0960 H   0  0  0  0  0
  -15.4251   12.1991  -24.1090 H   0  0  0  0  0
  -13.3976   13.6324  -25.0408 H   0  0  0  0  0
  -14.0878    9.2941  -19.9925 H   0  0  0  0  0
  -11.7087    9.9758  -19.8434 H   0  0  0  0  0
  -21.0610   10.4353  -23.3669 H   0  0  0  0  0
  8  1  1  0  0  0
  1 14  4  0  0  0
  1 16  4  0  0  0
  2 11  4  0  0  0
 16  2  4  0  0  0
 11  3  1  0  0  0
  3 15  1  0  0  0
  4  5  4  0  0  0
  7  4  4  0  0  0
 12  5  4  0  0  0
  7  6  4  0  0  0
  6 12  4  0  0  0
  6 13  4  0  0  0
  7  8  4  0  0  0
  8  9  4  0  0  0
  9 10  4  0  0  0
 10 13  4  0  0  0
 11 14  4  0  0  0
  2 17  1  0  0  0
  3 18  1  0  0  0
  3 19  1  0  0  0
  4 20  1  0  0  0
  5 21  1  0  0  0
  9 22  1  0  0  0
 10 23  1  0  0  0
 15 24  1  0  0  0
M  END
$$$$
