### 
### Created by X-TOOL on Mon Sep 10 21:13:17 2018
### 

@<TRIPOS>MOLECULE
4u6x_ligand
  171   171     2     0     0
SMALL
GAST_HUCK


@<TRIPOS>ATOM
      1 N         -15.2970    0.9290    8.4990 N.4       1 ALA         0.2377
      2 CA        -15.8100    2.2110    8.0320 C.3       1 ALA         0.0621
      3 C         -15.4450    3.3340    9.0010 C.2       1 ALA         0.2264
      4 O         -15.4280    3.1440   10.2260 O.2       1 ALA        -0.3907
      5 CB        -17.3200    2.1450    7.8380 C.3       1 ALA        -0.0040
      6 N         -15.1640    4.5110    8.4490 N.am      1 LEU        -0.2610
      7 CA        -14.7750    5.6670    9.2550 C.3       1 LEU         0.1313
      8 C         -15.8950    6.1460   10.1680 C.2       1 LEU         0.2039
      9 O         -17.0910    5.9620    9.8810 O.2       1 LEU        -0.3944
     10 CB        -14.3620    6.8230    8.3340 C.3       1 LEU        -0.0101
     11 CG        -13.0870    6.6380    7.5200 C.3       1 LEU        -0.0425
     12 CD1       -12.9850    7.7680    6.4870 C.3       1 LEU        -0.0625
     13 CD2       -11.8710    6.6600    8.4440 C.3       1 LEU        -0.0625
     14 N         -15.5180    6.7900   11.2700 N.am      1 GLN        -0.2636
     15 CA        -16.5270    7.4290   12.0970 C.3       1 GLN         0.1330
     16 C         -17.1690    8.5670   11.3050 C.2       1 GLN         0.2041
     17 O         -16.5040    9.2310   10.4990 O.2       1 GLN        -0.3944
     18 CB        -15.9250    7.9680   13.3950 C.3       1 GLN         0.0045
     19 CG        -16.9990    8.5110   14.3300 C.3       1 GLN         0.0412
     20 CD        -16.4260    9.2790   15.4960 C.2       1 GLN         0.1737
     21 OE1       -15.2020    9.3380   15.6730 O.2       1 GLN        -0.3973
     22 NE2       -17.3030    9.8790   16.3000 N.am      1 GLN        -0.3009
     23 N         -18.4600    8.7900   11.5130 N.am      1 ASP        -0.2622
     24 CA        -19.1420    9.8600   10.8020 C.3       1 ASP         0.1423
     25 C         -19.3650   11.0110   11.7790 C.2       1 ASP         0.2057
     26 O         -20.4710   11.2160   12.2660 O.2       1 ASP        -0.3942
     27 CB        -20.4700    9.3610   10.2310 C.3       1 ASP         0.0406
     28 CG        -20.9320   10.1700    9.0220 C.2       1 ASP         0.0393
     29 OD1       -20.4580   11.3170    8.8400 O.co2     1 ASP        -0.5688
     30 OD2       -21.7820    9.6630    8.2570 O.co2     1 ASP        -0.5688
     31 N         -18.2960   11.7420   12.0760 N.am      1 ALA        -0.2652
     32 CA        -18.3480   12.8160   13.0640 C.3       1 ALA         0.1100
     33 C         -19.1610   14.0050   12.5600 C.2       1 ALA         0.1242
     34 O         -20.0810   13.8460   11.7540 O.2       1 ALA        -0.3725
     35 CB        -16.9330   13.2530   13.4530 C.3       1 ALA        -0.0257
     36 N         -21.8720   16.6500   17.1760 N.4       2 LYS         0.2379
     37 CA        -21.1160   17.2750   16.0960 C.3       2 LYS         0.0650
     38 C         -19.6370   16.9010   16.1170 C.2       2 LYS         0.2267
     39 O         -19.1690   16.2070   17.0240 O.2       2 LYS        -0.3907
     40 CB        -21.2540   18.7970   16.1490 C.3       2 LYS         0.0080
     41 CG        -22.6140   19.3120   15.7140 C.3       2 LYS        -0.0410
     42 CD        -22.4850   20.6280   14.9530 C.3       2 LYS        -0.0123
     43 CE        -23.8470   21.1680   14.5280 C.3       2 LYS        -0.0354
     44 NZ        -23.7390   22.5080   13.8760 N.4       2 LYS         0.2185
     45 N         -18.9110   17.3670   15.1020 N.am      2 GLU        -0.2609
     46 CA        -17.4640   17.1900   15.0190 C.3       2 GLU         0.1326
     47 C         -16.7850   17.7470   16.2680 C.2       2 GLU         0.2041
     48 O         -17.2700   18.6960   16.8860 O.2       2 GLU        -0.3944
     49 CB        -16.9110   17.9130   13.7870 C.3       2 GLU        -0.0008
     50 CG        -17.3460   17.3340   12.4370 C.3       2 GLU         0.0044
     51 CD        -16.1760   16.7590   11.6490 C.2       2 GLU         0.0350
     52 OE1       -16.3120   16.5570   10.4150 O.co2     2 GLU        -0.5690
     53 OE2       -15.1170   16.5060   12.2710 O.co2     2 GLU        -0.5690
     54 N         -15.6550   17.1540   16.6350 N.am      2 TYR        -0.2621
     55 CA        -14.8940   17.6090   17.7970 C.3       2 TYR         0.1390
     56 C         -13.5200   18.0300   17.3210 C.2       2 TYR         0.2059
     57 O         -12.9170   17.3600   16.4620 O.2       2 TYR        -0.3942
     58 CB        -14.7690   16.4780   18.8170 C.3       2 TYR         0.0163
     59 CG        -14.3980   15.1630   18.1840 C.ar      2 TYR        -0.0493
     60 CD1       -15.3690   14.3520   17.6180 C.ar      2 TYR        -0.0685
     61 CD2       -13.0780   14.7310   18.1520 C.ar      2 TYR        -0.0685
     62 CE1       -15.0390   13.1520   17.0370 C.ar      2 TYR        -0.0398
     63 CE2       -12.7330   13.5310   17.5710 C.ar      2 TYR        -0.0398
     64 CZ        -13.7190   12.7440   17.0170 C.ar      2 TYR         0.0805
     65 OH        -13.3880   11.5450   16.4330 O.3       2 TYR        -0.3376
     66 N         -13.0260   19.1350   17.8730 N.am      2 PHE        -0.2618
     67 CA        -11.7690   19.7160   17.4230 C.3       2 PHE         0.1404
     68 C         -10.7720   19.8580   18.5560 C.2       2 PHE         0.2054
     69 O         -11.1540   20.1020   19.7020 O.2       2 PHE        -0.3942
     70 CB        -12.0230   21.0960   16.7980 C.3       2 PHE         0.0214
     71 CG        -13.0400   21.0740   15.7070 C.ar      2 PHE        -0.0386
     72 CD1       -12.6690   20.7490   14.4070 C.ar      2 PHE        -0.0601
     73 CD2       -14.3720   21.3470   15.9760 C.ar      2 PHE        -0.0601
     74 CE1       -13.6240   20.6980   13.3830 C.ar      2 PHE        -0.0686
     75 CE2       -15.3210   21.3120   14.9660 C.ar      2 PHE        -0.0686
     76 CZ        -14.9480   20.9830   13.6680 C.ar      2 PHE        -0.0687
     77 N          -9.4900   19.6920   18.2360 N.am      2 ILE        -0.2691
     78 CA         -8.4310   19.9310   19.2190 C.3       2 ILE         0.0969
     79 C          -8.5830   21.3280   19.8420 C.2       2 ILE         0.0604
     80 O          -8.9640   22.2840   19.1600 O.co2     2 ILE        -0.5666
     81 CB         -7.0440   19.7810   18.5700 C.3       2 ILE        -0.0092
     82 CG1        -6.7830   18.3150   18.1760 C.3       2 ILE        -0.0497
     83 CG2        -5.9230   20.3320   19.4810 C.3       2 ILE        -0.0588
     84 CD1        -6.7800   17.3220   19.3280 C.3       2 ILE        -0.0649
     85 OXT        -8.3350   21.5570   21.0380 O.co2     2 ILE        -0.5666
     86 H         -15.5508    0.2066    7.8434 H         1 ALA         0.2015
     87 H         -15.6925    0.7175    9.4017 H         1 ALA         0.2015
     88 H         -14.2930    0.9763    8.5747 H         1 ALA         0.2015
     89 H         -15.3464    2.4323    7.0594 H         1 ALA         0.1095
     90 H         -17.6874    3.1202    7.4860 H         1 ALA         0.0310
     91 H         -17.8020    1.8952    8.7947 H         1 ALA         0.0310
     92 H         -17.5606    1.3720    7.0933 H         1 ALA         0.0310
     93 H         -15.2204    4.6079    7.4553 H         1 LEU         0.1884
     94 H         -13.9155    5.3798    9.8786 H         1 LEU         0.0800
     95 H         -14.2279    7.7160    8.9622 H         1 LEU         0.0315
     96 H         -15.1860    6.9934    7.6255 H         1 LEU         0.0315
     97 H         -13.1253    5.6705    6.9980 H         1 LEU         0.0298
     98 H         -12.0666    7.6416    5.8949 H         1 LEU         0.0232
     99 H         -12.9562    8.7376    7.0058 H         1 LEU         0.0232
    100 H         -13.8589    7.7349    5.8198 H         1 LEU         0.0232
    101 H         -11.9548    5.8465    9.1796 H         1 LEU         0.0232
    102 H         -11.8266    7.6257    8.9688 H         1 LEU         0.0232
    103 H         -10.9559    6.5235    7.8491 H         1 LEU         0.0232
    104 H         -14.5522    6.8335   11.5256 H         1 GLN         0.1883
    105 H         -17.2990    6.6875   12.3504 H         1 GLN         0.0801
    106 H         -15.2208    8.7774   13.1525 H         1 GLN         0.0337
    107 H         -15.3873    7.1543   13.9038 H         1 GLN         0.0337
    108 H         -17.5854    7.6660   14.7200 H         1 GLN         0.0504
    109 H         -17.6573    9.1809   13.7575 H         1 GLN         0.0504
    110 H         -16.9813   10.4024   17.0890 H         1 GLN         0.1814
    111 H         -18.2829    9.8059   16.1143 H         1 GLN         0.1814
    112 H         -18.9660    8.2205   12.1608 H         1 ASP         0.1884
    113 H         -18.5087   10.2070    9.9723 H         1 ASP         0.0819
    114 H         -21.2384    9.4300   11.0151 H         1 ASP         0.0478
    115 H         -20.3499    8.3108    9.9267 H         1 ASP         0.0478
    116 H         -17.4319   11.5514   11.6101 H         1 ALA         0.1884
    117 H         -18.8446   12.4246   13.9641 H         1 ALA         0.0787
    118 H         -18.9259   15.0068   12.9165 H         1 ALA         0.1373
    119 H         -16.9904   14.0614   14.1968 H         1 ALA         0.0278
    120 H         -16.4020   13.6137   12.5597 H         1 ALA         0.0278
    121 H         -16.3901   12.3979   13.8820 H         1 ALA         0.0278
    122 H         -22.8385   16.9297   17.1151 H         2 LYS         0.2015
    123 H         -21.4932   16.9412   18.0636 H         2 LYS         0.2015
    124 H         -21.8067   15.6474   17.0954 H         2 LYS         0.2015
    125 H         -21.5406   16.9224   15.1445 H         2 LYS         0.1098
    126 H         -20.4913   19.2361   15.4892 H         2 LYS         0.0346
    127 H         -21.0758   19.1241   17.1840 H         2 LYS         0.0346
    128 H         -23.2394   19.4719   16.6047 H         2 LYS         0.0270
    129 H         -23.0893   18.5648   15.0615 H         2 LYS         0.0270
    130 H         -21.8710   20.4624   14.0555 H         2 LYS         0.0317
    131 H         -21.9942   21.3686   15.6016 H         2 LYS         0.0317
    132 H         -24.4874   21.2567   15.4180 H         2 LYS         0.0813
    133 H         -24.3026   20.4629   13.8172 H         2 LYS         0.0813
    134 H         -24.6575   22.8279   13.6113 H         2 LYS         0.1994
    135 H         -23.1587   22.4364   13.0549 H         2 LYS         0.1994
    136 H         -23.3280   23.1638   14.5218 H         2 LYS         0.1994
    137 H         -19.3765   17.8586   14.3661 H         2 GLU         0.1885
    138 H         -17.2415   16.1159   14.9370 H         2 GLU         0.0801
    139 H         -15.8127   17.8745   13.8350 H         2 GLU         0.0330
    140 H         -17.2435   18.9607   13.8302 H         2 GLU         0.0330
    141 H         -17.8130   18.1337   11.8433 H         2 GLU         0.0433
    142 H         -18.0793   16.5337   12.6154 H         2 GLU         0.0433
    143 H         -15.3165   16.3774   16.1036 H         2 TYR         0.1885
    144 H         -15.4042   18.4649   18.2630 H         2 TYR         0.0821
    145 H         -15.7337   16.3607   19.3324 H         2 TYR         0.0453
    146 H         -13.9929   16.7478   19.5484 H         2 TYR         0.0453
    147 H         -16.4052   14.6698   17.6341 H         2 TYR         0.0530
    148 H         -12.3050   15.3502   18.5927 H         2 TYR         0.0530
    149 H         -15.8092   12.5290   16.5969 H         2 TYR         0.0525
    150 H         -11.6980   13.2094   17.5498 H         2 TYR         0.0525
    151 H         -12.9774   10.9822   17.0788 H         2 TYR         0.2458
    152 H         -13.5301   19.5772   18.6148 H         2 PHE         0.1885
    153 H         -11.3360   19.0537   16.6589 H         2 PHE         0.0823
    154 H         -11.0755   21.4710   16.3838 H         2 PHE         0.0474
    155 H         -12.3733   21.7772   17.5874 H         2 PHE         0.0474
    156 H         -11.6305   20.5329   14.1835 H         2 PHE         0.0557
    157 H         -14.6752   21.5907   16.9878 H         2 PHE         0.0557
    158 H         -13.3276   20.4369   12.3735 H         2 PHE         0.0599
    159 H         -16.3566   21.5418   15.1891 H         2 PHE         0.0599
    160 H         -15.6925   20.9497   12.8808 H         2 PHE         0.0559
    161 H          -9.2469   19.3999   17.3110 H         2 ILE         0.1876
    162 H          -8.5234   19.1811   20.0185 H         2 ILE         0.0729
    163 H          -7.0423   20.3794   17.6470 H         2 ILE         0.0338
    164 H          -5.8012   18.2656   17.6825 H         2 ILE         0.0267
    165 H          -7.5659   18.0095   17.4663 H         2 ILE         0.0267
    166 H          -6.1428   21.3780   19.7411 H         2 ILE         0.0234
    167 H          -4.9608   20.2806   18.9504 H         2 ILE         0.0234
    168 H          -5.8678   19.7296   20.3997 H         2 ILE         0.0234
    169 H          -6.5858   16.3111   18.9402 H         2 ILE         0.0230
    170 H          -7.7584   17.3402   19.8304 H         2 ILE         0.0230
    171 H          -5.9936   17.5963   20.0466 H         2 ILE         0.0230
@<TRIPOS>BOND
     1    1    2 1  
     2    2    3 1  
     3    2    5 1  
     4    3    4 2  
     5    3    6 am 
     6    6    7 1  
     7    7    8 1  
     8    7   10 1  
     9    8    9 2  
    10    8   14 am 
    11   10   11 1  
    12   11   12 1  
    13   11   13 1  
    14   14   15 1  
    15   15   16 1  
    16   15   18 1  
    17   16   17 2  
    18   16   23 am 
    19   18   19 1  
    20   19   20 1  
    21   20   21 2  
    22   20   22 am 
    23   23   24 1  
    24   24   25 1  
    25   24   27 1  
    26   25   26 2  
    27   25   31 am 
    28   27   28 1  
    29   28   29 ar 
    30   28   30 ar 
    31   31   32 1  
    32   32   33 1  
    33   32   35 1  
    34   33   34 2  
    35   36   37 1  
    36   37   38 1  
    37   37   40 1  
    38   38   39 2  
    39   38   45 am 
    40   40   41 1  
    41   41   42 1  
    42   42   43 1  
    43   43   44 1  
    44   45   46 1  
    45   46   47 1  
    46   46   49 1  
    47   47   48 2  
    48   47   54 am 
    49   49   50 1  
    50   50   51 1  
    51   51   52 ar 
    52   51   53 ar 
    53   54   55 1  
    54   55   56 1  
    55   55   58 1  
    56   56   57 2  
    57   56   66 am 
    58   58   59 1  
    59   59   60 ar 
    60   59   61 ar 
    61   60   62 ar 
    62   61   63 ar 
    63   62   64 ar 
    64   63   64 ar 
    65   64   65 1  
    66   66   67 1  
    67   67   68 1  
    68   67   70 1  
    69   68   69 2  
    70   68   77 am 
    71   70   71 1  
    72   71   72 ar 
    73   71   73 ar 
    74   72   74 ar 
    75   73   75 ar 
    76   74   76 ar 
    77   75   76 ar 
    78   77   78 1  
    79   78   79 1  
    80   78   81 1  
    81   79   80 ar 
    82   79   85 ar 
    83   81   82 1  
    84   81   83 1  
    85   82   84 1  
    86    1   86 1  
    87    1   87 1  
    88    1   88 1  
    89    2   89 1  
    90    5   90 1  
    91    5   91 1  
    92    5   92 1  
    93    6   93 1  
    94    7   94 1  
    95   10   95 1  
    96   10   96 1  
    97   11   97 1  
    98   12   98 1  
    99   12   99 1  
   100   12  100 1  
   101   13  101 1  
   102   13  102 1  
   103   13  103 1  
   104   14  104 1  
   105   15  105 1  
   106   18  106 1  
   107   18  107 1  
   108   19  108 1  
   109   19  109 1  
   110   22  110 1  
   111   22  111 1  
   112   23  112 1  
   113   24  113 1  
   114   27  114 1  
   115   27  115 1  
   116   31  116 1  
   117   32  117 1  
   118   33  118 1  
   119   35  119 1  
   120   35  120 1  
   121   35  121 1  
   122   36  122 1  
   123   36  123 1  
   124   36  124 1  
   125   37  125 1  
   126   40  126 1  
   127   40  127 1  
   128   41  128 1  
   129   41  129 1  
   130   42  130 1  
   131   42  131 1  
   132   43  132 1  
   133   43  133 1  
   134   44  134 1  
   135   44  135 1  
   136   44  136 1  
   137   45  137 1  
   138   46  138 1  
   139   49  139 1  
   140   49  140 1  
   141   50  141 1  
   142   50  142 1  
   143   54  143 1  
   144   55  144 1  
   145   58  145 1  
   146   58  146 1  
   147   60  147 1  
   148   61  148 1  
   149   62  149 1  
   150   63  150 1  
   151   65  151 1  
   152   66  152 1  
   153   67  153 1  
   154   70  154 1  
   155   70  155 1  
   156   72  156 1  
   157   73  157 1  
   158   74  158 1  
   159   75  159 1  
   160   76  160 1  
   161   77  161 1  
   162   78  162 1  
   163   81  163 1  
   164   82  164 1  
   165   82  165 1  
   166   83  166 1  
   167   83  167 1  
   168   83  168 1  
   169   84  169 1  
   170   84  170 1  
   171   84  171 1  
@<TRIPOS>SUBSTRUCTURE
     1 ALA         1
     2 LYS        36

