4u6x_ligand
  -I-interpret- 

174174  0  0  0  0  0  0  0  0999 V2000
  -15.2970    0.9290    8.4990 N   0  3  0  0  0
  -15.8100    2.2110    8.0320 C   0  0  0  0  0
  -15.4450    3.3340    9.0010 C   0  0  0  0  0
  -15.4280    3.1440   10.2260 O   0  0  0  0  0
  -17.3200    2.1450    7.8380 C   0  0  0  0  0
  -15.1640    4.5110    8.4490 N   0  0  0  0  0
  -14.7750    5.6670    9.2550 C   0  0  0  0  0
  -15.8950    6.1460   10.1680 C   0  0  0  0  0
  -17.0910    5.9620    9.8810 O   0  0  0  0  0
  -14.3620    6.8230    8.3340 C   0  0  0  0  0
  -13.0870    6.6380    7.5200 C   0  0  0  0  0
  -12.9850    7.7680    6.4870 C   0  0  0  0  0
  -11.8710    6.6600    8.4440 C   0  0  0  0  0
  -15.5180    6.7900   11.2700 N   0  0  0  0  0
  -16.5270    7.4290   12.0970 C   0  0  0  0  0
  -17.1690    8.5670   11.3050 C   0  0  0  0  0
  -16.5040    9.2310   10.4990 O   0  0  0  0  0
  -15.9250    7.9680   13.3950 C   0  0  0  0  0
  -16.9990    8.5110   14.3300 C   0  0  0  0  0
  -16.4260    9.2790   15.4960 C   0  0  0  0  0
  -15.2020    9.3380   15.6730 O   0  0  0  0  0
  -17.3030    9.8790   16.3000 N   0  0  0  0  0
  -18.4600    8.7900   11.5130 N   0  0  0  0  0
  -19.1420    9.8600   10.8020 C   0  0  0  0  0
  -19.3650   11.0110   11.7790 C   0  0  0  0  0
  -20.4710   11.2160   12.2660 O   0  0  0  0  0
  -20.4700    9.3610   10.2310 C   0  0  0  0  0
  -20.9320   10.1700    9.0220 C   0  0  0  0  0
  -20.4580   11.3170    8.8400 O   0  0  0  0  0
  -21.7820    9.6630    8.2570 O   0  0  0  0  0
  -18.2960   11.7420   12.0760 N   0  0  0  0  0
  -18.3480   12.8160   13.0640 C   0  0  0  0  0
  -19.1610   14.0050   12.5600 C   0  0  0  0  0
  -20.0810   13.8460   11.7540 O   0  0  0  0  0
  -16.9330   13.2530   13.4530 C   0  0  0  0  0
  -21.8720   16.6500   17.1760 N   0  3  0  0  0
  -21.1160   17.2750   16.0960 C   0  0  0  0  0
  -19.6370   16.9010   16.1170 C   0  0  0  0  0
  -19.1690   16.2070   17.0240 O   0  0  0  0  0
  -21.2540   18.7970   16.1490 C   0  0  0  0  0
  -22.6140   19.3120   15.7140 C   0  0  0  0  0
  -22.4850   20.6280   14.9530 C   0  0  0  0  0
  -23.8470   21.1680   14.5280 C   0  0  0  0  0
  -23.7390   22.5080   13.8760 N   0  3  0  0  0
  -18.9110   17.3670   15.1020 N   0  0  0  0  0
  -17.4640   17.1900   15.0190 C   0  0  0  0  0
  -16.7850   17.7470   16.2680 C   0  0  0  0  0
  -17.2700   18.6960   16.8860 O   0  0  0  0  0
  -16.9110   17.9130   13.7870 C   0  0  0  0  0
  -17.3460   17.3340   12.4370 C   0  0  0  0  0
  -16.1760   16.7590   11.6490 C   0  0  0  0  0
  -16.3120   16.5570   10.4150 O   0  0  0  0  0
  -15.1170   16.5060   12.2710 O   0  0  0  0  0
  -15.6550   17.1540   16.6350 N   0  0  0  0  0
  -14.8940   17.6090   17.7970 C   0  0  0  0  0
  -13.5200   18.0300   17.3210 C   0  0  0  0  0
  -12.9170   17.3600   16.4620 O   0  0  0  0  0
  -14.7690   16.4780   18.8170 C   0  0  0  0  0
  -14.3980   15.1630   18.1840 C   0  0  0  0  0
  -15.3690   14.3520   17.6180 C   0  0  0  0  0
  -13.0780   14.7310   18.1520 C   0  0  0  0  0
  -15.0390   13.1520   17.0370 C   0  0  0  0  0
  -12.7330   13.5310   17.5710 C   0  0  0  0  0
  -13.7190   12.7440   17.0170 C   0  0  0  0  0
  -13.3880   11.5450   16.4330 O   0  0  0  0  0
  -13.0260   19.1350   17.8730 N   0  0  0  0  0
  -11.7690   19.7160   17.4230 C   0  0  0  0  0
  -10.7720   19.8580   18.5560 C   0  0  0  0  0
  -11.1540   20.1020   19.7020 O   0  0  0  0  0
  -12.0230   21.0960   16.7980 C   0  0  0  0  0
  -13.0400   21.0740   15.7070 C   0  0  0  0  0
  -12.6690   20.7490   14.4070 C   0  0  0  0  0
  -14.3720   21.3470   15.9760 C   0  0  0  0  0
  -13.6240   20.6980   13.3830 C   0  0  0  0  0
  -15.3210   21.3120   14.9660 C   0  0  0  0  0
  -14.9480   20.9830   13.6680 C   0  0  0  0  0
   -9.4900   19.6920   18.2360 N   0  0  0  0  0
   -8.4310   19.9310   19.2190 C   0  0  0  0  0
   -8.5830   21.3280   19.8420 C   0  0  0  0  0
   -8.9640   22.2840   19.1600 O   0  0  0  0  0
   -7.0440   19.7810   18.5700 C   0  0  0  0  0
   -6.7830   18.3150   18.1760 C   0  0  0  0  0
   -5.9230   20.3320   19.4810 C   0  0  0  0  0
   -6.7800   17.3220   19.3280 C   0  0  0  0  0
   -8.3350   21.5570   21.0380 O   0  0  0  0  0
  -14.2866    0.9932    8.6227 H   0  0  0  0  0
  -15.7354    0.6926    9.3891 H   0  0  0  0  0
  -15.5114    0.2073    7.8108 H   0  0  0  0  0
  -15.3451    2.4290    7.0705 H   0  0  0  0  0
  -17.8004    1.9559    8.7980 H   0  0  0  0  0
  -17.6748    3.0928    7.4331 H   0  0  0  0  0
  -17.5611    1.3392    7.1447 H   0  0  0  0  0
  -15.2215    4.6098    7.4354 H   0  0  0  0  0
  -13.9415    5.3517    9.8826 H   0  0  0  0  0
  -14.1755    7.6736    8.9896 H   0  0  0  0  0
  -15.1671    6.9258    7.6064 H   0  0  0  0  0
  -13.1156    5.6769    7.0067 H   0  0  0  0  0
  -13.8515    7.7341    5.8266 H   0  0  0  0  0
  -12.9566    8.7281    7.0023 H   0  0  0  0  0
  -12.0747    7.6417    5.9009 H   0  0  0  0  0
  -11.8295    7.6165    8.9651 H   0  0  0  0  0
  -11.9540    5.8521    9.1710 H   0  0  0  0  0
  -10.9648    6.5271    7.8531 H   0  0  0  0  0
  -14.5329    6.8343   11.5307 H   0  0  0  0  0
  -17.2799    6.6881   12.3660 H   0  0  0  0  0
  -15.2427    8.7808   13.1461 H   0  0  0  0  0
  -15.4100    7.1511   13.9005 H   0  0  0  0  0
  -17.5536    7.6621   14.7298 H   0  0  0  0  0
  -17.6264    9.1936   13.7568 H   0  0  0  0  0
  -16.9747   10.4159   17.1027 H   0  0  0  0  0
  -18.3027    9.8014   16.1128 H   0  0  0  0  0
  -18.9761    8.2092   12.1738 H   0  0  0  0  0
  -18.5361   10.2018    9.9629 H   0  0  0  0  0
  -21.2271    9.4596   11.0089 H   0  0  0  0  0
  -20.3295    8.3290    9.9095 H   0  0  0  0  0
  -19.8260   11.5148    9.5350 H   0  0  0  0  0
  -17.4147   11.5476   11.6007 H   0  0  0  0  0
  -18.8506   12.4286   13.9502 H   0  0  0  0  0
  -18.9257   15.0077   12.9169 H   0  0  0  0  0
  -16.3961   12.4049   13.8779 H   0  0  0  0  0
  -16.4080   13.6102   12.5671 H   0  0  0  0  0
  -16.9912   14.0540   14.1900 H   0  0  0  0  0
  -22.8498   16.9337   17.1134 H   0  0  0  0  0
  -21.8051   15.6355   17.0934 H   0  0  0  0  0
  -21.4878   16.9453   18.0735 H   0  0  0  0  0
  -21.5413   16.8959   15.1668 H   0  0  0  0  0
  -20.5172   19.2116   15.4610 H   0  0  0  0  0
  -21.1125   19.0975   17.1872 H   0  0  0  0  0
  -23.2235   19.4807   16.6018 H   0  0  0  0  0
  -23.0733   18.5729   15.0575 H   0  0  0  0  0
  -21.8905   20.4503   14.0568 H   0  0  0  0  0
  -22.0142   21.3601   15.6091 H   0  0  0  0  0
  -24.4659   21.2714   15.4193 H   0  0  0  0  0
  -24.2800   20.4728   13.8087 H   0  0  0  0  0
  -24.6690   22.8306   13.6087 H   0  0  0  0  0
  -23.3230   23.1706   14.5304 H   0  0  0  0  0
  -23.1516   22.4343   13.0454 H   0  0  0  0  0
  -19.3858   17.8685   14.3513 H   0  0  0  0  0
  -17.2576   16.1226   14.9404 H   0  0  0  0  0
  -15.8259   17.8193   13.8314 H   0  0  0  0  0
  -17.2931   18.9331   13.8265 H   0  0  0  0  0
  -17.7851   18.1403   11.8495 H   0  0  0  0  0
  -18.0536   16.5272   12.6279 H   0  0  0  0  0
  -17.1952   16.8185   10.1445 H   0  0  0  0  0
  -15.3097   16.3619   16.0930 H   0  0  0  0  0
  -15.4017   18.4464   18.2756 H   0  0  0  0  0
  -15.7380   16.3550   19.3008 H   0  0  0  0  0
  -13.9794   16.7461   19.5190 H   0  0  0  0  0
  -16.4110   14.6716   17.6342 H   0  0  0  0  0
  -12.3007   15.3536   18.5951 H   0  0  0  0  0
  -15.8135   12.5255   16.5945 H   0  0  0  0  0
  -11.6923   13.2076   17.5497 H   0  0  0  0  0
  -12.4403   11.4081   16.5010 H   0  0  0  0  0
  -13.5402   19.5861   18.6297 H   0  0  0  0  0
  -11.3455   19.0388   16.6813 H   0  0  0  0  0
  -11.0834   21.4384   16.3645 H   0  0  0  0  0
  -12.3997   21.7490   17.5853 H   0  0  0  0  0
  -11.6248   20.5317   14.1822 H   0  0  0  0  0
  -14.6769   21.5920   16.9934 H   0  0  0  0  0
  -13.3259   20.4354   12.3680 H   0  0  0  0  0
  -16.3623   21.5431   15.1903 H   0  0  0  0  0
  -15.6966   20.9495   12.8764 H   0  0  0  0  0
   -9.2420   19.3941   17.2925 H   0  0  0  0  0
   -8.5223   19.1860   20.0094 H   0  0  0  0  0
   -7.0357   20.3809   17.6600 H   0  0  0  0  0
   -5.7869   18.2834   17.7346 H   0  0  0  0  0
   -7.5966   18.0208   17.5130 H   0  0  0  0  0
   -6.0998   21.3903   19.6728 H   0  0  0  0  0
   -5.9217   19.7857   20.4242 H   0  0  0  0  0
   -4.9600   20.2071   18.9860 H   0  0  0  0  0
   -6.0004   17.5950   20.0393 H   0  0  0  0  0
   -7.7499   17.3411   19.8250 H   0  0  0  0  0
   -6.5875   16.3208   18.9425 H   0  0  0  0  0
   -8.0496   20.7462   21.4654 H   0  0  0  0  0
  1  2  1  0  0  0
  2  3  1  0  0  0
  2  5  1  0  0  0
  3  4  2  0  0  0
  3  6  1  0  0  0
  6  7  1  0  0  0
  7  8  1  0  0  0
  7 10  1  0  0  0
  8  9  2  0  0  0
  8 14  1  0  0  0
 10 11  1  0  0  0
 11 12  1  0  0  0
 11 13  1  0  0  0
 14 15  1  0  0  0
 15 16  1  0  0  0
 15 18  1  0  0  0
 16 17  2  0  0  0
 16 23  1  0  0  0
 18 19  1  0  0  0
 19 20  1  0  0  0
 20 21  2  0  0  0
 20 22  1  0  0  0
 23 24  1  0  0  0
 24 25  1  0  0  0
 24 27  1  0  0  0
 25 26  2  0  0  0
 25 31  1  0  0  0
 27 28  1  0  0  0
 28 29  1  0  0  0
 28 30  2  0  0  0
 31 32  1  0  0  0
 32 33  1  0  0  0
 32 35  1  0  0  0
 33 34  2  0  0  0
 36 37  1  0  0  0
 37 38  1  0  0  0
 37 40  1  0  0  0
 38 39  2  0  0  0
 38 45  1  0  0  0
 40 41  1  0  0  0
 41 42  1  0  0  0
 42 43  1  0  0  0
 43 44  1  0  0  0
 45 46  1  0  0  0
 46 47  1  0  0  0
 46 49  1  0  0  0
 47 48  2  0  0  0
 47 54  1  0  0  0
 49 50  1  0  0  0
 50 51  1  0  0  0
 51 52  1  0  0  0
 51 53  2  0  0  0
 54 55  1  0  0  0
 55 56  1  0  0  0
 55 58  1  0  0  0
 56 57  2  0  0  0
 56 66  1  0  0  0
 58 59  1  0  0  0
 59 60  4  0  0  0
 59 61  4  0  0  0
 60 62  4  0  0  0
 61 63  4  0  0  0
 62 64  4  0  0  0
 63 64  4  0  0  0
 64 65  1  0  0  0
 66 67  1  0  0  0
 67 68  1  0  0  0
 67 70  1  0  0  0
 68 69  2  0  0  0
 68 77  1  0  0  0
 70 71  1  0  0  0
 71 72  4  0  0  0
 71 73  4  0  0  0
 72 74  4  0  0  0
 73 75  4  0  0  0
 74 76  4  0  0  0
 75 76  4  0  0  0
 77 78  1  0  0  0
 78 79  1  0  0  0
 78 81  1  0  0  0
 79 80  2  0  0  0
 79 85  1  0  0  0
 81 82  1  0  0  0
 81 83  1  0  0  0
 82 84  1  0  0  0
  1 86  1  0  0  0
  1 87  1  0  0  0
  1 88  1  0  0  0
  2 89  1  0  0  0
  5 90  1  0  0  0
  5 91  1  0  0  0
  5 92  1  0  0  0
  6 93  1  0  0  0
  7 94  1  0  0  0
 10 95  1  0  0  0
 10 96  1  0  0  0
 11 97  1  0  0  0
 12 98  1  0  0  0
 12 99  1  0  0  0
 12100  1  0  0  0
 13101  1  0  0  0
 13102  1  0  0  0
 13103  1  0  0  0
 14104  1  0  0  0
 15105  1  0  0  0
 18106  1  0  0  0
 18107  1  0  0  0
 19108  1  0  0  0
 19109  1  0  0  0
 22110  1  0  0  0
 22111  1  0  0  0
 23112  1  0  0  0
 24113  1  0  0  0
 27114  1  0  0  0
 27115  1  0  0  0
 29116  1  0  0  0
 31117  1  0  0  0
 32118  1  0  0  0
 33119  1  0  0  0
 35120  1  0  0  0
 35121  1  0  0  0
 35122  1  0  0  0
 36123  1  0  0  0
 36124  1  0  0  0
 36125  1  0  0  0
 37126  1  0  0  0
 40127  1  0  0  0
 40128  1  0  0  0
 41129  1  0  0  0
 41130  1  0  0  0
 42131  1  0  0  0
 42132  1  0  0  0
 43133  1  0  0  0
 43134  1  0  0  0
 44135  1  0  0  0
 44136  1  0  0  0
 44137  1  0  0  0
 45138  1  0  0  0
 46139  1  0  0  0
 49140  1  0  0  0
 49141  1  0  0  0
 50142  1  0  0  0
 50143  1  0  0  0
 52144  1  0  0  0
 54145  1  0  0  0
 55146  1  0  0  0
 58147  1  0  0  0
 58148  1  0  0  0
 60149  1  0  0  0
 61150  1  0  0  0
 62151  1  0  0  0
 63152  1  0  0  0
 65153  1  0  0  0
 66154  1  0  0  0
 67155  1  0  0  0
 70156  1  0  0  0
 70157  1  0  0  0
 72158  1  0  0  0
 73159  1  0  0  0
 74160  1  0  0  0
 75161  1  0  0  0
 76162  1  0  0  0
 77163  1  0  0  0
 78164  1  0  0  0
 81165  1  0  0  0
 82166  1  0  0  0
 82167  1  0  0  0
 83168  1  0  0  0
 83169  1  0  0  0
 83170  1  0  0  0
 84171  1  0  0  0
 84172  1  0  0  0
 84173  1  0  0  0
 85174  1  0  0  0
M  END
$$$$
