4g16_ligand
  -I-interpret- 

 40 43  0  0  0  0  0  0  0  0999 V2000
   38.3130  -12.1150   26.6580 C   0  0  0  0  0
   37.6040  -13.3660   26.3650 C   0  0  0  0  0
   36.9700  -14.0690   27.4800 C   0  0  0  0  0
   37.0640  -13.4960   28.8350 C   0  0  0  0  0
   37.7740  -12.2480   29.1050 C   0  0  0  0  0
   38.4240  -11.5270   27.9960 C   0  0  0  0  0
   36.2740  -15.1900   27.5750 N   0  0  0  0  0
   35.9500  -15.3230   28.8750 C   0  0  0  0  0
   36.3900  -14.3600   29.6300 N   0  0  0  0  0
   35.5360  -20.4790   28.4140 C   0  0  0  0  0
   36.5900  -19.6120   27.9300 C   0  0  0  0  0
   36.4900  -18.2130   28.2590 C   0  0  0  0  0
   35.3520  -17.7460   29.0460 C   0  0  0  0  0
   34.3100  -18.6160   29.5280 C   0  0  0  0  0
   34.3930  -20.0360   29.2090 C   0  0  0  0  0
   35.1780  -16.4480   29.3960 N   0  0  0  0  0
   38.9300  -11.4480   25.6020 C   0  0  0  0  0
   39.4330  -10.9230   24.7110 N   0  0  0  0  0
   32.8600  -23.5990   25.3620 C   0  0  0  0  0
   33.6870  -24.4440   26.1560 C   0  0  0  0  0
   34.6620  -23.8830   27.0900 C   0  0  0  0  0
   34.7610  -22.4590   27.1930 C   0  0  0  0  0
   33.9520  -21.6510   26.4070 N   0  0  0  0  0
   33.0220  -22.1660   25.5110 C   0  0  0  0  0
   35.6440  -21.8750   28.0960 O   0  0  0  0  0
   35.5420  -24.8580   27.8630 C   0  0  0  0  0
   36.7680  -24.3650   28.1550 F   0  0  0  0  0
   35.7040  -25.9740   27.0940 F   0  0  0  0  0
   34.9190  -25.1890   29.0160 F   0  0  0  0  0
   37.5516  -13.7585   25.3495 H   0  0  0  0  0
   37.8227  -11.8528   30.1197 H   0  0  0  0  0
   38.9646  -10.5955   28.1638 H   0  0  0  0  0
   37.4221  -20.0006   27.3428 H   0  0  0  0  0
   37.2544  -17.5116   27.9246 H   0  0  0  0  0
   33.4808  -18.2227   30.1161 H   0  0  0  0  0
   33.6329  -20.7390   29.5499 H   0  0  0  0  0
   34.4489  -16.2402   30.0784 H   0  0  0  0  0
   32.1309  -24.0150   24.6667 H   0  0  0  0  0
   33.5915  -25.5261   26.0659 H   0  0  0  0  0
   32.4103  -21.4876   24.9163 H   0  0  0  0  0
  2  1  4  0  0  0
  6  1  4  0  0  0
  1 17  1  0  0  0
  3  2  4  0  0  0
  4  3  4  0  0  0
  7  3  4  0  0  0
  4  5  4  0  0  0
  9  4  4  0  0  0
  5  6  4  0  0  0
  8  7  4  0  0  0
  8  9  4  0  0  0
 16  8  1  0  0  0
 10 11  4  0  0  0
 10 15  4  0  0  0
 25 10  1  0  0  0
 11 12  4  0  0  0
 12 13  4  0  0  0
 14 13  4  0  0  0
 13 16  1  0  0  0
 15 14  4  0  0  0
 17 18  3  0  0  0
 20 19  4  0  0  0
 19 24  4  0  0  0
 21 20  4  0  0  0
 22 21  4  0  0  0
 21 26  1  0  0  0
 22 23  4  0  0  0
 22 25  1  0  0  0
 23 24  4  0  0  0
 26 27  1  0  0  0
 26 28  1  0  0  0
 26 29  1  0  0  0
  2 30  1  0  0  0
  5 31  1  0  0  0
  6 32  1  0  0  0
 11 33  1  0  0  0
 12 34  1  0  0  0
 14 35  1  0  0  0
 15 36  1  0  0  0
 16 37  1  0  0  0
 19 38  1  0  0  0
 20 39  1  0  0  0
 24 40  1  0  0  0
M  END
$$$$
