2cvd_ligand
  -I-interpret- 

 55 58  0  0  0  0  0  0  0  0999 V2000
    6.7070    7.3040   36.7770 C   0  0  0  0  0
    6.8250    7.5880   35.2990 C   0  0  0  0  0
    6.6930    8.9310   34.7530 C   0  0  0  0  0
    6.6630   10.0950   35.6860 C   0  0  0  0  0
    6.6890   11.4810   35.0690 C   0  0  0  0  0
    6.0440   12.4640   35.9510 O   0  0  0  0  0
    5.4810   13.6180   35.2560 C   0  0  0  0  0
    4.2150   13.2210   34.2720 C   0  0  0  0  0
    3.1110   12.4910   35.1560 C   0  0  0  0  0
    2.7810   13.5780   36.2830 N   0  3  0  0  0
    1.5590   12.8680   36.8110 C   0  0  0  0  0
    0.9290   13.4320   38.0260 C   0  0  0  0  0
   -0.4580   13.0380   37.8260 C   0  0  0  0  0
   -1.3330   13.4360   38.9060 C   0  0  0  0  0
   -2.6030   13.5900   38.7490 N   0  0  0  0  0
   -3.1150   13.9490   39.8810 N   0  0  0  0  0
   -2.1640   14.0130   40.7880 N   0  0  0  0  0
   -1.0290   13.6960   40.2350 N   0  0  0  0  0
    3.8710   14.1720   37.2390 C   0  0  0  0  0
    5.1130   14.6000   36.4320 C   0  0  0  0  0
    8.1070   11.9230   34.6410 C   0  0  0  0  0
    8.4030   11.9560   33.1620 C   0  0  0  0  0
    9.7770   12.3600   32.7020 C   0  0  0  0  0
   10.8200   12.7780   33.7150 C   0  0  0  0  0
   10.5050   12.7770   35.1650 C   0  0  0  0  0
    9.1420   12.3900   35.6380 C   0  0  0  0  0
    6.5810    9.8630   37.2030 C   0  0  0  0  0
    6.5700    8.4430   37.7320 C   0  0  0  0  0
    6.7217    6.2774   37.1431 H   0  0  0  0  0
    7.0156    6.7591   34.6173 H   0  0  0  0  0
    6.6171    9.0843   33.6765 H   0  0  0  0  0
    6.1072   11.4289   34.1487 H   0  0  0  0  0
    6.1731   14.0771   34.5500 H   0  0  0  0  0
    4.5530   12.5611   33.4730 H   0  0  0  0  0
    3.7977   14.1189   33.8163 H   0  0  0  0  0
    3.4576   11.5439   35.5695 H   0  0  0  0  0
    2.2331   12.1977   34.5803 H   0  0  0  0  0
    2.6663   14.5399   35.9637 H   0  0  0  0  0
    1.8908   11.8664   37.0846 H   0  0  0  0  0
    0.8082   12.9413   36.0242 H   0  0  0  0  0
    1.0709   14.5068   38.1388 H   0  0  0  0  0
    1.3617   13.0675   38.9577 H   0  0  0  0  0
   -0.4840   11.9499   37.7678 H   0  0  0  0  0
   -0.8109   13.5311   36.9202 H   0  0  0  0  0
    4.1617   13.4116   37.9638 H   0  0  0  0  0
    3.4605   15.0430   37.7498 H   0  0  0  0  0
    4.8914   15.5699   35.9867 H   0  0  0  0  0
    5.9581   14.6120   37.1203 H   0  0  0  0  0
    7.6328   11.6911   32.4377 H   0  0  0  0  0
   10.0210   12.3516   31.6397 H   0  0  0  0  0
   11.8106   13.0823   33.3771 H   0  0  0  0  0
   11.2707   13.0596   35.8874 H   0  0  0  0  0
    8.8949   12.4443   36.6982 H   0  0  0  0  0
    6.5314   10.7085   37.8892 H   0  0  0  0  0
    6.4630    8.2550   38.8003 H   0  0  0  0  0
  1  2  4  0  0  0
  1 28  4  0  0  0
  2  3  4  0  0  0
  3  4  4  0  0  0
  4  5  1  0  0  0
  4 27  4  0  0  0
  5  6  1  0  0  0
  5 21  1  0  0  0
  6  7  1  0  0  0
  7  8  1  0  0  0
  7 20  1  0  0  0
  8  9  1  0  0  0
  9 10  1  0  0  0
 10 11  1  0  0  0
 10 19  1  0  0  0
 11 12  1  0  0  0
 12 13  1  0  0  0
 13 14  1  0  0  0
 14 15  4  0  0  0
 14 18  4  0  0  0
 15 16  4  0  0  0
 16 17  4  0  0  0
 17 18  4  0  0  0
 19 20  1  0  0  0
 21 22  4  0  0  0
 21 26  4  0  0  0
 22 23  4  0  0  0
 23 24  4  0  0  0
 24 25  4  0  0  0
 25 26  4  0  0  0
 27 28  4  0  0  0
  1 29  1  0  0  0
  2 30  1  0  0  0
  3 31  1  0  0  0
  5 32  1  0  0  0
  7 33  1  0  0  0
  8 34  1  0  0  0
  8 35  1  0  0  0
  9 36  1  0  0  0
  9 37  1  0  0  0
 10 38  1  0  0  0
 11 39  1  0  0  0
 11 40  1  0  0  0
 12 41  1  0  0  0
 12 42  1  0  0  0
 13 43  1  0  0  0
 13 44  1  0  0  0
 19 45  1  0  0  0
 19 46  1  0  0  0
 20 47  1  0  0  0
 20 48  1  0  0  0
 22 49  1  0  0  0
 23 50  1  0  0  0
 24 51  1  0  0  0
 25 52  1  0  0  0
 26 53  1  0  0  0
 27 54  1  0  0  0
 28 55  1  0  0  0
M  END
$$$$
