6f3i_ligand
  -I-interpret- 

 65 68  0  0  0  0  0  0  0  0999 V2000
  -15.7390  -39.1670  -12.4270 C   0  0  0  0  0
  -15.7290  -38.7080  -10.9900 C   0  0  0  0  0
  -16.8430  -38.5860  -10.1820 C   0  0  0  0  0
  -16.3090  -36.2910  -14.7740 N   0  0  0  0  0
  -20.4780  -39.9850  -13.0170 C   0  0  0  0  0
  -21.9730  -40.0730  -13.3460 C   0  0  0  0  0
  -22.5960  -38.6860  -13.5960 C   0  0  0  0  0
  -22.2630  -37.6760  -12.4940 C   0  0  0  0  0
  -20.7590  -37.6400  -12.1960 C   0  0  0  0  0
  -24.8660  -39.4970  -12.9880 C   0  0  0  0  0
  -26.3460  -39.2610  -13.2310 C   0  0  0  0  0
  -25.8290  -38.7260  -15.5760 C   0  0  0  0  0
  -24.3620  -39.0000  -15.2940 C   0  0  0  0  0
  -27.7540  -40.2380  -15.0320 C   0  0  0  0  0
  -14.5880  -38.4070  -10.1650 C   0  0  0  0  0
  -15.3810  -38.0500  -13.4130 C   0  0  0  0  0
  -16.5570  -37.4170  -14.1250 C   0  0  0  0  0
  -17.6750  -37.9460  -14.1030 O   0  0  0  0  0
  -14.8630  -40.4020  -12.6480 C   0  0  0  0  0
  -15.0140  -38.1130   -8.9170 C   0  0  0  0  0
  -16.4090  -38.2060   -8.9240 N   0  0  0  0  0
  -17.2340  -37.9710   -7.8360 N   0  0  0  0  0
  -18.5550  -38.1210   -8.1320 C   0  0  0  0  0
  -19.0970  -38.4320   -9.3130 N   0  0  0  0  0
  -18.2600  -38.6430  -10.3500 C   0  0  0  0  0
  -18.8010  -38.9560  -11.5430 N   0  0  0  0  0
  -20.2210  -39.0280  -11.8640 C   0  0  0  0  0
  -24.0440  -38.6780  -13.8950 N   0  3  0  0  0
  -26.6790  -39.4870  -14.6480 N   0  0  0  0  0
  -28.0470  -40.3620  -16.4980 C   0  0  0  0  0
  -28.4460  -40.8100  -14.2040 O   0  0  0  0  0
  -16.7697  -39.4538  -12.6358 H   0  0  0  0  0
  -17.0566  -35.8216  -15.2850 H   0  0  0  0  0
  -15.3702  -35.8924  -14.7634 H   0  0  0  0  0
  -19.9503  -39.6174  -13.8970 H   0  0  0  0  0
  -20.1272  -40.9762  -12.7297 H   0  0  0  0  0
  -22.4818  -40.5251  -12.4946 H   0  0  0  0  0
  -22.0863  -40.6646  -14.2544 H   0  0  0  0  0
  -22.1107  -38.3668  -14.5183 H   0  0  0  0  0
  -22.7869  -37.9728  -11.5854 H   0  0  0  0  0
  -22.5710  -36.6859  -12.8301 H   0  0  0  0  0
  -20.5930  -36.9908  -11.3363 H   0  0  0  0  0
  -20.2406  -37.2716  -13.0812 H   0  0  0  0  0
  -24.6454  -40.5487  -13.1705 H   0  0  0  0  0
  -24.6324  -39.2208  -11.9598 H   0  0  0  0  0
  -26.5876  -38.2305  -12.9706 H   0  0  0  0  0
  -26.9205  -39.9548  -12.6173 H   0  0  0  0  0
  -26.0574  -39.0298  -16.5976 H   0  0  0  0  0
  -26.0235  -37.6616  -15.4446 H   0  0  0  0  0
  -23.7511  -38.3800  -15.9501 H   0  0  0  0  0
  -24.1558  -40.0553  -15.4726 H   0  0  0  0  0
  -13.5489  -38.4150  -10.4940 H   0  0  0  0  0
  -14.7551  -38.5011  -14.1830 H   0  0  0  0  0
  -14.9053  -37.2602  -12.8316 H   0  0  0  0  0
  -15.0093  -40.7728  -13.6625 H   0  0  0  0  0
  -13.8162  -40.1337  -12.5053 H   0  0  0  0  0
  -15.1417  -41.1762  -11.9331 H   0  0  0  0  0
  -14.3873  -37.8521   -8.0642 H   0  0  0  0  0
  -19.2524  -37.9694   -7.3081 H   0  0  0  0  0
  -18.1498  -39.1641  -12.3000 H   0  0  0  0  0
  -20.7452  -39.4103  -10.9882 H   0  0  0  0  0
  -24.2996  -37.7046  -13.7286 H   0  0  0  0  0
  -27.9842  -41.4096  -16.7924 H   0  0  0  0  0
  -29.0500  -39.9861  -16.6998 H   0  0  0  0  0
  -27.3190  -39.7801  -17.0632 H   0  0  0  0  0
  2  1  1  0  0  0
  1 16  1  0  0  0
  1 19  1  0  0  0
  3  2  4  0  0  0
  2 15  4  0  0  0
  3 21  4  0  0  0
 25  3  4  0  0  0
 17  4  1  0  0  0
  5  6  1  0  0  0
 27  5  1  0  0  0
  6  7  1  0  0  0
  8  7  1  0  0  0
  7 28  1  0  0  0
  9  8  1  0  0  0
 27  9  1  0  0  0
 10 11  1  0  0  0
 28 10  1  0  0  0
 11 29  1  0  0  0
 13 12  1  0  0  0
 12 29  1  0  0  0
 28 13  1  0  0  0
 29 14  1  0  0  0
 14 30  1  0  0  0
 14 31  2  0  0  0
 20 15  4  0  0  0
 16 17  1  0  0  0
 17 18  2  0  0  0
 21 20  4  0  0  0
 21 22  4  0  0  0
 23 22  4  0  0  0
 24 23  4  0  0  0
 25 24  4  0  0  0
 26 25  1  0  0  0
 26 27  1  0  0  0
  1 32  1  0  0  0
  4 33  1  0  0  0
  4 34  1  0  0  0
  5 35  1  0  0  0
  5 36  1  0  0  0
  6 37  1  0  0  0
  6 38  1  0  0  0
  7 39  1  0  0  0
  8 40  1  0  0  0
  8 41  1  0  0  0
  9 42  1  0  0  0
  9 43  1  0  0  0
 10 44  1  0  0  0
 10 45  1  0  0  0
 11 46  1  0  0  0
 11 47  1  0  0  0
 12 48  1  0  0  0
 12 49  1  0  0  0
 13 50  1  0  0  0
 13 51  1  0  0  0
 15 52  1  0  0  0
 16 53  1  0  0  0
 16 54  1  0  0  0
 19 55  1  0  0  0
 19 56  1  0  0  0
 19 57  1  0  0  0
 20 58  1  0  0  0
 23 59  1  0  0  0
 26 60  1  0  0  0
 27 61  1  0  0  0
 28 62  1  0  0  0
 30 63  1  0  0  0
 30 64  1  0  0  0
 30 65  1  0  0  0
M  END
$$$$
