2etm_ligand
  -I-interpret- 

 47 50  0  0  0  0  0  0  0  0999 V2000
   -2.1680    9.6950    9.8970 C   0  0  0  0  0
   -2.9920    9.8440    8.7380 O   0  0  0  0  0
   -2.8340   11.0580    8.1410 C   0  0  0  0  0
   -1.9450   11.1990    7.0780 C   0  0  0  0  0
   -3.6570   12.1250    8.5000 C   0  0  0  0  0
   -4.5250   11.9940    9.5400 O   0  0  0  0  0
   -5.7650   11.4350    9.0900 C   0  0  0  0  0
   -3.5960   13.3200    7.7870 C   0  0  0  0  0
   -4.3160   14.4020    8.1900 O   0  0  0  0  0
   -5.6230   14.4150    7.6060 C   0  0  0  0  0
   -2.7260   13.4410    6.7070 C   0  0  0  0  0
   -1.8930   12.3850    6.3470 C   0  0  0  0  0
   -0.9930   12.6100    5.3890 N   0  0  0  0  0
    0.0070   11.8000    5.0460 C   0  0  0  0  0
    0.4280   10.8130    5.9470 N   0  0  0  0  0
    1.6750   10.1960    5.7850 C   0  0  0  0  0
    0.8410   12.1350    3.9710 N   0  0  0  0  0
    2.0830   11.5070    3.8030 C   0  0  0  0  0
    2.4990   10.5440    4.7160 C   0  0  0  0  0
    3.5960    9.8050    4.8490 C   0  0  0  0  0
    3.4930    9.0320    5.9230 C   0  0  0  0  0
    2.3180    9.2710    6.4960 N   0  0  0  0  0
    2.1220    8.8530    7.7450 C   0  0  0  0  0
    1.2090    9.3530    8.6700 C   0  0  0  0  0
    1.1180    8.8360    9.9580 C   0  0  0  0  0
    1.9430    7.7940   10.3690 C   0  0  0  0  0
    2.8710    7.2750    9.4730 C   0  0  0  0  0
    2.9530    7.8090    8.1790 N   0  0  0  0  0
   -1.1208    9.7970    9.6123 H   0  0  0  0  0
   -2.4245   10.4646   10.6250 H   0  0  0  0  0
   -2.3328    8.7102   10.3342 H   0  0  0  0  0
   -1.2833   10.3737    6.8150 H   0  0  0  0  0
   -6.2065   12.0906    8.3394 H   0  0  0  0  0
   -5.5823   10.4528    8.6541 H   0  0  0  0  0
   -6.4462   11.3378    9.9353 H   0  0  0  0  0
   -5.5340   14.4462    6.5201 H   0  0  0  0  0
   -6.1608   13.5143    7.9021 H   0  0  0  0  0
   -6.1658   15.2944    7.9528 H   0  0  0  0  0
   -2.6967   14.3704    6.1383 H   0  0  0  0  0
   -1.0785   13.4842    4.8705 H   0  0  0  0  0
    2.7205   11.7726    2.9597 H   0  0  0  0  0
    4.4530    9.8302    4.1759 H   0  0  0  0  0
    4.2429    8.3233    6.2745 H   0  0  0  0  0
    0.5493   10.1698    8.3774 H   0  0  0  0  0
    0.3906    9.2528   10.6546 H   0  0  0  0  0
    1.8631    7.3904   11.3784 H   0  0  0  0  0
    3.5292    6.4599    9.7739 H   0  0  0  0  0
  1  2  1  0  0  0
  2  3  1  0  0  0
  3  4  4  0  0  0
  3  5  4  0  0  0
  4 12  4  0  0  0
  5  6  1  0  0  0
  5  8  4  0  0  0
  6  7  1  0  0  0
  8  9  1  0  0  0
  8 11  4  0  0  0
  9 10  1  0  0  0
 11 12  4  0  0  0
 12 13  1  0  0  0
 13 14  1  0  0  0
 14 15  4  0  0  0
 14 17  4  0  0  0
 15 16  4  0  0  0
 16 19  4  0  0  0
 16 22  4  0  0  0
 17 18  4  0  0  0
 18 19  4  0  0  0
 19 20  4  0  0  0
 20 21  4  0  0  0
 21 22  4  0  0  0
 22 23  1  0  0  0
 23 24  4  0  0  0
 23 28  4  0  0  0
 24 25  4  0  0  0
 25 26  4  0  0  0
 26 27  4  0  0  0
 27 28  4  0  0  0
  1 29  1  0  0  0
  1 30  1  0  0  0
  1 31  1  0  0  0
  4 32  1  0  0  0
  7 33  1  0  0  0
  7 34  1  0  0  0
  7 35  1  0  0  0
 10 36  1  0  0  0
 10 37  1  0  0  0
 10 38  1  0  0  0
 11 39  1  0  0  0
 13 40  1  0  0  0
 18 41  1  0  0  0
 20 42  1  0  0  0
 21 43  1  0  0  0
 24 44  1  0  0  0
 25 45  1  0  0  0
 26 46  1  0  0  0
 27 47  1  0  0  0
M  END
$$$$
