5i22_ligand
  -I-interpret- 

282284  0  0  0  0  0  0  0  0999 V2000
   46.4080   39.4040   46.4710 N   0  3  0  0  0
   46.7330   40.3280   45.3650 C   0  0  0  0  0
   46.0420   39.9520   44.0560 C   0  0  0  0  0
   45.8340   38.7740   43.7760 O   0  0  0  0  0
   48.2480   40.3630   45.1420 C   0  0  0  0  0
   48.7320   39.0370   45.1440 O   0  0  0  0  0
   45.7090   40.9580   43.2330 N   0  0  0  0  0
   45.3500   40.8490   41.7970 C   0  0  0  0  0
   44.1790   39.9160   41.4830 C   0  0  0  0  0
   44.1150   39.3060   40.4150 O   0  0  0  0  0
   46.5820   40.6440   40.8890 C   0  0  0  0  0
   47.1640   39.3700   41.0630 O   0  0  0  0  0
   47.6830   41.6660   41.1590 C   0  0  0  0  0
   43.2160   39.8390   42.4000 N   0  0  0  0  0
   41.9780   39.0450   42.2330 C   0  0  0  0  0
   40.8920   39.7330   41.3790 C   0  0  0  0  0
   40.7580   40.9570   41.4530 O   0  0  0  0  0
   41.4310   38.4810   43.5650 C   0  0  0  0  0
   42.5420   37.9790   44.4960 C   0  0  0  0  0
   40.5720   39.4800   44.3460 C   0  0  0  0  0
   40.0960   38.9950   40.5800 N   0  0  0  0  0
   38.9460   39.5480   39.8520 C   0  0  0  0  0
   37.7630   39.9120   40.7720 C   0  0  0  0  0
   37.7330   39.5440   41.9510 O   0  0  0  0  0
   38.5640   38.4660   38.8350 C   0  0  0  0  0
   38.9780   37.1750   39.5310 C   0  0  0  0  0
   40.2430   37.5770   40.2830 C   0  0  0  0  0
   36.7640   40.6170   40.2240 N   0  0  0  0  0
   35.5450   41.0580   40.9410 C   0  0  0  0  0
   34.2600   40.7540   40.1650 C   0  0  0  0  0
   34.1430   41.1040   38.9880 O   0  0  0  0  0
   35.6070   42.5450   41.3590 C   0  0  0  0  0
   34.4810   42.8990   42.3400 C   0  0  0  0  0
   36.9420   42.9270   42.0160 C   0  0  0  0  0
   33.2830   40.1010   40.7960 N   0  0  0  0  0
   32.0380   39.6980   40.1370 C   0  0  0  0  0
   31.1590   40.9080   39.7320 C   0  0  0  0  0
   31.0080   41.8380   40.5360 O   0  0  0  0  0
   31.2750   38.7330   41.0470 C   0  0  0  0  0
   30.5660   40.9270   38.5200 N   0  0  0  0  0
   29.7980   42.0730   38.0240 C   0  0  0  0  0
   28.3790   42.1770   38.6330 C   0  0  0  0  0
   27.8700   41.1940   39.1840 O   0  0  0  0  0
   29.7900   41.9270   36.4990 C   0  0  0  0  0
   30.0070   40.4390   36.2360 C   0  0  0  0  0
   30.6950   39.9010   37.4890 C   0  0  0  0  0
   27.7150   43.3490   38.5500 N   0  0  0  0  0
   26.3810   43.5630   39.1160 C   0  0  0  0  0
   25.2740   42.8310   38.3350 C   0  0  0  0  0
   25.1010   43.0190   37.1270 O   0  0  0  0  0
   26.1760   45.0810   39.1190 C   0  0  0  0  0
   27.0500   45.5660   37.9650 C   0  0  0  0  0
   28.2230   44.5860   37.9720 C   0  0  0  0  0
   24.4830   42.0230   39.0510 N   0  0  0  0  0
   23.2740   41.3450   38.5420 C   0  0  0  0  0
   22.0890   42.3150   38.4610 C   0  0  0  0  0
   22.0780   43.3340   39.1540 O   0  0  0  0  0
   22.9520   40.1220   39.4160 C   0  0  0  0  0
   24.0810   39.0680   39.4150 C   0  0  0  0  0
   24.6670   38.7940   40.8040 C   0  0  0  0  0
   23.6590   38.2190   41.7050 N   0  0  0  0  0
   23.2230   38.6910   42.8550 C   0  0  0  0  0
   23.6930   39.7660   43.4220 N   0  0  0  0  0
   22.2750   38.0590   43.4720 N   0  0  0  0  0
   21.1070   42.0430   37.5960 N   0  0  0  0  0
   20.0850   43.0310   37.1870 C   0  0  0  0  0
   18.6540   42.5870   37.5270 C   0  0  0  0  0
   18.4010   41.4000   37.7390 O   0  0  0  0  0
   20.2470   43.3560   35.6870 C   0  0  0  0  0
   21.6820   43.6790   35.2150 C   0  0  0  0  0
   22.3370   44.8720   35.9280 C   0  0  0  0  0
   23.7440   45.0350   35.5030 N   0  0  0  0  0
   24.2590   46.0300   34.8000 C   0  0  0  0  0
   23.5600   47.0330   34.3650 N   0  0  0  0  0
   25.5150   46.0580   34.4810 N   0  0  0  0  0
   17.7070   43.5310   37.5770 N   0  0  0  0  0
   16.2810   43.2530   37.8610 C   0  0  0  0  0
   15.6700   42.2510   36.8670 C   0  0  0  0  0
   15.9770   42.3180   35.6750 O   0  0  0  0  0
   15.4730   44.5700   37.9090 C   0  0  0  0  0
   14.9790   45.1630   36.5690 C   0  0  0  0  0
   16.0680   45.5500   35.5590 C   0  0  0  0  0
   16.8790   46.6910   36.0170 N   0  0  0  0  0
   17.9980   47.1170   35.4530 C   0  0  0  0  0
   18.5290   46.5270   34.4180 N   0  0  0  0  0
   18.6220   48.1580   35.9110 N   0  0  0  0  0
   14.7640   41.3690   37.3110 N   0  0  0  0  0
   13.8690   40.6020   36.4170 C   0  0  0  0  0
   12.5510   40.1920   37.0850 C   0  0  0  0  0
   12.4700   40.0730   38.3080 O   0  0  0  0  0
   14.6000   39.4100   35.7570 C   0  0  0  0  0
   14.7130   38.0800   36.5190 C   0  0  0  0  0
   15.3460   38.1430   37.9100 C   0  0  0  0  0
   16.7090   38.7010   37.9140 N   0  0  0  0  0
   17.8540   38.0670   37.7450 C   0  0  0  0  0
   17.9790   36.8320   37.3600 N   0  0  0  0  0
   18.9450   38.7190   37.9640 N   0  0  0  0  0
   11.5100   39.9890   36.2750 N   0  0  0  0  0
   10.1730   39.5830   36.7310 C   0  0  0  0  0
    9.4410   40.6170   37.6020 C   0  0  0  0  0
    8.6120   40.2340   38.4350 O   0  0  0  0  0
    9.7720   41.9100   37.4780 N   0  0  0  0  0
    9.2630   42.9980   38.3320 C   0  0  0  0  0
    7.8040   43.3500   38.0080 C   0  0  0  0  0
    7.4620   43.5740   36.8440 O   0  0  0  0  0
   10.2300   44.1940   38.2180 C   0  0  0  0  0
    9.8360   45.4030   39.0800 C   0  0  0  0  0
   11.0010   46.3920   39.2300 C   0  0  0  0  0
   10.5830   47.5780   40.0030 N   0  0  0  0  0
   10.1820   48.7410   39.5230 C   0  0  0  0  0
   10.2260   49.0420   38.2590 N   0  0  0  0  0
    9.7040   49.6430   40.3280 N   0  0  0  0  0
    6.9490   43.4150   39.0320 N   0  0  0  0  0
    5.5060   43.6780   38.9100 C   0  0  0  0  0
    4.9170   44.2710   40.2080 C   0  0  0  0  0
    5.2260   43.7960   41.2990 O   0  0  0  0  0
    4.7880   42.3750   38.4820 C   0  0  0  0  0
    3.3130   42.3460   38.8570 C   0  0  0  0  0
    2.4710   42.9400   38.1970 O   0  0  0  0  0
    2.9630   41.6620   39.9180 N   0  0  0  0  0
    4.0390   45.2710   40.0800 N   0  0  0  0  0
    3.3030   45.9300   41.1720 C   0  0  0  0  0
    1.8520   46.2350   40.7470 C   0  0  0  0  0
    1.5460   46.2440   39.5490 O   0  0  0  0  0
    4.0290   47.2300   41.5790 C   0  0  0  0  0
    5.4520   47.0620   42.1450 C   0  0  0  0  0
    6.0850   48.4370   42.3410 C   0  0  0  0  0
    5.4500   46.3440   43.4950 C   0  0  0  0  0
    0.9660   46.5090   41.7140 N   0  0  0  0  0
   -0.4720   46.7970   41.4790 C   0  0  0  0  0
   -0.8130   47.9180   40.4980 C   0  0  0  0  0
   -1.6310   47.6830   39.5730 O   0  0  0  0  0
   -1.3150   46.9020   42.7640 C   0  0  0  0  0
   -0.7840   46.1240   43.8170 O   0  0  0  0  0
   -2.7510   46.4280   42.5610 C   0  0  0  0  0
   -0.2780   49.0390   40.6680 O   0  0  0  0  0
   45.3980   39.3869   46.6125 H   0  0  0  0  0
   46.7357   38.4669   46.2369 H   0  0  0  0  0
   46.8667   39.7226   47.3245 H   0  0  0  0  0
   46.3662   41.3113   45.6594 H   0  0  0  0  0
   48.7277   40.9353   45.9360 H   0  0  0  0  0
   48.4726   40.8395   44.1878 H   0  0  0  0  0
   49.6819   39.0440   45.0050 H   0  0  0  0  0
   45.7018   41.8950   43.6361 H   0  0  0  0  0
   44.9481   41.8295   41.5417 H   0  0  0  0  0
   46.1986   40.7585   39.8751 H   0  0  0  0  0
   47.9236   39.2844   40.4822 H   0  0  0  0  0
   48.0506   41.5416   42.1776 H   0  0  0  0  0
   48.5007   41.5119   40.4549 H   0  0  0  0  0
   47.2812   42.6718   41.0367 H   0  0  0  0  0
   43.3390   40.3582   43.2693 H   0  0  0  0  0
   42.2871   38.1813   41.6444 H   0  0  0  0  0
   40.8041   37.6449   43.2552 H   0  0  0  0  0
   43.0987   37.1841   43.9997 H   0  0  0  0  0
   43.2155   38.8026   44.7330 H   0  0  0  0  0
   42.0985   37.5948   45.4146 H   0  0  0  0  0
   41.1679   40.3609   44.5847 H   0  0  0  0  0
   39.7153   39.7729   43.7391 H   0  0  0  0  0
   40.2237   39.0147   45.2681 H   0  0  0  0  0
   39.2065   40.4921   39.3735 H   0  0  0  0  0
   39.0554   38.6013   37.8715 H   0  0  0  0  0
   37.5050   38.4849   38.5777 H   0  0  0  0  0
   39.1458   36.3551   38.8326 H   0  0  0  0  0
   38.2025   36.7843   40.1899 H   0  0  0  0  0
   40.3645   36.9920   41.1947 H   0  0  0  0  0
   41.1354   37.3878   39.6863 H   0  0  0  0  0
   36.8492   40.8689   39.2393 H   0  0  0  0  0
   35.5145   40.4664   41.8560 H   0  0  0  0  0
   35.4961   43.1069   40.4316 H   0  0  0  0  0
   33.5168   42.7121   41.8672 H   0  0  0  0  0
   34.5737   42.2836   43.2349 H   0  0  0  0  0
   34.5556   43.9518   42.6122 H   0  0  0  0  0
   37.0906   42.3236   42.9115 H   0  0  0  0  0
   37.7560   42.7448   41.3144 H   0  0  0  0  0
   36.9233   43.9827   42.2866 H   0  0  0  0  0
   33.4083   39.8718   41.7820 H   0  0  0  0  0
   32.2950   39.1924   39.2062 H   0  0  0  0  0
   31.8894   37.8531   41.2379 H   0  0  0  0  0
   31.0459   39.2293   41.9900 H   0  0  0  0  0
   30.3481   38.4316   40.5590 H   0  0  0  0  0
   30.2597   43.0119   38.3296 H   0  0  0  0  0
   30.5664   42.5342   36.0336 H   0  0  0  0  0
   28.8529   42.2784   36.0671 H   0  0  0  0  0
   30.6130   40.2745   35.3450 H   0  0  0  0  0
   29.0650   39.9250   36.0450 H   0  0  0  0  0
   30.2329   38.9684   37.8127 H   0  0  0  0  0
   31.7444   39.6838   37.2899 H   0  0  0  0  0
   26.3156   43.1464   40.1211 H   0  0  0  0  0
   26.4525   45.5362   40.0700 H   0  0  0  0  0
   25.1297   45.3597   38.9940 H   0  0  0  0  0
   27.3688   46.6011   38.0878 H   0  0  0  0  0
   26.5188   45.5760   37.0133 H   0  0  0  0  0
   28.6040   44.4216   36.9641 H   0  0  0  0  0
   29.0586   44.9771   38.5525 H   0  0  0  0  0
   24.7355   41.8627   40.0262 H   0  0  0  0  0
   23.4667   40.9959   37.5276 H   0  0  0  0  0
   22.0563   39.6506   39.0116 H   0  0  0  0  0
   22.8227   40.4701   40.4408 H   0  0  0  0  0
   24.8871   39.4537   38.7909 H   0  0  0  0  0
   23.6548   38.1334   39.0503 H   0  0  0  0  0
   25.0125   39.7373   41.2270 H   0  0  0  0  0
   25.4862   38.0824   40.7007 H   0  0  0  0  0
   23.2423   37.3393   41.4003 H   0  0  0  0  0
   23.3141   40.0783   44.3160 H   0  0  0  0  0
   24.4398   40.2952   42.9718 H   0  0  0  0  0
   21.8792   37.2110   43.0662 H   0  0  0  0  0
   21.0599   41.1054   37.1972 H   0  0  0  0  0
   20.2501   43.9404   37.7647 H   0  0  0  0  0
   19.6551   44.2525   35.5025 H   0  0  0  0  0
   19.9408   42.4611   35.1452 H   0  0  0  0  0
   21.6186   43.9362   34.1577 H   0  0  0  0  0
   22.2932   42.8033   35.4335 H   0  0  0  0  0
   22.3146   44.6926   37.0029 H   0  0  0  0  0
   21.7870   45.7776   35.6722 H   0  0  0  0  0
   24.3900   44.2971   35.7835 H   0  0  0  0  0
   24.0078   47.7668   33.8160 H   0  0  0  0  0
   22.5627   47.0876   34.5721 H   0  0  0  0  0
   26.1324   45.3004   34.7730 H   0  0  0  0  0
   17.9838   44.4984   37.4097 H   0  0  0  0  0
   16.2283   42.7810   38.8421 H   0  0  0  0  0
   16.1540   45.3139   38.3225 H   0  0  0  0  0
   14.5704   44.3368   38.4739 H   0  0  0  0  0
   14.4531   46.0845   36.8186 H   0  0  0  0  0
   14.3833   44.3846   36.0921 H   0  0  0  0  0
   15.5782   45.8365   34.6283 H   0  0  0  0  0
   16.7310   44.6940   35.4335 H   0  0  0  0  0
   16.5499   47.1964   36.8396 H   0  0  0  0  0
   19.3916   46.8890   34.0114 H   0  0  0  0  0
   18.0817   45.7036   34.0152 H   0  0  0  0  0
   18.2513   48.6610   36.7172 H   0  0  0  0  0
   14.6876   41.2188   38.3170 H   0  0  0  0  0
   13.5834   41.2823   35.6147 H   0  0  0  0  0
   15.6289   39.7484   35.6346 H   0  0  0  0  0
   14.0063   39.1746   34.8737 H   0  0  0  0  0
   15.3633   37.4428   35.9197 H   0  0  0  0  0
   13.6917   37.7291   36.6674 H   0  0  0  0  0
   15.4102   37.1219   38.2860 H   0  0  0  0  0
   14.7241   38.7960   38.5223 H   0  0  0  0  0
   16.7767   39.7072   38.0671 H   0  0  0  0  0
   18.9072   36.4250   37.2452 H   0  0  0  0  0
   17.1489   36.2697   37.1726 H   0  0  0  0  0
   18.9056   39.6948   38.2584 H   0  0  0  0  0
   11.6514   40.1245   35.2740 H   0  0  0  0  0
   10.3073   38.6929   37.3456 H   0  0  0  0  0
    9.5662   39.4390   35.8371 H   0  0  0  0  0
   10.4259   42.1599   36.7362 H   0  0  0  0  0
    9.2363   42.6769   39.3733 H   0  0  0  0  0
   10.2173   44.5212   37.1783 H   0  0  0  0  0
   11.2057   43.8543   38.5655 H   0  0  0  0  0
    9.5584   45.0442   40.0711 H   0  0  0  0  0
    9.0071   45.9176   38.5940 H   0  0  0  0  0
   11.3207   46.7126   38.2385 H   0  0  0  0  0
   11.8170   45.8977   39.7572 H   0  0  0  0  0
   10.6065   47.4896   41.0189 H   0  0  0  0  0
    9.8940   49.9520   37.9396 H   0  0  0  0  0
   10.5925   48.3681   37.5867 H   0  0  0  0  0
    9.6394   49.4516   41.3278 H   0  0  0  0  0
    7.3244   43.2715   39.9695 H   0  0  0  0  0
    5.3455   44.4338   38.1412 H   0  0  0  0  0
    5.2744   41.5472   38.9980 H   0  0  0  0  0
    4.8522   42.3061   37.3961 H   0  0  0  0  0
    1.9832   41.6221   40.1987 H   0  0  0  0  0
    3.6703   41.1693   40.4634 H   0  0  0  0  0
    3.8618   45.6103   39.1346 H   0  0  0  0  0
    3.2696   45.2566   42.0285 H   0  0  0  0  0
    3.4338   47.6756   42.3761 H   0  0  0  0  0
    4.1301   47.8213   40.6689 H   0  0  0  0  0
    6.0176   46.4631   41.4312 H   0  0  0  0  0
    6.1324   48.9537   41.3824 H   0  0  0  0  0
    5.4812   49.0174   43.0386 H   0  0  0  0  0
    7.0918   48.3183   42.7415 H   0  0  0  0  0
    4.8640   46.9205   44.2108 H   0  0  0  0  0
    5.0104   45.3535   43.3776 H   0  0  0  0  0
    6.4742   46.2480   43.8555 H   0  0  0  0  0
    1.3019   46.5206   42.6770 H   0  0  0  0  0
   -0.7677   45.8881   40.9550 H   0  0  0  0  0
   -1.9166   46.7679   39.6247 H   0  0  0  0  0
   -1.2944   47.9620   43.0171 H   0  0  0  0  0
   -1.3387   46.2190   44.5947 H   0  0  0  0  0
   -3.2288   47.0383   41.7946 H   0  0  0  0  0
   -2.7467   45.3845   42.2460 H   0  0  0  0  0
   -3.2997   46.5238   43.4979 H   0  0  0  0  0
  1  2  1  0  0  0
  2  3  1  0  0  0
  2  5  1  0  0  0
  3  4  2  0  0  0
  3  7  1  0  0  0
  5  6  1  0  0  0
  7  8  1  0  0  0
  8  9  1  0  0  0
  8 11  1  0  0  0
  9 10  2  0  0  0
  9 14  1  0  0  0
 11 12  1  0  0  0
 11 13  1  0  0  0
 14 15  1  0  0  0
 15 16  1  0  0  0
 15 18  1  0  0  0
 16 17  2  0  0  0
 16 21  1  0  0  0
 18 19  1  0  0  0
 18 20  1  0  0  0
 21 22  1  0  0  0
 21 27  1  0  0  0
 22 23  1  0  0  0
 22 25  1  0  0  0
 23 24  2  0  0  0
 23 28  1  0  0  0
 25 26  1  0  0  0
 26 27  1  0  0  0
 28 29  1  0  0  0
 29 30  1  0  0  0
 29 32  1  0  0  0
 30 31  2  0  0  0
 30 35  1  0  0  0
 32 33  1  0  0  0
 32 34  1  0  0  0
 35 36  1  0  0  0
 36 37  1  0  0  0
 36 39  1  0  0  0
 37 38  2  0  0  0
 37 40  1  0  0  0
 40 41  1  0  0  0
 40 46  1  0  0  0
 41 42  1  0  0  0
 41 44  1  0  0  0
 42 43  2  0  0  0
 42 47  1  0  0  0
 44 45  1  0  0  0
 45 46  1  0  0  0
 47 48  1  0  0  0
 47 53  1  0  0  0
 48 49  1  0  0  0
 48 51  1  0  0  0
 49 50  2  0  0  0
 49 54  1  0  0  0
 51 52  1  0  0  0
 52 53  1  0  0  0
 54 55  1  0  0  0
 55 56  1  0  0  0
 55 58  1  0  0  0
 56 57  2  0  0  0
 56 65  1  0  0  0
 58 59  1  0  0  0
 59 60  1  0  0  0
 60 61  1  0  0  0
 61 62  1  0  0  0
 62 63  1  0  0  0
 62 64  2  0  0  0
 65 66  1  0  0  0
 66 67  1  0  0  0
 66 69  1  0  0  0
 67 68  2  0  0  0
 67 76  1  0  0  0
 69 70  1  0  0  0
 70 71  1  0  0  0
 71 72  1  0  0  0
 72 73  1  0  0  0
 73 74  1  0  0  0
 73 75  2  0  0  0
 76 77  1  0  0  0
 77 78  1  0  0  0
 77 80  1  0  0  0
 78 79  2  0  0  0
 78 87  1  0  0  0
 80 81  1  0  0  0
 81 82  1  0  0  0
 82 83  1  0  0  0
 83 84  1  0  0  0
 84 85  1  0  0  0
 84 86  2  0  0  0
 87 88  1  0  0  0
 88 89  1  0  0  0
 88 91  1  0  0  0
 89 90  2  0  0  0
 89 98  1  0  0  0
 91 92  1  0  0  0
 92 93  1  0  0  0
 93 94  1  0  0  0
 94 95  1  0  0  0
 95 96  1  0  0  0
 95 97  2  0  0  0
 98 99  1  0  0  0
 99100  1  0  0  0
100101  2  0  0  0
100102  1  0  0  0
102103  1  0  0  0
103104  1  0  0  0
103106  1  0  0  0
104105  2  0  0  0
104113  1  0  0  0
106107  1  0  0  0
107108  1  0  0  0
108109  1  0  0  0
109110  1  0  0  0
110111  1  0  0  0
110112  2  0  0  0
113114  1  0  0  0
114115  1  0  0  0
114117  1  0  0  0
115116  2  0  0  0
115121  1  0  0  0
117118  1  0  0  0
118119  2  0  0  0
118120  1  0  0  0
121122  1  0  0  0
122123  1  0  0  0
122125  1  0  0  0
123124  2  0  0  0
123129  1  0  0  0
125126  1  0  0  0
126127  1  0  0  0
126128  1  0  0  0
129130  1  0  0  0
130131  1  0  0  0
130133  1  0  0  0
131132  1  0  0  0
131136  2  0  0  0
133134  1  0  0  0
133135  1  0  0  0
  1137  1  0  0  0
  1138  1  0  0  0
  1139  1  0  0  0
  2140  1  0  0  0
  5141  1  0  0  0
  5142  1  0  0  0
  6143  1  0  0  0
  7144  1  0  0  0
  8145  1  0  0  0
 11146  1  0  0  0
 12147  1  0  0  0
 13148  1  0  0  0
 13149  1  0  0  0
 13150  1  0  0  0
 14151  1  0  0  0
 15152  1  0  0  0
 18153  1  0  0  0
 19154  1  0  0  0
 19155  1  0  0  0
 19156  1  0  0  0
 20157  1  0  0  0
 20158  1  0  0  0
 20159  1  0  0  0
 22160  1  0  0  0
 25161  1  0  0  0
 25162  1  0  0  0
 26163  1  0  0  0
 26164  1  0  0  0
 27165  1  0  0  0
 27166  1  0  0  0
 28167  1  0  0  0
 29168  1  0  0  0
 32169  1  0  0  0
 33170  1  0  0  0
 33171  1  0  0  0
 33172  1  0  0  0
 34173  1  0  0  0
 34174  1  0  0  0
 34175  1  0  0  0
 35176  1  0  0  0
 36177  1  0  0  0
 39178  1  0  0  0
 39179  1  0  0  0
 39180  1  0  0  0
 41181  1  0  0  0
 44182  1  0  0  0
 44183  1  0  0  0
 45184  1  0  0  0
 45185  1  0  0  0
 46186  1  0  0  0
 46187  1  0  0  0
 48188  1  0  0  0
 51189  1  0  0  0
 51190  1  0  0  0
 52191  1  0  0  0
 52192  1  0  0  0
 53193  1  0  0  0
 53194  1  0  0  0
 54195  1  0  0  0
 55196  1  0  0  0
 58197  1  0  0  0
 58198  1  0  0  0
 59199  1  0  0  0
 59200  1  0  0  0
 60201  1  0  0  0
 60202  1  0  0  0
 61203  1  0  0  0
 63204  1  0  0  0
 63205  1  0  0  0
 64206  1  0  0  0
 65207  1  0  0  0
 66208  1  0  0  0
 69209  1  0  0  0
 69210  1  0  0  0
 70211  1  0  0  0
 70212  1  0  0  0
 71213  1  0  0  0
 71214  1  0  0  0
 72215  1  0  0  0
 74216  1  0  0  0
 74217  1  0  0  0
 75218  1  0  0  0
 76219  1  0  0  0
 77220  1  0  0  0
 80221  1  0  0  0
 80222  1  0  0  0
 81223  1  0  0  0
 81224  1  0  0  0
 82225  1  0  0  0
 82226  1  0  0  0
 83227  1  0  0  0
 85228  1  0  0  0
 85229  1  0  0  0
 86230  1  0  0  0
 87231  1  0  0  0
 88232  1  0  0  0
 91233  1  0  0  0
 91234  1  0  0  0
 92235  1  0  0  0
 92236  1  0  0  0
 93237  1  0  0  0
 93238  1  0  0  0
 94239  1  0  0  0
 96240  1  0  0  0
 96241  1  0  0  0
 97242  1  0  0  0
 98243  1  0  0  0
 99244  1  0  0  0
 99245  1  0  0  0
102246  1  0  0  0
103247  1  0  0  0
106248  1  0  0  0
106249  1  0  0  0
107250  1  0  0  0
107251  1  0  0  0
108252  1  0  0  0
108253  1  0  0  0
109254  1  0  0  0
111255  1  0  0  0
111256  1  0  0  0
112257  1  0  0  0
113258  1  0  0  0
114259  1  0  0  0
117260  1  0  0  0
117261  1  0  0  0
120262  1  0  0  0
120263  1  0  0  0
121264  1  0  0  0
122265  1  0  0  0
125266  1  0  0  0
125267  1  0  0  0
126268  1  0  0  0
127269  1  0  0  0
127270  1  0  0  0
127271  1  0  0  0
128272  1  0  0  0
128273  1  0  0  0
128274  1  0  0  0
129275  1  0  0  0
130276  1  0  0  0
132277  1  0  0  0
133278  1  0  0  0
134279  1  0  0  0
135280  1  0  0  0
135281  1  0  0  0
135282  1  0  0  0
M  END
$$$$
