### 
### Created by X-TOOL on Mon Sep 10 21:13:30 2018
### 

@<TRIPOS>MOLECULE
5i22_ligand
  286   288     1     0     0
SMALL
GAST_HUCK


@<TRIPOS>ATOM
      1 N          46.4080   39.4040   46.4710 N.4       1 SER         0.2396
      2 CA         46.7330   40.3280   45.3650 C.3       1 SER         0.0885
      3 C          46.0420   39.9520   44.0560 C.2       1 SER         0.2291
      4 O          45.8340   38.7740   43.7760 O.2       1 SER        -0.3906
      5 CB         48.2480   40.3630   45.1420 C.3       1 SER         0.1041
      6 OG         48.7320   39.0370   45.1440 O.3       1 SER        -0.3870
      7 N          45.7090   40.9580   43.2330 N.am      1 THR        -0.2585
      8 CA         45.3500   40.8490   41.7970 C.3       1 THR         0.1566
      9 C          44.1790   39.9160   41.4830 C.2       1 THR         0.2065
     10 O          44.1150   39.3060   40.4150 O.2       1 THR        -0.3943
     11 CB         46.5820   40.6440   40.8890 C.3       1 THR         0.0924
     12 OG1        47.1640   39.3700   41.0630 O.3       1 THR        -0.3874
     13 CG2        47.6830   41.6660   41.1590 C.3       1 THR        -0.0346
     14 N          43.2160   39.8390   42.4000 N.am      1 VAL        -0.2634
     15 CA         41.9780   39.0450   42.2330 C.3       1 VAL         0.1334
     16 C          40.8920   39.7330   41.3790 C.2       1 VAL         0.2066
     17 O          40.7580   40.9570   41.4530 O.2       1 VAL        -0.3942
     18 CB         41.4310   38.4810   43.5650 C.3       1 VAL        -0.0062
     19 CG1        42.5420   37.9790   44.4960 C.3       1 VAL        -0.0584
     20 CG2        40.5720   39.4800   44.3460 C.3       1 VAL        -0.0584
     21 N          40.0960   38.9950   40.5800 N.am      1 PRO        -0.2498
     22 CA         38.9460   39.5480   39.8520 C.3       1 PRO         0.1338
     23 C          37.7630   39.9120   40.7720 C.2       1 PRO         0.2041
     24 O          37.7330   39.5440   41.9510 O.2       1 PRO        -0.3944
     25 CB         38.5640   38.4660   38.8350 C.3       1 PRO        -0.0104
     26 CG         38.9780   37.1750   39.5310 C.3       1 PRO        -0.0281
     27 CD         40.2430   37.5770   40.2830 C.3       1 PRO         0.0369
     28 N          36.7640   40.6170   40.2240 N.am      1 VAL        -0.2635
     29 CA         35.5450   41.0580   40.9410 C.3       1 VAL         0.1332
     30 C          34.2600   40.7540   40.1650 C.2       1 VAL         0.2041
     31 O          34.1430   41.1040   38.9880 O.2       1 VAL        -0.3944
     32 CB         35.6070   42.5450   41.3590 C.3       1 VAL        -0.0063
     33 CG1        34.4810   42.8990   42.3400 C.3       1 VAL        -0.0584
     34 CG2        36.9420   42.9270   42.0160 C.3       1 VAL        -0.0584
     35 N          33.2830   40.1010   40.7960 N.am      1 ALA        -0.2640
     36 CA         32.0380   39.6980   40.1370 C.3       1 ALA         0.1284
     37 C          31.1590   40.9080   39.7320 C.2       1 ALA         0.2061
     38 O          31.0080   41.8380   40.5360 O.2       1 ALA        -0.3942
     39 CB         31.2750   38.7330   41.0470 C.3       1 ALA        -0.0244
     40 N          30.5660   40.9270   38.5200 N.am      1 PRO        -0.2498
     41 CA         29.7980   42.0730   38.0240 C.3       1 PRO         0.1340
     42 C          28.3790   42.1770   38.6330 C.2       1 PRO         0.2066
     43 O          27.8700   41.1940   39.1840 O.2       1 PRO        -0.3942
     44 CB         29.7900   41.9270   36.4990 C.3       1 PRO        -0.0104
     45 CG         30.0070   40.4390   36.2360 C.3       1 PRO        -0.0281
     46 CD         30.6950   39.9010   37.4890 C.3       1 PRO         0.0369
     47 N          27.7150   43.3490   38.5500 N.am      1 PRO        -0.2498
     48 CA         26.3810   43.5630   39.1160 C.3       1 PRO         0.1338
     49 C          25.2740   42.8310   38.3350 C.2       1 PRO         0.2041
     50 O          25.1010   43.0190   37.1270 O.2       1 PRO        -0.3944
     51 CB         26.1760   45.0810   39.1190 C.3       1 PRO        -0.0104
     52 CG         27.0500   45.5660   37.9650 C.3       1 PRO        -0.0281
     53 CD         28.2230   44.5860   37.9720 C.3       1 PRO         0.0369
     54 N          24.4830   42.0230   39.0510 N.am      1 ARG        -0.2637
     55 CA         23.2740   41.3450   38.5420 C.3       1 ARG         0.1311
     56 C          22.0890   42.3150   38.4610 C.2       1 ARG         0.2039
     57 O          22.0780   43.3340   39.1540 O.2       1 ARG        -0.3944
     58 CB         22.9520   40.1220   39.4160 C.3       1 ARG        -0.0092
     59 CG         24.0810   39.0680   39.4150 C.3       1 ARG        -0.0156
     60 CD         24.6670   38.7940   40.8040 C.3       1 ARG         0.0627
     61 NE         23.6590   38.2190   41.7050 N.pl3     1 ARG        -0.2723
     62 CZ         23.2230   38.6910   42.8550 C.cat     1 ARG         0.2882
     63 NH1        23.6930   39.7660   43.4220 N.pl3     1 ARG        -0.2849
     64 NH2        22.2750   38.0590   43.4720 N.pl3     1 ARG        -0.2849
     65 N          21.1070   42.0430   37.5960 N.am      1 ARG        -0.2637
     66 CA         20.0850   43.0310   37.1870 C.3       1 ARG         0.1311
     67 C          18.6540   42.5870   37.5270 C.2       1 ARG         0.2039
     68 O          18.4010   41.4000   37.7390 O.2       1 ARG        -0.3944
     69 CB         20.2470   43.3560   35.6870 C.3       1 ARG        -0.0092
     70 CG         21.6820   43.6790   35.2150 C.3       1 ARG        -0.0156
     71 CD         22.3370   44.8720   35.9280 C.3       1 ARG         0.0627
     72 NE         23.7440   45.0350   35.5030 N.pl3     1 ARG        -0.2723
     73 CZ         24.2590   46.0300   34.8000 C.cat     1 ARG         0.2882
     74 NH1        23.5600   47.0330   34.3650 N.pl3     1 ARG        -0.2849
     75 NH2        25.5150   46.0580   34.4810 N.pl3     1 ARG        -0.2849
     76 N          17.7070   43.5310   37.5770 N.am      1 ARG        -0.2637
     77 CA         16.2810   43.2530   37.8610 C.3       1 ARG         0.1311
     78 C          15.6700   42.2510   36.8670 C.2       1 ARG         0.2039
     79 O          15.9770   42.3180   35.6750 O.2       1 ARG        -0.3944
     80 CB         15.4730   44.5700   37.9090 C.3       1 ARG        -0.0092
     81 CG         14.9790   45.1630   36.5690 C.3       1 ARG        -0.0156
     82 CD         16.0680   45.5500   35.5590 C.3       1 ARG         0.0627
     83 NE         16.8790   46.6910   36.0170 N.pl3     1 ARG        -0.2723
     84 CZ         17.9980   47.1170   35.4530 C.cat     1 ARG         0.2882
     85 NH1        18.5290   46.5270   34.4180 N.pl3     1 ARG        -0.2849
     86 NH2        18.6220   48.1580   35.9110 N.pl3     1 ARG        -0.2849
     87 N          14.7640   41.3690   37.3110 N.am      1 ARG        -0.2637
     88 CA         13.8690   40.6020   36.4170 C.3       1 ARG         0.1311
     89 C          12.5510   40.1920   37.0850 C.2       1 ARG         0.2037
     90 O          12.4700   40.0730   38.3080 O.2       1 ARG        -0.3944
     91 CB         14.6000   39.4100   35.7570 C.3       1 ARG        -0.0092
     92 CG         14.7130   38.0800   36.5190 C.3       1 ARG        -0.0156
     93 CD         15.3460   38.1430   37.9100 C.3       1 ARG         0.0627
     94 NE         16.7090   38.7010   37.9140 N.pl3     1 ARG        -0.2723
     95 CZ         17.8540   38.0670   37.7450 C.cat     1 ARG         0.2882
     96 NH1        17.9790   36.8320   37.3600 N.pl3     1 ARG        -0.2849
     97 NH2        18.9450   38.7190   37.9640 N.pl3     1 ARG        -0.2849
     98 N          11.5100   39.9890   36.2750 N.am      1 GLY        -0.2664
     99 CA         10.1730   39.5830   36.7310 C.3       1 GLY         0.1201
    100 C           9.4410   40.6170   37.6020 C.2       1 GLY         0.2007
    101 O           8.6120   40.2340   38.4350 O.2       1 GLY        -0.3947
    102 N           9.7720   41.9100   37.4780 N.am      1 ARG        -0.2640
    103 CA          9.2630   42.9980   38.3320 C.3       1 ARG         0.1311
    104 C           7.8040   43.3500   38.0080 C.2       1 ARG         0.2040
    105 O           7.4620   43.5740   36.8440 O.2       1 ARG        -0.3944
    106 CB         10.2300   44.1940   38.2180 C.3       1 ARG        -0.0092
    107 CG          9.8360   45.4030   39.0800 C.3       1 ARG        -0.0156
    108 CD         11.0010   46.3920   39.2300 C.3       1 ARG         0.0627
    109 NE         10.5830   47.5780   40.0030 N.pl3     1 ARG        -0.2723
    110 CZ         10.1820   48.7410   39.5230 C.cat     1 ARG         0.2882
    111 NH1        10.2260   49.0420   38.2590 N.pl3     1 ARG        -0.2849
    112 NH2         9.7040   49.6430   40.3280 N.pl3     1 ARG        -0.2849
    113 N           6.9490   43.4150   39.0320 N.am      1 ASN        -0.2616
    114 CA          5.5060   43.6780   38.9100 C.3       1 ASN         0.1476
    115 C           4.9170   44.2710   40.2080 C.2       1 ASN         0.2063
    116 O           5.2260   43.7960   41.2990 O.2       1 ASN        -0.3942
    117 CB          4.7880   42.3750   38.4820 C.3       1 ASN         0.0773
    118 CG          3.3130   42.3460   38.8570 C.2       1 ASN         0.1780
    119 OD1         2.4710   42.9400   38.1970 O.2       1 ASN        -0.3970
    120 ND2         2.9630   41.6620   39.9180 N.am      1 ASN        -0.3007
    121 N           4.0390   45.2710   40.0800 N.am      1 LEU        -0.2636
    122 CA          3.3030   45.9300   41.1720 C.3       1 LEU         0.1312
    123 C           1.8520   46.2350   40.7470 C.2       1 LEU         0.2034
    124 O           1.5460   46.2440   39.5490 O.2       1 LEU        -0.3944
    125 CB          4.0290   47.2300   41.5790 C.3       1 LEU        -0.0101
    126 CG          5.4520   47.0620   42.1450 C.3       1 LEU        -0.0425
    127 CD1         6.0850   48.4370   42.3410 C.3       1 LEU        -0.0625
    128 CD2         5.4500   46.3440   43.4950 C.3       1 LEU        -0.0625
    129 N           0.9660   46.5090   41.7140 N.am      1 THR        -0.2670
    130 CA         -0.4720   46.7970   41.4790 C.3       1 THR         0.1198
    131 C          -0.8130   47.9180   40.4980 C.2       1 THR         0.0626
    132 O          -1.6310   47.6830   39.5730 O.co2     1 THR        -0.5665
    133 CB         -1.3150   46.9020   42.7640 C.3       1 THR         0.0869
    134 OG1        -0.7840   46.1240   43.8170 O.3       1 THR        -0.3880
    135 CG2        -2.7510   46.4280   42.5610 C.3       1 THR        -0.0352
    136 OXT        -0.2780   49.0390   40.6680 O.co2     1 THR        -0.5665
    137 H1         46.8887   39.6981   47.3067 H         1 SER         0.2016
    138 H2         46.7001   38.4709   46.2261 H         1 SER         0.2016
    139 H3         45.4135   39.4126   46.6348 H         1 SER         0.2016
    140 H4         46.3956   41.3345   45.6532 H         1 SER         0.1122
    141 H5         48.7288   40.9346   45.9495 H         1 SER         0.0640
    142 H6         48.4698   40.8374   44.1747 H         1 SER         0.0640
    143 H7         48.3124   38.5469   44.4467 H         1 SER         0.2099
    144 H8         45.7020   41.8766   43.6282 H         1 THR         0.1885
    145 H9         44.9742   41.8485   41.5330 H         1 THR         0.0826
    146 H10        46.2506   40.7457   39.8451 H         1 THR         0.0639
    147 H11        47.4416   39.2706   41.9661 H         1 THR         0.2101
    148 H12        48.5333   41.4749   40.4878 H         1 THR         0.0257
    149 H13        48.0146   41.5803   42.2043 H         1 THR         0.0257
    150 H14        47.2947   42.6794   40.9794 H         1 THR         0.0257
    151 H15        43.3366   40.3481   43.2522 H         1 VAL         0.1883
    152 H16        42.2827   38.1635   41.6498 H         1 VAL         0.0803
    153 H17        40.7934   37.6223   43.3078 H         1 VAL         0.0343
    154 H18        42.0957   37.5910   45.4235 H         1 VAL         0.0234
    155 H19        43.2224   38.8093   44.7360 H         1 VAL         0.0234
    156 H20        43.1046   37.1767   43.9962 H         1 VAL         0.0234
    157 H21        39.7660   39.8554   43.6983 H         1 VAL         0.0234
    158 H22        41.1981   40.3215   44.6774 H         1 VAL         0.0234
    159 H23        40.1348   38.9805   45.2232 H         1 VAL         0.0234
    160 H24        39.2562   40.4601   39.3211 H         1 PRO         0.0802
    161 H25        39.1134   38.5995   37.8914 H         1 PRO         0.0313
    162 H26        37.4825   38.4770   38.6343 H         1 PRO         0.0313
    163 H27        39.1893   36.3819   38.7987 H         1 PRO         0.0287
    164 H28        38.1971   36.8334   40.2264 H         1 PRO         0.0287
    165 H29        40.3350   36.9984   41.2140 H         1 PRO         0.0524
    166 H30        41.1310   37.4072   39.6564 H         1 PRO         0.0524
    167 H31        36.8476   40.8640   39.2586 H         1 VAL         0.1883
    168 H32        35.5003   40.4699   41.8695 H         1 VAL         0.0802
    169 H33        35.4837   43.1516   40.4497 H         1 VAL         0.0343
    170 H34        34.5553   43.9614   42.6155 H         1 VAL         0.0234
    171 H35        34.5734   42.2786   43.2436 H         1 VAL         0.0234
    172 H36        33.5073   42.7109   41.8640 H         1 VAL         0.0234
    173 H37        37.7695   42.6837   41.3333 H         1 VAL         0.0234
    174 H38        37.0632   42.3651   42.9539 H         1 VAL         0.0234
    175 H39        36.9494   44.0057   42.2312 H         1 VAL         0.0234
    176 H40        33.4058   39.8763   41.7627 H         1 ALA         0.1883
    177 H41        32.3034   39.1602   39.2148 H         1 ALA         0.0797
    178 H42        30.3393   38.4280   40.5556 H         1 ALA         0.0277
    179 H43        31.0431   39.2327   41.9991 H         1 ALA         0.0277
    180 H44        31.8940   37.8445   41.2404 H         1 ALA         0.0277
    181 H45        30.3333   42.9969   38.2882 H         1 PRO         0.0802
    182 H46        30.6010   42.5198   36.0509 H         1 PRO         0.0313
    183 H47        28.8247   42.2546   36.0856 H         1 PRO         0.0313
    184 H48        30.6470   40.2936   35.3533 H         1 PRO         0.0287
    185 H49        29.0438   39.9317   36.0782 H         1 PRO         0.0287
    186 H50        30.2077   38.9713   37.8180 H         1 PRO         0.0524
    187 H51        31.7574   39.7048   37.2820 H         1 PRO         0.0524
    188 H52        26.3649   43.1919   40.1514 H         1 PRO         0.0802
    189 H53        26.5060   45.5196   40.0723 H         1 PRO         0.0313
    190 H54        25.1199   45.3346   38.9448 H         1 PRO         0.0313
    191 H55        27.3963   46.5954   38.1393 H         1 PRO         0.0287
    192 H56        26.5040   45.5193   37.0112 H         1 PRO         0.0287
    193 H57        28.5788   44.4098   36.9462 H         1 PRO         0.0524
    194 H58        29.0473   44.9822   38.5831 H         1 PRO         0.0524
    195 H59        24.7305   41.8659   40.0071 H         1 ARG         0.1883
    196 H60        23.4853   40.9881   37.5232 H         1 ARG         0.0800
    197 H61        22.0327   39.6518   39.0367 H         1 ARG         0.0313
    198 H62        22.7904   40.4620   40.4495 H         1 ARG         0.0313
    199 H63        24.8899   39.4257   38.7610 H         1 ARG         0.0301
    200 H64        23.6766   38.1259   39.0164 H         1 ARG         0.0301
    201 H65        25.0321   39.7394   41.2317 H         1 ARG         0.0689
    202 H66        25.5048   38.0879   40.7065 H         1 ARG         0.0689
    203 H67        23.2382   37.3307   41.3973 H         1 ARG         0.2642
    204 H68        23.3083   40.0831   44.3233 H         1 ARG         0.2615
    205 H69        24.4492   40.2987   42.9689 H         1 ARG         0.2615
    206 H70        21.8733   37.2043   43.0608 H         1 ARG         0.2615
    207 H71        21.9231   38.4113   44.3736 H         1 ARG         0.2615
    208 H72        21.0608   41.1238   37.2050 H         1 ARG         0.1883
    209 H73        20.2769   43.9559   37.7506 H         1 ARG         0.0800
    210 H74        19.6145   44.2271   35.4612 H         1 ARG         0.0313
    211 H75        19.8920   42.4867   35.1141 H         1 ARG         0.0313
    212 H76        21.6473   43.9000   34.1380 H         1 ARG         0.0301
    213 H77        22.3078   42.7909   35.3871 H         1 ARG         0.0301
    214 H78        22.3066   44.7028   37.0145 H         1 ARG         0.0689
    215 H79        21.7789   45.7879   35.6837 H         1 ARG         0.0689
    216 H80        24.3963   44.2899   35.7863 H         1 ARG         0.2642
    217 H81        24.0148   47.7805   33.8216 H         1 ARG         0.2615
    218 H82        22.5504   47.0816   34.5631 H         1 ARG         0.2615
    219 H83        26.1410   45.2993   34.7866 H         1 ARG         0.2615
    220 H84        25.8871   46.8389   33.9219 H         1 ARG         0.2615
    221 H85        17.9783   44.4794   37.4130 H         1 ARG         0.1883
    222 H86        16.2277   42.7942   38.8593 H         1 ARG         0.0800
    223 H87        16.1098   45.3282   38.3881 H         1 ARG         0.0313
    224 H88        14.5862   44.3881   38.5338 H         1 ARG         0.0313
    225 H89        14.3953   46.0671   36.7966 H         1 ARG         0.0301
    226 H90        14.3275   44.4166   36.0911 H         1 ARG         0.0301
    227 H91        15.5873   45.8181   34.6066 H         1 ARG         0.0689
    228 H92        16.7302   44.6853   35.4049 H         1 ARG         0.0689
    229 H93        16.5467   47.2013   36.8477 H         1 ARG         0.2642
    230 H94        19.4015   46.8910   34.0091 H         1 ARG         0.2615
    231 H95        18.0758   45.6971   34.0096 H         1 ARG         0.2615
    232 H96        18.2491   48.6644   36.7267 H         1 ARG         0.2615
    233 H97        19.4904   48.4781   35.4589 H         1 ARG         0.2615
    234 H98        14.6891   41.2217   38.2973 H         1 ARG         0.1883
    235 H99        13.5943   41.2852   35.5999 H         1 ARG         0.0800
    236 H100       15.6256   39.7432   35.5399 H         1 ARG         0.0313
    237 H101       14.0767   39.1955   34.8136 H         1 ARG         0.0313
    238 H102       15.3178   37.3945   35.9072 H         1 ARG         0.0301
    239 H103       13.6977   37.6720   36.6319 H         1 ARG         0.0301
    240 H104       15.3869   37.1230   38.3198 H         1 ARG         0.0689
    241 H105       14.7115   38.7711   38.5525 H         1 ARG         0.0689
    242 H106       16.7774   39.7170   38.0686 H         1 ARG         0.2642
    243 H107       18.9161   36.4178   37.2546 H         1 ARG         0.2615
    244 H108       17.1409   36.2675   37.1603 H         1 ARG         0.2615
    245 H109       18.9051   39.7014   38.2711 H         1 ARG         0.2615
    246 H110       19.8562   38.2573   37.8318 H         1 ARG         0.2615
    247 H111       11.6487   40.1218   35.2936 H         1 GLY         0.1881
    248 H112       10.2786   38.6577   37.3163 H         1 GLY         0.0763
    249 H113        9.5547   39.3865   35.8427 H         1 GLY         0.0763
    250 H114       10.4131   42.1550   36.7507 H         1 ARG         0.1883
    251 H115        9.2844   42.6498   39.3752 H         1 ARG         0.0800
    252 H116       10.2603   44.5148   37.1663 H         1 ARG         0.0313
    253 H117       11.2310   43.8599   38.5285 H         1 ARG         0.0313
    254 H118        9.5377   45.0485   40.0776 H         1 ARG         0.0301
    255 H119        8.9883   45.9190   38.6056 H         1 ARG         0.0301
    256 H120       11.3345   46.7111   38.2315 H         1 ARG         0.0689
    257 H121       11.8315   45.8949   39.7526 H         1 ARG         0.0689
    258 H122       10.6067   47.4887   41.0289 H         1 ARG         0.2642
    259 H123        9.9001   49.9647   37.9377 H         1 ARG         0.2615
    260 H124       10.5867   48.3577   37.5789 H         1 ARG         0.2615
    261 H125        9.6478   49.4534   41.3388 H         1 ARG         0.2615
    262 H126        9.3815   50.5473   39.9550 H         1 ARG         0.2615
    263 H127        7.3171   43.2743   39.9511 H         1 ASN         0.1885
    264 H128        5.3617   44.4223   38.1130 H         1 ASN         0.0826
    265 H129        5.2883   41.5251   38.9692 H         1 ASN         0.0551
    266 H130        4.8721   42.2732   37.3900 H         1 ASN         0.0551
    267 H131        2.0023   41.6220   40.1926 H         1 ASN         0.1814
    268 H132        3.6565   41.1799   40.4533 H         1 ASN         0.1814
    269 H133        3.8653   45.6036   39.1531 H         1 LEU         0.1883
    270 H134        3.2784   45.2530   42.0386 H         1 LEU         0.0800
    271 H135        3.4190   47.7298   42.3459 H         1 LEU         0.0315
    272 H136        4.0953   47.8713   40.6877 H         1 LEU         0.0315
    273 H137        6.0511   46.4794   41.4297 H         1 LEU         0.0298
    274 H138        7.1012   48.3186   42.7451 H         1 LEU         0.0232
    275 H139        5.4766   49.0238   43.0449 H         1 LEU         0.0232
    276 H140        6.1335   48.9595   41.3743 H         1 LEU         0.0232
    277 H141        4.9975   45.3480   43.3799 H         1 LEU         0.0232
    278 H142        4.8671   46.9298   44.2210 H         1 LEU         0.0232
    279 H143        6.4839   46.2376   43.8553 H         1 LEU         0.0232
    280 H144        1.2953   46.5204   42.6582 H         1 THR         0.1876
    281 H145       -0.8372   45.8868   40.9808 H         1 THR         0.0752
    282 H146       -1.3283   47.9581   43.0713 H         1 THR         0.0632
    283 H147       -1.3329   46.2180   44.5866 H         1 THR         0.2100
    284 H148       -3.3059   46.5242   43.5059 H         1 THR         0.0256
    285 H149       -2.7481   45.3750   42.2431 H         1 THR         0.0256
    286 H150       -3.2344   47.0432   41.7878 H         1 THR         0.0256
@<TRIPOS>BOND
     1    1    2 1  
     2    2    3 1  
     3    2    5 1  
     4    3    4 2  
     5    3    7 am 
     6    5    6 1  
     7    7    8 1  
     8    8    9 1  
     9    8   11 1  
    10    9   10 2  
    11    9   14 am 
    12   11   12 1  
    13   11   13 1  
    14   14   15 1  
    15   15   16 1  
    16   15   18 1  
    17   16   17 2  
    18   16   21 am 
    19   18   19 1  
    20   18   20 1  
    21   21   22 1  
    22   21   27 1  
    23   22   23 1  
    24   22   25 1  
    25   23   24 2  
    26   23   28 am 
    27   25   26 1  
    28   26   27 1  
    29   28   29 1  
    30   29   30 1  
    31   29   32 1  
    32   30   31 2  
    33   30   35 am 
    34   32   33 1  
    35   32   34 1  
    36   35   36 1  
    37   36   37 1  
    38   36   39 1  
    39   37   38 2  
    40   37   40 am 
    41   40   41 1  
    42   40   46 1  
    43   41   42 1  
    44   41   44 1  
    45   42   43 2  
    46   42   47 am 
    47   44   45 1  
    48   45   46 1  
    49   47   48 1  
    50   47   53 1  
    51   48   49 1  
    52   48   51 1  
    53   49   50 2  
    54   49   54 am 
    55   51   52 1  
    56   52   53 1  
    57   54   55 1  
    58   55   56 1  
    59   55   58 1  
    60   56   57 2  
    61   56   65 am 
    62   58   59 1  
    63   59   60 1  
    64   60   61 1  
    65   61   62 ar 
    66   62   63 ar 
    67   62   64 ar 
    68   65   66 1  
    69   66   67 1  
    70   66   69 1  
    71   67   68 2  
    72   67   76 am 
    73   69   70 1  
    74   70   71 1  
    75   71   72 1  
    76   72   73 ar 
    77   73   74 ar 
    78   73   75 ar 
    79   76   77 1  
    80   77   78 1  
    81   77   80 1  
    82   78   79 2  
    83   78   87 am 
    84   80   81 1  
    85   81   82 1  
    86   82   83 1  
    87   83   84 ar 
    88   84   85 ar 
    89   84   86 ar 
    90   87   88 1  
    91   88   89 1  
    92   88   91 1  
    93   89   90 2  
    94   89   98 am 
    95   91   92 1  
    96   92   93 1  
    97   93   94 1  
    98   94   95 ar 
    99   95   96 ar 
   100   95   97 ar 
   101   98   99 1  
   102   99  100 1  
   103  100  101 2  
   104  100  102 am 
   105  102  103 1  
   106  103  104 1  
   107  103  106 1  
   108  104  105 2  
   109  104  113 am 
   110  106  107 1  
   111  107  108 1  
   112  108  109 1  
   113  109  110 ar 
   114  110  111 ar 
   115  110  112 ar 
   116  113  114 1  
   117  114  115 1  
   118  114  117 1  
   119  115  116 2  
   120  115  121 am 
   121  117  118 1  
   122  118  119 2  
   123  118  120 am 
   124  121  122 1  
   125  122  123 1  
   126  122  125 1  
   127  123  124 2  
   128  123  129 am 
   129  125  126 1  
   130  126  127 1  
   131  126  128 1  
   132  129  130 1  
   133  130  131 1  
   134  130  133 1  
   135  131  132 ar 
   136  131  136 ar 
   137  133  134 1  
   138  133  135 1  
   139    1  137 1  
   140    1  138 1  
   141    1  139 1  
   142    2  140 1  
   143    5  141 1  
   144    5  142 1  
   145    6  143 1  
   146    7  144 1  
   147    8  145 1  
   148   11  146 1  
   149   12  147 1  
   150   13  148 1  
   151   13  149 1  
   152   13  150 1  
   153   14  151 1  
   154   15  152 1  
   155   18  153 1  
   156   19  154 1  
   157   19  155 1  
   158   19  156 1  
   159   20  157 1  
   160   20  158 1  
   161   20  159 1  
   162   22  160 1  
   163   25  161 1  
   164   25  162 1  
   165   26  163 1  
   166   26  164 1  
   167   27  165 1  
   168   27  166 1  
   169   28  167 1  
   170   29  168 1  
   171   32  169 1  
   172   33  170 1  
   173   33  171 1  
   174   33  172 1  
   175   34  173 1  
   176   34  174 1  
   177   34  175 1  
   178   35  176 1  
   179   36  177 1  
   180   39  178 1  
   181   39  179 1  
   182   39  180 1  
   183   41  181 1  
   184   44  182 1  
   185   44  183 1  
   186   45  184 1  
   187   45  185 1  
   188   46  186 1  
   189   46  187 1  
   190   48  188 1  
   191   51  189 1  
   192   51  190 1  
   193   52  191 1  
   194   52  192 1  
   195   53  193 1  
   196   53  194 1  
   197   54  195 1  
   198   55  196 1  
   199   58  197 1  
   200   58  198 1  
   201   59  199 1  
   202   59  200 1  
   203   60  201 1  
   204   60  202 1  
   205   61  203 1  
   206   63  204 1  
   207   63  205 1  
   208   64  206 1  
   209   64  207 1  
   210   65  208 1  
   211   66  209 1  
   212   69  210 1  
   213   69  211 1  
   214   70  212 1  
   215   70  213 1  
   216   71  214 1  
   217   71  215 1  
   218   72  216 1  
   219   74  217 1  
   220   74  218 1  
   221   75  219 1  
   222   75  220 1  
   223   76  221 1  
   224   77  222 1  
   225   80  223 1  
   226   80  224 1  
   227   81  225 1  
   228   81  226 1  
   229   82  227 1  
   230   82  228 1  
   231   83  229 1  
   232   85  230 1  
   233   85  231 1  
   234   86  232 1  
   235   86  233 1  
   236   87  234 1  
   237   88  235 1  
   238   91  236 1  
   239   91  237 1  
   240   92  238 1  
   241   92  239 1  
   242   93  240 1  
   243   93  241 1  
   244   94  242 1  
   245   96  243 1  
   246   96  244 1  
   247   97  245 1  
   248   97  246 1  
   249   98  247 1  
   250   99  248 1  
   251   99  249 1  
   252  102  250 1  
   253  103  251 1  
   254  106  252 1  
   255  106  253 1  
   256  107  254 1  
   257  107  255 1  
   258  108  256 1  
   259  108  257 1  
   260  109  258 1  
   261  111  259 1  
   262  111  260 1  
   263  112  261 1  
   264  112  262 1  
   265  113  263 1  
   266  114  264 1  
   267  117  265 1  
   268  117  266 1  
   269  120  267 1  
   270  120  268 1  
   271  121  269 1  
   272  122  270 1  
   273  125  271 1  
   274  125  272 1  
   275  126  273 1  
   276  127  274 1  
   277  127  275 1  
   278  127  276 1  
   279  128  277 1  
   280  128  278 1  
   281  128  279 1  
   282  129  280 1  
   283  130  281 1  
   284  133  282 1  
   285  134  283 1  
   286  135  284 1  
   287  135  285 1  
   288  135  286 1  
@<TRIPOS>SUBSTRUCTURE
     1 SER         1

