5mmn_ligand
  -I-interpret- 

 44 46  0  0  0  0  0  0  0  0999 V2000
  -45.5730    5.1660    4.8370 O   0  0  0  0  0
  -45.1360    4.9910    3.6890 C   0  0  0  0  0
  -44.0520    5.6520    3.2850 N   0  0  0  0  0
  -43.3940    6.6480    4.1310 C   0  0  0  0  0
  -42.8650    7.7460    3.2560 C   0  0  0  0  0
  -45.6270    4.1260    2.7900 N   0  0  0  0  0
  -46.7970    3.3940    2.9020 C   0  0  0  0  0
  -47.4890    3.1680    4.0920 C   0  0  0  0  0
  -48.7340    2.4810    4.0950 C   0  0  0  0  0
  -49.4500    2.2240    5.2790 C   0  0  0  0  0
  -50.6600    1.5370    5.2170 C   0  0  0  0  0
  -51.1730    1.1300    3.9920 C   0  0  0  0  0
  -50.4690    1.3910    2.8010 C   0  0  0  0  0
  -51.0860    0.9180    1.5000 C   0  0  0  0  0
  -49.2500    2.0820    2.8530 C   0  0  0  0  0
  -48.5050    2.3680    1.6750 C   0  0  0  0  0
  -47.3180    3.0260    1.7150 N   0  0  0  0  0
  -48.9700    2.6300    6.6380 C   0  0  0  0  0
  -48.3690    3.8730    6.9030 C   0  0  0  0  0
  -47.9390    4.1680    8.1860 C   0  0  0  0  0
  -48.1230    3.2850    9.1920 N   0  0  0  0  0
  -48.6920    2.0900    8.9840 C   0  0  0  0  0
  -48.8720    1.1200   10.1300 C   0  0  0  0  0
  -49.1330    1.7450    7.7160 C   0  0  0  0  0
  -43.6699    5.4581    2.3594 H   0  0  0  0  0
  -42.5747    6.1846    4.6807 H   0  0  0  0  0
  -44.1074    7.0557    4.8472 H   0  0  0  0  0
  -42.1496    7.3305    2.5463 H   0  0  0  0  0
  -43.6909    8.2065    2.7138 H   0  0  0  0  0
  -42.3716    8.4958    3.8744 H   0  0  0  0  0
  -45.0835    3.9937    1.9370 H   0  0  0  0  0
  -47.0693    3.5232    5.0332 H   0  0  0  0  0
  -51.2069    1.3177    6.1340 H   0  0  0  0  0
  -52.1273    0.6048    3.9525 H   0  0  0  0  0
  -51.2080   -0.1647    1.5297 H   0  0  0  0  0
  -52.0590    1.3911    1.3677 H   0  0  0  0  0
  -50.4331    1.1887    0.6702 H   0  0  0  0  0
  -48.8995    2.0489    0.7103 H   0  0  0  0  0
  -48.2420    4.6014    6.1021 H   0  0  0  0  0
  -47.4481    5.1204    8.3859 H   0  0  0  0  0
  -47.8979    0.8749   10.5533 H   0  0  0  0  0
  -49.4980    1.5771   10.8963 H   0  0  0  0  0
  -49.3494    0.2112    9.7635 H   0  0  0  0  0
  -49.6104    0.7785    7.5543 H   0  0  0  0  0
  1  2  2  0  0  0
  2  3  1  0  0  0
  2  6  1  0  0  0
  3  4  1  0  0  0
  4  5  1  0  0  0
  6  7  1  0  0  0
  7  8  4  0  0  0
  7 17  4  0  0  0
  8  9  4  0  0  0
  9 10  4  0  0  0
  9 15  4  0  0  0
 10 11  4  0  0  0
 10 18  1  0  0  0
 11 12  4  0  0  0
 12 13  4  0  0  0
 13 14  1  0  0  0
 13 15  4  0  0  0
 15 16  4  0  0  0
 16 17  4  0  0  0
 18 19  4  0  0  0
 18 24  4  0  0  0
 19 20  4  0  0  0
 20 21  4  0  0  0
 21 22  4  0  0  0
 22 23  1  0  0  0
 22 24  4  0  0  0
  3 25  1  0  0  0
  4 26  1  0  0  0
  4 27  1  0  0  0
  5 28  1  0  0  0
  5 29  1  0  0  0
  5 30  1  0  0  0
  6 31  1  0  0  0
  8 32  1  0  0  0
 11 33  1  0  0  0
 12 34  1  0  0  0
 14 35  1  0  0  0
 14 36  1  0  0  0
 14 37  1  0  0  0
 16 38  1  0  0  0
 19 39  1  0  0  0
 20 40  1  0  0  0
 23 41  1  0  0  0
 23 42  1  0  0  0
 23 43  1  0  0  0
 24 44  1  0  0  0
M  END
$$$$
