4pd8_ligand
  -I-interpret- 

 36 38  0  0  0  0  0  0  0  0999 V2000
  -16.2110  135.9030   -7.0620 C   0  0  0  0  0
  -15.7820  133.7150   -6.6180 C   0  0  0  0  0
  -15.4590  132.4200   -5.8870 C   0  0  0  0  0
  -19.8590  140.8620   -6.7320 O   0  0  0  0  0
  -18.7790  139.9440   -6.8420 C   0  0  0  0  0
  -17.4760  140.4940   -6.2830 C   0  0  0  0  0
  -17.2640  140.2320   -4.8130 C   0  0  0  0  0
  -17.6700  138.9450   -4.3130 O   0  0  0  0  0
  -16.4060  139.9230   -7.0930 O   0  0  0  0  0
  -16.9600  139.3120   -8.2500 C   0  0  0  0  0
  -18.4370  139.6940   -8.2960 C   0  0  0  0  0
  -18.6890  140.8600   -9.0510 O   0  0  0  0  0
  -16.7170  137.8610   -8.2550 N   0  0  0  0  0
  -16.7800  137.1230   -9.4400 C   0  0  0  0  0
  -16.5580  135.7880   -9.4190 N   0  0  0  0  0
  -16.2760  135.1630   -8.2730 C   0  0  0  0  0
  -15.9010  134.9880   -6.0360 C   0  0  0  0  0
  -16.0100  133.8510   -7.9670 N   0  0  0  0  0
  -16.4310  137.2240   -7.0760 C   0  0  0  0  0
  -17.0390  137.6750  -10.5190 O   0  0  0  0  0
  -14.4874  132.5110   -5.4014 H   0  0  0  0  0
  -16.2253  132.2273   -5.1361 H   0  0  0  0  0
  -15.4338  131.5974   -6.6017 H   0  0  0  0  0
  -20.0607  141.0074   -5.8048 H   0  0  0  0  0
  -19.1179  139.0602   -6.3015 H   0  0  0  0  0
  -17.4965  141.5821   -6.3437 H   0  0  0  0  0
  -17.8801  140.9626   -4.2888 H   0  0  0  0  0
  -16.1871  140.2868   -4.6534 H   0  0  0  0  0
  -17.4868  138.8962   -3.3719 H   0  0  0  0  0
  -16.4787  139.6688   -9.1606 H   0  0  0  0  0
  -19.0297  138.9147   -8.7751 H   0  0  0  0  0
  -19.6304  141.0480   -9.0427 H   0  0  0  0  0
  -16.6066  135.2542  -10.2868 H   0  0  0  0  0
  -15.7759  135.2256   -4.9796 H   0  0  0  0  0
  -15.4853  137.6602   -6.7542 H   0  0  0  0  0
  -17.3282  137.3562   -6.4713 H   0  0  0  0  0
  1 16  4  0  0  0
  1 17  4  0  0  0
 19  1  1  0  0  0
  2  3  1  0  0  0
 17  2  4  0  0  0
  2 18  4  0  0  0
  5  4  1  0  0  0
  5  6  1  0  0  0
 11  5  1  0  0  0
  6  7  1  0  0  0
  9  6  1  0  0  0
  7  8  1  0  0  0
 10  9  1  0  0  0
 10 11  1  0  0  0
 13 10  1  0  0  0
 11 12  1  0  0  0
 13 14  1  0  0  0
 13 19  1  0  0  0
 14 15  1  0  0  0
 14 20  2  0  0  0
 15 16  1  0  0  0
 16 18  4  0  0  0
  3 21  1  0  0  0
  3 22  1  0  0  0
  3 23  1  0  0  0
  4 24  1  0  0  0
  5 25  1  0  0  0
  6 26  1  0  0  0
  7 27  1  0  0  0
  7 28  1  0  0  0
  8 29  1  0  0  0
 10 30  1  0  0  0
 11 31  1  0  0  0
 12 32  1  0  0  0
 15 33  1  0  0  0
 17 34  1  0  0  0
 19 35  1  0  0  0
 19 36  1  0  0  0
M  END
$$$$
