2zjv_ligand
  -I-interpret- 

 25 25  0  0  0  0  0  0  0  0999 V2000
   30.8480  -27.0810  -28.5190 N   0  0  0  0  0
   30.0040  -27.3870  -27.4620 C   0  0  0  0  0
   30.6110  -26.9700  -26.2840 N   0  0  0  0  0
   28.8410  -27.9650  -27.7360 N   0  0  0  0  0
   30.5540  -27.3640  -29.9180 C   0  0  0  0  0
   30.1890  -26.1590  -30.7360 C   0  0  0  0  0
   31.8990  -26.3320  -26.0630 C   0  0  0  0  0
   29.7710  -26.3170  -32.3990 S   0  0  0  0  0
   29.5470  -24.6300  -32.4690 C   0  0  0  0  0
   29.7510  -23.9410  -31.3700 N   0  0  0  0  0
   30.1210  -24.8210  -30.3730 C   0  0  0  0  0
   29.0740  -23.8930  -33.9390 Cl  0  0  0  0  0
   27.9500  -28.2990  -26.7700 N   0  0  0  0  0
   26.8880  -28.8470  -27.1360 O   0  0  0  0  0
   28.1910  -28.0530  -25.5610 O   0  0  0  0  0
   31.6553  -27.6775  -28.3375 H   0  0  0  0  0
   29.1829  -27.8009  -26.8767 H   0  0  0  0  0
   30.7786  -27.8723  -25.8390 H   0  0  0  0  0
   28.6090  -28.1653  -28.7089 H   0  0  0  0  0
   29.6926  -28.0318  -29.9333 H   0  0  0  0  0
   31.4604  -27.7827  -30.3552 H   0  0  0  0  0
   32.6931  -26.9839  -26.4269 H   0  0  0  0  0
   31.9304  -25.3841  -26.6002 H   0  0  0  0  0
   32.0354  -26.1515  -24.9967 H   0  0  0  0  0
   30.3464  -24.4852  -29.3608 H   0  0  0  0  0
  1  2  1  0  0  0
  1  5  1  0  0  0
  2  3  1  0  0  0
  2  4  1  0  0  0
  3  7  1  0  0  0
  4 13  1  0  0  0
  5  6  1  0  0  0
  6  8  4  0  0  0
  6 11  4  0  0  0
  8  9  4  0  0  0
  9 10  4  0  0  0
  9 12  1  0  0  0
 10 11  4  0  0  0
 13 14  2  0  0  0
 13 15  2  0  0  0
  1 16  1  0  0  0
  2 17  1  0  0  0
  3 18  1  0  0  0
  4 19  1  0  0  0
  5 20  1  0  0  0
  5 21  1  0  0  0
  7 22  1  0  0  0
  7 23  1  0  0  0
  7 24  1  0  0  0
 11 25  1  0  0  0
M  END
$$$$
