2kp8_ligand
  -I-interpret- 

 72 76  0  0  0  0  0  0  0  0999 V2000
   45.3110   61.0490   32.1740 C   0  0  0  0  0
   44.8340   59.7130   32.0900 O   0  0  0  0  0
   43.5410   59.5460   31.6480 C   0  0  0  0  0
   43.2190   58.3320   31.0120 C   0  0  0  0  0
   41.9260   58.1120   30.4990 C   0  0  0  0  0
   40.9140   59.0890   30.6280 C   0  0  0  0  0
   41.2320   60.2910   31.2960 C   0  0  0  0  0
   42.5280   60.5220   31.8000 C   0  0  0  0  0
   39.5720   58.8610   30.0540 C   0  0  0  0  0
   38.9530   57.5940   30.1370 C   0  0  0  0  0
   37.6990   57.3610   29.5430 C   0  0  0  0  0
   37.0300   58.3940   28.8580 C   0  0  0  0  0
   35.6730   58.1440   28.2020 C   0  0  0  0  0
   34.5490   58.8080   28.8810 N   0  0  0  0  0
   33.5810   59.5480   28.0430 C   0  0  0  0  0
   34.1060   60.9460   27.6330 C   0  0  0  0  0
   34.7420   60.9980   26.2380 C   0  0  0  0  0
   33.7910   60.4550   25.1670 C   0  0  0  0  0
   33.1950   59.1050   25.5300 C   0  0  0  0  0
   32.7630   58.2490   24.4950 C   0  0  0  0  0
   32.2050   56.9930   24.7960 C   0  0  0  0  0
   32.0480   56.5950   26.1360 C   0  0  0  0  0
   32.4750   57.4460   27.1690 C   0  0  0  0  0
   33.0640   58.6960   26.8810 C   0  0  0  0  0
   34.3560   58.6100   30.2040 C   0  0  0  0  0
   34.7740   57.6200   30.8060 O   0  0  0  0  0
   33.7800   59.7420   31.0010 C   0  0  0  0  0
   34.5570   60.9090   31.1490 C   0  0  0  0  0
   34.1710   61.9530   32.0150 C   0  0  0  0  0
   35.0690   63.1540   32.1000 C   0  0  0  0  0
   36.3030   62.9580   32.1160 O   0  0  0  0  0
   34.5880   64.3020   32.0240 O   0  0  0  0  0
   32.9680   61.8200   32.7620 C   0  0  0  0  0
   32.1650   60.6730   32.5690 C   0  0  0  0  0
   32.5620   59.6220   31.7160 C   0  0  0  0  0
   31.7020   58.3970   31.6360 C   0  0  0  0  0
   31.2580   57.8980   32.6930 O   0  0  0  0  0
   31.4690   57.8680   30.5220 O   0  0  0  0  0
   32.5480   62.8000   33.8210 C   0  0  0  0  0
   31.3410   63.1070   33.9030 O   0  0  0  0  0
   33.3700   63.1650   34.6860 O   0  0  0  0  0
   37.6240   59.6690   28.7930 C   0  0  0  0  0
   38.8820   59.8970   29.3850 C   0  0  0  0  0
   45.2724   61.5099   31.1870 H   0  0  0  0  0
   44.6854   61.6140   32.8650 H   0  0  0  0  0
   46.3397   61.0442   32.5342 H   0  0  0  0  0
   43.9775   57.5551   30.9157 H   0  0  0  0  0
   41.7025   57.1722   29.9940 H   0  0  0  0  0
   40.4631   61.0529   31.4242 H   0  0  0  0  0
   42.7513   61.4589   32.3103 H   0  0  0  0  0
   39.4540   56.7852   30.6689 H   0  0  0  0  0
   37.2419   56.3740   29.6134 H   0  0  0  0  0
   35.4869   57.0708   28.2425 H   0  0  0  0  0
   35.7235   58.5470   27.1905 H   0  0  0  0  0
   32.7030   59.7544   28.6550 H   0  0  0  0  0
   34.8809   61.2200   28.3489 H   0  0  0  0  0
   33.2487   61.6191   27.6197 H   0  0  0  0  0
   35.6414   60.3823   26.2454 H   0  0  0  0  0
   34.9712   62.0371   26.0015 H   0  0  0  0  0
   34.3637   60.3285   24.2482 H   0  0  0  0  0
   32.9691   61.1634   25.0633 H   0  0  0  0  0
   32.8622   58.5627   23.4558 H   0  0  0  0  0
   31.8942   56.3279   23.9903 H   0  0  0  0  0
   31.5972   55.6310   26.3717 H   0  0  0  0  0
   32.3498   57.1369   28.2067 H   0  0  0  0  0
   35.4808   61.0070   30.5788 H   0  0  0  0  0
   36.4754   62.0156   32.1778 H   0  0  0  0  0
   31.2126   60.5985   33.0938 H   0  0  0  0  0
   31.8866   58.3856   29.8296 H   0  0  0  0  0
   30.8670   62.7400   33.1532 H   0  0  0  0  0
   37.1086   60.4827   28.2827 H   0  0  0  0  0
   39.3304   60.8888   29.3260 H   0  0  0  0  0
  1  2  1  0  0  0
  2  3  1  0  0  0
  3  4  4  0  0  0
  3  8  4  0  0  0
  4  5  4  0  0  0
  5  6  4  0  0  0
  6  7  4  0  0  0
  6  9  1  0  0  0
  7  8  4  0  0  0
  9 10  4  0  0  0
  9 43  4  0  0  0
 10 11  4  0  0  0
 11 12  4  0  0  0
 12 13  1  0  0  0
 12 42  4  0  0  0
 13 14  1  0  0  0
 14 15  1  0  0  0
 14 25  1  0  0  0
 15 16  1  0  0  0
 15 24  1  0  0  0
 16 17  1  0  0  0
 17 18  1  0  0  0
 18 19  1  0  0  0
 19 20  4  0  0  0
 19 24  4  0  0  0
 20 21  4  0  0  0
 21 22  4  0  0  0
 22 23  4  0  0  0
 23 24  4  0  0  0
 25 26  2  0  0  0
 25 27  1  0  0  0
 27 28  4  0  0  0
 27 35  4  0  0  0
 28 29  4  0  0  0
 29 30  1  0  0  0
 29 33  4  0  0  0
 30 31  1  0  0  0
 30 32  2  0  0  0
 33 34  4  0  0  0
 33 39  1  0  0  0
 34 35  4  0  0  0
 35 36  1  0  0  0
 36 37  2  0  0  0
 36 38  1  0  0  0
 39 40  1  0  0  0
 39 41  2  0  0  0
 42 43  4  0  0  0
  1 44  1  0  0  0
  1 45  1  0  0  0
  1 46  1  0  0  0
  4 47  1  0  0  0
  5 48  1  0  0  0
  7 49  1  0  0  0
  8 50  1  0  0  0
 10 51  1  0  0  0
 11 52  1  0  0  0
 13 53  1  0  0  0
 13 54  1  0  0  0
 15 55  1  0  0  0
 16 56  1  0  0  0
 16 57  1  0  0  0
 17 58  1  0  0  0
 17 59  1  0  0  0
 18 60  1  0  0  0
 18 61  1  0  0  0
 20 62  1  0  0  0
 21 63  1  0  0  0
 22 64  1  0  0  0
 23 65  1  0  0  0
 28 66  1  0  0  0
 31 67  1  0  0  0
 34 68  1  0  0  0
 38 69  1  0  0  0
 40 70  1  0  0  0
 42 71  1  0  0  0
 43 72  1  0  0  0
M  END
$$$$
