3odk_ligand
  -I-interpret- 

 20 21  0  0  0  0  0  0  0  0999 V2000
   39.1820  -19.0240   11.8510 C   0  0  0  0  0
   39.4670  -20.1900   12.5360 C   0  0  0  0  0
   39.8350  -20.1000   13.8680 C   0  0  0  0  0
   39.9030  -18.8500   14.4760 C   0  0  0  0  0
   39.6140  -17.7400   13.8070 N   0  0  0  0  0
   39.2690  -17.7990   12.5050 C   0  0  0  0  0
   38.9520  -16.6370   11.8130 C   0  0  0  0  0
   39.3940  -15.3930   12.0350 C   0  0  0  0  0
   38.7500  -14.6630   11.1170 C   0  0  0  0  0
   38.8770  -13.1520   10.8830 C   0  0  0  0  0
   38.7900  -12.6950    9.7400 O   0  0  0  0  0
   39.0780  -12.3840   11.8270 O   0  0  0  0  0
   37.9570  -15.4450   10.3890 N   0  0  0  0  0
   38.0740  -16.6040   10.8070 N   0  0  0  0  0
   38.8900  -19.0639   10.8016 H   0  0  0  0  0
   39.4036  -21.1582   12.0393 H   0  0  0  0  0
   40.0694  -21.0006   14.4355 H   0  0  0  0  0
   40.1995  -18.7807   15.5226 H   0  0  0  0  0
   40.1087  -15.0551   12.7854 H   0  0  0  0  0
   38.6341  -13.4120    9.1209 H   0  0  0  0  0
  1  2  4  0  0  0
  1  6  4  0  0  0
  2  3  4  0  0  0
  3  4  4  0  0  0
  4  5  4  0  0  0
  5  6  4  0  0  0
  6  7  1  0  0  0
  7  8  4  0  0  0
  7 14  4  0  0  0
  8  9  4  0  0  0
  9 10  1  0  0  0
  9 13  4  0  0  0
 10 11  1  0  0  0
 10 12  2  0  0  0
 13 14  4  0  0  0
  1 15  1  0  0  0
  2 16  1  0  0  0
  3 17  1  0  0  0
  4 18  1  0  0  0
  8 19  1  0  0  0
 11 20  1  0  0  0
M  END
$$$$
