5hkb_ligand
  -I-interpret- 

 43 44  0  0  0  0  0  0  0  0999 V2000
   -2.3630  -26.6200  211.7390 C   0  0  0  0  0
   -2.3480  -24.0660  211.7110 C   0  0  0  0  0
   -0.6220  -23.0330  210.1680 C   0  0  0  0  0
    0.7500  -23.0890  210.3880 C   0  0  0  0  0
    1.6350  -23.1440  209.3150 C   0  0  0  0  0
    1.1730  -23.1320  208.0120 C   0  0  0  0  0
    2.7150  -22.0940  206.4800 C   0  0  0  0  0
    2.3890  -20.7890  206.8420 C   0  0  0  0  0
    3.1330  -19.7400  206.3090 C   0  0  0  0  0
    4.1830  -19.9780  205.4250 C   0  0  0  0  0
    3.7700  -22.3110  205.6020 C   0  0  0  0  0
    5.6370  -21.5270  204.1160 C   0  0  0  0  0
   -1.0890  -23.0350  208.8630 C   0  0  0  0  0
   -0.8940  -23.0980  206.0040 Br  0  0  0  0  0
   -0.1960  -23.0980  207.8050 C   0  0  0  0  0
    2.0470  -23.2280  206.9480 O   0  0  0  0  0
    4.5100  -21.2710  205.0680 C   0  0  0  0  0
    5.2490  -21.8250  202.6870 C   0  0  0  0  0
    6.8100  -22.2730  204.6360 C   0  0  0  0  0
    4.9260  -18.9320  204.8970 O   0  0  0  0  0
    3.5310  -23.2080  209.6160 Br  0  0  0  0  0
   -1.5400  -22.9680  211.3100 N   0  0  0  0  0
   -3.1160  -23.9830  212.6780 O   0  0  0  0  0
   -2.2710  -25.3510  210.9550 C   0  0  0  0  0
   -1.3100  -27.1440  212.2030 O   0  0  0  0  0
   -3.4890  -27.1550  211.9380 O   0  0  0  0  0
    1.1350  -23.0898  211.4077 H   0  0  0  0  0
    1.5666  -20.5928  207.5299 H   0  0  0  0  0
    2.8898  -18.7148  206.5882 H   0  0  0  0  0
    4.0229  -23.3344  205.3248 H   0  0  0  0  0
    6.0533  -20.5225  204.0399 H   0  0  0  0  0
   -2.1604  -22.9869  208.6685 H   0  0  0  0  0
    4.6236  -22.7173  202.6602 H   0  0  0  0  0
    4.6957  -20.9795  202.2782 H   0  0  0  0  0
    6.1487  -21.9925  202.0949 H   0  0  0  0  0
    7.2503  -21.7218  205.4669 H   0  0  0  0  0
    6.4901  -23.2567  204.9797 H   0  0  0  0  0
    7.5480  -22.3865  203.8419 H   0  0  0  0  0
    5.6014  -19.2838  204.3124 H   0  0  0  0  0
   -1.6010  -22.0979  211.8387 H   0  0  0  0  0
   -3.1357  -25.3530  210.2914 H   0  0  0  0  0
   -1.2830  -25.3617  210.4948 H   0  0  0  0  0
   -0.5523  -26.6081  211.9575 H   0  0  0  0  0
 24  1  1  0  0  0
  1 25  1  0  0  0
  1 26  2  0  0  0
 22  2  1  0  0  0
  2 23  2  0  0  0
  2 24  1  0  0  0
  4  3  4  0  0  0
  3 13  4  0  0  0
  3 22  1  0  0  0
  5  4  4  0  0  0
  6  5  4  0  0  0
  5 21  1  0  0  0
  6 15  4  0  0  0
 16  6  1  0  0  0
  7  8  4  0  0  0
  7 11  4  0  0  0
  7 16  1  0  0  0
  8  9  4  0  0  0
  9 10  4  0  0  0
 10 17  4  0  0  0
 10 20  1  0  0  0
 11 17  4  0  0  0
 17 12  1  0  0  0
 12 18  1  0  0  0
 12 19  1  0  0  0
 13 15  4  0  0  0
 15 14  1  0  0  0
  4 27  1  0  0  0
  8 28  1  0  0  0
  9 29  1  0  0  0
 11 30  1  0  0  0
 12 31  1  0  0  0
 13 32  1  0  0  0
 18 33  1  0  0  0
 18 34  1  0  0  0
 18 35  1  0  0  0
 19 36  1  0  0  0
 19 37  1  0  0  0
 19 38  1  0  0  0
 20 39  1  0  0  0
 22 40  1  0  0  0
 24 41  1  0  0  0
 24 42  1  0  0  0
 25 43  1  0  0  0
M  END
$$$$
