5kby_ligand
  -I-interpret- 

 47 49  0  0  0  0  0  0  0  0999 V2000
   43.9770   32.3690   14.4610 C   0  0  0  0  0
   43.4400   33.6270   14.6290 C   0  0  0  0  0
   44.8530   35.4150   15.2340 C   0  0  0  0  0
   45.3460   35.8820   17.6450 C   0  0  0  0  0
   40.3950   35.4590   13.9750 C   0  0  0  0  0
   37.5950   35.6120   14.0260 C   0  0  0  0  0
   38.2350   34.7210   14.8600 C   0  0  0  0  0
   40.2440   33.6880   15.7460 C   0  0  0  0  0
   42.1290   33.3460   12.6710 C   0  0  0  0  0
   42.2630   31.2770   11.3230 C   0  0  0  0  0
   42.6540   32.1060   12.4810 N   0  0  0  0  0
   43.5580   31.6020   13.3610 C   0  0  0  0  0
   44.0140   30.4860   13.1800 O   0  0  0  0  0
   43.8330   34.4390   15.6660 N   0  0  0  0  0
   44.9270   36.5340   16.3020 C   0  0  0  0  0
   44.3000   34.8320   18.0420 C   0  0  0  0  0
   42.9880   35.4890   18.2090 N   0  3  0  0  0
   44.2210   33.7610   16.9250 C   0  0  0  0  0
   42.4910   34.0930   13.7350 N   0  0  0  0  0
   41.9100   35.4460   13.9150 C   0  0  0  0  0
   39.7370   36.3580   13.1610 C   0  0  0  0  0
   38.3540   36.4270   13.1930 C   0  0  0  0  0
   37.7280   37.3080   12.3910 F   0  0  0  0  0
   39.6440   34.6380   14.8470 C   0  0  0  0  0
   40.7550   32.9460   16.4390 N   0  0  0  0  0
   41.2960   33.8000   11.8860 O   0  0  0  0  0
   44.7106   31.9777   15.1659 H   0  0  0  0  0
   44.5848   35.8362   14.2651 H   0  0  0  0  0
   45.8222   34.9268   15.1322 H   0  0  0  0  0
   45.4099   36.6465   18.4193 H   0  0  0  0  0
   46.3197   35.4051   17.5328 H   0  0  0  0  0
   36.5070   35.6772   14.0193 H   0  0  0  0  0
   37.6554   34.0829   15.5271 H   0  0  0  0  0
   41.1891   31.0930   11.3555 H   0  0  0  0  0
   42.5154   31.8008   10.4010 H   0  0  0  0  0
   42.7969   30.3275   11.3607 H   0  0  0  0  0
   43.9582   37.0228   16.4051 H   0  0  0  0  0
   45.6533   37.2911   16.0065 H   0  0  0  0  0
   44.5796   34.3567   18.9822 H   0  0  0  0  0
   43.0521   36.1912   18.9460 H   0  0  0  0  0
   42.7197   35.9373   17.3330 H   0  0  0  0  0
   42.2893   34.7907   18.4629 H   0  0  0  0  0
   45.1867   33.2698   16.8057 H   0  0  0  0  0
   43.4851   33.0000   17.1848 H   0  0  0  0  0
   42.2761   35.8328   14.8660 H   0  0  0  0  0
   42.2061   36.0440   13.0531 H   0  0  0  0  0
   40.3027   37.0106   12.4961 H   0  0  0  0  0
  2  1  2  0  0  0
  1 12  1  0  0  0
  2 14  1  0  0  0
 19  2  1  0  0  0
 14  3  1  0  0  0
  3 15  1  0  0  0
 15  4  1  0  0  0
 16  4  1  0  0  0
 20  5  1  0  0  0
  5 21  4  0  0  0
  5 24  4  0  0  0
  7  6  4  0  0  0
  6 22  4  0  0  0
 24  7  4  0  0  0
 24  8  1  0  0  0
  8 25  3  0  0  0
  9 11  1  0  0  0
 19  9  1  0  0  0
  9 26  2  0  0  0
 11 10  1  0  0  0
 11 12  1  0  0  0
 12 13  2  0  0  0
 14 18  1  0  0  0
 16 17  1  0  0  0
 18 16  1  0  0  0
 19 20  1  0  0  0
 21 22  4  0  0  0
 22 23  1  0  0  0
  1 27  1  0  0  0
  3 28  1  0  0  0
  3 29  1  0  0  0
  4 30  1  0  0  0
  4 31  1  0  0  0
  6 32  1  0  0  0
  7 33  1  0  0  0
 10 34  1  0  0  0
 10 35  1  0  0  0
 10 36  1  0  0  0
 15 37  1  0  0  0
 15 38  1  0  0  0
 16 39  1  0  0  0
 17 40  1  0  0  0
 17 41  1  0  0  0
 17 42  1  0  0  0
 18 43  1  0  0  0
 18 44  1  0  0  0
 20 45  1  0  0  0
 20 46  1  0  0  0
 21 47  1  0  0  0
M  END
$$$$
