1ow8_ligand
  -I-interpret- 

211210  0  0  0  0  0  0  0  0999 V2000
   24.5520   35.6260   19.7040 N   0  3  0  0  0
   24.3570   34.2780   20.2620 C   0  0  0  0  0
   24.8340   33.1680   19.3390 C   0  0  0  0  0
   25.0950   32.0740   19.8420 O   0  0  0  0  0
   22.8750   33.9620   20.5450 C   0  0  0  0  0
   22.5020   33.0780   21.7360 C   0  0  0  0  0
   23.5560   33.2730   22.7970 C   0  0  0  0  0
   21.1260   33.4160   22.3070 C   0  0  0  0  0
   24.7970   33.3830   18.0200 N   0  0  0  0  0
   25.0550   32.2840   17.0890 C   0  0  0  0  0
   26.5080   31.9070   17.3990 C   0  0  0  0  0
   26.7930   30.7050   17.5460 O   0  0  0  0  0
   24.6800   32.5760   15.6110 C   0  0  0  0  0
   25.6600   32.1850   14.6420 O   0  0  0  0  0
   27.3190   32.8840   17.8190 N   0  0  0  0  0
   28.7260   32.6560   18.2190 C   0  0  0  0  0
   28.7900   31.8080   19.5300 C   0  0  0  0  0
   29.5580   30.8370   19.6390 O   0  0  0  0  0
   29.4300   34.0250   18.3900 C   0  0  0  0  0
   29.2090   34.9140   17.1630 C   0  0  0  0  0
   30.4430   35.0210   16.2600 C   0  0  0  0  0
   31.4980   35.4880   16.7490 O   0  0  0  0  0
   30.3590   34.6640   15.0610 O   0  0  0  0  0
   27.9360   32.1240   20.5100 N   0  0  0  0  0
   27.9030   31.3790   21.7720 C   0  0  0  0  0
   27.4810   29.9480   21.3950 C   0  0  0  0  0
   27.9600   28.9530   21.9420 O   0  0  0  0  0
   26.8730   31.9870   22.7390 C   0  0  0  0  0
   26.6600   31.2720   24.0610 C   0  0  0  0  0
   27.9530   31.3270   24.7920 C   0  0  0  0  0
   25.5770   31.9320   24.8720 C   0  0  0  0  0
   26.5500   29.8560   20.4370 N   0  0  0  0  0
   26.0300   28.5570   19.9530 C   0  0  0  0  0
   27.0950   27.7610   19.1840 C   0  0  0  0  0
   27.1080   26.5220   19.2010 O   0  0  0  0  0
   24.7770   28.7480   19.0560 C   0  0  0  0  0
   23.5730   29.3010   19.8190 C   0  0  0  0  0
   23.1250   28.6650   20.8220 O   0  0  0  0  0
   23.0760   30.3770   19.4060 O   0  0  0  0  0
   27.9950   28.4950   18.5230 N   0  0  0  0  0
   29.0850   27.8860   17.7630 C   0  0  0  0  0
   30.1140   27.2630   18.7060 C   0  0  0  0  0
   30.8300   26.3170   18.3430 O   0  0  0  0  0
   29.7730   28.9240   16.8530 C   0  0  0  0  0
   29.0810   29.1390   15.5190 C   0  0  0  0  0
   30.0680   29.6500   14.5080 C   0  0  0  0  0
   29.4070   30.4270   13.4700 N   0  0  0  0  0
   29.8290   31.6160   13.0570 C   0  0  0  0  0
   30.9280   32.1560   13.5850 N   0  0  0  0  0
   29.1550   32.2750   12.1220 N   0  0  0  0  0
   30.1680   27.8090   19.9210 N   0  0  0  0  0
   31.0610   27.3340   20.9540 C   0  0  0  0  0
   30.3620   26.0780   21.4180 C   0  0  0  0  0
   30.8580   24.9730   21.2260 O   0  0  0  0  0
   31.1380   28.3660   22.0760 C   0  0  0  0  0
   31.7250   29.6890   21.6040 C   0  0  0  0  0
   31.1400   30.7830   22.4320 C   0  0  0  0  0
   33.2480   29.6660   21.7130 C   0  0  0  0  0
   29.1790   26.2530   21.9990 N   0  0  0  0  0
   28.3960   25.1220   22.4680 C   0  0  0  0  0
   28.5330   23.9180   21.5180 C   0  0  0  0  0
   28.6880   22.7690   21.9610 O   0  0  0  0  0
   26.9360   25.5490   22.5840 C   0  0  0  0  0
   26.7290   26.6440   23.6120 C   0  0  0  0  0
   25.3700   27.2260   23.4620 C   0  0  0  0  0
   26.9130   26.0600   24.9870 C   0  0  0  0  0
   28.4910   24.1830   20.2080 N   0  0  0  0  0
   28.6140   23.1110   19.2080 C   0  0  0  0  0
   29.9620   22.3600   19.3460 C   0  0  0  0  0
   29.9980   21.1270   19.1940 O   0  0  0  0  0
   28.4620   23.6590   17.7670 C   0  0  0  0  0
   27.0910   24.0440   17.2100 C   0  0  0  0  0
   27.2070   24.2300   15.7000 C   0  0  0  0  0
   26.0900   22.9300   17.5160 C   0  0  0  0  0
   31.0350   23.0870   19.6160 N   0  0  0  0  0
   32.3820   22.5060   19.7980 C   0  0  0  0  0
   32.4400   21.5030   20.9670 C   0  0  0  0  0
   33.3050   20.6140   21.0000 O   0  0  0  0  0
   33.4070   23.6150   20.0450 C   0  0  0  0  0
   34.0210   24.1880   18.7980 C   0  0  0  0  0
   34.8690   25.4320   19.0610 C   0  0  0  0  0
   34.8280   25.9580   20.1920 O   0  0  0  0  0
   35.5660   25.8900   18.1270 O   0  0  0  0  0
   31.5180   21.6550   21.9080 N   0  0  0  0  0
   31.4700   20.7970   23.0910 C   0  0  0  0  0
   30.8420   19.4160   22.9370 C   0  0  0  0  0
   31.4030   18.4310   23.4400 O   0  0  0  0  0
   30.7770   21.5330   24.2470 C   0  0  0  0  0
   31.6280   22.5020   25.0380 C   0  0  0  0  0
   30.7540   23.2170   25.9950 C   0  0  0  0  0
   32.7180   21.7460   25.7530 C   0  0  0  0  0
   29.7100   19.3340   22.2580 N   0  0  0  0  0
   29.0260   18.0540   22.0870 C   0  0  0  0  0
   29.9180   16.8150   21.9360 C   0  0  0  0  0
   29.7570   15.8600   22.7670 O   0  0  0  0  0
   28.0750   18.1440   20.9090 C   0  0  0  0  0
   27.0410   19.2330   21.1000 C   0  0  0  0  0
   26.4830   19.3860   22.2040 O   0  0  0  0  0
   26.7630   19.9940   20.0270 N   0  0  0  0  0
   30.7460   16.8430   20.9740 O   0  0  0  0  0
   25.5458   35.7827   19.5362 H   0  0  0  0  0
   24.0408   35.7060   18.8250 H   0  0  0  0  0
   24.2040   36.3201   20.3655 H   0  0  0  0  0
   24.9457   34.3000   21.1791 H   0  0  0  0  0
   22.5421   33.4012   19.6717 H   0  0  0  0  0
   22.4259   34.9294   20.7696 H   0  0  0  0  0
   22.4551   32.0413   21.4027 H   0  0  0  0  0
   23.5476   34.3111   23.1292 H   0  0  0  0  0
   23.3445   32.6179   23.6421 H   0  0  0  0  0
   24.5350   33.0304   22.3837 H   0  0  0  0  0
   20.9138   32.7610   23.1520 H   0  0  0  0  0
   21.1169   34.4541   22.6391 H   0  0  0  0  0
   20.3690   33.2732   21.5359 H   0  0  0  0  0
   24.5885   34.3150   17.6619 H   0  0  0  0  0
   24.3984   31.4254   17.2296 H   0  0  0  0  0
   24.5698   33.6570   15.5247 H   0  0  0  0  0
   23.7813   31.9975   15.3969 H   0  0  0  0  0
   25.3434   32.4032   13.7624 H   0  0  0  0  0
   26.9497   33.8336   17.8661 H   0  0  0  0  0
   29.2448   32.0912   17.4444 H   0  0  0  0  0
   30.4999   33.8550   18.5100 H   0  0  0  0  0
   29.0128   34.5256   19.2638 H   0  0  0  0  0
   28.9754   35.9167   17.5210 H   0  0  0  0  0
   28.4078   34.4681   16.5737 H   0  0  0  0  0
   29.4733   34.3371   14.8869 H   0  0  0  0  0
   27.2915   32.9031   20.3757 H   0  0  0  0  0
   28.8706   31.4067   22.2731 H   0  0  0  0  0
   25.9157   31.9422   22.2197 H   0  0  0  0  0
   27.2533   32.9761   22.9943 H   0  0  0  0  0
   26.3439   30.2434   23.8875 H   0  0  0  0  0
   28.7236   30.8303   24.2025 H   0  0  0  0  0
   28.2328   32.3678   24.9550 H   0  0  0  0  0
   27.8475   30.8231   25.7528 H   0  0  0  0  0
   25.8571   32.9652   25.0772 H   0  0  0  0  0
   24.6421   31.9120   24.3119 H   0  0  0  0  0
   25.4504   31.3949   25.8120 H   0  0  0  0  0
   26.1848   30.7144   20.0246 H   0  0  0  0  0
   25.7496   27.9882   20.8395 H   0  0  0  0  0
   24.4993   27.7704   18.6619 H   0  0  0  0  0
   25.0335   29.4654   18.2765 H   0  0  0  0  0
   23.6521   27.8745   20.9597 H   0  0  0  0  0
   27.9190   29.5118   18.5496 H   0  0  0  0  0
   28.6567   27.1040   17.1360 H   0  0  0  0  0
   30.7743   28.5502   16.6390 H   0  0  0  0  0
   29.7548   29.8770   17.3817 H   0  0  0  0  0
   28.2814   29.8695   15.6422 H   0  0  0  0  0
   28.6677   28.1922   15.1715 H   0  0  0  0  0
   30.5609   28.7967   14.0421 H   0  0  0  0  0
   30.7862   30.2921   15.0179 H   0  0  0  0  0
   28.5716   30.0356   13.0349 H   0  0  0  0  0
   31.2479   33.0720   13.2703 H   0  0  0  0  0
   31.4487   31.6531   14.3035 H   0  0  0  0  0
   28.3109   31.8679   11.7193 H   0  0  0  0  0
   29.5531   28.5953   20.1307 H   0  0  0  0  0
   32.0866   27.1616   20.6276 H   0  0  0  0  0
   31.7852   27.9683   22.8577 H   0  0  0  0  0
   30.1255   28.5534   22.4335 H   0  0  0  0  0
   31.4792   29.8576   20.5555 H   0  0  0  0  0
   30.0568   30.7895   22.3104 H   0  0  0  0  0
   31.3882   30.6161   23.4801 H   0  0  0  0  0
   31.5489   31.7402   22.1084 H   0  0  0  0  0
   33.5342   29.5009   22.7517 H   0  0  0  0  0
   33.6432   28.8609   21.0935 H   0  0  0  0  0
   33.6499   30.6198   21.3713 H   0  0  0  0  0
   28.8143   27.1982   22.1177 H   0  0  0  0  0
   28.7681   24.8100   23.4439 H   0  0  0  0  0
   26.3564   24.6807   22.8973 H   0  0  0  0  0
   26.6213   25.9351   21.6145 H   0  0  0  0  0
   27.4568   27.4415   23.4627 H   0  0  0  0  0
   25.2643   27.6457   22.4616 H   0  0  0  0  0
   24.6236   26.4458   23.6108 H   0  0  0  0  0
   25.2288   28.0119   24.2039 H   0  0  0  0  0
   26.1848   25.2641   25.1427 H   0  0  0  0  0
   27.9209   25.6546   25.0763 H   0  0  0  0  0
   26.7661   26.8399   25.7342 H   0  0  0  0  0
   28.3714   25.1468   19.8961 H   0  0  0  0  0
   27.8035   22.4073   19.3980 H   0  0  0  0  0
   28.7805   22.8303   17.1346 H   0  0  0  0  0
   29.0139   24.5988   17.7825 H   0  0  0  0  0
   26.7479   24.9711   17.6691 H   0  0  0  0  0
   27.9275   25.0196   15.4868 H   0  0  0  0  0
   27.5422   23.2979   15.2451 H   0  0  0  0  0
   26.2338   24.5049   15.2932 H   0  0  0  0  0
   26.4262   22.0033   17.0509 H   0  0  0  0  0
   26.0204   22.7921   18.5950 H   0  0  0  0  0
   25.1121   23.2030   17.1195 H   0  0  0  0  0
   30.9269   24.0975   19.7027 H   0  0  0  0  0
   32.6168   21.9677   18.8798 H   0  0  0  0  0
   34.2178   23.1755   20.6260 H   0  0  0  0  0
   32.8812   24.4291   20.5440 H   0  0  0  0  0
   33.2078   24.4774   18.1324 H   0  0  0  0  0
   34.6746   23.4268   18.3719 H   0  0  0  0  0
   35.4554   25.3406   17.3476 H   0  0  0  0  0
   30.8214   22.3927   21.8034 H   0  0  0  0  0
   32.5222   20.5937   23.2903 H   0  0  0  0  0
   30.4644   20.7619   24.9511 H   0  0  0  0  0
   29.9846   22.1284   23.7935 H   0  0  0  0  0
   32.1018   23.2289   24.3783 H   0  0  0  0  0
   29.9831   23.7583   25.4465 H   0  0  0  0  0
   30.2862   22.4966   26.6660 H   0  0  0  0  0
   31.3513   23.9208   26.5747 H   0  0  0  0  0
   32.2700   21.0187   26.4301 H   0  0  0  0  0
   33.3395   21.2290   25.0219 H   0  0  0  0  0
   33.3302   22.4454   26.3224 H   0  0  0  0  0
   29.3083   20.1769   21.8475 H   0  0  0  0  0
   28.5011   17.8954   23.0290 H   0  0  0  0  0
   29.0678   16.0946   23.3928 H   0  0  0  0  0
   27.5544   17.1909   20.8165 H   0  0  0  0  0
   28.6567   18.3777   20.0173 H   0  0  0  0  0
   26.0673   20.7368   20.0950 H   0  0  0  0  0
   27.2478   19.8285   19.1450 H   0  0  0  0  0
  1  2  1  0  0  0
  2  3  1  0  0  0
  2  5  1  0  0  0
  3  4  2  0  0  0
  3  9  1  0  0  0
  5  6  1  0  0  0
  6  7  1  0  0  0
  6  8  1  0  0  0
  9 10  1  0  0  0
 10 11  1  0  0  0
 10 13  1  0  0  0
 11 12  2  0  0  0
 11 15  1  0  0  0
 13 14  1  0  0  0
 15 16  1  0  0  0
 16 17  1  0  0  0
 16 19  1  0  0  0
 17 18  2  0  0  0
 17 24  1  0  0  0
 19 20  1  0  0  0
 20 21  1  0  0  0
 21 22  2  0  0  0
 21 23  1  0  0  0
 24 25  1  0  0  0
 25 26  1  0  0  0
 25 28  1  0  0  0
 26 27  2  0  0  0
 26 32  1  0  0  0
 28 29  1  0  0  0
 29 30  1  0  0  0
 29 31  1  0  0  0
 32 33  1  0  0  0
 33 34  1  0  0  0
 33 36  1  0  0  0
 34 35  2  0  0  0
 34 40  1  0  0  0
 36 37  1  0  0  0
 37 38  1  0  0  0
 37 39  2  0  0  0
 40 41  1  0  0  0
 41 42  1  0  0  0
 41 44  1  0  0  0
 42 43  2  0  0  0
 42 51  1  0  0  0
 44 45  1  0  0  0
 45 46  1  0  0  0
 46 47  1  0  0  0
 47 48  1  0  0  0
 48 49  1  0  0  0
 48 50  2  0  0  0
 51 52  1  0  0  0
 52 53  1  0  0  0
 52 55  1  0  0  0
 53 54  2  0  0  0
 53 59  1  0  0  0
 55 56  1  0  0  0
 56 57  1  0  0  0
 56 58  1  0  0  0
 59 60  1  0  0  0
 60 61  1  0  0  0
 60 63  1  0  0  0
 61 62  2  0  0  0
 61 67  1  0  0  0
 63 64  1  0  0  0
 64 65  1  0  0  0
 64 66  1  0  0  0
 67 68  1  0  0  0
 68 69  1  0  0  0
 68 71  1  0  0  0
 69 70  2  0  0  0
 69 75  1  0  0  0
 71 72  1  0  0  0
 72 73  1  0  0  0
 72 74  1  0  0  0
 75 76  1  0  0  0
 76 77  1  0  0  0
 76 79  1  0  0  0
 77 78  2  0  0  0
 77 84  1  0  0  0
 79 80  1  0  0  0
 80 81  1  0  0  0
 81 82  2  0  0  0
 81 83  1  0  0  0
 84 85  1  0  0  0
 85 86  1  0  0  0
 85 88  1  0  0  0
 86 87  2  0  0  0
 86 92  1  0  0  0
 88 89  1  0  0  0
 89 90  1  0  0  0
 89 91  1  0  0  0
 92 93  1  0  0  0
 93 94  1  0  0  0
 93 96  1  0  0  0
 94 95  1  0  0  0
 94100  2  0  0  0
 96 97  1  0  0  0
 97 98  2  0  0  0
 97 99  1  0  0  0
  1101  1  0  0  0
  1102  1  0  0  0
  1103  1  0  0  0
  2104  1  0  0  0
  5105  1  0  0  0
  5106  1  0  0  0
  6107  1  0  0  0
  7108  1  0  0  0
  7109  1  0  0  0
  7110  1  0  0  0
  8111  1  0  0  0
  8112  1  0  0  0
  8113  1  0  0  0
  9114  1  0  0  0
 10115  1  0  0  0
 13116  1  0  0  0
 13117  1  0  0  0
 14118  1  0  0  0
 15119  1  0  0  0
 16120  1  0  0  0
 19121  1  0  0  0
 19122  1  0  0  0
 20123  1  0  0  0
 20124  1  0  0  0
 23125  1  0  0  0
 24126  1  0  0  0
 25127  1  0  0  0
 28128  1  0  0  0
 28129  1  0  0  0
 29130  1  0  0  0
 30131  1  0  0  0
 30132  1  0  0  0
 30133  1  0  0  0
 31134  1  0  0  0
 31135  1  0  0  0
 31136  1  0  0  0
 32137  1  0  0  0
 33138  1  0  0  0
 36139  1  0  0  0
 36140  1  0  0  0
 38141  1  0  0  0
 40142  1  0  0  0
 41143  1  0  0  0
 44144  1  0  0  0
 44145  1  0  0  0
 45146  1  0  0  0
 45147  1  0  0  0
 46148  1  0  0  0
 46149  1  0  0  0
 47150  1  0  0  0
 49151  1  0  0  0
 49152  1  0  0  0
 50153  1  0  0  0
 51154  1  0  0  0
 52155  1  0  0  0
 55156  1  0  0  0
 55157  1  0  0  0
 56158  1  0  0  0
 57159  1  0  0  0
 57160  1  0  0  0
 57161  1  0  0  0
 58162  1  0  0  0
 58163  1  0  0  0
 58164  1  0  0  0
 59165  1  0  0  0
 60166  1  0  0  0
 63167  1  0  0  0
 63168  1  0  0  0
 64169  1  0  0  0
 65170  1  0  0  0
 65171  1  0  0  0
 65172  1  0  0  0
 66173  1  0  0  0
 66174  1  0  0  0
 66175  1  0  0  0
 67176  1  0  0  0
 68177  1  0  0  0
 71178  1  0  0  0
 71179  1  0  0  0
 72180  1  0  0  0
 73181  1  0  0  0
 73182  1  0  0  0
 73183  1  0  0  0
 74184  1  0  0  0
 74185  1  0  0  0
 74186  1  0  0  0
 75187  1  0  0  0
 76188  1  0  0  0
 79189  1  0  0  0
 79190  1  0  0  0
 80191  1  0  0  0
 80192  1  0  0  0
 83193  1  0  0  0
 84194  1  0  0  0
 85195  1  0  0  0
 88196  1  0  0  0
 88197  1  0  0  0
 89198  1  0  0  0
 90199  1  0  0  0
 90200  1  0  0  0
 90201  1  0  0  0
 91202  1  0  0  0
 91203  1  0  0  0
 91204  1  0  0  0
 92205  1  0  0  0
 93206  1  0  0  0
 95207  1  0  0  0
 96208  1  0  0  0
 96209  1  0  0  0
 99210  1  0  0  0
 99211  1  0  0  0
M  END
$$$$
