### 
### Created by X-TOOL on Mon Sep 10 21:12:50 2018
### 

@<TRIPOS>MOLECULE
1ow8_ligand
  208   207     1     0     0
SMALL
GAST_HUCK


@<TRIPOS>ATOM
      1 N          24.5520   35.6260   19.7040 N.4       1 LEU         0.2379
      2 CA         24.3570   34.2780   20.2620 C.3       1 LEU         0.0652
      3 C          24.8340   33.1680   19.3390 C.2       1 LEU         0.2268
      4 O          25.0950   32.0740   19.8420 O.2       1 LEU        -0.3907
      5 CB         22.8750   33.9620   20.5450 C.3       1 LEU         0.0102
      6 CG         22.5020   33.0780   21.7360 C.3       1 LEU        -0.0394
      7 CD1        23.5560   33.2730   22.7970 C.3       1 LEU        -0.0623
      8 CD2        21.1260   33.4160   22.3070 C.3       1 LEU        -0.0623
      9 N          24.7970   33.3830   18.0200 N.am      1 SER        -0.2589
     10 CA         25.0550   32.2840   17.0890 C.3       1 SER         0.1540
     11 C          26.5080   31.9070   17.3990 C.2       1 SER         0.2062
     12 O          26.7930   30.7050   17.5460 O.2       1 SER        -0.3943
     13 CB         24.6800   32.5760   15.6110 C.3       1 SER         0.0843
     14 OG         25.6600   32.1850   14.6420 O.3       1 SER        -0.3903
     15 N          27.3190   32.8840   17.8190 N.am      1 GLU        -0.2636
     16 CA         28.7260   32.6560   18.2190 C.3       1 GLU         0.1325
     17 C          28.7900   31.8080   19.5300 C.2       1 GLU         0.2040
     18 O          29.5580   30.8370   19.6390 O.2       1 GLU        -0.3944
     19 CB         29.4300   34.0250   18.3900 C.3       1 GLU        -0.0008
     20 CG         29.2090   34.9140   17.1630 C.3       1 GLU         0.0044
     21 CD         30.4430   35.0210   16.2600 C.2       1 GLU         0.0350
     22 OE1        31.4980   35.4880   16.7490 O.co2     1 GLU        -0.5690
     23 OE2        30.3590   34.6640   15.0610 O.co2     1 GLU        -0.5690
     24 N          27.9360   32.1240   20.5100 N.am      1 LEU        -0.2637
     25 CA         27.9030   31.3790   21.7720 C.3       1 LEU         0.1312
     26 C          27.4810   29.9480   21.3950 C.2       1 LEU         0.2040
     27 O          27.9600   28.9530   21.9420 O.2       1 LEU        -0.3944
     28 CB         26.8730   31.9870   22.7390 C.3       1 LEU        -0.0101
     29 CG         26.6600   31.2720   24.0610 C.3       1 LEU        -0.0425
     30 CD1        27.9530   31.3270   24.7920 C.3       1 LEU        -0.0625
     31 CD2        25.5770   31.9320   24.8720 C.3       1 LEU        -0.0625
     32 N          26.5500   29.8560   20.4370 N.am      1 ASP        -0.2622
     33 CA         26.0300   28.5570   19.9530 C.3       1 ASP         0.1423
     34 C          27.0950   27.7610   19.1840 C.2       1 ASP         0.2056
     35 O          27.1080   26.5220   19.2010 O.2       1 ASP        -0.3943
     36 CB         24.7770   28.7480   19.0560 C.3       1 ASP         0.0406
     37 CG         23.5730   29.3010   19.8190 C.2       1 ASP         0.0393
     38 OD1        23.1250   28.6650   20.8220 O.co2     1 ASP        -0.5688
     39 OD2        23.0760   30.3770   19.4060 O.co2     1 ASP        -0.5688
     40 N          27.9950   28.4950   18.5230 N.am      1 ARG        -0.2636
     41 CA         29.0850   27.8860   17.7630 C.3       1 ARG         0.1311
     42 C          30.1140   27.2630   18.7060 C.2       1 ARG         0.2039
     43 O          30.8300   26.3170   18.3430 O.2       1 ARG        -0.3944
     44 CB         29.7730   28.9240   16.8530 C.3       1 ARG        -0.0092
     45 CG         29.0810   29.1390   15.5190 C.3       1 ARG        -0.0156
     46 CD         30.0680   29.6500   14.5080 C.3       1 ARG         0.0627
     47 NE         29.4070   30.4270   13.4700 N.pl3     1 ARG        -0.2723
     48 CZ         29.8290   31.6160   13.0570 C.cat     1 ARG         0.2882
     49 NH1        30.9280   32.1560   13.5850 N.pl3     1 ARG        -0.2849
     50 NH2        29.1550   32.2750   12.1220 N.pl3     1 ARG        -0.2849
     51 N          30.1680   27.8090   19.9210 N.am      1 LEU        -0.2637
     52 CA         31.0610   27.3340   20.9540 C.3       1 LEU         0.1312
     53 C          30.3620   26.0780   21.4180 C.2       1 LEU         0.2039
     54 O          30.8580   24.9730   21.2260 O.2       1 LEU        -0.3944
     55 CB         31.1380   28.3660   22.0760 C.3       1 LEU        -0.0101
     56 CG         31.7250   29.6890   21.6040 C.3       1 LEU        -0.0425
     57 CD1        31.1400   30.7830   22.4320 C.3       1 LEU        -0.0625
     58 CD2        33.2480   29.6660   21.7130 C.3       1 LEU        -0.0625
     59 N          29.1790   26.2530   21.9990 N.am      1 LEU        -0.2637
     60 CA         28.3960   25.1220   22.4680 C.3       1 LEU         0.1312
     61 C          28.5330   23.9180   21.5180 C.2       1 LEU         0.2039
     62 O          28.6880   22.7690   21.9610 O.2       1 LEU        -0.3944
     63 CB         26.9360   25.5490   22.5840 C.3       1 LEU        -0.0101
     64 CG         26.7290   26.6440   23.6120 C.3       1 LEU        -0.0425
     65 CD1        25.3700   27.2260   23.4620 C.3       1 LEU        -0.0625
     66 CD2        26.9130   26.0600   24.9870 C.3       1 LEU        -0.0625
     67 N          28.4910   24.1830   20.2080 N.am      1 LEU        -0.2637
     68 CA         28.6140   23.1110   19.2080 C.3       1 LEU         0.1312
     69 C          29.9620   22.3600   19.3460 C.2       1 LEU         0.2039
     70 O          29.9980   21.1270   19.1940 O.2       1 LEU        -0.3944
     71 CB         28.4620   23.6590   17.7670 C.3       1 LEU        -0.0101
     72 CG         27.0910   24.0440   17.2100 C.3       1 LEU        -0.0425
     73 CD1        27.2070   24.2300   15.7000 C.3       1 LEU        -0.0625
     74 CD2        26.0900   22.9300   17.5160 C.3       1 LEU        -0.0625
     75 N          31.0350   23.0870   19.6160 N.am      1 GLU        -0.2636
     76 CA         32.3820   22.5060   19.7980 C.3       1 GLU         0.1325
     77 C          32.4400   21.5030   20.9670 C.2       1 GLU         0.2040
     78 O          33.3050   20.6140   21.0000 O.2       1 GLU        -0.3944
     79 CB         33.4070   23.6150   20.0450 C.3       1 GLU        -0.0008
     80 CG         34.0210   24.1880   18.7980 C.3       1 GLU         0.0044
     81 CD         34.8690   25.4320   19.0610 C.2       1 GLU         0.0350
     82 OE1        34.8280   25.9580   20.1920 O.co2     1 GLU        -0.5690
     83 OE2        35.5660   25.8900   18.1270 O.co2     1 GLU        -0.5690
     84 N          31.5180   21.6550   21.9080 N.am      1 LEU        -0.2637
     85 CA         31.4700   20.7970   23.0910 C.3       1 LEU         0.1312
     86 C          30.8420   19.4160   22.9370 C.2       1 LEU         0.2035
     87 O          31.4030   18.4310   23.4400 O.2       1 LEU        -0.3944
     88 CB         30.7770   21.5330   24.2470 C.3       1 LEU        -0.0101
     89 CG         31.6280   22.5020   25.0380 C.3       1 LEU        -0.0425
     90 CD1        30.7540   23.2170   25.9950 C.3       1 LEU        -0.0625
     91 CD2        32.7180   21.7460   25.7530 C.3       1 LEU        -0.0625
     92 N          29.7100   19.3340   22.2580 N.am      1 ASN        -0.2674
     93 CA         29.0260   18.0540   22.0870 C.3       1 ASN         0.1110
     94 C          29.9180   16.8150   21.9360 C.2       1 ASN         0.0624
     95 O          29.7570   15.8600   22.7670 O.co2     1 ASN        -0.5665
     96 CB         28.0750   18.1440   20.9090 C.3       1 ASN         0.0718
     97 CG         27.0410   19.2330   21.1000 C.2       1 ASN         0.1774
     98 OD1        26.4830   19.3860   22.2040 O.2       1 ASN        -0.3971
     99 ND2        26.7630   19.9940   20.0270 N.am      1 ASN        -0.3007
    100 OXT        30.7460   16.8430   20.9740 O.co2     1 ASN        -0.5665
    101 H1         24.2172   36.3132   20.3610 H         1 LEU         0.2015
    102 H2         24.0394   35.7095   18.8401 H         1 LEU         0.2015
    103 H3         25.5329   35.7785   19.5288 H         1 LEU         0.2015
    104 H4         24.9219   34.2255   21.2044 H         1 LEU         0.1098
    105 H5         22.4765   33.4699   19.6456 H         1 LEU         0.0348
    106 H6         22.3658   34.9259   20.6916 H         1 LEU         0.0348
    107 H7         22.4971   32.0267   21.4124 H         1 LEU         0.0299
    108 H8         23.3167   32.6489   23.6706 H         1 LEU         0.0232
    109 H9         23.5819   34.3307   23.0981 H         1 LEU         0.0232
    110 H10        24.5381   32.9816   22.3962 H         1 LEU         0.0232
    111 H11        20.3611   33.2723   21.5297 H         1 LEU         0.0232
    112 H12        21.1154   34.4635   22.6425 H         1 LEU         0.0232
    113 H13        20.9106   32.7556   23.1599 H         1 LEU         0.0232
    114 H14        24.5926   34.2968   17.6689 H         1 SER         0.1885
    115 H15        24.4236   31.4327   17.3832 H         1 SER         0.0823
    116 H16        24.5152   33.6589   15.5097 H         1 SER         0.0606
    117 H17        23.7462   32.0403   15.3851 H         1 SER         0.0606
    118 H18        25.3467   32.4009   13.7715 H         1 SER         0.2097
    119 H19        26.9569   33.8150   17.8652 H         1 GLU         0.1883
    120 H20        29.2359   32.0969   17.4206 H         1 GLU         0.0801
    121 H21        30.5092   33.8600   18.5247 H         1 GLU         0.0330
    122 H22        29.0227   34.5303   19.2781 H         1 GLU         0.0330
    123 H23        28.9402   35.9235   17.5074 H         1 GLU         0.0433
    124 H24        28.3804   34.4950   16.5732 H         1 GLU         0.0433
    125 H25        27.3041   32.8878   20.3783 H         1 LEU         0.1883
    126 H26        28.8966   31.3788   22.2439 H         1 LEU         0.0800
    127 H27        25.9049   32.0148   22.2175 H         1 LEU         0.0315
    128 H28        27.1969   33.0134   22.9658 H         1 LEU         0.0315
    129 H29        26.3797   30.2248   23.8744 H         1 LEU         0.0298
    130 H30        27.8478   30.8188   25.7619 H         1 LEU         0.0232
    131 H31        28.2365   32.3769   24.9571 H         1 LEU         0.0232
    132 H32        28.7316   30.8260   24.1981 H         1 LEU         0.0232
    133 H33        24.6261   31.8849   24.3210 H         1 LEU         0.0232
    134 H34        25.8440   32.9836   25.0534 H         1 LEU         0.0232
    135 H35        25.4695   31.4098   25.8341 H         1 LEU         0.0232
    136 H36        26.1919   30.6976   20.0326 H         1 ASP         0.1884
    137 H37        25.7343   27.9673   20.8332 H         1 ASP         0.0819
    138 H38        24.5019   27.7734   18.6264 H         1 ASP         0.0478
    139 H39        25.0296   29.4477   18.2457 H         1 ASP         0.0478
    140 H40        27.9205   29.4919   18.5491 H         1 ARG         0.1883
    141 H41        28.6636   27.0916   17.1295 H         1 ARG         0.0800
    142 H42        30.8006   28.5838   16.6574 H         1 ARG         0.0313
    143 H43        29.8003   29.8857   17.3862 H         1 ARG         0.0313
    144 H44        28.2715   29.8735   15.6421 H         1 ARG         0.0301
    145 H45        28.6603   28.1851   15.1683 H         1 ARG         0.0301
    146 H46        30.5808   28.7947   14.0437 H         1 ARG         0.0689
    147 H47        30.8057   30.2872   15.0176 H         1 ARG         0.0689
    148 H48        28.5634   30.0317   13.0306 H         1 ARG         0.2642
    149 H49        31.2540   33.0786   13.2634 H         1 ARG         0.2615
    150 H50        31.4508   31.6505   14.3144 H         1 ARG         0.2615
    151 H51        28.3056   31.8615   11.7115 H         1 ARG         0.2615
    152 H52        29.4815   33.1997   11.8071 H         1 ARG         0.2615
    153 H53        29.5652   28.5799   20.1266 H         1 LEU         0.1883
    154 H54        32.0671   27.1200   20.5642 H         1 LEU         0.0800
    155 H55        31.7705   27.9658   22.8821 H         1 LEU         0.0315
    156 H56        30.1235   28.5464   22.4611 H         1 LEU         0.0315
    157 H57        31.4511   29.8508   20.5510 H         1 LEU         0.0298
    158 H58        31.5520   31.7496   22.1064 H         1 LEU         0.0232
    159 H59        31.3898   30.6157   23.4901 H         1 LEU         0.0232
    160 H60        30.0468   30.7906   22.3101 H         1 LEU         0.0232
    161 H61        33.6477   28.8503   21.0926 H         1 LEU         0.0232
    162 H62        33.5382   29.5050   22.7617 H         1 LEU         0.0232
    163 H63        33.6552   30.6261   21.3631 H         1 LEU         0.0232
    164 H64        28.8215   27.1796   22.1154 H         1 LEU         0.1883
    165 H65        28.7614   24.8251   23.4621 H         1 LEU         0.0800
    166 H66        26.3352   24.6747   22.8747 H         1 LEU         0.0315
    167 H67        26.5976   25.9171   21.6042 H         1 LEU         0.0315
    168 H68        27.4754   27.4365   23.4547 H         1 LEU         0.0298
    169 H69        25.2263   28.0193   24.2103 H         1 LEU         0.0232
    170 H70        24.6157   26.4396   23.6120 H         1 LEU         0.0232
    171 H71        25.2620   27.6500   22.4528 H         1 LEU         0.0232
    172 H72        27.9245   25.6364   25.0731 H         1 LEU         0.0232
    173 H73        26.1683   25.2673   25.1514 H         1 LEU         0.0232
    174 H74        26.7808   26.8495   25.7414 H         1 LEU         0.0232
    175 H75        28.3737   25.1279   19.9022 H         1 LEU         0.1883
    176 H76        27.8020   22.3907   19.3865 H         1 LEU         0.0800
    177 H77        28.8669   22.8879   17.0951 H         1 LEU         0.0315
    178 H78        29.0878   24.5617   17.7084 H         1 LEU         0.0315
    179 H79        26.7516   24.9820   17.6736 H         1 LEU         0.0298
    180 H80        26.2254   24.5075   15.2883 H         1 LEU         0.0232
    181 H81        27.5452   23.2900   15.2396 H         1 LEU         0.0232
    182 H82        27.9339   25.0267   15.4834 H         1 LEU         0.0232
    183 H83        26.0090   22.7988   18.6051 H         1 LEU         0.0232
    184 H84        26.4350   21.9911   17.0583 H         1 LEU         0.0232
    185 H85        25.1057   23.1984   17.1049 H         1 LEU         0.0232
    186 H86        30.9290   24.0777   19.7010 H         1 GLU         0.1883
    187 H87        32.6516   21.9746   18.8734 H         1 GLU         0.0801
    188 H88        34.2151   23.2031   20.6674 H         1 GLU         0.0330
    189 H89        32.9062   24.4307   20.5870 H         1 GLU         0.0330
    190 H90        33.2127   24.4567   18.1020 H         1 GLU         0.0433
    191 H91        34.6604   23.4199   18.3384 H         1 GLU         0.0433
    192 H92        30.8350   22.3782   21.8054 H         1 LEU         0.1883
    193 H93        32.5166   20.6265   23.3834 H         1 LEU         0.0800
    194 H94        30.3974   20.7738   24.9466 H         1 LEU         0.0315
    195 H95        29.9325   22.0976   23.8250 H         1 LEU         0.0315
    196 H96        32.0878   23.2308   24.3543 H         1 LEU         0.0298
    197 H97        31.3557   23.9276   26.5807 H         1 LEU         0.0232
    198 H98        30.2813   22.4910   26.6729 H         1 LEU         0.0232
    199 H99        29.9755   23.7638   25.4427 H         1 LEU         0.0232
    200 H100       33.3484   21.2270   25.0159 H         1 LEU         0.0232
    201 H101       32.2672   21.0088   26.4337 H         1 LEU         0.0232
    202 H102       33.3342   22.4503   26.3312 H         1 LEU         0.0232
    203 H103       29.3162   20.1604   21.8555 H         1 ASN         0.1877
    204 H104       28.4252   17.8969   22.9949 H         1 ASN         0.0752
    205 H105       27.5586   17.1796   20.7944 H         1 ASN         0.0544
    206 H106       28.6549   18.3599   19.9995 H         1 ASN         0.0544
    207 H107       26.0877   20.7283   20.0962 H         1 ASN         0.1814
    208 H108       27.2315   19.8257   19.1597 H         1 ASN         0.1814
@<TRIPOS>BOND
     1    1    2 1  
     2    2    3 1  
     3    2    5 1  
     4    3    4 2  
     5    3    9 am 
     6    5    6 1  
     7    6    7 1  
     8    6    8 1  
     9    9   10 1  
    10   10   11 1  
    11   10   13 1  
    12   11   12 2  
    13   11   15 am 
    14   13   14 1  
    15   15   16 1  
    16   16   17 1  
    17   16   19 1  
    18   17   18 2  
    19   17   24 am 
    20   19   20 1  
    21   20   21 1  
    22   21   22 ar 
    23   21   23 ar 
    24   24   25 1  
    25   25   26 1  
    26   25   28 1  
    27   26   27 2  
    28   26   32 am 
    29   28   29 1  
    30   29   30 1  
    31   29   31 1  
    32   32   33 1  
    33   33   34 1  
    34   33   36 1  
    35   34   35 2  
    36   34   40 am 
    37   36   37 1  
    38   37   38 ar 
    39   37   39 ar 
    40   40   41 1  
    41   41   42 1  
    42   41   44 1  
    43   42   43 2  
    44   42   51 am 
    45   44   45 1  
    46   45   46 1  
    47   46   47 1  
    48   47   48 ar 
    49   48   49 ar 
    50   48   50 ar 
    51   51   52 1  
    52   52   53 1  
    53   52   55 1  
    54   53   54 2  
    55   53   59 am 
    56   55   56 1  
    57   56   57 1  
    58   56   58 1  
    59   59   60 1  
    60   60   61 1  
    61   60   63 1  
    62   61   62 2  
    63   61   67 am 
    64   63   64 1  
    65   64   65 1  
    66   64   66 1  
    67   67   68 1  
    68   68   69 1  
    69   68   71 1  
    70   69   70 2  
    71   69   75 am 
    72   71   72 1  
    73   72   73 1  
    74   72   74 1  
    75   75   76 1  
    76   76   77 1  
    77   76   79 1  
    78   77   78 2  
    79   77   84 am 
    80   79   80 1  
    81   80   81 1  
    82   81   82 ar 
    83   81   83 ar 
    84   84   85 1  
    85   85   86 1  
    86   85   88 1  
    87   86   87 2  
    88   86   92 am 
    89   88   89 1  
    90   89   90 1  
    91   89   91 1  
    92   92   93 1  
    93   93   94 1  
    94   93   96 1  
    95   94   95 ar 
    96   94  100 ar 
    97   96   97 1  
    98   97   98 2  
    99   97   99 am 
   100    1  101 1  
   101    1  102 1  
   102    1  103 1  
   103    2  104 1  
   104    5  105 1  
   105    5  106 1  
   106    6  107 1  
   107    7  108 1  
   108    7  109 1  
   109    7  110 1  
   110    8  111 1  
   111    8  112 1  
   112    8  113 1  
   113    9  114 1  
   114   10  115 1  
   115   13  116 1  
   116   13  117 1  
   117   14  118 1  
   118   15  119 1  
   119   16  120 1  
   120   19  121 1  
   121   19  122 1  
   122   20  123 1  
   123   20  124 1  
   124   24  125 1  
   125   25  126 1  
   126   28  127 1  
   127   28  128 1  
   128   29  129 1  
   129   30  130 1  
   130   30  131 1  
   131   30  132 1  
   132   31  133 1  
   133   31  134 1  
   134   31  135 1  
   135   32  136 1  
   136   33  137 1  
   137   36  138 1  
   138   36  139 1  
   139   40  140 1  
   140   41  141 1  
   141   44  142 1  
   142   44  143 1  
   143   45  144 1  
   144   45  145 1  
   145   46  146 1  
   146   46  147 1  
   147   47  148 1  
   148   49  149 1  
   149   49  150 1  
   150   50  151 1  
   151   50  152 1  
   152   51  153 1  
   153   52  154 1  
   154   55  155 1  
   155   55  156 1  
   156   56  157 1  
   157   57  158 1  
   158   57  159 1  
   159   57  160 1  
   160   58  161 1  
   161   58  162 1  
   162   58  163 1  
   163   59  164 1  
   164   60  165 1  
   165   63  166 1  
   166   63  167 1  
   167   64  168 1  
   168   65  169 1  
   169   65  170 1  
   170   65  171 1  
   171   66  172 1  
   172   66  173 1  
   173   66  174 1  
   174   67  175 1  
   175   68  176 1  
   176   71  177 1  
   177   71  178 1  
   178   72  179 1  
   179   73  180 1  
   180   73  181 1  
   181   73  182 1  
   182   74  183 1  
   183   74  184 1  
   184   74  185 1  
   185   75  186 1  
   186   76  187 1  
   187   79  188 1  
   188   79  189 1  
   189   80  190 1  
   190   80  191 1  
   191   84  192 1  
   192   85  193 1  
   193   88  194 1  
   194   88  195 1  
   195   89  196 1  
   196   90  197 1  
   197   90  198 1  
   198   90  199 1  
   199   91  200 1  
   200   91  201 1  
   201   91  202 1  
   202   92  203 1  
   203   93  204 1  
   204   96  205 1  
   205   96  206 1  
   206   99  207 1  
   207   99  208 1  
@<TRIPOS>SUBSTRUCTURE
     1 LEU         1

