5jn9_ligand
  -I-interpret- 

 26 27  0  0  0  0  0  0  0  0999 V2000
   32.9870    8.4420   18.4240 N   0  0  0  0  0
   36.6040    8.9220   20.7360 C   0  0  0  0  0
   36.9790   10.2680   20.3000 C   0  0  0  0  0
   38.2630   10.7380   20.5290 C   0  0  0  0  0
   39.2010    9.9130   21.1520 C   0  0  0  0  0
   41.2230   11.2390   20.6100 C   0  0  0  0  0
   32.7880   10.9950   18.7310 O   0  0  0  0  0
   32.3230    9.4870   20.4550 O   0  0  0  0  0
   33.1670    9.7430   19.3210 S   0  0  0  0  0
   34.7640    9.7850   19.7990 C   0  0  0  0  0
   35.3140    8.7090   20.4050 N   0  0  0  0  0
   35.7760   11.1910   19.5750 S   0  0  0  0  0
   38.8570    8.6210   21.5550 C   0  0  0  0  0
   37.5750    8.1380   21.3550 C   0  0  0  0  0
   40.4930   10.3040   21.4100 O   0  0  0  0  0
   42.5900   10.6700   20.2760 C   0  0  0  0  0
   32.6171    8.5227   17.4769 H   0  0  0  0  0
   33.2415    7.5269   18.7959 H   0  0  0  0  0
   38.5389   11.7474   20.2239 H   0  0  0  0  0
   41.3449   12.1700   21.1636 H   0  0  0  0  0
   40.6756   11.4289   19.6868 H   0  0  0  0  0
   39.6047    7.9869   22.0314 H   0  0  0  0  0
   37.3221    7.1308   21.6863 H   0  0  0  0  0
   43.1377   10.4784   21.1987 H   0  0  0  0  0
   42.4692    9.7382   19.7235 H   0  0  0  0  0
   43.1413   11.3862   19.6668 H   0  0  0  0  0
  9  1  1  0  0  0
  2  3  4  0  0  0
 11  2  4  0  0  0
  2 14  4  0  0  0
  3  4  4  0  0  0
  3 12  4  0  0  0
  4  5  4  0  0  0
  5 13  4  0  0  0
  5 15  1  0  0  0
 15  6  1  0  0  0
  6 16  1  0  0  0
  9  7  2  0  0  0
  9  8  2  0  0  0
 10  9  1  0  0  0
 10 11  4  0  0  0
 10 12  4  0  0  0
 13 14  4  0  0  0
  1 17  1  0  0  0
  1 18  1  0  0  0
  4 19  1  0  0  0
  6 20  1  0  0  0
  6 21  1  0  0  0
 13 22  1  0  0  0
 14 23  1  0  0  0
 16 24  1  0  0  0
 16 25  1  0  0  0
 16 26  1  0  0  0
M  END
$$$$
