6sfj_ligand
  -I-interpret- 

 72 75  0  0  0  0  0  0  0  0999 V2000
   -3.0010   35.6810   22.7710 N   0  0  0  0  0
   -5.1430   40.3660   16.6980 C   0  0  0  0  0
   -0.3810   40.8100   16.4640 O   0  0  0  0  0
   -1.5730   42.2610   15.1970 N   0  0  0  0  0
   -2.7630   40.8030   16.7720 C   0  0  0  0  0
   -0.4250   45.0490   15.1720 N   0  0  0  0  0
   -2.6530   39.8800   17.8210 C   0  0  0  0  0
   -3.7660   39.1640   18.2820 C   0  0  0  0  0
   -1.4750   41.2970   16.1360 C   0  0  0  0  0
   -0.4400   42.7260   14.3900 C   0  0  0  0  0
   -0.5900   44.2340   14.1280 C   0  0  0  0  0
   -0.8350   44.6480   12.9870 O   0  0  0  0  0
   -0.3850   41.9290   13.0790 C   0  0  0  0  0
    0.8290   42.0920   12.1600 C   0  0  0  0  0
    2.2100   41.7490   12.7010 C   0  0  0  0  0
    3.2920   41.9370   11.6140 C   0  0  0  0  0
    4.6840   41.4920   12.0690 C   0  0  0  0  0
    4.6660   40.0760   12.5790 C   0  0  0  0  0
    3.6550   39.9260   13.7160 C   0  0  0  0  0
    2.2610   40.3340   13.2600 C   0  0  0  0  0
   -4.0270   41.0480   16.2270 C   0  0  0  0  0
   -5.0560   39.4300   17.7350 C   0  0  0  0  0
   -6.3120   38.8820   18.3790 C   0  0  0  0  0
   -3.7620   38.4020   19.4720 N   0  0  0  0  0
   -3.4040   38.7440   20.6870 C   0  0  0  0  0
   -3.4510   39.9200   21.0410 O   0  0  0  0  0
   -3.1830   37.6660   21.6900 C   0  0  0  0  0
   -2.9130   37.9150   23.0210 C   0  0  0  0  0
   -2.8040   36.7190   23.6340 N   0  0  0  0  0
   -3.2340   36.2610   21.6090 C   0  0  0  0  0
   -2.5250   36.4500   25.0090 C   0  0  0  0  0
   -1.2110   36.4890   25.4710 C   0  0  0  0  0
   -0.0560   36.8500   24.5740 C   0  0  0  0  0
   -0.9910   36.1850   26.8180 C   0  0  0  0  0
   -2.0380   35.8600   27.6630 C   0  0  0  0  0
   -3.3330   35.8390   27.1860 C   0  0  0  0  0
   -3.5920   36.1360   25.8570 C   0  0  0  0  0
   -6.1146   40.5661   16.2463 H   0  0  0  0  0
   -2.4850   42.6899   15.0398 H   0  0  0  0  0
   -0.4995   46.0586   15.0476 H   0  0  0  0  0
   -0.2244   44.6622   16.0942 H   0  0  0  0  0
   -1.6818   39.7157   18.2878 H   0  0  0  0  0
    0.4971   42.5638   14.9226 H   0  0  0  0  0
   -1.2300   42.2925   12.4943 H   0  0  0  0  0
   -0.3650   40.8836   13.3871 H   0  0  0  0  0
    0.8710   43.1575   11.9339 H   0  0  0  0  0
    0.6624   41.3881   11.3446 H   0  0  0  0  0
    2.4153   42.4386   13.5198 H   0  0  0  0  0
    3.3444   43.0001   11.3793 H   0  0  0  0  0
    3.0115   41.3234   10.7579 H   0  0  0  0  0
    5.0112   42.1474   12.8762 H   0  0  0  0  0
    5.3612   41.5452   11.2165 H   0  0  0  0  0
    5.6580   39.8228   12.9530 H   0  0  0  0  0
    4.3817   39.4107   11.7637 H   0  0  0  0  0
    3.9569   40.5710   14.5411 H   0  0  0  0  0
    3.6304   38.8819   14.0280 H   0  0  0  0  0
    1.9578   39.6516   12.4659 H   0  0  0  0  0
    1.6026   40.2953   14.1278 H   0  0  0  0  0
   -4.1382   41.7795   15.4266 H   0  0  0  0  0
   -6.8825   39.7019   18.8154 H   0  0  0  0  0
   -6.9161   38.3788   17.6240 H   0  0  0  0  0
   -6.0385   38.1721   19.1596 H   0  0  0  0  0
   -4.0866   37.4403   19.3711 H   0  0  0  0  0
   -2.8078   38.8941   23.4883 H   0  0  0  0  0
   -3.4426   35.7140   20.6895 H   0  0  0  0  0
   -0.0021   36.1392   23.7494 H   0  0  0  0  0
   -0.2043   37.8553   24.1797 H   0  0  0  0  0
    0.8712   36.8158   25.1461 H   0  0  0  0  0
    0.0257   36.2044   27.2106 H   0  0  0  0  0
   -1.8393   35.6201   28.7075 H   0  0  0  0  0
   -4.1548   35.5880   27.8566 H   0  0  0  0  0
   -4.6139   36.1250   25.4778 H   0  0  0  0  0
  1 29  4  0  0  0
 30  1  4  0  0  0
  2 21  4  0  0  0
 22  2  4  0  0  0
  9  3  2  0  0  0
  9  4  1  0  0  0
  4 10  1  0  0  0
  7  5  4  0  0  0
  5  9  1  0  0  0
  5 21  4  0  0  0
 11  6  1  0  0  0
  8  7  4  0  0  0
  8 22  4  0  0  0
 24  8  1  0  0  0
 10 11  1  0  0  0
 10 13  1  0  0  0
 11 12  2  0  0  0
 13 14  1  0  0  0
 14 15  1  0  0  0
 15 16  1  0  0  0
 15 20  1  0  0  0
 16 17  1  0  0  0
 17 18  1  0  0  0
 19 18  1  0  0  0
 20 19  1  0  0  0
 22 23  1  0  0  0
 25 24  1  0  0  0
 25 26  2  0  0  0
 27 25  1  0  0  0
 27 28  4  0  0  0
 27 30  4  0  0  0
 28 29  4  0  0  0
 29 31  1  0  0  0
 31 32  4  0  0  0
 31 37  4  0  0  0
 32 33  1  0  0  0
 32 34  4  0  0  0
 34 35  4  0  0  0
 35 36  4  0  0  0
 36 37  4  0  0  0
  2 38  1  0  0  0
  4 39  1  0  0  0
  6 40  1  0  0  0
  6 41  1  0  0  0
  7 42  1  0  0  0
 10 43  1  0  0  0
 13 44  1  0  0  0
 13 45  1  0  0  0
 14 46  1  0  0  0
 14 47  1  0  0  0
 15 48  1  0  0  0
 16 49  1  0  0  0
 16 50  1  0  0  0
 17 51  1  0  0  0
 17 52  1  0  0  0
 18 53  1  0  0  0
 18 54  1  0  0  0
 19 55  1  0  0  0
 19 56  1  0  0  0
 20 57  1  0  0  0
 20 58  1  0  0  0
 21 59  1  0  0  0
 23 60  1  0  0  0
 23 61  1  0  0  0
 23 62  1  0  0  0
 24 63  1  0  0  0
 28 64  1  0  0  0
 30 65  1  0  0  0
 33 66  1  0  0  0
 33 67  1  0  0  0
 33 68  1  0  0  0
 34 69  1  0  0  0
 35 70  1  0  0  0
 36 71  1  0  0  0
 37 72  1  0  0  0
M  END
$$$$
