5qck_ligand
  -I-interpret- 

 62 66  0  0  0  0  0  0  0  0999 V2000
   40.1560  -15.6590   26.7520 N   0  0  0  0  0
   40.3840  -21.4220   29.1820 C   0  0  0  0  0
   39.2140  -19.2590   29.3420 C   0  0  0  0  0
   40.2130  -22.6470   28.2320 C   0  0  0  0  0
   38.9400  -22.3050   27.4390 C   0  0  0  0  0
   38.9250  -20.7970   27.3660 C   0  0  0  0  0
   41.8510  -20.9870   29.1420 C   0  0  0  0  0
   40.2580  -24.0450   28.8060 C   0  0  0  0  0
   40.5070  -24.2860   30.1510 C   0  0  0  0  0
   38.9330  -15.1970   25.0160 C   0  0  0  0  0
   46.7090  -21.5630   31.0410 C   0  0  0  0  0
   40.2660  -26.4240   28.4210 C   0  0  0  0  0
   46.2830  -21.0480   29.8140 C   0  0  0  0  0
   34.2060  -14.4520   29.8690 Cl  0  0  0  0  0
   37.1290  -13.8520   27.2120 C   0  0  0  0  0
   35.9980  -13.6810   27.9940 C   0  0  0  0  0
   35.6300  -14.6750   28.8780 C   0  0  0  0  0
   36.3740  -15.8310   29.0140 C   0  0  0  0  0
   37.5430  -15.9960   28.2610 C   0  0  0  0  0
   37.8870  -15.0160   27.3120 C   0  0  0  0  0
   38.9290  -15.2400   26.3550 N   0  0  0  0  0
   38.4580  -17.0630   28.6720 C   0  0  0  0  0
   38.2070  -18.3410   28.7700 C   0  0  0  0  0
   40.0930  -15.5910   24.5660 N   0  0  0  0  0
   40.8370  -15.8710   25.6690 N   0  0  0  0  0
   39.8170  -19.0020   30.3840 O   0  0  0  0  0
   39.4800  -20.4080   28.6630 N   0  0  0  0  0
   40.6380  -25.5770   30.6210 C   0  0  0  0  0
   40.5270  -26.6480   29.7560 C   0  0  0  0  0
   40.1280  -25.1320   27.9480 C   0  0  0  0  0
   42.3100  -20.3990   28.1660 O   0  0  0  0  0
   42.5720  -21.3890   30.2190 N   0  0  0  0  0
   43.9770  -21.4020   30.4250 C   0  0  0  0  0
   44.9330  -20.9720   29.5060 C   0  0  0  0  0
   45.7440  -21.9780   31.9560 C   0  0  0  0  0
   44.3960  -21.9010   31.6540 C   0  0  0  0  0
   48.1630  -21.6830   31.3800 C   0  0  0  0  0
   48.5450  -22.2360   32.4180 O   0  0  0  0  0
   48.9890  -21.2120   30.4840 O   0  0  0  0  0
   40.1451  -21.6281   30.2253 H   0  0  0  0  0
   41.1067  -22.7550   27.6174 H   0  0  0  0  0
   38.0442  -22.6970   27.9206 H   0  0  0  0  0
   38.9446  -22.7593   26.4482 H   0  0  0  0  0
   37.9297  -20.3892   27.1893 H   0  0  0  0  0
   39.4961  -20.4058   26.5240 H   0  0  0  0  0
   40.5998  -23.4479   30.8417 H   0  0  0  0  0
   38.0941  -14.8807   24.3960 H   0  0  0  0  0
   40.1682  -27.2670   27.7370 H   0  0  0  0  0
   47.0207  -20.7018   29.0901 H   0  0  0  0  0
   37.4275  -13.0701   26.5137 H   0  0  0  0  0
   35.4047  -12.7703   27.9118 H   0  0  0  0  0
   36.0526  -16.6110   29.7042 H   0  0  0  0  0
   39.4714  -16.7530   28.9271 H   0  0  0  0  0
   37.2491  -18.7328   28.4279 H   0  0  0  0  0
   40.8299  -25.7522   31.6796 H   0  0  0  0  0
   40.6453  -27.6660   30.1273 H   0  0  0  0  0
   39.9152  -24.9637   26.8923 H   0  0  0  0  0
   42.0187  -21.7358   31.0025 H   0  0  0  0  0
   44.6180  -20.5744   28.5412 H   0  0  0  0  0
   46.0556  -22.3693   32.9244 H   0  0  0  0  0
   43.6577  -22.2334   32.3837 H   0  0  0  0  0
   48.4891  -20.8257   29.7612 H   0  0  0  0  0
 21  1  4  0  0  0
  1 25  4  0  0  0
  2  4  1  0  0  0
  7  2  1  0  0  0
  2 27  1  0  0  0
  3 23  1  0  0  0
  3 26  2  0  0  0
 27  3  1  0  0  0
  4  5  1  0  0  0
  4  8  1  0  0  0
  6  5  1  0  0  0
 27  6  1  0  0  0
  7 31  2  0  0  0
 32  7  1  0  0  0
  8  9  4  0  0  0
  8 30  4  0  0  0
  9 28  4  0  0  0
 21 10  4  0  0  0
 10 24  4  0  0  0
 13 11  4  0  0  0
 11 35  4  0  0  0
 11 37  1  0  0  0
 12 29  4  0  0  0
 30 12  4  0  0  0
 34 13  4  0  0  0
 17 14  1  0  0  0
 15 16  4  0  0  0
 20 15  4  0  0  0
 17 16  4  0  0  0
 18 17  4  0  0  0
 19 18  4  0  0  0
 19 20  4  0  0  0
 22 19  1  0  0  0
 20 21  1  0  0  0
 23 22  2  0  0  0
 24 25  4  0  0  0
 28 29  4  0  0  0
 33 32  1  0  0  0
 33 34  4  0  0  0
 33 36  4  0  0  0
 35 36  4  0  0  0
 37 38  2  0  0  0
 37 39  1  0  0  0
  2 40  1  0  0  0
  4 41  1  0  0  0
  5 42  1  0  0  0
  5 43  1  0  0  0
  6 44  1  0  0  0
  6 45  1  0  0  0
  9 46  1  0  0  0
 10 47  1  0  0  0
 12 48  1  0  0  0
 13 49  1  0  0  0
 15 50  1  0  0  0
 16 51  1  0  0  0
 18 52  1  0  0  0
 22 53  1  0  0  0
 23 54  1  0  0  0
 28 55  1  0  0  0
 29 56  1  0  0  0
 30 57  1  0  0  0
 32 58  1  0  0  0
 34 59  1  0  0  0
 35 60  1  0  0  0
 36 61  1  0  0  0
 39 62  1  0  0  0
M  END
$$$$
