5gmp_ligand
  -I-interpret- 

 73 77  0  0  0  0  0  0  0  0999 V2000
   -0.5850  -52.2950  123.2460 C   0  0  0  0  0
   -1.1570  -53.2860  122.4780 C   0  0  0  0  0
   -1.9300  -54.2390  123.1000 C   0  0  0  0  0
   -2.0990  -54.1640  124.4610 N   0  0  0  0  0
   -0.7730  -52.2710  124.5660 N   0  0  0  0  0
    6.3440  -51.1810  125.6800 C   0  0  0  0  0
    6.1010  -49.7030  125.9070 C   0  0  0  0  0
    4.6270  -49.4120  125.6910 C   0  0  0  0  0
    4.0080  -48.6990  126.4650 O   0  0  0  0  0
    4.0800  -49.9800  124.6270 N   0  0  0  0  0
    2.7920  -49.7470  124.4280 C   0  0  0  0  0
    2.0710  -50.6260  123.6530 C   0  0  0  0  0
    2.1480  -48.6500  124.9720 C   0  0  0  0  0
    0.7950  -48.4540  124.7280 C   0  0  0  0  0
    0.0720  -49.3470  123.9480 C   0  0  0  0  0
    0.7300  -50.4340  123.4090 C   0  0  0  0  0
    0.1520  -51.3560  122.6590 N   0  0  0  0  0
    0.3790  -51.3650  121.3480 C   0  0  0  0  0
    1.0730  -50.4950  120.8470 O   0  0  0  0  0
   -0.1730  -52.3300  120.5330 C   0  0  0  0  0
   -0.9540  -53.3110  121.1040 C   0  0  0  0  0
   -1.5180  -54.2920  120.3100 C   0  0  0  0  0
   -1.5250  -53.1930  125.1590 C   0  0  0  0  0
   -1.7310  -53.1890  126.4610 N   0  0  0  0  0
   -1.2350  -52.2300  127.2060 C   0  0  0  0  0
   -1.9330  -51.9750  128.3620 C   0  0  0  0  0
   -1.5240  -51.0100  129.2430 C   0  0  0  0  0
   -3.0330  -52.7200  128.5730 O   0  0  0  0  0
   -3.5490  -52.4850  129.8710 C   0  0  0  0  0
   -0.0880  -51.5340  126.8970 C   0  0  0  0  0
    0.3350  -50.5530  127.7830 C   0  0  0  0  0
   -0.3810  -50.3000  128.9430 C   0  0  0  0  0
    0.0080  -49.3560  129.7920 N   0  0  0  0  0
   -0.9750  -48.8570  130.7700 C   0  0  0  0  0
   -0.3240  -48.2980  131.9970 C   0  0  0  0  0
    0.7890  -47.4300  131.6330 N   0  3  0  0  0
    1.3340  -46.8510  132.8600 C   0  0  0  0  0
    1.8290  -48.2460  131.0150 C   0  0  0  0  0
    1.3630  -48.7980  129.6950 C   0  0  0  0  0
   -2.3987  -55.0372  122.5245 H   0  0  0  0  0
    5.7453  -51.7587  126.3843 H   0  0  0  0  0
    6.0604  -51.4421  124.6604 H   0  0  0  0  0
    7.4004  -51.4018  125.8326 H   0  0  0  0  0
    6.6996  -49.1183  125.2085 H   0  0  0  0  0
    6.3860  -49.4333  126.9239 H   0  0  0  0  0
    4.6230  -50.5667  123.9935 H   0  0  0  0  0
    2.5725  -51.4930  123.2230 H   0  0  0  0  0
    2.7006  -47.9422  125.5898 H   0  0  0  0  0
    0.2928  -47.5860  125.1552 H   0  0  0  0  0
   -0.9915  -49.1929  123.7655 H   0  0  0  0  0
    0.0049  -52.3172  119.4577 H   0  0  0  0  0
   -2.1723  -53.8284  119.5717 H   0  0  0  0  0
   -0.7281  -54.8446  119.8013 H   0  0  0  0  0
   -2.0968  -54.9738  120.9331 H   0  0  0  0  0
   -2.2783  -53.9347  126.8909 H   0  0  0  0  0
   -2.0858  -50.8090  130.1551 H   0  0  0  0  0
   -2.7950  -52.7471  130.6133 H   0  0  0  0  0
   -3.8092  -51.4313  129.9719 H   0  0  0  0  0
   -4.4385  -53.0964  130.0232 H   0  0  0  0  0
    0.4703  -51.7467  125.9853 H   0  0  0  0  0
    1.2352  -49.9782  127.5656 H   0  0  0  0  0
   -1.6046  -49.6936  131.0730 H   0  0  0  0  0
   -1.5464  -48.0583  130.2971 H   0  0  0  0  0
    0.0523  -49.1209  132.6047 H   0  0  0  0  0
   -1.0587  -47.7172  132.5547 H   0  0  0  0  0
    0.4790  -46.6994  130.9922 H   0  0  0  0  0
    0.5579  -46.2756  133.3647 H   0  0  0  0  0
    1.6794  -47.6506  133.5153 H   0  0  0  0  0
    2.1696  -46.1966  132.6115 H   0  0  0  0  0
    2.0643  -49.0772  131.6797 H   0  0  0  0  0
    2.7081  -47.6244  130.8449 H   0  0  0  0  0
    1.3507  -47.9869  128.9670 H   0  0  0  0  0
    2.0435  -49.5948  129.3948 H   0  0  0  0  0
  1  2  4  0  0  0
  1  5  4  0  0  0
 17  1  1  0  0  0
  2  3  4  0  0  0
  2 21  1  0  0  0
  3  4  4  0  0  0
 23  4  4  0  0  0
  5 23  4  0  0  0
  7  6  1  0  0  0
  8  7  1  0  0  0
  8  9  2  0  0  0
 10  8  1  0  0  0
 11 10  1  0  0  0
 12 11  4  0  0  0
 11 13  4  0  0  0
 16 12  4  0  0  0
 14 13  4  0  0  0
 15 14  4  0  0  0
 16 15  4  0  0  0
 16 17  1  0  0  0
 17 18  1  0  0  0
 18 19  2  0  0  0
 18 20  1  0  0  0
 20 21  2  0  0  0
 21 22  1  0  0  0
 23 24  1  0  0  0
 24 25  1  0  0  0
 25 26  4  0  0  0
 25 30  4  0  0  0
 26 27  4  0  0  0
 26 28  1  0  0  0
 27 32  4  0  0  0
 28 29  1  0  0  0
 30 31  4  0  0  0
 31 32  4  0  0  0
 32 33  1  0  0  0
 33 34  1  0  0  0
 33 39  1  0  0  0
 34 35  1  0  0  0
 35 36  1  0  0  0
 36 37  1  0  0  0
 36 38  1  0  0  0
 38 39  1  0  0  0
  3 40  1  0  0  0
  6 41  1  0  0  0
  6 42  1  0  0  0
  6 43  1  0  0  0
  7 44  1  0  0  0
  7 45  1  0  0  0
 10 46  1  0  0  0
 12 47  1  0  0  0
 13 48  1  0  0  0
 14 49  1  0  0  0
 15 50  1  0  0  0
 20 51  1  0  0  0
 22 52  1  0  0  0
 22 53  1  0  0  0
 22 54  1  0  0  0
 24 55  1  0  0  0
 27 56  1  0  0  0
 29 57  1  0  0  0
 29 58  1  0  0  0
 29 59  1  0  0  0
 30 60  1  0  0  0
 31 61  1  0  0  0
 34 62  1  0  0  0
 34 63  1  0  0  0
 35 64  1  0  0  0
 35 65  1  0  0  0
 36 66  1  0  0  0
 37 67  1  0  0  0
 37 68  1  0  0  0
 37 69  1  0  0  0
 38 70  1  0  0  0
 38 71  1  0  0  0
 39 72  1  0  0  0
 39 73  1  0  0  0
M  END
$$$$
