5x13_ligand
  -I-interpret- 

 20 20  0  0  0  0  0  0  0  0999 V2000
   -5.2890  -11.7400    9.9680 C   0  0  0  0  0
   -5.9870  -11.7170   11.0460 O   0  0  0  0  0
   -4.0700  -11.9660    9.9600 O   0  0  0  0  0
   -5.8960  -11.4440    8.6910 C   0  0  0  0  0
   -7.1850  -11.2090    8.5380 C   0  0  0  0  0
   -7.7920  -10.8710    7.2450 C   0  0  0  0  0
   -9.1390  -10.6090    7.2720 C   0  0  0  0  0
   -9.8270  -10.2250    6.1410 C   0  0  0  0  0
   -9.1340  -10.0980    4.9190 C   0  0  0  0  0
   -7.7830  -10.3870    4.8800 C   0  0  0  0  0
   -7.0860  -10.7380    6.0270 C   0  0  0  0  0
   -9.8510   -9.7500    3.8260 O   0  0  0  0  0
   -6.9023  -11.5252   10.8292 H   0  0  0  0  0
   -5.2564  -11.4133    7.8090 H   0  0  0  0  0
   -7.8306  -11.2687    9.4142 H   0  0  0  0  0
   -9.6794  -10.7073    8.2135 H   0  0  0  0  0
  -10.8967  -10.0214    6.1905 H   0  0  0  0  0
   -7.2541  -10.3381    3.9282 H   0  0  0  0  0
   -6.0101  -10.9087    5.9899 H   0  0  0  0  0
   -9.2677   -9.6976    3.0654 H   0  0  0  0  0
  1  2  1  0  0  0
  1  3  2  0  0  0
  1  4  1  0  0  0
  4  5  2  0  0  0
  5  6  1  0  0  0
  6  7  4  0  0  0
  6 11  4  0  0  0
  7  8  4  0  0  0
  8  9  4  0  0  0
  9 10  4  0  0  0
  9 12  1  0  0  0
 10 11  4  0  0  0
  2 13  1  0  0  0
  4 14  1  0  0  0
  5 15  1  0  0  0
  7 16  1  0  0  0
  8 17  1  0  0  0
 10 18  1  0  0  0
 11 19  1  0  0  0
 12 20  1  0  0  0
M  END
$$$$
