3ujc_ligand
  -I-interpret- 

 26 25  0  0  0  0  0  0  0  0999 V2000
   15.4280   10.4780   19.9340 P   0  0  0  0  0
   16.0360    9.8890   21.1940 O   0  0  0  0  0
   15.1380    9.3830   18.9210 O   0  0  0  0  0
   14.2150   11.3450   20.2000 O   0  0  0  0  0
   16.5800   11.3850   19.3450 O   0  0  0  0  0
   16.2910   12.2560   18.2430 C   0  0  0  0  0
   17.4710   13.1420   17.8310 C   0  0  0  0  0
   17.7840   14.2940   18.7310 N   0  3  0  0  0
   16.5470   15.1680   18.8420 C   0  0  0  0  0
   18.9230   14.9870   18.1470 C   0  0  0  0  0
   18.1750   13.8640   20.0330 C   0  0  0  0  0
   16.7970    9.3525   20.9602 H   0  0  0  0  0
   15.9303    8.8590   18.7822 H   0  0  0  0  0
   15.4811   12.9161   18.5535 H   0  0  0  0  0
   16.0417   11.6275   17.3880 H   0  0  0  0  0
   17.2021   13.5752   16.8676 H   0  0  0  0  0
   18.3512   12.4993   17.8451 H   0  0  0  0  0
   16.2711   15.5323   17.8524 H   0  0  0  0  0
   15.7263   14.5829   19.2571 H   0  0  0  0  0
   16.7589   16.0139   19.4959 H   0  0  0  0  0
   19.7695   14.3032   18.0843 H   0  0  0  0  0
   18.6613   15.3358   17.1480 H   0  0  0  0  0
   19.1881   15.8391   18.7729 H   0  0  0  0  0
   17.3651   13.2900   20.4831 H   0  0  0  0  0
   19.0653   13.2398   19.9560 H   0  0  0  0  0
   18.3925   14.7346   20.6517 H   0  0  0  0  0
  1  2  1  0  0  0
  1  3  1  0  0  0
  1  4  2  0  0  0
  1  5  1  0  0  0
  5  6  1  0  0  0
  6  7  1  0  0  0
  7  8  1  0  0  0
  8  9  1  0  0  0
  8 10  1  0  0  0
  8 11  1  0  0  0
  2 12  1  0  0  0
  3 13  1  0  0  0
  6 14  1  0  0  0
  6 15  1  0  0  0
  7 16  1  0  0  0
  7 17  1  0  0  0
  9 18  1  0  0  0
  9 19  1  0  0  0
  9 20  1  0  0  0
 10 21  1  0  0  0
 10 22  1  0  0  0
 10 23  1  0  0  0
 11 24  1  0  0  0
 11 25  1  0  0  0
 11 26  1  0  0  0
M  END
$$$$
