4l50_ligand
  -I-interpret- 

 34 33  0  0  0  0  0  0  0  0999 V2000
  -42.5900  -11.4290   12.1430 O   0  0  0  0  0
  -42.9490  -11.8310   13.5230 P   0  0  0  0  0
  -44.2800  -11.2740   13.8920 O   0  0  0  0  0
  -42.9520  -13.4060   13.6120 O   0  0  0  0  0
  -41.8280  -11.2070   14.5410 O   0  0  0  0  0
  -40.5120  -11.6960   14.5510 C   0  0  0  0  0
  -39.6420  -10.6840   13.8590 C   0  0  0  0  0
  -39.8580  -10.8450   12.4790 O   0  0  0  0  0
  -38.1400  -10.8580   14.1480 C   0  0  0  0  0
  -37.6490  -12.0990   13.7770 O   0  0  0  0  0
  -37.9650  -10.7290   15.5490 O   0  0  0  0  0
  -37.2990   -9.7250   13.5200 C   0  0  0  0  0
  -37.3420   -8.5840   13.9950 O   0  0  0  0  0
  -36.3060  -10.0750   12.4640 C   0  0  0  0  0
  -36.0220   -8.7830   11.6810 C   0  0  0  0  0
  -35.1010   -9.1150   10.5130 C   0  0  0  0  0
  -35.3480   -7.6880   12.5540 C   0  0  0  0  0
  -44.5005  -11.5414   14.7872 H   0  0  0  0  0
  -43.1839  -13.6745   14.5040 H   0  0  0  0  0
  -40.4603  -12.6554   14.0362 H   0  0  0  0  0
  -40.1728  -11.8501   15.5754 H   0  0  0  0  0
  -39.9097   -9.6931   14.2258 H   0  0  0  0  0
  -40.7927  -10.7383   12.2880 H   0  0  0  0  0
  -37.7551  -12.2137   12.8298 H   0  0  0  0  0
  -38.2978   -9.8750   15.8346 H   0  0  0  0  0
  -36.6959  -10.8511   11.8054 H   0  0  0  0  0
  -35.3916  -10.4709   12.9059 H   0  0  0  0  0
  -36.9782   -8.3865   11.3395 H   0  0  0  0  0
  -34.1685   -9.5313   10.8942 H   0  0  0  0  0
  -35.5872   -9.8436    9.8643 H   0  0  0  0  0
  -34.8909   -8.2068    9.9481 H   0  0  0  0  0
  -36.0027   -7.4363   13.3883 H   0  0  0  0  0
  -34.3985   -8.0631   12.9359 H   0  0  0  0  0
  -35.1717   -6.7994   11.9479 H   0  0  0  0  0
  1  2  2  0  0  0
  2  3  1  0  0  0
  2  4  1  0  0  0
  2  5  1  0  0  0
  5  6  1  0  0  0
  6  7  1  0  0  0
  7  8  1  0  0  0
  7  9  1  0  0  0
  9 10  1  0  0  0
  9 11  1  0  0  0
  9 12  1  0  0  0
 12 13  2  0  0  0
 12 14  1  0  0  0
 14 15  1  0  0  0
 15 16  1  0  0  0
 15 17  1  0  0  0
  3 18  1  0  0  0
  4 19  1  0  0  0
  6 20  1  0  0  0
  6 21  1  0  0  0
  7 22  1  0  0  0
  8 23  1  0  0  0
 10 24  1  0  0  0
 11 25  1  0  0  0
 14 26  1  0  0  0
 14 27  1  0  0  0
 15 28  1  0  0  0
 16 29  1  0  0  0
 16 30  1  0  0  0
 16 31  1  0  0  0
 17 32  1  0  0  0
 17 33  1  0  0  0
 17 34  1  0  0  0
M  END
$$$$
