2qf6_ligand
  -I-interpret- 

 29 31  0  0  0  0  0  0  0  0999 V2000
   18.6200   36.8770    9.1510 C   0  0  0  0  0
   18.3500   38.1660    8.6320 C   0  0  0  0  0
   18.2110   38.3420    7.2170 C   0  0  0  0  0
   18.3410   37.2110    6.3240 C   0  0  0  0  0
   18.6130   35.9200    6.8580 C   0  0  0  0  0
   18.7510   35.7610    8.2650 C   0  0  0  0  0
   17.9420   39.6250    6.6630 C   0  0  0  0  0
   17.8060   39.7810    5.2610 C   0  0  0  0  0
   17.9300   38.6800    4.3750 C   0  0  0  0  0
   18.1980   37.3930    4.9100 C   0  0  0  0  0
   17.4550   41.5280    4.6950 Br  0  0  0  0  0
   17.7950   38.7780    2.8950 C   0  0  0  0  0
   18.4670   39.6890    2.1290 N   0  0  0  0  0
   18.2720   39.6990    0.8140 C   0  0  0  0  0
   17.4610   38.8880    0.1250 N   0  0  0  0  0
   16.8320   38.0220    0.9210 C   0  0  0  0  0
   16.9480   37.9250    2.2400 N   0  0  0  0  0
   15.9900   37.1520    0.3550 N   0  0  0  0  0
   18.9590   40.6160    0.1300 N   0  0  0  0  0
   18.7282   36.7345   10.2262 H   0  0  0  0  0
   18.2486   39.0183    9.3039 H   0  0  0  0  0
   18.7147   35.0609    6.1949 H   0  0  0  0  0
   18.9600   34.7728    8.6748 H   0  0  0  0  0
   17.8403   40.4898    7.3186 H   0  0  0  0  0
   18.2956   36.5379    4.2411 H   0  0  0  0  0
   15.8459   37.1649   -0.6547 H   0  0  0  0  0
   15.4915   36.4751    0.9327 H   0  0  0  0  0
   19.5863   41.2537    0.6201 H   0  0  0  0  0
   18.8568   40.6792   -0.8829 H   0  0  0  0  0
  1  2  4  0  0  0
  1  6  4  0  0  0
  2  3  4  0  0  0
  3  4  4  0  0  0
  3  7  4  0  0  0
  4  5  4  0  0  0
  4 10  4  0  0  0
  5  6  4  0  0  0
  7  8  4  0  0  0
  8  9  4  0  0  0
  8 11  1  0  0  0
  9 10  4  0  0  0
  9 12  1  0  0  0
 12 13  4  0  0  0
 12 17  4  0  0  0
 13 14  4  0  0  0
 14 15  4  0  0  0
 14 19  1  0  0  0
 15 16  4  0  0  0
 16 17  4  0  0  0
 16 18  1  0  0  0
  1 20  1  0  0  0
  2 21  1  0  0  0
  5 22  1  0  0  0
  6 23  1  0  0  0
  7 24  1  0  0  0
 10 25  1  0  0  0
 18 26  1  0  0  0
 18 27  1  0  0  0
 19 28  1  0  0  0
 19 29  1  0  0  0
M  END
$$$$
