5ofv_ligand
  -I-interpret- 

 18 18  0  0  0  0  0  0  0  0999 V2000
  -25.1540   15.1600    7.6320 C   0  0  0  0  0
  -26.0090   15.5660    6.6100 C   0  0  0  0  0
  -26.3990   14.6110    5.6620 C   0  0  0  0  0
  -26.4200   17.0240    6.5840 C   0  0  0  0  0
  -27.2780   14.9390    4.4750 C   0  0  0  0  0
  -24.7110   13.8540    7.7370 C   0  0  0  0  0
  -25.9320   13.3120    5.7610 C   0  0  0  0  0
  -25.0970   12.9600    6.7830 C   0  0  0  0  0
  -24.6260   11.6780    6.8150 F   0  0  0  0  0
  -27.1990   16.2050    4.1030 O   0  0  0  0  0
  -27.9440   14.0720    3.8720 O   0  0  0  0  0
  -24.8249   15.8920    8.3696 H   0  0  0  0  0
  -26.9379   17.2707    7.5108 H   0  0  0  0  0
  -25.5323   17.6487    6.4850 H   0  0  0  0  0
  -27.0844   17.1978    5.7376 H   0  0  0  0  0
  -24.0688   13.5470    8.5625 H   0  0  0  0  0
  -26.2310   12.5685    5.0221 H   0  0  0  0  0
  -26.6331   16.6822    4.7143 H   0  0  0  0  0
  1  2  4  0  0  0
  1  6  4  0  0  0
  2  3  4  0  0  0
  2  4  1  0  0  0
  3  5  1  0  0  0
  3  7  4  0  0  0
  5 10  1  0  0  0
  5 11  2  0  0  0
  6  8  4  0  0  0
  7  8  4  0  0  0
  8  9  1  0  0  0
  1 12  1  0  0  0
  4 13  1  0  0  0
  4 14  1  0  0  0
  4 15  1  0  0  0
  6 16  1  0  0  0
  7 17  1  0  0  0
 10 18  1  0  0  0
M  END
$$$$
