### 
### Created by X-TOOL on Mon Sep 10 21:13:19 2018
### 

@<TRIPOS>MOLECULE
4qsk_ligand
   35    37     1     0     0
SMALL
GAST_HUCK


@<TRIPOS>ATOM
      1 P         207.5440   -7.6910   93.9290 P.3       1 2BA         0.1064
      2 O1P       207.8060   -8.8160   94.8920 O.co2     1 2BA        -0.6222
      3 O2P       208.7170   -6.8290   93.4800 O.co2     1 2BA        -0.6222
      4 O5'       206.5200   -8.1270   92.7040 O.3       1 2BA        -0.2803
      5 C5'       205.8170   -7.0720   92.0830 C.3       1 2BA         0.1104
      6 C4'       204.9440   -7.3030   90.8600 C.3       1 2BA         0.1190
      7 O4'       205.5690   -7.9890   89.8040 O.3       1 2BA        -0.3364
      8 C3'       203.7140   -8.0910   91.1600 C.3       1 2BA         0.1150
      9 O3'       202.7190   -7.2190   91.6320 O.3       1 2BA        -0.3864
     10 C2'       203.3260   -8.6880   89.8290 C.3       1 2BA         0.1385
     11 O2'       202.5750   -7.7650   89.0230 O.3       1 2BA        -0.3836
     12 C1'       204.6760   -8.9370   89.2290 C.3       1 2BA         0.2010
     13 N9        205.1930  -10.2960   89.5880 N.pl3     1 2BA        -0.1919
     14 C8        206.2850  -10.5640   90.3440 C.2       1 2BA         0.1123
     15 N7        206.4840  -11.8960   90.4480 N.2       1 2BA        -0.2958
     16 C5        205.5310  -12.5030   89.7450 C.ar      1 2BA         0.1045
     17 C6        205.1590  -13.8990   89.4320 C.ar      1 2BA         0.1298
     18 N6        205.8560  -14.9340   89.9000 N.pl3     1 2BA        -0.3152
     19 N1        204.0810  -14.1150   88.6730 N.ar      1 2BA        -0.2698
     20 C2        203.3480  -13.0920   88.1920 C.ar      1 2BA         0.0533
     21 N3        203.6400  -11.7940   88.4140 N.ar      1 2BA        -0.2714
     22 C4        204.6830  -11.4510   89.1850 C.ar      1 2BA         0.1613
     23 H         206.9973   -7.0477   94.4797 H         1 2BA         0.1780
     24 H         206.5724   -6.3289   91.7876 H         1 2BA         0.0650
     25 H         205.1611   -6.6416   92.8540 H         1 2BA         0.0650
     26 H         204.6439   -6.3098   90.4946 H         1 2BA         0.0651
     27 H         203.9106   -8.8777   91.9033 H         1 2BA         0.0648
     28 H         202.5294   -6.5672   90.9673 H         1 2BA         0.2100
     29 H         202.7549   -9.6197   89.9542 H         1 2BA         0.0676
     30 H         201.7800   -7.5199   89.4818 H         1 2BA         0.2101
     31 H         204.6310   -8.8252   88.1356 H         1 2BA         0.0996
     32 H         206.9174   -9.8072   90.8058 H         1 2BA         0.1349
     33 H         205.5715  -15.8954   89.6641 H         1 2BA         0.1820
     34 H         206.6792  -14.7725   90.4976 H         1 2BA         0.1820
     35 H         202.4749  -13.3250   87.5932 H         1 2BA         0.0996
@<TRIPOS>BOND
     1    1    2 ar 
     2    1    3 ar 
     3    1    4 1  
     4    4    5 1  
     5    5    6 1  
     6    6    7 1  
     7    6    8 1  
     8    7   12 1  
     9    8    9 1  
    10    8   10 1  
    11   10   11 1  
    12   10   12 1  
    13   12   13 1  
    14   13   14 1  
    15   13   22 1  
    16   14   15 2  
    17   15   16 1  
    18   16   17 ar 
    19   16   22 ar 
    20   17   18 1  
    21   17   19 ar 
    22   19   20 ar 
    23   20   21 ar 
    24   21   22 ar 
    25    1   23 1  
    26    5   24 1  
    27    5   25 1  
    28    6   26 1  
    29    8   27 1  
    30    9   28 1  
    31   10   29 1  
    32   11   30 1  
    33   12   31 1  
    34   14   32 1  
    35   18   33 1  
    36   18   34 1  
    37   20   35 1  
@<TRIPOS>SUBSTRUCTURE
     1 2BA         1

