4qsk_ligand
  -I-interpret- 

 35 37  0  0  0  0  0  0  0  0999 V2000
  207.5440   -7.6910   93.9290 P   0  0  0  0  0
  207.8060   -8.8160   94.8920 O   0  0  0  0  0
  208.7170   -6.8290   93.4800 O   0  0  0  0  0
  206.5200   -8.1270   92.7040 O   0  0  0  0  0
  205.8170   -7.0720   92.0830 C   0  0  0  0  0
  204.9440   -7.3030   90.8600 C   0  0  0  0  0
  205.5690   -7.9890   89.8040 O   0  0  0  0  0
  203.7140   -8.0910   91.1600 C   0  0  0  0  0
  202.7190   -7.2190   91.6320 O   0  0  0  0  0
  203.3260   -8.6880   89.8290 C   0  0  0  0  0
  202.5750   -7.7650   89.0230 O   0  0  0  0  0
  204.6760   -8.9370   89.2290 C   0  0  0  0  0
  205.1930  -10.2960   89.5880 N   0  0  0  0  0
  206.2850  -10.5640   90.3440 C   0  0  0  0  0
  206.4840  -11.8960   90.4480 N   0  0  0  0  0
  205.5310  -12.5030   89.7450 C   0  0  0  0  0
  205.1590  -13.8990   89.4320 C   0  0  0  0  0
  205.8560  -14.9340   89.9000 N   0  0  0  0  0
  204.0810  -14.1150   88.6730 N   0  0  0  0  0
  203.3480  -13.0920   88.1920 C   0  0  0  0  0
  203.6400  -11.7940   88.4140 N   0  0  0  0  0
  204.6830  -11.4510   89.1850 C   0  0  0  0  0
  208.4036   -6.1562   92.8711 H   0  0  0  0  0
  206.6067   -6.4162   91.7164 H   0  0  0  0  0
  205.1105   -6.7476   92.8470 H   0  0  0  0  0
  204.7146   -6.2808   90.5591 H   0  0  0  0  0
  203.8571   -8.8585   91.9206 H   0  0  0  0  0
  202.9899   -6.8539   92.4776 H   0  0  0  0  0
  202.6855   -9.5663   89.9092 H   0  0  0  0  0
  202.3486   -8.1816   88.1883 H   0  0  0  0  0
  204.6019   -8.8588   88.1443 H   0  0  0  0  0
  206.9179   -9.8065   90.8062 H   0  0  0  0  0
  206.6712  -14.7741   90.4918 H   0  0  0  0  0
  205.5743  -15.8861   89.6664 H   0  0  0  0  0
  202.4701  -13.3263   87.5899 H   0  0  0  0  0
  1  2  2  0  0  0
  1  3  1  0  0  0
  1  4  1  0  0  0
  4  5  1  0  0  0
  5  6  1  0  0  0
  6  7  1  0  0  0
  6  8  1  0  0  0
  7 12  1  0  0  0
  8  9  1  0  0  0
  8 10  1  0  0  0
 10 11  1  0  0  0
 10 12  1  0  0  0
 12 13  1  0  0  0
 13 14  4  0  0  0
 13 22  4  0  0  0
 14 15  4  0  0  0
 15 16  4  0  0  0
 16 17  4  0  0  0
 16 22  4  0  0  0
 17 18  1  0  0  0
 17 19  4  0  0  0
 19 20  4  0  0  0
 20 21  4  0  0  0
 21 22  4  0  0  0
  3 23  1  0  0  0
  5 24  1  0  0  0
  5 25  1  0  0  0
  6 26  1  0  0  0
  8 27  1  0  0  0
  9 28  1  0  0  0
 10 29  1  0  0  0
 11 30  1  0  0  0
 12 31  1  0  0  0
 14 32  1  0  0  0
 18 33  1  0  0  0
 18 34  1  0  0  0
 20 35  1  0  0  0
M  END
$$$$
