2jk9_ligand
  -I-interpret- 

119119  0  0  0  0  0  0  0  0999 V2000
    1.2530   40.6280   45.1790 N   0  3  0  0  0
    0.1200   41.5490   44.8830 C   0  0  0  0  0
    0.5270   42.6250   43.8610 C   0  0  0  0  0
    0.3370   43.8220   44.0900 O   0  0  0  0  0
   -0.4120   42.1760   46.1900 C   0  0  0  0  0
   -1.9020   42.5320   46.1280 C   0  0  0  0  0
   -2.6590   42.0000   45.3120 O   0  0  0  0  0
   -2.3270   43.4240   47.0170 N   0  0  0  0  0
    1.1060   42.1730   42.7440 N   0  0  0  0  0
    1.3210   43.0070   41.5530 C   0  0  0  0  0
    0.1050   42.8600   40.6350 C   0  0  0  0  0
   -0.5640   41.8270   40.6320 O   0  0  0  0  0
    2.6090   42.6030   40.8160 C   0  0  0  0  0
    3.0530   43.5580   39.6770 C   0  0  0  0  0
    2.5560   43.1610   38.2710 C   0  0  0  0  0
    1.9640   42.0690   38.0930 O   0  0  0  0  0
    2.7590   43.9500   37.3270 O   0  0  0  0  0
   -0.1640   43.9160   39.8760 N   0  0  0  0  0
   -1.3230   44.0340   38.9970 C   0  0  0  0  0
   -1.6840   42.7470   38.2070 C   0  0  0  0  0
   -2.8460   42.3350   38.1620 O   0  0  0  0  0
   -1.0580   45.1980   38.0250 C   0  0  0  0  0
   -2.0450   45.4680   36.8890 C   0  0  0  0  0
   -3.4440   45.7240   37.4360 C   0  0  0  0  0
   -1.5550   46.6480   36.0570 C   0  0  0  0  0
   -0.6840   42.1250   37.5940 N   0  0  0  0  0
   -0.8950   40.9330   36.7550 C   0  0  0  0  0
   -0.2150   39.6660   37.3080 C   0  0  0  0  0
    0.1280   38.7630   36.5560 O   0  0  0  0  0
   -0.4690   41.2350   35.3080 C   0  0  0  0  0
   -1.5470   41.9990   34.5200 C   0  0  0  0  0
   -2.7130   41.6110   34.5110 O   0  0  0  0  0
   -1.1460   43.0710   33.8450 N   0  0  0  0  0
   -0.0520   39.6080   38.6340 N   0  0  0  0  0
    0.4610   38.4230   39.3300 C   0  0  0  0  0
    1.9360   38.1110   39.0170 C   0  0  0  0  0
    2.3680   36.9590   39.0810 O   0  0  0  0  0
   -0.4250   37.2040   39.0140 C   0  0  0  0  0
   -0.2760   36.0880   40.0280 C   0  0  0  0  0
   -0.2320   36.3330   41.2440 O   0  0  0  0  0
   -0.2220   34.8510   39.5380 N   0  0  0  0  0
    2.6990   39.1470   38.6870 N   0  0  0  0  0
    4.0850   38.9900   38.2810 C   0  0  0  0  0
    5.0390   39.3820   39.4070 C   0  0  0  0  0
    4.6480   40.0790   40.3480 O   0  0  0  0  0
    4.3490   39.8220   37.0250 C   0  0  0  0  0
    3.6090   39.2830   35.8110 C   0  0  0  0  0
    3.6480   38.0860   35.5420 O   0  0  0  0  0
    2.9290   40.1640   35.0750 N   0  0  0  0  0
    6.2780   38.9130   39.3110 N   0  0  0  0  0
    7.3030   39.2100   40.3080 C   0  0  0  0  0
    8.0140   40.5230   39.9370 C   0  0  0  0  0
    8.5300   40.6520   38.8230 O   0  0  0  0  0
    8.3140   38.0610   40.3960 C   0  0  0  0  0
    8.0270   41.5050   40.8580 N   0  0  0  0  0
    8.7610   42.7580   40.6490 C   0  0  0  0  0
   10.2080   42.5560   40.1750 C   0  0  0  0  0
   11.1550   42.8780   40.8970 O   0  0  0  0  0
    8.7210   43.4070   42.0390 C   0  0  0  0  0
    7.4360   42.9480   42.6100 C   0  0  0  0  0
    7.2290   41.5480   42.0990 C   0  0  0  0  0
   10.4420   42.0690   39.0660 O   0  0  0  0  0
    1.5950   40.2209   44.3085 H   0  0  0  0  0
    2.0046   41.1495   45.6302 H   0  0  0  0  0
    0.9324   39.8852   45.8003 H   0  0  0  0  0
   -0.6867   40.9716   44.4314 H   0  0  0  0  0
    0.1409   43.0996   46.3616 H   0  0  0  0  0
   -0.2811   41.4419   46.9851 H   0  0  0  0  0
   -3.3111   43.6912   47.0410 H   0  0  0  0  0
   -1.6691   43.8414   47.6753 H   0  0  0  0  0
    1.4139   41.2010   42.7169 H   0  0  0  0  0
    1.4370   44.0479   41.8549 H   0  0  0  0  0
    2.4114   41.6367   40.3520 H   0  0  0  0  0
    3.4074   42.6120   41.5580 H   0  0  0  0  0
    4.1423   43.5312   39.6474 H   0  0  0  0  0
    2.6267   44.5362   39.8994 H   0  0  0  0  0
    1.9011   41.6005   38.9285 H   0  0  0  0  0
    0.4862   44.7011   39.9098 H   0  0  0  0  0
   -2.1898   44.2155   39.6324 H   0  0  0  0  0
   -0.1256   44.9350   37.5254 H   0  0  0  0  0
   -1.0991   46.0927   38.6463 H   0  0  0  0  0
   -2.1012   44.5875   36.2490 H   0  0  0  0  0
   -3.7802   44.8499   37.9937 H   0  0  0  0  0
   -3.4216   46.5912   38.0960 H   0  0  0  0  0
   -4.1274   45.9134   36.6082 H   0  0  0  0  0
   -1.4801   47.5316   36.6908 H   0  0  0  0  0
   -0.5755   46.4147   35.6395 H   0  0  0  0  0
   -2.2603   46.8383   35.2480 H   0  0  0  0  0
    0.2634   42.4852   37.7081 H   0  0  0  0  0
   -1.9611   40.7063   36.7699 H   0  0  0  0  0
   -0.2965   40.2840   34.8041 H   0  0  0  0  0
    0.4242   41.8587   35.3449 H   0  0  0  0  0
   -1.8160   43.6058   33.2923 H   0  0  0  0  0
   -0.1681   43.3591   33.8795 H   0  0  0  0  0
   -0.2964   40.4282   39.1889 H   0  0  0  0  0
    0.4214   38.6481   40.3958 H   0  0  0  0  0
   -0.1206   36.8141   38.0427 H   0  0  0  0  0
   -1.4638   37.5338   39.0322 H   0  0  0  0  0
   -0.1409   34.0550   40.1706 H   0  0  0  0  0
   -0.2617   34.6995   38.5301 H   0  0  0  0  0
    2.2983   40.0844   38.7198 H   0  0  0  0  0
    4.2662   37.9393   38.0547 H   0  0  0  0  0
    5.4177   39.7861   36.8136 H   0  0  0  0  0
    3.9989   40.8372   37.2117 H   0  0  0  0  0
    2.4142   39.8513   34.2518 H   0  0  0  0  0
    2.9240   41.1502   35.3355 H   0  0  0  0  0
    6.5219   38.3254   38.5137 H   0  0  0  0  0
    6.8303   39.3220   41.2837 H   0  0  0  0  0
    7.7968   37.1447   40.6806 H   0  0  0  0  0
    8.7916   37.9238   39.4258 H   0  0  0  0  0
    9.0699   38.3004   41.1439 H   0  0  0  0  0
    8.3159   43.3604   39.8571 H   0  0  0  0  0
    8.7871   44.4939   41.9901 H   0  0  0  0  0
    9.5734   43.1193   42.6545 H   0  0  0  0  0
    6.6164   43.6016   42.3114 H   0  0  0  0  0
    7.4587   42.9704   43.6995 H   0  0  0  0  0
    7.5415   40.7925   42.8199 H   0  0  0  0  0
    6.1773   41.3211   41.9244 H   0  0  0  0  0
    9.6134   41.8706   38.6236 H   0  0  0  0  0
  1  2  1  0  0  0
  2  3  1  0  0  0
  2  5  1  0  0  0
  3  4  2  0  0  0
  3  9  1  0  0  0
  5  6  1  0  0  0
  6  7  2  0  0  0
  6  8  1  0  0  0
  9 10  1  0  0  0
 10 11  1  0  0  0
 10 13  1  0  0  0
 11 12  2  0  0  0
 11 18  1  0  0  0
 13 14  1  0  0  0
 14 15  1  0  0  0
 15 16  1  0  0  0
 15 17  2  0  0  0
 18 19  1  0  0  0
 19 20  1  0  0  0
 19 22  1  0  0  0
 20 21  2  0  0  0
 20 26  1  0  0  0
 22 23  1  0  0  0
 23 24  1  0  0  0
 23 25  1  0  0  0
 26 27  1  0  0  0
 27 28  1  0  0  0
 27 30  1  0  0  0
 28 29  2  0  0  0
 28 34  1  0  0  0
 30 31  1  0  0  0
 31 32  2  0  0  0
 31 33  1  0  0  0
 34 35  1  0  0  0
 35 36  1  0  0  0
 35 38  1  0  0  0
 36 37  2  0  0  0
 36 42  1  0  0  0
 38 39  1  0  0  0
 39 40  2  0  0  0
 39 41  1  0  0  0
 42 43  1  0  0  0
 43 44  1  0  0  0
 43 46  1  0  0  0
 44 45  2  0  0  0
 44 50  1  0  0  0
 46 47  1  0  0  0
 47 48  2  0  0  0
 47 49  1  0  0  0
 50 51  1  0  0  0
 51 52  1  0  0  0
 51 54  1  0  0  0
 52 53  2  0  0  0
 52 55  1  0  0  0
 55 56  1  0  0  0
 55 61  1  0  0  0
 56 57  1  0  0  0
 56 59  1  0  0  0
 57 58  2  0  0  0
 57 62  1  0  0  0
 59 60  1  0  0  0
 60 61  1  0  0  0
  1 63  1  0  0  0
  1 64  1  0  0  0
  1 65  1  0  0  0
  2 66  1  0  0  0
  5 67  1  0  0  0
  5 68  1  0  0  0
  8 69  1  0  0  0
  8 70  1  0  0  0
  9 71  1  0  0  0
 10 72  1  0  0  0
 13 73  1  0  0  0
 13 74  1  0  0  0
 14 75  1  0  0  0
 14 76  1  0  0  0
 16 77  1  0  0  0
 18 78  1  0  0  0
 19 79  1  0  0  0
 22 80  1  0  0  0
 22 81  1  0  0  0
 23 82  1  0  0  0
 24 83  1  0  0  0
 24 84  1  0  0  0
 24 85  1  0  0  0
 25 86  1  0  0  0
 25 87  1  0  0  0
 25 88  1  0  0  0
 26 89  1  0  0  0
 27 90  1  0  0  0
 30 91  1  0  0  0
 30 92  1  0  0  0
 33 93  1  0  0  0
 33 94  1  0  0  0
 34 95  1  0  0  0
 35 96  1  0  0  0
 38 97  1  0  0  0
 38 98  1  0  0  0
 41 99  1  0  0  0
 41100  1  0  0  0
 42101  1  0  0  0
 43102  1  0  0  0
 46103  1  0  0  0
 46104  1  0  0  0
 49105  1  0  0  0
 49106  1  0  0  0
 50107  1  0  0  0
 51108  1  0  0  0
 54109  1  0  0  0
 54110  1  0  0  0
 54111  1  0  0  0
 56112  1  0  0  0
 59113  1  0  0  0
 59114  1  0  0  0
 60115  1  0  0  0
 60116  1  0  0  0
 61117  1  0  0  0
 61118  1  0  0  0
 62119  1  0  0  0
M  END
$$$$
