### 
### Created by X-TOOL on Mon Sep 10 21:12:57 2018
### 

@<TRIPOS>MOLECULE
2jk9_ligand
  117   117     1     0     0
SMALL
GAST_HUCK


@<TRIPOS>ATOM
      1 N           1.2530   40.6280   45.1790 N.4       1 ASN         0.2396
      2 CA          0.1200   41.5490   44.8830 C.3       1 ASN         0.0818
      3 C           0.5270   42.6250   43.8610 C.2       1 ASN         0.2291
      4 O           0.3370   43.8220   44.0900 O.2       1 ASN        -0.3905
      5 CB         -0.4120   42.1760   46.1900 C.3       1 ASN         0.0972
      6 CG         -1.9020   42.5320   46.1280 C.2       1 ASN         0.1813
      7 OD1        -2.6590   42.0000   45.3120 O.2       1 ASN        -0.3969
      8 ND2        -2.3270   43.4240   47.0170 N.am      1 ASN        -0.3006
      9 N           1.1060   42.1730   42.7440 N.am      1 GLU        -0.2608
     10 CA          1.3210   43.0070   41.5530 C.3       1 GLU         0.1326
     11 C           0.1050   42.8600   40.6350 C.2       1 GLU         0.2040
     12 O          -0.5640   41.8270   40.6320 O.2       1 GLU        -0.3944
     13 CB          2.6090   42.6030   40.8160 C.3       1 GLU        -0.0008
     14 CG          3.0530   43.5580   39.6770 C.3       1 GLU         0.0044
     15 CD          2.5560   43.1610   38.2710 C.2       1 GLU         0.0350
     16 OE1         1.9640   42.0690   38.0930 O.co2     1 GLU        -0.5690
     17 OE2         2.7590   43.9500   37.3270 O.co2     1 GLU        -0.5690
     18 N          -0.1640   43.9160   39.8760 N.am      1 LEU        -0.2637
     19 CA         -1.3230   44.0340   38.9970 C.3       1 LEU         0.1312
     20 C          -1.6840   42.7470   38.2070 C.2       1 LEU         0.2040
     21 O          -2.8460   42.3350   38.1620 O.2       1 LEU        -0.3944
     22 CB         -1.0580   45.1980   38.0250 C.3       1 LEU        -0.0101
     23 CG         -2.0450   45.4680   36.8890 C.3       1 LEU        -0.0425
     24 CD1        -3.4440   45.7240   37.4360 C.3       1 LEU        -0.0625
     25 CD2        -1.5550   46.6480   36.0570 C.3       1 LEU        -0.0625
     26 N          -0.6840   42.1250   37.5940 N.am      1 ASN        -0.2616
     27 CA         -0.8950   40.9330   36.7550 C.3       1 ASN         0.1476
     28 C          -0.2150   39.6660   37.3080 C.2       1 ASN         0.2064
     29 O           0.1280   38.7630   36.5560 O.2       1 ASN        -0.3942
     30 CB         -0.4690   41.2350   35.3080 C.3       1 ASN         0.0773
     31 CG         -1.5470   41.9990   34.5200 C.2       1 ASN         0.1780
     32 OD1        -2.7130   41.6110   34.5110 O.2       1 ASN        -0.3970
     33 ND2        -1.1460   43.0710   33.8450 N.am      1 ASN        -0.3007
     34 N          -0.0520   39.6080   38.6340 N.am      1 ASN        -0.2615
     35 CA          0.4610   38.4230   39.3300 C.3       1 ASN         0.1476
     36 C           1.9360   38.1110   39.0170 C.2       1 ASN         0.2064
     37 O           2.3680   36.9590   39.0810 O.2       1 ASN        -0.3942
     38 CB         -0.4250   37.2040   39.0140 C.3       1 ASN         0.0773
     39 CG         -0.2760   36.0880   40.0280 C.2       1 ASN         0.1780
     40 OD1        -0.2320   36.3330   41.2440 O.2       1 ASN        -0.3970
     41 ND2        -0.2220   34.8510   39.5380 N.am      1 ASN        -0.3007
     42 N           2.6990   39.1470   38.6870 N.am      1 ASN        -0.2615
     43 CA          4.0850   38.9900   38.2810 C.3       1 ASN         0.1476
     44 C           5.0390   39.3820   39.4070 C.2       1 ASN         0.2062
     45 O           4.6480   40.0790   40.3480 O.2       1 ASN        -0.3942
     46 CB          4.3490   39.8220   37.0250 C.3       1 ASN         0.0773
     47 CG          3.6090   39.2830   35.8110 C.2       1 ASN         0.1780
     48 OD1         3.6480   38.0860   35.5420 O.2       1 ASN        -0.3970
     49 ND2         2.9290   40.1640   35.0750 N.am      1 ASN        -0.3007
     50 N           6.2780   38.9130   39.3110 N.am      1 LEU        -0.2639
     51 CA          7.3030   39.2100   40.3080 C.3       1 LEU         0.1283
     52 C           8.0140   40.5230   39.9370 C.2       1 LEU         0.2056
     53 O           8.5300   40.6520   38.8230 O.2       1 LEU        -0.3942
     54 CB          8.3140   38.0610   40.3960 C.3       1 LEU        -0.0244
     55 N           8.0270   41.5050   40.8580 N.am      1 PRO        -0.2556
     56 CA          8.7610   42.7580   40.6490 C.3       1 PRO         0.0972
     57 C          10.2080   42.5560   40.1750 C.2       1 PRO         0.0603
     58 O          11.1550   42.8780   40.8970 O.co2     1 PRO        -0.5666
     59 CB          8.7210   43.4070   42.0390 C.3       1 PRO        -0.0159
     60 CG          7.4360   42.9480   42.6100 C.3       1 PRO        -0.0288
     61 CD          7.2290   41.5480   42.0990 C.3       1 PRO         0.0362
     62 OXT        10.4420   42.0690   39.0660 O.co2     1 PRO        -0.5666
     63 H1          0.9571   39.9360   45.8496 H         1 ASN         0.2017
     64 H2          2.0242   41.1549   45.5580 H         1 ASN         0.2017
     65 H3          1.5443   40.1698   44.3297 H         1 ASN         0.2017
     66 H4         -0.6923   40.9557   44.4378 H         1 ASN         0.1125
     67 H5          0.1583   43.0941   46.3944 H         1 ASN         0.0585
     68 H6         -0.2581   41.4586   47.0095 H         1 ASN         0.0585
     69 H7         -3.2884   43.6990   47.0290 H         1 ASN         0.1814
     70 H8         -1.6854   43.8201   47.6739 H         1 ASN         0.1814
     71 H9          1.4079   41.2200   42.7175 H         1 GLU         0.1885
     72 H10         1.4117   44.0582   41.8642 H         1 GLU         0.0801
     73 H11         2.4516   41.6055   40.3800 H         1 GLU         0.0330
     74 H12         3.4222   42.5559   41.5553 H         1 GLU         0.0330
     75 H13         4.1526   43.5803   39.6579 H         1 GLU         0.0433
     76 H14         2.6697   44.5637   39.9043 H         1 GLU         0.0433
     77 H15         0.4735   44.6857   39.9092 H         1 LEU         0.1883
     78 H16        -2.1922   44.2874   39.6217 H         1 LEU         0.0800
     79 H17        -0.0787   45.0107   37.5605 H         1 LEU         0.0315
     80 H18        -1.0075   46.1153   38.6300 H         1 LEU         0.0315
     81 H19        -2.0859   44.5790   36.2426 H         1 LEU         0.0298
     82 H20        -4.1346   45.9153   36.6015 H         1 LEU         0.0232
     83 H21        -3.4228   46.5990   38.1022 H         1 LEU         0.0232
     84 H22        -3.7845   44.8425   37.9991 H         1 LEU         0.0232
     85 H23        -0.5452   46.4343   35.6768 H         1 LEU         0.0232
     86 H24        -1.5273   47.5519   36.6833 H         1 LEU         0.0232
     87 H25        -2.2389   46.8091   35.2107 H         1 LEU         0.0232
     88 H26         0.2449   42.4781   37.7058 H         1 ASN         0.1885
     89 H27        -1.9763   40.7315   36.7442 H         1 ASN         0.0826
     90 H28        -0.2659   40.2835   34.7949 H         1 ASN         0.0551
     91 H29         0.4477   41.8426   35.3303 H         1 ASN         0.0551
     92 H30        -1.8059   43.6043   33.3158 H         1 ASN         0.1814
     93 H31        -0.1843   43.3444   33.8663 H         1 ASN         0.1814
     94 H32        -0.2917   40.4121   39.1780 H         1 ASN         0.1885
     95 H33         0.3921   38.6219   40.4097 H         1 ASN         0.0826
     96 H34        -0.1482   36.8165   38.0224 H         1 ASN         0.0551
     97 H35        -1.4761   37.5281   39.0007 H         1 ASN         0.0551
     98 H36        -0.1241   34.0718   40.1571 H         1 ASN         0.1814
     99 H37        -0.2794   34.7012   38.5509 H         1 ASN         0.1814
    100 H38         2.3061   40.0660   38.7191 H         1 ASN         0.1885
    101 H39         4.2580   37.9309   38.0394 H         1 ASN         0.0826
    102 H40         5.4286   39.8123   36.8145 H         1 ASN         0.0551
    103 H41         4.0206   40.8555   37.2095 H         1 ASN         0.0551
    104 H42         2.4262   39.8578   34.2667 H         1 ASN         0.1814
    105 H43         2.9222   41.1305   35.3317 H         1 ASN         0.1814
    106 H44         6.5171   38.3369   38.5294 H         1 LEU         0.1883
    107 H45         6.8207   39.3311   41.2892 H         1 LEU         0.0797
    108 H46         9.0775   38.3014   41.1505 H         1 LEU         0.0277
    109 H47         8.7967   37.9216   39.4175 H         1 LEU         0.0277
    110 H48         7.7933   37.1356   40.6832 H         1 LEU         0.0277
    111 H49         8.2371   43.3849   39.9125 H         1 PRO         0.0728
    112 H50         8.7441   44.5039   41.9595 H         1 PRO         0.0306
    113 H51         9.5665   43.0660   42.6545 H         1 PRO         0.0306
    114 H52         6.6155   43.6009   42.2776 H         1 PRO         0.0286
    115 H53         7.4841   42.9501   43.7089 H         1 PRO         0.0286
    116 H54         7.5943   40.8075   42.8258 H         1 PRO         0.0524
    117 H55         6.1658   41.3610   41.8880 H         1 PRO         0.0524
@<TRIPOS>BOND
     1    1    2 1  
     2    2    3 1  
     3    2    5 1  
     4    3    4 2  
     5    3    9 am 
     6    5    6 1  
     7    6    7 2  
     8    6    8 am 
     9    9   10 1  
    10   10   11 1  
    11   10   13 1  
    12   11   12 2  
    13   11   18 am 
    14   13   14 1  
    15   14   15 1  
    16   15   16 ar 
    17   15   17 ar 
    18   18   19 1  
    19   19   20 1  
    20   19   22 1  
    21   20   21 2  
    22   20   26 am 
    23   22   23 1  
    24   23   24 1  
    25   23   25 1  
    26   26   27 1  
    27   27   28 1  
    28   27   30 1  
    29   28   29 2  
    30   28   34 am 
    31   30   31 1  
    32   31   32 2  
    33   31   33 am 
    34   34   35 1  
    35   35   36 1  
    36   35   38 1  
    37   36   37 2  
    38   36   42 am 
    39   38   39 1  
    40   39   40 2  
    41   39   41 am 
    42   42   43 1  
    43   43   44 1  
    44   43   46 1  
    45   44   45 2  
    46   44   50 am 
    47   46   47 1  
    48   47   48 2  
    49   47   49 am 
    50   50   51 1  
    51   51   52 1  
    52   51   54 1  
    53   52   53 2  
    54   52   55 am 
    55   55   56 1  
    56   55   61 1  
    57   56   57 1  
    58   56   59 1  
    59   57   58 ar 
    60   57   62 ar 
    61   59   60 1  
    62   60   61 1  
    63    1   63 1  
    64    1   64 1  
    65    1   65 1  
    66    2   66 1  
    67    5   67 1  
    68    5   68 1  
    69    8   69 1  
    70    8   70 1  
    71    9   71 1  
    72   10   72 1  
    73   13   73 1  
    74   13   74 1  
    75   14   75 1  
    76   14   76 1  
    77   18   77 1  
    78   19   78 1  
    79   22   79 1  
    80   22   80 1  
    81   23   81 1  
    82   24   82 1  
    83   24   83 1  
    84   24   84 1  
    85   25   85 1  
    86   25   86 1  
    87   25   87 1  
    88   26   88 1  
    89   27   89 1  
    90   30   90 1  
    91   30   91 1  
    92   33   92 1  
    93   33   93 1  
    94   34   94 1  
    95   35   95 1  
    96   38   96 1  
    97   38   97 1  
    98   41   98 1  
    99   41   99 1  
   100   42  100 1  
   101   43  101 1  
   102   46  102 1  
   103   46  103 1  
   104   49  104 1  
   105   49  105 1  
   106   50  106 1  
   107   51  107 1  
   108   54  108 1  
   109   54  109 1  
   110   54  110 1  
   111   56  111 1  
   112   59  112 1  
   113   59  113 1  
   114   60  114 1  
   115   60  115 1  
   116   61  116 1  
   117   61  117 1  
@<TRIPOS>SUBSTRUCTURE
     1 ASN         1

