6r13_ligand
  -I-interpret- 

 32 33  0  0  0  0  0  0  0  0999 V2000
   22.6270   13.7670   26.3310 C   0  0  0  0  0
   25.0190   15.1060   28.1640 C   0  0  0  0  0
   25.2670   15.4350   29.5840 C   0  0  0  0  0
   20.9040   18.0230   30.3770 C   0  0  0  0  0
   24.9050   16.6060   30.0940 C   0  0  0  0  0
   23.5330   17.1060   30.1950 C   0  0  0  0  0
   22.5050   16.4880   29.4860 C   0  0  0  0  0
   21.2030   16.9370   29.5870 C   0  0  0  0  0
   21.8990   18.6460   31.0920 C   0  0  0  0  0
   23.2020   18.1880   31.0100 C   0  0  0  0  0
   22.1370   12.7120   25.6160 N   0  0  0  0  0
   24.4230   13.9320   27.9690 N   0  0  0  0  0
   24.0770   13.4820   26.6440 C   0  0  0  0  0
   22.9740   11.6240   25.6180 C   0  0  0  0  0
   24.1930   11.9670   26.4280 C   0  0  0  0  0
   22.7390   10.5860   25.0270 O   0  0  0  0  0
   22.0100   14.7520   26.6560 O   0  0  0  0  0
   25.3620   15.8390   27.2360 O   0  0  0  0  0
   26.3539   15.4384   29.6661 H   0  0  0  0  0
   24.6602   14.7127   30.1300 H   0  0  0  0  0
   19.8790   18.3890   30.4358 H   0  0  0  0  0
   25.3512   17.3081   29.3897 H   0  0  0  0  0
   25.1832   16.4930   31.1418 H   0  0  0  0  0
   22.7317   15.6380   28.8424 H   0  0  0  0  0
   20.4094   16.4292   29.0389 H   0  0  0  0  0
   21.6613   19.5016   31.7241 H   0  0  0  0  0
   23.9816   18.6804   31.5913 H   0  0  0  0  0
   21.2404   12.7305   25.1300 H   0  0  0  0  0
   24.2073   13.3403   28.7713 H   0  0  0  0  0
   24.7872   14.0180   26.0144 H   0  0  0  0  0
   24.2343   11.4165   27.3678 H   0  0  0  0  0
   25.1180   11.6902   25.9221 H   0  0  0  0  0
  1 11  1  0  0  0
 13  1  1  0  0  0
  1 17  2  0  0  0
  2  3  1  0  0  0
 12  2  1  0  0  0
  2 18  2  0  0  0
  3  5  1  0  0  0
  8  4  4  0  0  0
  9  4  4  0  0  0
  5  6  1  0  0  0
  6  7  4  0  0  0
  6 10  4  0  0  0
  7  8  4  0  0  0
 10  9  4  0  0  0
 11 14  1  0  0  0
 13 12  1  0  0  0
 13 15  1  0  0  0
 14 15  1  0  0  0
 14 16  2  0  0  0
  3 19  1  0  0  0
  3 20  1  0  0  0
  4 21  1  0  0  0
  5 22  1  0  0  0
  5 23  1  0  0  0
  7 24  1  0  0  0
  8 25  1  0  0  0
  9 26  1  0  0  0
 10 27  1  0  0  0
 11 28  1  0  0  0
 12 29  1  0  0  0
 13 30  1  0  0  0
 15 31  1  0  0  0
 15 32  1  0  0  0
M  END
$$$$
