6eed_ligand
  -I-interpret- 

 53 55  0  0  0  0  0  0  0  0999 V2000
   16.0340    6.6750   14.6020 C   0  0  0  0  0
   15.3080    5.8390   15.7110 C   0  0  0  0  0
   15.3570    4.3400   15.3090 C   0  0  0  0  0
   14.6570    4.1380   13.9590 C   0  0  0  0  0
   15.4150    4.9020   12.9030 C   0  0  0  0  0
   15.3780    6.4040   13.2280 C   0  0  0  0  0
   16.1080    7.1860   12.0700 C   0  0  0  0  0
   16.1140    8.7420   12.3340 C   0  0  0  0  0
   17.1170    9.3450   12.7400 O   0  0  0  0  0
   14.9270    9.2880   12.1150 N   0  0  0  0  0
   14.6100   10.7310   12.2850 C   0  0  0  0  0
   13.6890   11.1440   11.1610 C   0  0  0  0  0
   12.7580   10.4310   10.7610 O   0  0  0  0  0
   14.0220   12.3000   10.6020 N   0  0  0  0  0
   13.1550   12.7570    9.5830 O   0  0  0  0  0
   14.1040   11.0010   13.6170 C   0  0  0  0  0
   13.7970    9.9700   14.4980 C   0  0  0  0  0
   13.3750   10.2850   15.8060 C   0  0  0  0  0
   13.9790   12.3260   14.0400 C   0  0  0  0  0
   13.5590   12.6410   15.3400 C   0  0  0  0  0
   13.2440   11.6090   16.2360 C   0  0  0  0  0
   12.8930   11.8750   17.5920 C   0  0  0  0  0
   11.7630   11.3700   18.2470 C   0  0  0  0  0
   11.5670   11.6560   19.5960 C   0  0  0  0  0
   10.5110   11.2320   20.2520 F   0  0  0  0  0
   12.4800   12.4030   20.3020 C   0  0  0  0  0
   12.2440   12.6990   21.6260 F   0  0  0  0  0
   13.5970   12.9120   19.6890 C   0  0  0  0  0
   14.5310   13.6260   20.4480 F   0  0  0  0  0
   13.8250   12.6200   18.3470 C   0  0  0  0  0
   17.0844    6.3866   14.5630 H   0  0  0  0  0
   15.9509    7.7359   14.8381 H   0  0  0  0  0
   14.2723    6.1654   15.8049 H   0  0  0  0  0
   15.8044    5.9834   16.6706 H   0  0  0  0  0
   14.8489    3.7471   16.0696 H   0  0  0  0  0
   16.3969    4.0241   15.2255 H   0  0  0  0  0
   13.6313    4.5024   14.0153 H   0  0  0  0  0
   14.6374    3.0778   13.7068 H   0  0  0  0  0
   14.9541    4.7302   11.9303 H   0  0  0  0  0
   16.4501    4.5611   12.8818 H   0  0  0  0  0
   14.3465    6.7502   13.2931 H   0  0  0  0  0
   15.5758    6.9968   11.1378 H   0  0  0  0  0
   17.1408    6.8412   12.0193 H   0  0  0  0  0
   14.1742    8.6726   11.8067 H   0  0  0  0  0
   15.5072   11.3457   12.2126 H   0  0  0  0  0
   14.8487   12.8244   10.8883 H   0  0  0  0  0
   13.4770   13.5948    9.2423 H   0  0  0  0  0
   13.8816    8.9305   14.1812 H   0  0  0  0  0
   13.1451    9.4760   16.4994 H   0  0  0  0  0
   14.2129   13.1323   13.3448 H   0  0  0  0  0
   13.4777   13.6821   15.6526 H   0  0  0  0  0
   11.0422   10.7577   17.7052 H   0  0  0  0  0
   14.7396   12.9729   17.8705 H   0  0  0  0  0
  1  2  1  0  0  0
  1  6  1  0  0  0
  2  3  1  0  0  0
  3  4  1  0  0  0
  4  5  1  0  0  0
  5  6  1  0  0  0
  6  7  1  0  0  0
  7  8  1  0  0  0
  8  9  2  0  0  0
  8 10  1  0  0  0
 10 11  1  0  0  0
 11 12  1  0  0  0
 11 16  1  0  0  0
 12 13  2  0  0  0
 12 14  1  0  0  0
 14 15  1  0  0  0
 16 17  4  0  0  0
 16 19  4  0  0  0
 17 18  4  0  0  0
 18 21  4  0  0  0
 19 20  4  0  0  0
 20 21  4  0  0  0
 21 22  1  0  0  0
 22 23  4  0  0  0
 22 30  4  0  0  0
 23 24  4  0  0  0
 24 25  1  0  0  0
 24 26  4  0  0  0
 26 27  1  0  0  0
 26 28  4  0  0  0
 28 29  1  0  0  0
 28 30  4  0  0  0
  1 31  1  0  0  0
  1 32  1  0  0  0
  2 33  1  0  0  0
  2 34  1  0  0  0
  3 35  1  0  0  0
  3 36  1  0  0  0
  4 37  1  0  0  0
  4 38  1  0  0  0
  5 39  1  0  0  0
  5 40  1  0  0  0
  6 41  1  0  0  0
  7 42  1  0  0  0
  7 43  1  0  0  0
 10 44  1  0  0  0
 11 45  1  0  0  0
 14 46  1  0  0  0
 15 47  1  0  0  0
 17 48  1  0  0  0
 18 49  1  0  0  0
 19 50  1  0  0  0
 20 51  1  0  0  0
 23 52  1  0  0  0
 30 53  1  0  0  0
M  END
$$$$
