5sy3_ligand
  -I-interpret- 

 31 34  0  0  0  0  0  0  0  0999 V2000
  -13.2740   16.5530   -5.5320 C   0  0  0  0  0
  -13.9770   18.7580   -5.7410 C   0  0  0  0  0
  -16.1580   22.1500   -5.3890 C   0  0  0  0  0
  -17.2560   19.7270   -3.9690 C   0  0  0  0  0
  -15.1070   18.4990   -4.9450 C   0  0  0  0  0
  -18.9270   15.5390   -3.6680 C   0  0  0  0  0
  -16.4890   15.5960   -2.9290 C   0  0  0  0  0
  -16.3430   16.8480   -3.6650 N   0  0  0  0  0
  -15.2490   17.1620   -4.4560 C   0  0  0  0  0
  -14.3220   16.2490   -4.7760 N   0  0  0  0  0
  -13.0950   17.7720   -6.0070 N   0  0  0  0  0
  -13.9890   20.4370   -6.2380 S   0  0  0  0  0
  -15.4830   20.7800   -5.3920 C   0  0  0  0  0
  -17.3900   22.1810   -4.4640 C   0  0  0  0  0
  -18.1620   20.8510   -4.4920 C   0  0  0  0  0
  -15.9530   19.6880   -4.7700 C   0  0  0  0  0
  -17.9530   15.2680   -2.7810 C   0  0  0  0  0
  -20.1250   15.0510   -3.1060 C   0  0  0  0  0
  -19.8190   14.5040   -1.9170 C   0  0  0  0  0
  -18.5000   14.6450   -1.7200 O   0  0  0  0  0
  -12.5441   15.7781   -5.7662 H   0  0  0  0  0
  -15.8101   23.0033   -5.9712 H   0  0  0  0  0
  -17.5047   19.0553   -3.1474 H   0  0  0  0  0
  -18.8130   16.0372   -4.6308 H   0  0  0  0  0
  -16.0383   15.7000   -1.9420 H   0  0  0  0  0
  -15.9902   14.7942   -3.4734 H   0  0  0  0  0
  -17.0933   17.5351   -3.5927 H   0  0  0  0  0
  -17.6797   23.0423   -3.8620 H   0  0  0  0  0
  -19.1907   20.7260   -4.8300 H   0  0  0  0  0
  -21.1172   15.1072   -3.5538 H   0  0  0  0  0
  -20.5209   14.0285   -1.2320 H   0  0  0  0  0
  1 10  4  0  0  0
 11  1  4  0  0  0
  2  5  4  0  0  0
  2 11  4  0  0  0
 12  2  4  0  0  0
 13  3  4  0  0  0
  3 14  4  0  0  0
  4 15  4  0  0  0
 16  4  4  0  0  0
  5  9  4  0  0  0
  5 16  4  0  0  0
 17  6  4  0  0  0
  6 18  4  0  0  0
  8  7  1  0  0  0
  7 17  1  0  0  0
  9  8  1  0  0  0
  9 10  4  0  0  0
 12 13  4  0  0  0
 13 16  4  0  0  0
 14 15  4  0  0  0
 17 20  4  0  0  0
 18 19  4  0  0  0
 19 20  4  0  0  0
  1 21  1  0  0  0
  3 22  1  0  0  0
  4 23  1  0  0  0
  6 24  1  0  0  0
  7 25  1  0  0  0
  7 26  1  0  0  0
  8 27  1  0  0  0
 14 28  1  0  0  0
 15 29  1  0  0  0
 18 30  1  0  0  0
 19 31  1  0  0  0
M  END
$$$$
