### 
### Created by X-TOOL on Mon Sep 10 21:12:54 2018
### 

@<TRIPOS>MOLECULE
2gph_ligand
  262   261     1     0     0
SMALL
GAST_HUCK


@<TRIPOS>ATOM
      1 N          25.5380   27.0060   13.8760 N.4       1 ARG         0.2379
      2 CA         24.8710   26.4110   15.0740 C.3       1 ARG         0.0651
      3 C          23.9100   27.4310   15.6950 C.2       1 ARG         0.2267
      4 O          24.2960   28.5700   15.9580 O.2       1 ARG        -0.3907
      5 CB         25.9270   25.9870   16.1080 C.3       1 ARG         0.0110
      6 CG         26.0360   24.4770   16.3520 C.3       1 ARG        -0.0125
      7 CD         27.3020   24.1150   17.1420 C.3       1 ARG         0.0629
      8 NE         28.5260   24.3390   16.3640 N.pl3     1 ARG        -0.2723
      9 CZ         29.7720   24.1520   16.8120 C.cat     1 ARG         0.2882
     10 NH1        29.9910   23.7320   18.0560 N.pl3     1 ARG        -0.2849
     11 NH2        30.8080   24.3780   16.0090 N.pl3     1 ARG        -0.2849
     12 N          22.6610   27.0240   15.9100 N.am      1 LEU        -0.2610
     13 CA         21.6470   27.8920   16.5100 C.3       1 LEU         0.1313
     14 C          22.2150   28.6240   17.7230 C.2       1 LEU         0.2039
     15 O          21.9100   29.7960   17.9490 O.2       1 LEU        -0.3944
     16 CB         20.4170   27.0570   16.9250 C.3       1 LEU        -0.0101
     17 CG         19.4530   27.6360   17.9810 C.3       1 LEU        -0.0425
     18 CD1        18.9030   28.9840   17.5330 C.3       1 LEU        -0.0625
     19 CD2        18.3180   26.6460   18.2200 C.3       1 LEU        -0.0625
     20 N          23.0540   27.9270   18.4900 N.am      1 GLN        -0.2636
     21 CA         23.6720   28.4960   19.6850 C.3       1 GLN         0.1330
     22 C          24.6170   29.6570   19.3670 C.2       1 GLN         0.2040
     23 O          24.6000   30.6780   20.0510 O.2       1 GLN        -0.3944
     24 CB         24.4320   27.4060   20.4660 C.3       1 GLN         0.0045
     25 CG         25.2890   27.9410   21.6300 C.3       1 GLN         0.0412
     26 CD         25.9460   26.8420   22.4600 C.2       1 GLN         0.1737
     27 OE1        26.3060   25.7850   21.9450 O.2       1 GLN        -0.3973
     28 NE2        26.1200   27.1040   23.7600 N.am      1 GLN        -0.3009
     29 N          25.4470   29.5090   18.3420 N.am      1 GLU        -0.2636
     30 CA         26.3820   30.5770   17.9850 C.3       1 GLU         0.1325
     31 C          25.5550   31.7720   17.5670 C.2       1 GLU         0.2040
     32 O          25.8190   32.9040   17.9640 O.2       1 GLU        -0.3944
     33 CB         27.2680   30.1630   16.8090 C.3       1 GLU        -0.0008
     34 CG         27.9550   28.8290   16.9650 C.3       1 GLU         0.0044
     35 CD         28.6940   28.4200   15.6930 C.2       1 GLU         0.0350
     36 OE1        28.1130   28.5810   14.5910 O.co2     1 GLU        -0.5690
     37 OE2        29.8440   27.9310   15.7950 O.co2     1 GLU        -0.5690
     38 N          24.5570   31.4880   16.7400 N.am      1 ARG        -0.2637
     39 CA         23.6230   32.4730   16.2180 C.3       1 ARG         0.1311
     40 C          23.0680   33.3450   17.3520 C.2       1 ARG         0.2039
     41 O          22.9130   34.5540   17.1990 O.2       1 ARG        -0.3944
     42 CB         22.4780   31.7340   15.5260 C.3       1 ARG        -0.0092
     43 CG         22.0190   32.3450   14.2330 C.3       1 ARG        -0.0156
     44 CD         21.6040   31.2580   13.2670 C.3       1 ARG         0.0627
     45 NE         20.2200   30.8360   13.4430 N.pl3     1 ARG        -0.2723
     46 CZ         19.8280   29.5640   13.4350 C.cat     1 ARG         0.2882
     47 NH1        20.7250   28.5950   13.2730 N.pl3     1 ARG        -0.2849
     48 NH2        18.5420   29.2650   13.5520 N.pl3     1 ARG        -0.2849
     49 N          22.7680   32.7200   18.4870 N.am      1 ARG        -0.2637
     50 CA         22.2160   33.4420   19.6370 C.3       1 ARG         0.1311
     51 C          23.3050   34.1400   20.4500 C.2       1 ARG         0.2037
     52 O          23.0290   34.7560   21.4790 O.2       1 ARG        -0.3944
     53 CB         21.4450   32.4720   20.5390 C.3       1 ARG        -0.0092
     54 CG         20.1510   31.9410   19.9250 C.3       1 ARG        -0.0156
     55 CD         19.0740   33.0130   19.7770 C.3       1 ARG         0.0627
     56 NE         17.8160   32.4370   19.3030 N.pl3     1 ARG        -0.2723
     57 CZ         17.5380   32.1730   18.0250 C.cat     1 ARG         0.2882
     58 NH1        18.4280   32.4480   17.0780 N.pl3     1 ARG        -0.2849
     59 NH2        16.3870   31.5960   17.6940 N.pl3     1 ARG        -0.2849
     60 N          24.5470   34.0120   19.9900 N.am      1 GLY        -0.2664
     61 CA         25.6640   34.6420   20.6690 C.3       1 GLY         0.1201
     62 C          26.1820   33.8970   21.8870 C.2       1 GLY         0.2008
     63 O          26.9030   34.4770   22.7090 O.2       1 GLY        -0.3947
     64 N          25.8200   32.6230   22.0250 N.am      1 SER        -0.2618
     65 CA         26.2870   31.8460   23.1670 C.3       1 SER         0.1539
     66 C          27.6010   31.1770   22.7810 C.2       1 SER         0.2063
     67 O          27.6860   30.4780   21.7690 O.2       1 SER        -0.3943
     68 CB         25.2520   30.7950   23.5760 C.3       1 SER         0.0843
     69 OG         25.6030   30.2130   24.8180 O.3       1 SER        -0.3903
     70 N          28.6230   31.4060   23.5970 N.am      1 ASN        -0.2615
     71 CA         29.9660   30.8790   23.3640 C.3       1 ASN         0.1476
     72 C          30.2600   29.6010   24.1340 C.2       1 ASN         0.2063
     73 O          31.1680   28.8460   23.7720 O.2       1 ASN        -0.3942
     74 CB         30.9870   31.9250   23.7870 C.3       1 ASN         0.0773
     75 CG         30.7490   32.4100   25.2120 C.2       1 ASN         0.1780
     76 OD1        29.7790   33.1340   25.4810 O.2       1 ASN        -0.3970
     77 ND2        31.6190   31.9960   26.1370 N.am      1 ASN        -0.3007
     78 N          29.5140   29.3910   25.2150 N.am      1 VAL        -0.2633
     79 CA         29.6870   28.2240   26.0630 C.3       1 VAL         0.1333
     80 C          29.8150   26.9570   25.2290 C.2       1 VAL         0.2041
     81 O          28.9110   26.6030   24.4730 O.2       1 VAL        -0.3944
     82 CB         28.5050   28.0830   27.0510 C.3       1 VAL        -0.0063
     83 CG1        28.6840   26.8390   27.9050 C.3       1 VAL        -0.0584
     84 CG2        28.4290   29.3200   27.9400 C.3       1 VAL        -0.0584
     85 N          30.9560   26.2890   25.3620 N.am      1 ALA        -0.2640
     86 CA         31.2190   25.0600   24.6260 C.3       1 ALA         0.1282
     87 C          30.4760   23.8980   25.2750 C.2       1 ALA         0.2036
     88 O          30.9940   23.2460   26.1730 O.2       1 ALA        -0.3944
     89 CB         32.7090   24.7760   24.6080 C.3       1 ALA        -0.0244
     90 N          29.2620   23.6360   24.8080 N.am      1 LEU        -0.2637
     91 CA         28.4570   22.5620   25.3700 C.3       1 LEU         0.1312
     92 C          28.8760   21.2090   24.8200 C.2       1 LEU         0.2039
     93 O          28.7480   20.9420   23.6260 O.2       1 LEU        -0.3944
     94 CB         26.9730   22.8330   25.0990 C.3       1 LEU        -0.0101
     95 CG         26.4700   24.1470   25.7140 C.3       1 LEU        -0.0425
     96 CD1        24.9970   24.3420   25.4110 C.3       1 LEU        -0.0625
     97 CD2        26.6930   24.1250   27.2190 C.3       1 LEU        -0.0625
     98 N          29.3990   20.3610   25.6970 N.am      1 MET        -0.2637
     99 CA         29.8410   19.0420   25.2800 C.3       1 MET         0.1317
    100 C          28.9780   17.9100   25.8050 C.2       1 MET         0.2039
    101 O          28.2760   18.0480   26.8010 O.2       1 MET        -0.3944
    102 CB         31.2730   18.8130   25.7230 C.3       1 MET        -0.0034
    103 CG         32.2360   19.8610   25.2130 C.3       1 MET        -0.0024
    104 SD         33.8670   19.5460   25.8700 S.3       1 MET        -0.1639
    105 CE         33.5510   19.7520   27.6710 C.3       1 MET        -0.0181
    106 N          29.0530   16.7810   25.1130 N.am      1 LEU        -0.2637
    107 CA         28.3090   15.5860   25.4760 C.3       1 LEU         0.1312
    108 C          29.3340   14.5170   25.8090 C.2       1 LEU         0.2040
    109 O          30.4020   14.4650   25.1980 O.2       1 LEU        -0.3944
    110 CB         27.4460   15.1140   24.2980 C.3       1 LEU        -0.0101
    111 CG         26.4660   16.1250   23.6990 C.3       1 LEU        -0.0425
    112 CD1        25.6410   15.4450   22.6180 C.3       1 LEU        -0.0625
    113 CD2        25.5690   16.6870   24.7990 C.3       1 LEU        -0.0625
    114 N          29.0160   13.6580   26.7650 N.am      1 ASP        -0.2622
    115 CA         29.9480   12.6150   27.1330 C.3       1 ASP         0.1423
    116 C          29.5190   11.2660   26.5780 C.2       1 ASP         0.2051
    117 O          30.2710   10.3020   26.6310 O.2       1 ASP        -0.3943
    118 CB         30.0920   12.5500   28.6530 C.3       1 ASP         0.0406
    119 CG         31.3550   11.8180   29.0820 C.2       1 ASP         0.0393
    120 OD1        31.2450   10.6710   29.5730 O.co2     1 ASP        -0.5688
    121 OD2        32.4530   12.3980   28.9120 O.co2     1 ASP        -0.5688
    122 N          28.3010   11.1980   26.0500 N.am      1 CYS        -0.2686
    123 CA         27.7920    9.9560   25.4680 C.3       1 CYS         0.1030
    124 C          26.6590   10.2490   24.4900 C.2       1 CYS         0.0609
    125 O          26.6540   11.3690   23.9310 O.co2     1 CYS        -0.5666
    126 CB         27.3030    8.9840   26.5560 C.3       1 CYS         0.0256
    127 SG         25.7590    9.4660   27.3950 S.3       1 CYS        -0.1742
    128 OXT        25.8100    9.3490   24.2810 O.co2     1 CYS        -0.5666
    129 H1         26.1683   26.3308   13.4724 H         1 ARG         0.2015
    130 H2         26.0556   27.8257   14.1521 H         1 ARG         0.2015
    131 H3         24.8400   27.2627   13.1956 H         1 ARG         0.2015
    132 H4         24.2997   25.5242   14.7622 H         1 ARG         0.1098
    133 H5         25.6781   26.4687   17.0651 H         1 ARG         0.0347
    134 H6         26.9067   26.3466   15.7603 H         1 ARG         0.0347
    135 H7         26.0629   23.9608   15.3810 H         1 ARG         0.0302
    136 H8         25.1549   24.1439   16.9201 H         1 ARG         0.0302
    137 H9         27.2515   23.0530   17.4243 H         1 ARG         0.0689
    138 H10        27.3417   24.7343   18.0502 H         1 ARG         0.0689
    139 H11        28.4164   24.6670   15.3938 H         1 ARG         0.2642
    140 H12        30.9552   23.5915   18.3899 H         1 ARG         0.2615
    141 H13        29.1963   23.5475   18.6847 H         1 ARG         0.2615
    142 H14        30.6506   24.7032   15.0444 H         1 ARG         0.2615
    143 H15        31.7676   24.2278   16.3517 H         1 ARG         0.2615
    144 H16        22.4065   26.0919   15.6523 H         1 LEU         0.1884
    145 H17        21.3344   28.6370   15.7635 H         1 LEU         0.0800
    146 H18        20.7921   26.1007   17.3183 H         1 LEU         0.0315
    147 H19        19.8278   26.8732   16.0145 H         1 LEU         0.0315
    148 H20        20.0035   27.7791   18.9225 H         1 LEU         0.0298
    149 H21        18.2198   29.3749   18.3014 H         1 LEU         0.0232
    150 H22        18.3575   28.8610   16.5858 H         1 LEU         0.0232
    151 H23        19.7344   29.6896   17.3884 H         1 LEU         0.0232
    152 H24        18.7353   25.6806   18.5422 H         1 LEU         0.0232
    153 H25        17.7501   26.5073   17.2882 H         1 LEU         0.0232
    154 H26        17.6499   27.0359   19.0020 H         1 LEU         0.0232
    155 H27        23.2673   26.9829   18.2386 H         1 GLN         0.1883
    156 H28        22.8666   28.8830   20.3265 H         1 GLN         0.0801
    157 H29        25.0948   26.8782   19.7645 H         1 GLN         0.0337
    158 H30        23.6956   26.6996   20.8767 H         1 GLN         0.0337
    159 H31        24.6436   28.5376   22.2915 H         1 GLN         0.0504
    160 H32        26.0799   28.5821   21.2136 H         1 GLN         0.0504
    161 H33        26.5453   26.4220   24.3549 H         1 GLN         0.1814
    162 H34        25.8247   27.9819   24.1370 H         1 GLN         0.1814
    163 H35        25.4335   28.6623   17.8101 H         1 GLU         0.1883
    164 H36        27.0113   30.8293   18.8512 H         1 GLU         0.0801
    165 H37        28.0432   30.9325   16.6787 H         1 GLU         0.0330
    166 H38        26.6394   30.1193   15.9074 H         1 GLU         0.0330
    167 H39        27.1995   28.0646   17.1993 H         1 GLU         0.0433
    168 H40        28.6781   28.8953   17.7912 H         1 GLU         0.0433
    169 H41        24.4396   30.5359   16.4576 H         1 ARG         0.1883
    170 H42        24.1395   33.1154   15.4896 H         1 ARG         0.0800
    171 H43        21.6211   31.7100   16.2153 H         1 ARG         0.0313
    172 H44        22.8108   30.7063   15.3187 H         1 ARG         0.0313
    173 H45        22.8413   32.9286   13.7935 H         1 ARG         0.0301
    174 H46        21.1621   33.0070   14.4266 H         1 ARG         0.0301
    175 H47        22.2578   30.3865   13.4184 H         1 ARG         0.0689
    176 H48        21.7274   31.6352   12.2411 H         1 ARG         0.0689
    177 H49        19.5044   31.5637   13.5815 H         1 ARG         0.2642
    178 H50        20.4237   27.6101   13.2665 H         1 ARG         0.2615
    179 H51        21.7208   28.8297   13.1541 H         1 ARG         0.2615
    180 H52        17.8481   30.0157   13.6774 H         1 ARG         0.2615
    181 H53        18.2366   28.2819   13.5175 H         1 ARG         0.2615
    182 H54        22.9226   31.7345   18.5575 H         1 ARG         0.1883
    183 H55        21.5195   34.2067   19.2626 H         1 ARG         0.0800
    184 H56        21.1942   32.9952   21.4735 H         1 ARG         0.0313
    185 H57        22.0979   31.6153   20.7622 H         1 ARG         0.0313
    186 H58        19.7608   31.1395   20.5695 H         1 ARG         0.0301
    187 H59        20.3778   31.5329   18.9290 H         1 ARG         0.0301
    188 H60        19.4169   33.7689   19.0552 H         1 ARG         0.0689
    189 H61        18.9049   33.4891   20.7541 H         1 ARG         0.0689
    190 H62        17.0941   32.2199   20.0049 H         1 ARG         0.2642
    191 H63        18.2110   32.2432   16.0922 H         1 ARG         0.2615
    192 H64        19.3351   32.8660   17.3295 H         1 ARG         0.2615
    193 H65        15.6914   31.3794   18.4221 H         1 ARG         0.2615
    194 H66        16.1908   31.3656   16.7095 H         1 ARG         0.2615
    195 H67        24.7131   33.4735   19.1639 H         1 GLY         0.1881
    196 H68        25.3447   35.6436   20.9928 H         1 GLY         0.0763
    197 H69        26.4910   34.7354   19.9498 H         1 GLY         0.0763
    198 H70        25.2255   32.1975   21.3427 H         1 SER         0.1884
    199 H71        26.4593   32.5217   24.0177 H         1 SER         0.0823
    200 H72        25.2097   30.0096   22.8070 H         1 SER         0.0606
    201 H73        24.2657   31.2736   23.6660 H         1 SER         0.0606
    202 H74        25.6381   30.8890   25.4846 H         1 SER         0.2097
    203 H75        28.4662   31.9662   24.4104 H         1 ASN         0.1885
    204 H76        30.0755   30.6730   22.2890 H         1 ASN         0.0826
    205 H77        30.9197   32.7841   23.1034 H         1 ASN         0.0551
    206 H78        31.9932   31.4849   23.7249 H         1 ASN         0.0551
    207 H79        31.5114   32.2834   27.0888 H         1 ASN         0.1814
    208 H80        32.3779   31.3987   25.8778 H         1 ASN         0.1814
    209 H81        28.8094   30.0597   25.4524 H         1 VAL         0.1883
    210 H82        30.6127   28.3539   26.6429 H         1 VAL         0.0802
    211 H83        27.5690   27.9931   26.4802 H         1 VAL         0.0343
    212 H84        27.8387   26.7488   28.6031 H         1 VAL         0.0234
    213 H85        29.6224   26.9165   28.4736 H         1 VAL         0.0234
    214 H86        28.7203   25.9512   27.2566 H         1 VAL         0.0234
    215 H87        28.2995   30.2146   27.3132 H         1 VAL         0.0234
    216 H88        29.3582   29.4112   28.5216 H         1 VAL         0.0234
    217 H89        27.5745   29.2264   28.6263 H         1 VAL         0.0234
    218 H90        31.6544   26.6403   25.9856 H         1 ALA         0.1883
    219 H91        30.8646   25.1790   23.5915 H         1 ALA         0.0797
    220 H92        32.8984   23.8468   24.0506 H         1 ALA         0.0277
    221 H93        33.0737   24.6653   25.6399 H         1 ALA         0.0277
    222 H94        33.2354   25.6098   24.1205 H         1 ALA         0.0277
    223 H95        28.8944   24.1855   24.0577 H         1 LEU         0.1883
    224 H96        28.6124   22.5485   26.4589 H         1 LEU         0.0800
    225 H97        26.3849   22.0039   25.5193 H         1 LEU         0.0315
    226 H98        26.8197   22.8765   24.0106 H         1 LEU         0.0315
    227 H99        27.0363   24.9842   25.2800 H         1 LEU         0.0298
    228 H100       24.6527   25.2863   25.8578 H         1 LEU         0.0232
    229 H101       24.4217   23.5051   25.8338 H         1 LEU         0.0232
    230 H102       24.8481   24.3761   24.3217 H         1 LEU         0.0232
    231 H103       27.7634   23.9832   27.4290 H         1 LEU         0.0232
    232 H104       26.1197   23.2977   27.6626 H         1 LEU         0.0232
    233 H105       26.3573   25.0782   27.6534 H         1 LEU         0.0232
    234 H106       29.4896   20.6332   26.6550 H         1 MET         0.1883
    235 H107       29.8045   19.0110   24.1811 H         1 MET         0.0800
    236 H108       31.5994   17.8302   25.3522 H         1 MET         0.0320
    237 H109       31.3026   18.8184   26.8226 H         1 MET         0.0320
    238 H110       31.8976   20.8569   25.5351 H         1 MET         0.0378
    239 H111       32.2703   19.8230   24.1142 H         1 MET         0.0378
    240 H112       34.4845   19.5853   28.2284 H         1 MET         0.0340
    241 H113       32.7945   19.0227   27.9963 H         1 MET         0.0340
    242 H114       33.1851   20.7711   27.8649 H         1 MET         0.0340
    243 H115       29.6459   16.7505   24.3083 H         1 LEU         0.1883
    244 H116       27.6682   15.7876   26.3470 H         1 LEU         0.0800
    245 H117       26.8598   14.2495   24.6429 H         1 LEU         0.0315
    246 H118       28.1274   14.7979   23.4945 H         1 LEU         0.0315
    247 H119       27.0328   16.9522   23.2468 H         1 LEU         0.0298
    248 H120       24.9353   16.1694   22.1853 H         1 LEU         0.0232
    249 H121       25.0817   14.6057   23.0570 H         1 LEU         0.0232
    250 H122       26.3090   15.0681   21.8296 H         1 LEU         0.0232
    251 H123       26.1901   17.1723   25.5663 H         1 LEU         0.0232
    252 H124       24.9936   15.8688   25.2567 H         1 LEU         0.0232
    253 H125       24.8771   17.4248   24.3667 H         1 LEU         0.0232
    254 H126       28.1342   13.7301   27.2311 H         1 ASP         0.1884
    255 H127       30.9292   12.8645   26.7030 H         1 ASP         0.0819
    256 H128       29.2198   12.0243   29.0689 H         1 ASP         0.0478
    257 H129       30.1255   13.5755   29.0495 H         1 ASP         0.0478
    258 H130       27.7207   12.0124   26.0506 H         1 CYS         0.1876
    259 H131       28.6128    9.4736   24.9170 H         1 CYS         0.0734
    260 H132       28.0922    8.9019   27.3178 H         1 CYS         0.0415
    261 H133       27.1425    8.0020   26.0870 H         1 CYS         0.0415
    262 H134       25.8871   10.3588   27.8450 H         1 CYS         0.1018
@<TRIPOS>BOND
     1    1    2 1  
     2    2    3 1  
     3    2    5 1  
     4    3    4 2  
     5    3   12 am 
     6    5    6 1  
     7    6    7 1  
     8    7    8 1  
     9    8    9 ar 
    10    9   10 ar 
    11    9   11 ar 
    12   12   13 1  
    13   13   14 1  
    14   13   16 1  
    15   14   15 2  
    16   14   20 am 
    17   16   17 1  
    18   17   18 1  
    19   17   19 1  
    20   20   21 1  
    21   21   22 1  
    22   21   24 1  
    23   22   23 2  
    24   22   29 am 
    25   24   25 1  
    26   25   26 1  
    27   26   27 2  
    28   26   28 am 
    29   29   30 1  
    30   30   31 1  
    31   30   33 1  
    32   31   32 2  
    33   31   38 am 
    34   33   34 1  
    35   34   35 1  
    36   35   36 ar 
    37   35   37 ar 
    38   38   39 1  
    39   39   40 1  
    40   39   42 1  
    41   40   41 2  
    42   40   49 am 
    43   42   43 1  
    44   43   44 1  
    45   44   45 1  
    46   45   46 ar 
    47   46   47 ar 
    48   46   48 ar 
    49   49   50 1  
    50   50   51 1  
    51   50   53 1  
    52   51   52 2  
    53   51   60 am 
    54   53   54 1  
    55   54   55 1  
    56   55   56 1  
    57   56   57 ar 
    58   57   58 ar 
    59   57   59 ar 
    60   60   61 1  
    61   61   62 1  
    62   62   63 2  
    63   62   64 am 
    64   64   65 1  
    65   65   66 1  
    66   65   68 1  
    67   66   67 2  
    68   66   70 am 
    69   68   69 1  
    70   70   71 1  
    71   71   72 1  
    72   71   74 1  
    73   72   73 2  
    74   72   78 am 
    75   74   75 1  
    76   75   76 2  
    77   75   77 am 
    78   78   79 1  
    79   79   80 1  
    80   79   82 1  
    81   80   81 2  
    82   80   85 am 
    83   82   83 1  
    84   82   84 1  
    85   85   86 1  
    86   86   87 1  
    87   86   89 1  
    88   87   88 2  
    89   87   90 am 
    90   90   91 1  
    91   91   92 1  
    92   91   94 1  
    93   92   93 2  
    94   92   98 am 
    95   94   95 1  
    96   95   96 1  
    97   95   97 1  
    98   98   99 1  
    99   99  100 1  
   100   99  102 1  
   101  100  101 2  
   102  100  106 am 
   103  102  103 1  
   104  103  104 1  
   105  104  105 1  
   106  106  107 1  
   107  107  108 1  
   108  107  110 1  
   109  108  109 2  
   110  108  114 am 
   111  110  111 1  
   112  111  112 1  
   113  111  113 1  
   114  114  115 1  
   115  115  116 1  
   116  115  118 1  
   117  116  117 2  
   118  116  122 am 
   119  118  119 1  
   120  119  120 ar 
   121  119  121 ar 
   122  122  123 1  
   123  123  124 1  
   124  123  126 1  
   125  124  125 ar 
   126  124  128 ar 
   127  126  127 1  
   128    1  129 1  
   129    1  130 1  
   130    1  131 1  
   131    2  132 1  
   132    5  133 1  
   133    5  134 1  
   134    6  135 1  
   135    6  136 1  
   136    7  137 1  
   137    7  138 1  
   138    8  139 1  
   139   10  140 1  
   140   10  141 1  
   141   11  142 1  
   142   11  143 1  
   143   12  144 1  
   144   13  145 1  
   145   16  146 1  
   146   16  147 1  
   147   17  148 1  
   148   18  149 1  
   149   18  150 1  
   150   18  151 1  
   151   19  152 1  
   152   19  153 1  
   153   19  154 1  
   154   20  155 1  
   155   21  156 1  
   156   24  157 1  
   157   24  158 1  
   158   25  159 1  
   159   25  160 1  
   160   28  161 1  
   161   28  162 1  
   162   29  163 1  
   163   30  164 1  
   164   33  165 1  
   165   33  166 1  
   166   34  167 1  
   167   34  168 1  
   168   38  169 1  
   169   39  170 1  
   170   42  171 1  
   171   42  172 1  
   172   43  173 1  
   173   43  174 1  
   174   44  175 1  
   175   44  176 1  
   176   45  177 1  
   177   47  178 1  
   178   47  179 1  
   179   48  180 1  
   180   48  181 1  
   181   49  182 1  
   182   50  183 1  
   183   53  184 1  
   184   53  185 1  
   185   54  186 1  
   186   54  187 1  
   187   55  188 1  
   188   55  189 1  
   189   56  190 1  
   190   58  191 1  
   191   58  192 1  
   192   59  193 1  
   193   59  194 1  
   194   60  195 1  
   195   61  196 1  
   196   61  197 1  
   197   64  198 1  
   198   65  199 1  
   199   68  200 1  
   200   68  201 1  
   201   69  202 1  
   202   70  203 1  
   203   71  204 1  
   204   74  205 1  
   205   74  206 1  
   206   77  207 1  
   207   77  208 1  
   208   78  209 1  
   209   79  210 1  
   210   82  211 1  
   211   83  212 1  
   212   83  213 1  
   213   83  214 1  
   214   84  215 1  
   215   84  216 1  
   216   84  217 1  
   217   85  218 1  
   218   86  219 1  
   219   89  220 1  
   220   89  221 1  
   221   89  222 1  
   222   90  223 1  
   223   91  224 1  
   224   94  225 1  
   225   94  226 1  
   226   95  227 1  
   227   96  228 1  
   228   96  229 1  
   229   96  230 1  
   230   97  231 1  
   231   97  232 1  
   232   97  233 1  
   233   98  234 1  
   234   99  235 1  
   235  102  236 1  
   236  102  237 1  
   237  103  238 1  
   238  103  239 1  
   239  105  240 1  
   240  105  241 1  
   241  105  242 1  
   242  106  243 1  
   243  107  244 1  
   244  110  245 1  
   245  110  246 1  
   246  111  247 1  
   247  112  248 1  
   248  112  249 1  
   249  112  250 1  
   250  113  251 1  
   251  113  252 1  
   252  113  253 1  
   253  114  254 1  
   254  115  255 1  
   255  118  256 1  
   256  118  257 1  
   257  122  258 1  
   258  123  259 1  
   259  126  260 1  
   260  126  261 1  
   261  127  262 1  
@<TRIPOS>SUBSTRUCTURE
     1 ARG         1

