2gph_ligand
  -I-interpret- 

262261  0  0  0  0  0  0  0  0999 V2000
   25.5380   27.0060   13.8760 N   0  3  0  0  0
   24.8710   26.4110   15.0740 C   0  0  0  0  0
   23.9100   27.4310   15.6950 C   0  0  0  0  0
   24.2960   28.5700   15.9580 O   0  0  0  0  0
   25.9270   25.9870   16.1080 C   0  0  0  0  0
   26.0360   24.4770   16.3520 C   0  0  0  0  0
   27.3020   24.1150   17.1420 C   0  0  0  0  0
   28.5260   24.3390   16.3640 N   0  0  0  0  0
   29.7720   24.1520   16.8120 C   0  0  0  0  0
   29.9910   23.7320   18.0560 N   0  0  0  0  0
   30.8080   24.3780   16.0090 N   0  0  0  0  0
   22.6610   27.0240   15.9100 N   0  0  0  0  0
   21.6470   27.8920   16.5100 C   0  0  0  0  0
   22.2150   28.6240   17.7230 C   0  0  0  0  0
   21.9100   29.7960   17.9490 O   0  0  0  0  0
   20.4170   27.0570   16.9250 C   0  0  0  0  0
   19.4530   27.6360   17.9810 C   0  0  0  0  0
   18.9030   28.9840   17.5330 C   0  0  0  0  0
   18.3180   26.6460   18.2200 C   0  0  0  0  0
   23.0540   27.9270   18.4900 N   0  0  0  0  0
   23.6720   28.4960   19.6850 C   0  0  0  0  0
   24.6170   29.6570   19.3670 C   0  0  0  0  0
   24.6000   30.6780   20.0510 O   0  0  0  0  0
   24.4320   27.4060   20.4660 C   0  0  0  0  0
   25.2890   27.9410   21.6300 C   0  0  0  0  0
   25.9460   26.8420   22.4600 C   0  0  0  0  0
   26.3060   25.7850   21.9450 O   0  0  0  0  0
   26.1200   27.1040   23.7600 N   0  0  0  0  0
   25.4470   29.5090   18.3420 N   0  0  0  0  0
   26.3820   30.5770   17.9850 C   0  0  0  0  0
   25.5550   31.7720   17.5670 C   0  0  0  0  0
   25.8190   32.9040   17.9640 O   0  0  0  0  0
   27.2680   30.1630   16.8090 C   0  0  0  0  0
   27.9550   28.8290   16.9650 C   0  0  0  0  0
   28.6940   28.4200   15.6930 C   0  0  0  0  0
   28.1130   28.5810   14.5910 O   0  0  0  0  0
   29.8440   27.9310   15.7950 O   0  0  0  0  0
   24.5570   31.4880   16.7400 N   0  0  0  0  0
   23.6230   32.4730   16.2180 C   0  0  0  0  0
   23.0680   33.3450   17.3520 C   0  0  0  0  0
   22.9130   34.5540   17.1990 O   0  0  0  0  0
   22.4780   31.7340   15.5260 C   0  0  0  0  0
   22.0190   32.3450   14.2330 C   0  0  0  0  0
   21.6040   31.2580   13.2670 C   0  0  0  0  0
   20.2200   30.8360   13.4430 N   0  0  0  0  0
   19.8280   29.5640   13.4350 C   0  0  0  0  0
   20.7250   28.5950   13.2730 N   0  0  0  0  0
   18.5420   29.2650   13.5520 N   0  0  0  0  0
   22.7680   32.7200   18.4870 N   0  0  0  0  0
   22.2160   33.4420   19.6370 C   0  0  0  0  0
   23.3050   34.1400   20.4500 C   0  0  0  0  0
   23.0290   34.7560   21.4790 O   0  0  0  0  0
   21.4450   32.4720   20.5390 C   0  0  0  0  0
   20.1510   31.9410   19.9250 C   0  0  0  0  0
   19.0740   33.0130   19.7770 C   0  0  0  0  0
   17.8160   32.4370   19.3030 N   0  0  0  0  0
   17.5380   32.1730   18.0250 C   0  0  0  0  0
   18.4280   32.4480   17.0780 N   0  0  0  0  0
   16.3870   31.5960   17.6940 N   0  0  0  0  0
   24.5470   34.0120   19.9900 N   0  0  0  0  0
   25.6640   34.6420   20.6690 C   0  0  0  0  0
   26.1820   33.8970   21.8870 C   0  0  0  0  0
   26.9030   34.4770   22.7090 O   0  0  0  0  0
   25.8200   32.6230   22.0250 N   0  0  0  0  0
   26.2870   31.8460   23.1670 C   0  0  0  0  0
   27.6010   31.1770   22.7810 C   0  0  0  0  0
   27.6860   30.4780   21.7690 O   0  0  0  0  0
   25.2520   30.7950   23.5760 C   0  0  0  0  0
   25.6030   30.2130   24.8180 O   0  0  0  0  0
   28.6230   31.4060   23.5970 N   0  0  0  0  0
   29.9660   30.8790   23.3640 C   0  0  0  0  0
   30.2600   29.6010   24.1340 C   0  0  0  0  0
   31.1680   28.8460   23.7720 O   0  0  0  0  0
   30.9870   31.9250   23.7870 C   0  0  0  0  0
   30.7490   32.4100   25.2120 C   0  0  0  0  0
   29.7790   33.1340   25.4810 O   0  0  0  0  0
   31.6190   31.9960   26.1370 N   0  0  0  0  0
   29.5140   29.3910   25.2150 N   0  0  0  0  0
   29.6870   28.2240   26.0630 C   0  0  0  0  0
   29.8150   26.9570   25.2290 C   0  0  0  0  0
   28.9110   26.6030   24.4730 O   0  0  0  0  0
   28.5050   28.0830   27.0510 C   0  0  0  0  0
   28.6840   26.8390   27.9050 C   0  0  0  0  0
   28.4290   29.3200   27.9400 C   0  0  0  0  0
   30.9560   26.2890   25.3620 N   0  0  0  0  0
   31.2190   25.0600   24.6260 C   0  0  0  0  0
   30.4760   23.8980   25.2750 C   0  0  0  0  0
   30.9940   23.2460   26.1730 O   0  0  0  0  0
   32.7090   24.7760   24.6080 C   0  0  0  0  0
   29.2620   23.6360   24.8080 N   0  0  0  0  0
   28.4570   22.5620   25.3700 C   0  0  0  0  0
   28.8760   21.2090   24.8200 C   0  0  0  0  0
   28.7480   20.9420   23.6260 O   0  0  0  0  0
   26.9730   22.8330   25.0990 C   0  0  0  0  0
   26.4700   24.1470   25.7140 C   0  0  0  0  0
   24.9970   24.3420   25.4110 C   0  0  0  0  0
   26.6930   24.1250   27.2190 C   0  0  0  0  0
   29.3990   20.3610   25.6970 N   0  0  0  0  0
   29.8410   19.0420   25.2800 C   0  0  0  0  0
   28.9780   17.9100   25.8050 C   0  0  0  0  0
   28.2760   18.0480   26.8010 O   0  0  0  0  0
   31.2730   18.8130   25.7230 C   0  0  0  0  0
   32.2360   19.8610   25.2130 C   0  0  0  0  0
   33.8670   19.5460   25.8700 S   0  0  0  0  0
   33.5510   19.7520   27.6710 C   0  0  0  0  0
   29.0530   16.7810   25.1130 N   0  0  0  0  0
   28.3090   15.5860   25.4760 C   0  0  0  0  0
   29.3340   14.5170   25.8090 C   0  0  0  0  0
   30.4020   14.4650   25.1980 O   0  0  0  0  0
   27.4460   15.1140   24.2980 C   0  0  0  0  0
   26.4660   16.1250   23.6990 C   0  0  0  0  0
   25.6410   15.4450   22.6180 C   0  0  0  0  0
   25.5690   16.6870   24.7990 C   0  0  0  0  0
   29.0160   13.6580   26.7650 N   0  0  0  0  0
   29.9480   12.6150   27.1330 C   0  0  0  0  0
   29.5190   11.2660   26.5780 C   0  0  0  0  0
   30.2710   10.3020   26.6310 O   0  0  0  0  0
   30.0920   12.5500   28.6530 C   0  0  0  0  0
   31.3550   11.8180   29.0820 C   0  0  0  0  0
   31.2450   10.6710   29.5730 O   0  0  0  0  0
   32.4530   12.3980   28.9120 O   0  0  0  0  0
   28.3010   11.1980   26.0500 N   0  0  0  0  0
   27.7920    9.9560   25.4680 C   0  0  0  0  0
   26.6590   10.2490   24.4900 C   0  0  0  0  0
   26.6540   11.3690   23.9310 O   0  0  0  0  0
   27.3030    8.9840   26.5560 C   0  0  0  0  0
   25.7590    9.4660   27.3950 S   0  0  0  0  0
   25.8100    9.3490   24.2810 O   0  0  0  0  0
   24.8295   27.2837   13.1968 H   0  0  0  0  0
   26.0776   27.8237   14.1598 H   0  0  0  0  0
   26.1604   26.3152   13.4567 H   0  0  0  0  0
   24.3059   25.5314   14.7657 H   0  0  0  0  0
   25.6328   26.4360   17.0567 H   0  0  0  0  0
   26.8924   26.3107   15.7189 H   0  0  0  0  0
   26.0819   23.9768   15.3847 H   0  0  0  0  0
   25.1690   24.1609   16.9320 H   0  0  0  0  0
   27.2513   23.0562   17.3959 H   0  0  0  0  0
   27.3422   24.7505   18.0267 H   0  0  0  0  0
   28.4175   24.6638   15.4032 H   0  0  0  0  0
   30.9456   23.5867   18.3846 H   0  0  0  0  0
   29.2042   23.5555   18.6806 H   0  0  0  0  0
   30.6519   24.6939   15.0518 H   0  0  0  0  0
   22.4014   26.0732   15.6472 H   0  0  0  0  0
   21.3435   28.6328   15.7703 H   0  0  0  0  0
   20.8265   26.1545   17.3788 H   0  0  0  0  0
   19.8201   26.9607   16.0181 H   0  0  0  0  0
   19.9972   27.7941   18.9121 H   0  0  0  0  0
   19.7278   29.6821   17.3901 H   0  0  0  0  0
   18.3628   28.8608   16.5943 H   0  0  0  0  0
   18.2263   29.3703   18.2952 H   0  0  0  0  0
   17.7811   26.4785   17.2863 H   0  0  0  0  0
   18.7299   25.7025   18.5780 H   0  0  0  0  0
   17.6346   27.0519   18.9659 H   0  0  0  0  0
   23.2716   26.9640   18.2336 H   0  0  0  0  0
   22.8623   28.8942   20.2965 H   0  0  0  0  0
   25.1109   26.9225   19.7636 H   0  0  0  0  0
   23.6845   26.7404   20.8975 H   0  0  0  0  0
   24.6282   28.5001   22.2924 H   0  0  0  0  0
   26.0866   28.5453   21.1979 H   0  0  0  0  0
   26.5662   26.4138   24.3641 H   0  0  0  0  0
   25.8065   27.9940   24.1473 H   0  0  0  0  0
   25.4332   28.6453   17.7995 H   0  0  0  0  0
   27.0258   30.8001   18.8358 H   0  0  0  0  0
   28.0542   30.9137   16.7285 H   0  0  0  0  0
   26.6169   30.0811   15.9387 H   0  0  0  0  0
   27.1965   28.0757   17.1780 H   0  0  0  0  0
   28.6823   28.9104   17.7728 H   0  0  0  0  0
   27.2471   28.9677   14.7405 H   0  0  0  0  0
   24.4372   30.5169   16.4520 H   0  0  0  0  0
   24.1372   33.1231   15.5101 H   0  0  0  0  0
   21.6275   31.7623   16.2072 H   0  0  0  0  0
   22.8450   30.7352   15.2897 H   0  0  0  0  0
   22.8365   32.9195   13.7973 H   0  0  0  0  0
   21.1675   32.9974   14.4266 H   0  0  0  0  0
   22.2404   30.3920   13.4489 H   0  0  0  0  0
   21.7034   31.6561   12.2572 H   0  0  0  0  0
   19.5113   31.5567   13.5801 H   0  0  0  0  0
   20.4233   27.6212   13.2388 H   0  0  0  0  0
   21.7145   28.8258   13.1830 H   0  0  0  0  0
   17.8519   30.0099   13.6483 H   0  0  0  0  0
   22.9257   31.7148   18.5589 H   0  0  0  0  0
   21.5437   34.2086   19.2516 H   0  0  0  0  0
   21.1721   33.0194   21.4412 H   0  0  0  0  0
   22.0929   31.6136   20.7164 H   0  0  0  0  0
   19.7614   31.1697   20.5894 H   0  0  0  0  0
   20.3862   31.5681   18.9281 H   0  0  0  0  0
   19.4147   33.7504   19.0502 H   0  0  0  0  0
   18.9020   33.4702   20.7514 H   0  0  0  0  0
   17.1011   32.2221   19.9981 H   0  0  0  0  0
   19.3263   32.8619   17.3271 H   0  0  0  0  0
   16.1927   31.3678   16.7190 H   0  0  0  0  0
   15.6982   31.3815   18.4150 H   0  0  0  0  0
   24.7165   33.4627   19.1474 H   0  0  0  0  0
   25.3106   35.6111   21.0212 H   0  0  0  0  0
   26.4847   34.6808   19.9528 H   0  0  0  0  0
   25.2136   32.1890   21.3291 H   0  0  0  0  0
   26.4364   32.5049   24.0223 H   0  0  0  0  0
   25.2188   30.0149   22.8154 H   0  0  0  0  0
   24.2779   31.2747   23.6716 H   0  0  0  0  0
   24.9451   29.5571   25.0601 H   0  0  0  0  0
   28.4630   31.9774   24.4266 H   0  0  0  0  0
   30.0276   30.6452   22.3012 H   0  0  0  0  0
   30.8979   32.7796   23.1163 H   0  0  0  0  0
   31.9777   31.4728   23.7415 H   0  0  0  0  0
   31.4994   32.2751   27.1108 H   0  0  0  0  0
   32.4030   31.4008   25.8696 H   0  0  0  0  0
   28.7953   30.0731   25.4571 H   0  0  0  0  0
   30.6072   28.3625   26.6306 H   0  0  0  0  0
   27.5772   27.9899   26.4865 H   0  0  0  0  0
   28.7199   25.9601   27.2614 H   0  0  0  0  0
   29.6142   26.9170   28.4678 H   0  0  0  0  0
   27.8459   26.7507   28.5963 H   0  0  0  0  0
   29.3589   29.4213   28.4996 H   0  0  0  0  0
   28.2789   30.2033   27.3192 H   0  0  0  0  0
   27.5951   29.2163   28.6342 H   0  0  0  0  0
   31.6684   26.6474   25.9980 H   0  0  0  0  0
   30.8685   25.1779   23.6007 H   0  0  0  0  0
   33.2294   25.6029   24.1247 H   0  0  0  0  0
   33.0691   24.6666   25.6310 H   0  0  0  0  0
   32.8954   23.8551   24.0554 H   0  0  0  0  0
   28.8870   24.1965   24.0427 H   0  0  0  0  0
   28.6192   22.5335   26.4475 H   0  0  0  0  0
   26.4033   22.0204   25.5497 H   0  0  0  0  0
   26.8444   22.9056   24.0190 H   0  0  0  0  0
   27.0265   24.9771   25.2789 H   0  0  0  0  0
   24.8508   24.3755   24.3314 H   0  0  0  0  0
   24.4281   23.5122   25.8304 H   0  0  0  0  0
   24.6570   25.2780   25.8542 H   0  0  0  0  0
   26.1462   23.2884   27.6538 H   0  0  0  0  0
   27.7572   24.0119   27.4257 H   0  0  0  0  0
   26.3348   25.0591   27.6518 H   0  0  0  0  0
   29.4914   20.6387   26.6741 H   0  0  0  0  0
   29.7574   19.0290   24.1933 H   0  0  0  0  0
   31.5911   17.8515   25.3200 H   0  0  0  0  0
   31.2899   18.8543   26.8121 H   0  0  0  0  0
   31.9008   20.8475   25.5332 H   0  0  0  0  0
   32.2703   19.8223   24.1242 H   0  0  0  0  0
   33.1885   20.7621   27.8618 H   0  0  0  0  0
   32.8013   19.0289   27.9921 H   0  0  0  0  0
   34.4767   19.5866   28.2222 H   0  0  0  0  0
   29.6577   16.7499   24.2922 H   0  0  0  0  0
   27.6485   15.7866   26.3196 H   0  0  0  0  0
   26.8319   14.3022   24.6879 H   0  0  0  0  0
   28.1452   14.8704   23.4981 H   0  0  0  0  0
   27.0143   16.9532   23.2501 H   0  0  0  0  0
   26.3040   15.0719   21.8374 H   0  0  0  0  0
   25.0874   14.6136   23.0543 H   0  0  0  0  0
   24.9422   16.1637   22.1900 H   0  0  0  0  0
   25.0111   15.8732   25.2623 H   0  0  0  0  0
   26.1844   17.1814   25.5507 H   0  0  0  0  0
   24.8733   17.4062   24.3667 H   0  0  0  0  0
   28.1166   13.7315   27.2405 H   0  0  0  0  0
   30.9167   12.8578   26.6963 H   0  0  0  0  0
   29.2346   12.0074   29.0512 H   0  0  0  0  0
   30.1473   13.5706   29.0316 H   0  0  0  0  0
   32.3002   13.2627   28.5241 H   0  0  0  0  0
   27.7091   12.0287   26.0506 H   0  0  0  0  0
   28.6153    9.4832   24.9325 H   0  0  0  0  0
   28.0785    8.9569   27.3214 H   0  0  0  0  0
   27.1047    8.0342   26.0594 H   0  0  0  0  0
   25.4467    8.5491   28.3064 H   0  0  0  0  0
   26.0178    8.5830   24.8210 H   0  0  0  0  0
  1  2  1  0  0  0
  2  3  1  0  0  0
  2  5  1  0  0  0
  3  4  2  0  0  0
  3 12  1  0  0  0
  5  6  1  0  0  0
  6  7  1  0  0  0
  7  8  1  0  0  0
  8  9  1  0  0  0
  9 10  1  0  0  0
  9 11  2  0  0  0
 12 13  1  0  0  0
 13 14  1  0  0  0
 13 16  1  0  0  0
 14 15  2  0  0  0
 14 20  1  0  0  0
 16 17  1  0  0  0
 17 18  1  0  0  0
 17 19  1  0  0  0
 20 21  1  0  0  0
 21 22  1  0  0  0
 21 24  1  0  0  0
 22 23  2  0  0  0
 22 29  1  0  0  0
 24 25  1  0  0  0
 25 26  1  0  0  0
 26 27  2  0  0  0
 26 28  1  0  0  0
 29 30  1  0  0  0
 30 31  1  0  0  0
 30 33  1  0  0  0
 31 32  2  0  0  0
 31 38  1  0  0  0
 33 34  1  0  0  0
 34 35  1  0  0  0
 35 36  1  0  0  0
 35 37  2  0  0  0
 38 39  1  0  0  0
 39 40  1  0  0  0
 39 42  1  0  0  0
 40 41  2  0  0  0
 40 49  1  0  0  0
 42 43  1  0  0  0
 43 44  1  0  0  0
 44 45  1  0  0  0
 45 46  1  0  0  0
 46 47  1  0  0  0
 46 48  2  0  0  0
 49 50  1  0  0  0
 50 51  1  0  0  0
 50 53  1  0  0  0
 51 52  2  0  0  0
 51 60  1  0  0  0
 53 54  1  0  0  0
 54 55  1  0  0  0
 55 56  1  0  0  0
 56 57  1  0  0  0
 57 58  2  0  0  0
 57 59  1  0  0  0
 60 61  1  0  0  0
 61 62  1  0  0  0
 62 63  2  0  0  0
 62 64  1  0  0  0
 64 65  1  0  0  0
 65 66  1  0  0  0
 65 68  1  0  0  0
 66 67  2  0  0  0
 66 70  1  0  0  0
 68 69  1  0  0  0
 70 71  1  0  0  0
 71 72  1  0  0  0
 71 74  1  0  0  0
 72 73  2  0  0  0
 72 78  1  0  0  0
 74 75  1  0  0  0
 75 76  2  0  0  0
 75 77  1  0  0  0
 78 79  1  0  0  0
 79 80  1  0  0  0
 79 82  1  0  0  0
 80 81  2  0  0  0
 80 85  1  0  0  0
 82 83  1  0  0  0
 82 84  1  0  0  0
 85 86  1  0  0  0
 86 87  1  0  0  0
 86 89  1  0  0  0
 87 88  2  0  0  0
 87 90  1  0  0  0
 90 91  1  0  0  0
 91 92  1  0  0  0
 91 94  1  0  0  0
 92 93  2  0  0  0
 92 98  1  0  0  0
 94 95  1  0  0  0
 95 96  1  0  0  0
 95 97  1  0  0  0
 98 99  1  0  0  0
 99100  1  0  0  0
 99102  1  0  0  0
100101  2  0  0  0
100106  1  0  0  0
102103  1  0  0  0
103104  1  0  0  0
104105  1  0  0  0
106107  1  0  0  0
107108  1  0  0  0
107110  1  0  0  0
108109  2  0  0  0
108114  1  0  0  0
110111  1  0  0  0
111112  1  0  0  0
111113  1  0  0  0
114115  1  0  0  0
115116  1  0  0  0
115118  1  0  0  0
116117  2  0  0  0
116122  1  0  0  0
118119  1  0  0  0
119120  2  0  0  0
119121  1  0  0  0
122123  1  0  0  0
123124  1  0  0  0
123126  1  0  0  0
124125  2  0  0  0
124128  1  0  0  0
126127  1  0  0  0
  1129  1  0  0  0
  1130  1  0  0  0
  1131  1  0  0  0
  2132  1  0  0  0
  5133  1  0  0  0
  5134  1  0  0  0
  6135  1  0  0  0
  6136  1  0  0  0
  7137  1  0  0  0
  7138  1  0  0  0
  8139  1  0  0  0
 10140  1  0  0  0
 10141  1  0  0  0
 11142  1  0  0  0
 12143  1  0  0  0
 13144  1  0  0  0
 16145  1  0  0  0
 16146  1  0  0  0
 17147  1  0  0  0
 18148  1  0  0  0
 18149  1  0  0  0
 18150  1  0  0  0
 19151  1  0  0  0
 19152  1  0  0  0
 19153  1  0  0  0
 20154  1  0  0  0
 21155  1  0  0  0
 24156  1  0  0  0
 24157  1  0  0  0
 25158  1  0  0  0
 25159  1  0  0  0
 28160  1  0  0  0
 28161  1  0  0  0
 29162  1  0  0  0
 30163  1  0  0  0
 33164  1  0  0  0
 33165  1  0  0  0
 34166  1  0  0  0
 34167  1  0  0  0
 36168  1  0  0  0
 38169  1  0  0  0
 39170  1  0  0  0
 42171  1  0  0  0
 42172  1  0  0  0
 43173  1  0  0  0
 43174  1  0  0  0
 44175  1  0  0  0
 44176  1  0  0  0
 45177  1  0  0  0
 47178  1  0  0  0
 47179  1  0  0  0
 48180  1  0  0  0
 49181  1  0  0  0
 50182  1  0  0  0
 53183  1  0  0  0
 53184  1  0  0  0
 54185  1  0  0  0
 54186  1  0  0  0
 55187  1  0  0  0
 55188  1  0  0  0
 56189  1  0  0  0
 58190  1  0  0  0
 59191  1  0  0  0
 59192  1  0  0  0
 60193  1  0  0  0
 61194  1  0  0  0
 61195  1  0  0  0
 64196  1  0  0  0
 65197  1  0  0  0
 68198  1  0  0  0
 68199  1  0  0  0
 69200  1  0  0  0
 70201  1  0  0  0
 71202  1  0  0  0
 74203  1  0  0  0
 74204  1  0  0  0
 77205  1  0  0  0
 77206  1  0  0  0
 78207  1  0  0  0
 79208  1  0  0  0
 82209  1  0  0  0
 83210  1  0  0  0
 83211  1  0  0  0
 83212  1  0  0  0
 84213  1  0  0  0
 84214  1  0  0  0
 84215  1  0  0  0
 85216  1  0  0  0
 86217  1  0  0  0
 89218  1  0  0  0
 89219  1  0  0  0
 89220  1  0  0  0
 90221  1  0  0  0
 91222  1  0  0  0
 94223  1  0  0  0
 94224  1  0  0  0
 95225  1  0  0  0
 96226  1  0  0  0
 96227  1  0  0  0
 96228  1  0  0  0
 97229  1  0  0  0
 97230  1  0  0  0
 97231  1  0  0  0
 98232  1  0  0  0
 99233  1  0  0  0
102234  1  0  0  0
102235  1  0  0  0
103236  1  0  0  0
103237  1  0  0  0
105238  1  0  0  0
105239  1  0  0  0
105240  1  0  0  0
106241  1  0  0  0
107242  1  0  0  0
110243  1  0  0  0
110244  1  0  0  0
111245  1  0  0  0
112246  1  0  0  0
112247  1  0  0  0
112248  1  0  0  0
113249  1  0  0  0
113250  1  0  0  0
113251  1  0  0  0
114252  1  0  0  0
115253  1  0  0  0
118254  1  0  0  0
118255  1  0  0  0
121256  1  0  0  0
122257  1  0  0  0
123258  1  0  0  0
126259  1  0  0  0
126260  1  0  0  0
127261  1  0  0  0
128262  1  0  0  0
M  END
$$$$
