5jn8_ligand
  -I-interpret- 

 19 19  0  0  0  0  0  0  0  0999 V2000
   34.9710    9.6660   19.5770 C   0  0  0  0  0
   37.2980    9.9740   19.8630 C   0  0  0  0  0
   39.1520   11.5070   19.6960 C   0  0  0  0  0
   40.5240   11.2920   19.1000 C   0  0  0  0  0
   33.0780    8.6430   18.1390 N   0  0  0  0  0
   36.9060    8.7040   20.1830 N   0  0  0  0  0
   35.4800    8.4980   20.0030 N   0  0  0  0  0
   38.5760   10.4370   20.2570 N   0  0  0  0  0
   32.4880    9.4420   20.4120 O   0  0  0  0  0
   32.9630   11.1030   18.6740 O   0  0  0  0  0
   38.5880   12.6210   19.6630 O   0  0  0  0  0
   33.2750    9.8000   19.2460 S   0  0  0  0  0
   36.1000   10.9430   19.3760 S   0  0  0  0  0
   40.4964   11.5228   18.0351 H   0  0  0  0  0
   41.2409   11.9460   19.5964 H   0  0  0  0  0
   40.8208   10.2526   19.2402 H   0  0  0  0  0
   32.4774    7.8431   18.3386 H   0  0  0  0  0
   33.5541    8.7114   17.2395 H   0  0  0  0  0
   39.0751    9.9383   20.9936 H   0  0  0  0  0
  1  7  4  0  0  0
  1 12  1  0  0  0
 13  1  4  0  0  0
  2  6  4  0  0  0
  8  2  1  0  0  0
  2 13  4  0  0  0
  3  4  1  0  0  0
  3  8  1  0  0  0
  3 11  2  0  0  0
 12  5  1  0  0  0
  6  7  4  0  0  0
 12  9  2  0  0  0
 12 10  2  0  0  0
  4 14  1  0  0  0
  4 15  1  0  0  0
  4 16  1  0  0  0
  5 17  1  0  0  0
  5 18  1  0  0  0
  8 19  1  0  0  0
M  END
$$$$
