4dpi_ligand
  -I-interpret- 

 86 89  0  0  0  0  0  0  0  0999 V2000
   -2.5530   -4.2850   17.3670 C   0  0  0  0  0
   -7.2900   -1.5900   15.3580 C   0  0  0  0  0
   -7.8740   -0.3620   15.0450 C   0  0  0  0  0
   -7.5710    0.8070   15.7960 C   0  0  0  0  0
   -6.3920   -1.6900   16.4540 C   0  0  0  0  0
   -6.1650   -0.5570   17.2340 C   0  0  0  0  0
   -6.7020    0.6800   16.8830 C   0  0  0  0  0
   -5.7040   -2.9470   16.8500 C   0  0  0  0  0
   -2.2010   -5.5540   16.8760 C   0  0  0  0  0
   -3.8310   -3.9130   19.6080 C   0  0  0  0  0
   -3.6130   -2.4890   20.0920 C   0  0  0  0  0
   -5.5210    8.1460   19.1550 C   0  0  0  0  0
   -5.8240    9.0420   21.3870 C   0  0  0  0  0
   -5.2670   10.4460   21.2630 C   0  0  0  0  0
   -6.6680    8.8170   22.6390 C   0  0  0  0  0
   -4.2620    1.8610   20.4580 C   0  0  0  0  0
   -7.7760    8.6230   19.7660 C   0  0  0  0  0
   -6.4400    8.6080   20.0920 C   0  0  0  0  0
   -7.2850    7.6800   17.5910 C   0  0  0  0  0
   -6.4460    1.8840   17.7320 C   0  0  0  0  0
   -4.1610    3.9310   19.0150 C   0  0  0  0  0
   -4.8840    4.7840   17.9550 C   0  0  0  0  0
   -4.8810    7.1310   16.9430 C   0  0  0  0  0
   -5.9300    7.6610   17.9220 C   0  0  0  0  0
   -7.3940    2.7290   17.8780 O   0  0  0  0  0
   -5.2480    1.9280   18.3100 N   0  0  0  0  0
   -4.9970    2.7420   19.4720 C   0  0  0  0  0
   -4.1300    5.9700   17.5270 N   0  3  0  0  0
   -8.2010    8.1320   18.5330 C   0  0  0  0  0
   -3.7460    4.7230   20.1540 O   0  0  0  0  0
   -4.9760    0.6120   20.6100 O   0  0  0  0  0
   -4.1540   -0.4140   21.2310 C   0  0  0  0  0
   -4.5270   -1.8210   20.8140 C   0  0  0  0  0
   -3.8820   -4.0720   18.0850 C   0  0  0  0  0
   -0.9920   -5.7390   16.1720 C   0  0  0  0  0
   -0.1510   -4.6340   15.9610 C   0  0  0  0  0
   -0.5010   -3.3610   16.4140 C   0  0  0  0  0
   -1.7190   -3.2030   17.0700 C   0  0  0  0  0
   -4.5550   -2.9050   17.5850 N   0  3  0  0  0
   -6.1840   -4.0010   16.0000 O   0  0  0  0  0
   -8.8380   -0.2240   13.8750 C   0  0  0  0  0
   -7.5228   -2.4722   14.7617 H   0  0  0  0  0
   -8.0032    1.7722   15.5319 H   0  0  0  0  0
   -5.5566   -0.6403   18.1345 H   0  0  0  0  0
   -5.8434   -3.3877   17.8371 H   0  0  0  0  0
   -2.8666   -6.4014   17.0402 H   0  0  0  0  0
   -4.7991   -4.2337   19.9927 H   0  0  0  0  0
   -2.9829   -4.5005   19.9597 H   0  0  0  0  0
   -2.6767   -1.9897   19.8429 H   0  0  0  0  0
   -4.4579    8.1657   19.3951 H   0  0  0  0  0
   -4.9923    8.3597   21.5627 H   0  0  0  0  0
   -6.0897   11.1603   21.2297 H   0  0  0  0  0
   -4.6321   10.6609   22.1226 H   0  0  0  0  0
   -4.6800   10.5231   20.3478 H   0  0  0  0  0
   -6.0591    9.0015   23.5241 H   0  0  0  0  0
   -7.5167    9.5009   22.6312 H   0  0  0  0  0
   -7.0287    7.7885   22.6525 H   0  0  0  0  0
   -4.2010    2.3655   21.4223 H   0  0  0  0  0
   -3.2555    1.6628   20.0896 H   0  0  0  0  0
   -8.5040    9.0198   20.4736 H   0  0  0  0  0
   -7.6199    7.3456   16.6091 H   0  0  0  0  0
   -3.2676    3.5399   18.5282 H   0  0  0  0  0
   -5.8138    5.1358   18.4021 H   0  0  0  0  0
   -5.0252    4.1557   17.0755 H   0  0  0  0  0
   -4.1721    7.9302   16.7267 H   0  0  0  0  0
   -5.3878    6.7972   16.0375 H   0  0  0  0  0
   -4.4877    1.3709   17.9202 H   0  0  0  0  0
   -5.8987    3.1266   19.9485 H   0  0  0  0  0
   -3.5242    5.6414   16.7750 H   0  0  0  0  0
   -3.7019    6.3331   18.3787 H   0  0  0  0  0
   -9.2664    8.1021   18.3045 H   0  0  0  0  0
   -3.3010    4.1582   20.7900 H   0  0  0  0  0
   -4.2993   -0.3423   22.3089 H   0  0  0  0  0
   -3.1239   -0.2420   20.9188 H   0  0  0  0  0
   -5.4841   -2.2667   21.0848 H   0  0  0  0  0
   -4.4058   -5.0044   17.8743 H   0  0  0  0  0
   -0.7150   -6.7245   15.7976 H   0  0  0  0  0
    0.7927   -4.7732   15.4336 H   0  0  0  0  0
    0.1632   -2.5110   16.2580 H   0  0  0  0  0
   -2.0331   -2.2009   17.3621 H   0  0  0  0  0
   -4.8499   -2.4310   18.4387 H   0  0  0  0  0
   -3.8790   -2.5192   16.9258 H   0  0  0  0  0
   -7.0241   -3.7420   15.6143 H   0  0  0  0  0
   -8.3301   -0.5047   12.9523 H   0  0  0  0  0
   -9.6952   -0.8785   14.0330 H   0  0  0  0  0
   -9.1766    0.8097   13.8048 H   0  0  0  0  0
  1  9  4  0  0  0
 34  1  1  0  0  0
  1 38  4  0  0  0
  3  2  4  0  0  0
  5  2  4  0  0  0
  4  3  4  0  0  0
  3 41  1  0  0  0
  7  4  4  0  0  0
  6  5  4  0  0  0
  5  8  1  0  0  0
  7  6  4  0  0  0
 20  7  1  0  0  0
  8 39  1  0  0  0
  8 40  1  0  0  0
  9 35  4  0  0  0
 11 10  1  0  0  0
 10 34  1  0  0  0
 33 11  2  0  0  0
 12 18  4  0  0  0
 24 12  4  0  0  0
 13 14  1  0  0  0
 13 15  1  0  0  0
 18 13  1  0  0  0
 16 27  1  0  0  0
 31 16  1  0  0  0
 18 17  4  0  0  0
 29 17  4  0  0  0
 24 19  4  0  0  0
 19 29  4  0  0  0
 20 25  2  0  0  0
 26 20  1  0  0  0
 21 22  1  0  0  0
 27 21  1  0  0  0
 21 30  1  0  0  0
 22 28  1  0  0  0
 23 24  1  0  0  0
 28 23  1  0  0  0
 27 26  1  0  0  0
 32 31  1  0  0  0
 32 33  1  0  0  0
 34 39  1  0  0  0
 35 36  4  0  0  0
 36 37  4  0  0  0
 37 38  4  0  0  0
  2 42  1  0  0  0
  4 43  1  0  0  0
  6 44  1  0  0  0
  8 45  1  0  0  0
  9 46  1  0  0  0
 10 47  1  0  0  0
 10 48  1  0  0  0
 11 49  1  0  0  0
 12 50  1  0  0  0
 13 51  1  0  0  0
 14 52  1  0  0  0
 14 53  1  0  0  0
 14 54  1  0  0  0
 15 55  1  0  0  0
 15 56  1  0  0  0
 15 57  1  0  0  0
 16 58  1  0  0  0
 16 59  1  0  0  0
 17 60  1  0  0  0
 19 61  1  0  0  0
 21 62  1  0  0  0
 22 63  1  0  0  0
 22 64  1  0  0  0
 23 65  1  0  0  0
 23 66  1  0  0  0
 26 67  1  0  0  0
 27 68  1  0  0  0
 28 69  1  0  0  0
 28 70  1  0  0  0
 29 71  1  0  0  0
 30 72  1  0  0  0
 32 73  1  0  0  0
 32 74  1  0  0  0
 33 75  1  0  0  0
 34 76  1  0  0  0
 35 77  1  0  0  0
 36 78  1  0  0  0
 37 79  1  0  0  0
 38 80  1  0  0  0
 39 81  1  0  0  0
 39 82  1  0  0  0
 40 83  1  0  0  0
 41 84  1  0  0  0
 41 85  1  0  0  0
 41 86  1  0  0  0
M  END
$$$$
