3fed_ligand
  -I-interpret- 

 39 38  0  0  0  0  0  0  0  0999 V2000
   22.7110   44.6760   15.8310 C   0  0  0  0  0
   21.0930   45.2890   17.7790 C   0  0  0  0  0
   22.4110   45.9540   15.1150 C   0  0  0  0  0
   21.5760   44.2040   16.7940 C   0  0  0  0  0
   18.5420   43.8280   18.1310 C   0  0  0  0  0
   22.8480   46.9960   15.6410 O   0  0  0  0  0
   14.8810   40.5640   16.7220 O   0  0  0  0  0
   15.6400   41.2130   16.0280 C   0  0  0  0  0
   15.4790   41.3710   14.8060 O   0  0  0  0  0
   16.8510   41.8730   16.6490 C   0  0  0  0  0
   16.8120   41.9870   18.1830 C   0  0  0  0  0
   18.1300   42.5160   18.7980 C   0  0  0  0  0
   19.1500   41.4400   18.5880 C   0  0  0  0  0
   19.1900   40.4590   19.3500 O   0  0  0  0  0
   19.9940   41.5290   17.6280 O   0  0  0  0  0
   19.8950   44.7490   19.0050 P   0  0  0  0  0
   20.5680   43.8330   19.9820 O   0  0  0  0  0
   19.2410   45.8780   19.6660 O   0  0  0  0  0
   23.9310   44.7870   16.5960 N   0  3  0  0  0
   21.7070   45.9640   14.0650 O   0  0  0  0  0
   22.8089   43.9314   15.0411 H   0  0  0  0  0
   20.5984   46.0530   17.1791 H   0  0  0  0  0
   21.9730   45.6190   18.3311 H   0  0  0  0  0
   21.9785   43.3844   17.3893 H   0  0  0  0  0
   20.7224   43.9276   16.1751 H   0  0  0  0  0
   17.6646   44.4748   18.1333 H   0  0  0  0  0
   18.9184   43.5759   17.1396 H   0  0  0  0  0
   16.1903   41.9139   14.4582 H   0  0  0  0  0
   16.8912   42.8897   16.2581 H   0  0  0  0  0
   17.7111   41.2512   16.4007 H   0  0  0  0  0
   16.6438   40.9864   18.5811 H   0  0  0  0  0
   16.0243   42.6958   18.4384 H   0  0  0  0  0
   18.0219   42.7362   19.8600 H   0  0  0  0  0
   19.8326   42.3370   17.1354 H   0  0  0  0  0
   20.9825   43.1091   19.5069 H   0  0  0  0  0
   24.6873   45.0948   15.9848 H   0  0  0  0  0
   23.8002   45.4662   17.3456 H   0  0  0  0  0
   24.1640   43.8781   16.9960 H   0  0  0  0  0
   21.4753   45.0631   13.8279 H   0  0  0  0  0
  1  3  1  0  0  0
  4  1  1  0  0  0
  1 19  1  0  0  0
  2  4  1  0  0  0
 16  2  1  0  0  0
  3  6  2  0  0  0
  3 20  1  0  0  0
 12  5  1  0  0  0
  5 16  1  0  0  0
  8  7  2  0  0  0
  8  9  1  0  0  0
 10  8  1  0  0  0
 11 10  1  0  0  0
 11 12  1  0  0  0
 12 13  1  0  0  0
 13 14  2  0  0  0
 13 15  1  0  0  0
 16 17  1  0  0  0
 16 18  2  0  0  0
  1 21  1  0  0  0
  2 22  1  0  0  0
  2 23  1  0  0  0
  4 24  1  0  0  0
  4 25  1  0  0  0
  5 26  1  0  0  0
  5 27  1  0  0  0
  9 28  1  0  0  0
 10 29  1  0  0  0
 10 30  1  0  0  0
 11 31  1  0  0  0
 11 32  1  0  0  0
 12 33  1  0  0  0
 15 34  1  0  0  0
 17 35  1  0  0  0
 19 36  1  0  0  0
 19 37  1  0  0  0
 19 38  1  0  0  0
 20 39  1  0  0  0
M  END
$$$$
