5duw_ligand
  -I-interpret- 

 49 50  0  0  0  0  0  0  0  0999 V2000
   77.2280  -14.5460  -51.1760 C   0  0  0  0  0
   78.0330  -13.5830  -52.0260 C   0  0  0  0  0
   77.5030  -12.1600  -51.9420 C   0  0  0  0  0
   75.9780  -12.1340  -52.1070 C   0  0  0  0  0
   75.3090  -13.1660  -51.1910 C   0  0  0  0  0
   73.7960  -13.2690  -51.3640 C   0  0  0  0  0
   77.7200  -15.8380  -51.5220 O   0  0  0  0  0
   79.3930  -13.6030  -51.5610 O   0  0  0  0  0
   78.1520  -11.4110  -52.9640 O   0  0  0  0  0
   75.6890  -12.4470  -53.4760 O   0  0  0  0  0
   75.8370  -14.4710  -51.4770 O   0  0  0  0  0
   73.2730  -14.2980  -50.5030 O   0  0  0  0  0
   77.2390  -19.6640  -50.0370 C   0  0  0  0  0
   76.2230  -19.2190  -51.0870 C   0  0  0  0  0
   76.6900  -17.9520  -51.7810 C   0  0  0  0  0
   77.0940  -16.8790  -50.7700 C   0  0  0  0  0
   78.0530  -17.4710  -49.7440 C   0  0  0  0  0
   78.4680  -16.4720  -48.6740 C   0  0  0  0  0
   76.6600  -20.7750  -49.3550 O   0  0  0  0  0
   76.0550  -20.2470  -52.0750 O   0  0  0  0  0
   75.6550  -17.4860  -52.6430 O   0  0  0  0  0
   77.4400  -18.5970  -49.1070 O   0  0  0  0  0
   77.3500  -15.9520  -47.9580 O   0  0  0  0  0
   78.4550   -9.8800  -52.6920 S   0  0  0  0  0
   77.3110   -9.1320  -52.1460 O   0  0  0  0  0
   78.8820   -9.3240  -54.0090 O   0  0  0  0  0
   79.6020   -9.9320  -51.8090 O   0  0  0  0  0
   77.3323  -14.3174  -50.1153 H   0  0  0  0  0
   77.9593  -13.9002  -53.0662 H   0  0  0  0  0
   77.7134  -11.7245  -50.9652 H   0  0  0  0  0
   75.5924  -11.1510  -51.8365 H   0  0  0  0  0
   75.5181  -12.8280  -50.1760 H   0  0  0  0  0
   73.5689  -13.5179  -52.4006 H   0  0  0  0  0
   73.3385  -12.3148  -51.1026 H   0  0  0  0  0
   79.7341  -14.4990  -51.6113 H   0  0  0  0  0
   76.1091  -11.7994  -54.0467 H   0  0  0  0  0
   72.3217  -14.3566  -50.6175 H   0  0  0  0  0
   78.1942  -19.9297  -50.4899 H   0  0  0  0  0
   75.2768  -19.0279  -50.5808 H   0  0  0  0  0
   77.5772  -18.1761  -52.3733 H   0  0  0  0  0
   76.2359  -16.4925  -50.2202 H   0  0  0  0  0
   78.9505  -17.7666  -50.2873 H   0  0  0  0  0
   78.9724  -15.6398  -49.1651 H   0  0  0  0  0
   79.1156  -16.9861  -47.9637 H   0  0  0  0  0
   77.2686  -21.0885  -48.6820 H   0  0  0  0  0
   75.4152  -19.9583  -52.7299 H   0  0  0  0  0
   75.9448  -16.6845  -53.0849 H   0  0  0  0  0
   77.6574  -15.3285  -47.2959 H   0  0  0  0  0
   79.6276   -9.8289  -54.3417 H   0  0  0  0  0
  1  2  1  0  0  0
  7  1  1  0  0  0
  1 11  1  0  0  0
  2  3  1  0  0  0
  2  8  1  0  0  0
  3  4  1  0  0  0
  3  9  1  0  0  0
  5  4  1  0  0  0
  4 10  1  0  0  0
  5  6  1  0  0  0
 11  5  1  0  0  0
  6 12  1  0  0  0
 16  7  1  0  0  0
  9 24  1  0  0  0
 14 13  1  0  0  0
 13 19  1  0  0  0
 13 22  1  0  0  0
 15 14  1  0  0  0
 14 20  1  0  0  0
 15 16  1  0  0  0
 15 21  1  0  0  0
 16 17  1  0  0  0
 17 18  1  0  0  0
 17 22  1  0  0  0
 18 23  1  0  0  0
 24 25  2  0  0  0
 24 26  1  0  0  0
 24 27  2  0  0  0
  1 28  1  0  0  0
  2 29  1  0  0  0
  3 30  1  0  0  0
  4 31  1  0  0  0
  5 32  1  0  0  0
  6 33  1  0  0  0
  6 34  1  0  0  0
  8 35  1  0  0  0
 10 36  1  0  0  0
 12 37  1  0  0  0
 13 38  1  0  0  0
 14 39  1  0  0  0
 15 40  1  0  0  0
 16 41  1  0  0  0
 17 42  1  0  0  0
 18 43  1  0  0  0
 18 44  1  0  0  0
 19 45  1  0  0  0
 20 46  1  0  0  0
 21 47  1  0  0  0
 23 48  1  0  0  0
 26 49  1  0  0  0
M  END
$$$$
