1unl_ligand
  -I-interpret- 

 52 54  0  0  0  0  0  0  0  0999 V2000
   57.5260   30.7120   29.6960 O   0  0  0  0  0
   58.5430   30.4700   30.6370 C   0  0  0  0  0
   59.7790   30.0060   29.8600 C   0  0  0  0  0
   60.9360   29.9110   30.8560 C   0  0  0  0  0
   61.5400   28.5300   31.0020 C   0  0  0  0  0
   59.3650   28.7200   29.3170 N   0  0  0  0  0
   59.1540   28.4240   28.0090 C   0  0  0  0  0
   58.7540   27.1700   27.6870 N   0  0  0  0  0
   58.5380   26.8490   26.4000 C   0  0  0  0  0
   58.1300   25.6970   25.9200 N   0  0  0  0  0
   57.8910   24.6280   26.9030 C   0  0  0  0  0
   56.3900   24.3410   26.8940 C   0  0  0  0  0
   58.8760   23.5100   26.6870 C   0  0  0  0  0
   58.0350   25.8320   24.5670 C   0  0  0  0  0
   58.7260   27.7150   25.3830 C   0  0  0  0  0
   58.4500   27.0880   24.1650 N   0  0  0  0  0
   59.3420   29.3060   27.0100 N   0  0  0  0  0
   59.1360   28.9930   25.7240 C   0  0  0  0  0
   59.2820   29.8860   24.7360 N   0  0  0  0  0
   59.3710   31.3210   24.9960 C   0  0  0  0  0
   60.7840   31.8420   25.1170 C   0  0  0  0  0
   61.1160   32.7270   26.1490 C   0  0  0  0  0
   62.4230   33.2180   26.2560 C   0  0  0  0  0
   63.3890   32.8540   25.3140 C   0  0  0  0  0
   63.0520   31.9900   24.2700 C   0  0  0  0  0
   61.7520   31.4840   24.1730 C   0  0  0  0  0
   56.7335   31.0057   30.1514 H   0  0  0  0  0
   58.2310   29.7085   31.3517 H   0  0  0  0  0
   58.7637   31.3741   31.2044 H   0  0  0  0  0
   60.1205   30.6614   29.0588 H   0  0  0  0  0
   60.5354   30.1849   31.8320 H   0  0  0  0  0
   61.7263   30.5634   30.4847 H   0  0  0  0  0
   60.7739   27.8340   31.3437 H   0  0  0  0  0
   61.9279   28.2007   30.0381 H   0  0  0  0  0
   62.3514   28.5647   31.7290 H   0  0  0  0  0
   59.2187   27.9651   29.9872 H   0  0  0  0  0
   58.1012   24.8871   27.9407 H   0  0  0  0  0
   55.8468   25.2455   27.1677 H   0  0  0  0  0
   56.0883   24.0223   25.8962 H   0  0  0  0  0
   56.1681   23.5512   27.6117 H   0  0  0  0  0
   58.7544   23.1098   25.6805 H   0  0  0  0  0
   59.8897   23.8922   26.8074 H   0  0  0  0  0
   58.6945   22.7215   27.4173 H   0  0  0  0  0
   57.6793   25.0536   23.8920 H   0  0  0  0  0
   59.3326   29.5539   23.7729 H   0  0  0  0  0
   58.8771   31.5062   25.9499 H   0  0  0  0  0
   58.9118   31.8304   24.1488 H   0  0  0  0  0
   60.3576   33.0340   26.8692 H   0  0  0  0  0
   62.6876   33.8857   27.0759 H   0  0  0  0  0
   64.4038   33.2438   25.3940 H   0  0  0  0  0
   63.8023   31.7100   23.5306 H   0  0  0  0  0
   61.4920   30.8079   23.3585 H   0  0  0  0  0
  1  2  1  0  0  0
  2  3  1  0  0  0
  3  4  1  0  0  0
  3  6  1  0  0  0
  4  5  1  0  0  0
  6  7  1  0  0  0
  7  8  4  0  0  0
  7 17  4  0  0  0
  8  9  4  0  0  0
  9 10  4  0  0  0
  9 15  4  0  0  0
 10 11  1  0  0  0
 10 14  4  0  0  0
 11 12  1  0  0  0
 11 13  1  0  0  0
 14 16  4  0  0  0
 15 16  4  0  0  0
 15 18  4  0  0  0
 17 18  4  0  0  0
 18 19  1  0  0  0
 19 20  1  0  0  0
 20 21  1  0  0  0
 21 22  4  0  0  0
 21 26  4  0  0  0
 22 23  4  0  0  0
 23 24  4  0  0  0
 24 25  4  0  0  0
 25 26  4  0  0  0
  1 27  1  0  0  0
  2 28  1  0  0  0
  2 29  1  0  0  0
  3 30  1  0  0  0
  4 31  1  0  0  0
  4 32  1  0  0  0
  5 33  1  0  0  0
  5 34  1  0  0  0
  5 35  1  0  0  0
  6 36  1  0  0  0
 11 37  1  0  0  0
 12 38  1  0  0  0
 12 39  1  0  0  0
 12 40  1  0  0  0
 13 41  1  0  0  0
 13 42  1  0  0  0
 13 43  1  0  0  0
 14 44  1  0  0  0
 19 45  1  0  0  0
 20 46  1  0  0  0
 20 47  1  0  0  0
 22 48  1  0  0  0
 23 49  1  0  0  0
 24 50  1  0  0  0
 25 51  1  0  0  0
 26 52  1  0  0  0
M  END
$$$$
