5ox6_ligand
  -I-interpret- 

 32 33  0  0  0  0  0  0  0  0999 V2000
   14.4160  114.1880   -5.1300 O   0  0  0  0  0
   13.9980  115.4510   -5.4640 C   0  0  0  0  0
   14.7610  116.3120   -6.2370 C   0  0  0  0  0
   16.1170  116.0090   -6.7540 C   0  0  0  0  0
   16.8900  114.8790   -6.2830 N   0  0  0  0  0
   18.2270  114.7450   -6.8040 C   0  0  0  0  0
   18.8670  113.5880   -6.0570 C   0  0  0  0  0
   18.0970  112.8640   -5.3850 O   0  0  0  0  0
   20.0900  113.3720   -6.1900 O   0  0  0  0  0
   16.5230  116.7820   -7.5590 O   0  0  0  0  0
   14.3990  117.5290   -6.5390 N   0  0  0  0  0
   13.2220  117.9640   -6.1520 C   0  0  0  0  0
   12.3740  117.1480   -5.3990 C   0  0  0  0  0
   12.7560  115.8780   -5.0390 C   0  0  0  0  0
   10.9920  117.6530   -4.9810 C   0  0  0  0  0
   10.4830  117.3920   -3.7300 C   0  0  0  0  0
    9.2170  117.8470   -3.3940 C   0  0  0  0  0
    8.6270  117.5070   -1.7420 Cl  0  0  0  0  0
    8.4430  118.5470   -4.3070 C   0  0  0  0  0
    8.9370  118.8000   -5.5770 C   0  0  0  0  0
   10.2220  118.3500   -5.9070 C   0  0  0  0  0
   13.7438  113.7610   -4.5938 H   0  0  0  0  0
   16.5069  114.2102   -5.6149 H   0  0  0  0  0
   18.7955  115.6640   -6.6610 H   0  0  0  0  0
   18.2104  114.5551   -7.8772 H   0  0  0  0  0
   17.2070  113.2216   -5.4253 H   0  0  0  0  0
   12.9036  118.9712   -6.4208 H   0  0  0  0  0
   12.1067  115.2359   -4.4439 H   0  0  0  0  0
   11.0725  116.8298   -3.0058 H   0  0  0  0  0
    7.4495  118.8971   -4.0269 H   0  0  0  0  0
    8.3352  119.3406   -6.3075 H   0  0  0  0  0
   10.6233  118.5482   -6.9008 H   0  0  0  0  0
  1  2  1  0  0  0
  2  3  4  0  0  0
  2 14  4  0  0  0
  3  4  1  0  0  0
  3 11  4  0  0  0
  4  5  1  0  0  0
  4 10  2  0  0  0
  5  6  1  0  0  0
  6  7  1  0  0  0
  7  8  1  0  0  0
  7  9  2  0  0  0
 11 12  4  0  0  0
 12 13  4  0  0  0
 13 14  4  0  0  0
 13 15  1  0  0  0
 15 16  4  0  0  0
 15 21  4  0  0  0
 16 17  4  0  0  0
 17 18  1  0  0  0
 17 19  4  0  0  0
 19 20  4  0  0  0
 20 21  4  0  0  0
  1 22  1  0  0  0
  5 23  1  0  0  0
  6 24  1  0  0  0
  6 25  1  0  0  0
  8 26  1  0  0  0
 12 27  1  0  0  0
 14 28  1  0  0  0
 16 29  1  0  0  0
 19 30  1  0  0  0
 20 31  1  0  0  0
 21 32  1  0  0  0
M  END
$$$$
