4det_ligand
  -I-interpret- 

 31 33  0  0  0  0  0  0  0  0999 V2000
   20.2590    0.8850   -0.9340 C   0  0  0  0  0
   21.3550    0.1910   -1.3570 C   0  0  0  0  0
   21.5750    0.0290   -2.6890 C   0  0  0  0  0
   20.7170    0.5640   -3.5840 C   0  0  0  0  0
   19.6110    1.2410   -3.2020 C   0  0  0  0  0
   19.3820    1.4000   -1.8780 C   0  0  0  0  0
   22.6680   -0.6480   -3.0960 C   0  0  0  0  0
   22.8520   -0.6970   -4.4320 C   0  0  0  0  0
   21.9180   -0.1370   -5.2940 C   0  0  0  0  0
   21.8840   -0.1200   -6.6620 C   0  0  0  0  0
   21.4210   -1.2060   -7.3660 C   0  0  0  0  0
   21.3530   -1.1570   -8.7130 C   0  0  0  0  0
   21.6760   -0.0110   -9.3520 C   0  0  0  0  0
   22.0720    1.0900   -8.6780 C   0  0  0  0  0
   22.1690    1.0410   -7.3310 C   0  0  0  0  0
   20.8420    0.4480   -4.8660 O   0  0  0  0  0
   23.4960   -1.1170   -2.3150 O   0  0  0  0  0
   21.6010    0.0300  -10.6570 O   0  0  0  0  0
   23.9360   -1.3480   -4.8070 O   0  0  0  0  0
   18.2890    2.0740   -1.5510 O   0  0  0  0  0
   22.2280   -0.3430   -0.5530 O   0  0  0  0  0
   20.0750    1.0327    0.1302 H   0  0  0  0  0
   18.9215    1.6483   -3.9415 H   0  0  0  0  0
   21.1089   -2.1063   -6.8367 H   0  0  0  0  0
   21.0404   -2.0337   -9.2802 H   0  0  0  0  0
   22.3108    2.0083   -9.2145 H   0  0  0  0  0
   22.4748    1.9275   -6.7754 H   0  0  0  0  0
   21.8590    0.9023  -10.9640 H   0  0  0  0  0
   24.4191   -1.6374   -4.0295 H   0  0  0  0  0
   17.8269    2.3389   -2.3496 H   0  0  0  0  0
   22.9106   -0.7794   -1.0679 H   0  0  0  0  0
  2  1  4  0  0  0
  1  6  4  0  0  0
  2  3  4  0  0  0
  2 21  1  0  0  0
  3  4  4  0  0  0
  3  7  1  0  0  0
  4  5  4  0  0  0
  4 16  1  0  0  0
  5  6  4  0  0  0
  6 20  1  0  0  0
  7  8  1  0  0  0
  7 17  2  0  0  0
  8  9  2  0  0  0
  8 19  1  0  0  0
  9 10  1  0  0  0
  9 16  1  0  0  0
 10 11  4  0  0  0
 10 15  4  0  0  0
 11 12  4  0  0  0
 12 13  4  0  0  0
 13 14  4  0  0  0
 13 18  1  0  0  0
 14 15  4  0  0  0
  1 22  1  0  0  0
  5 23  1  0  0  0
 11 24  1  0  0  0
 12 25  1  0  0  0
 14 26  1  0  0  0
 15 27  1  0  0  0
 18 28  1  0  0  0
 19 29  1  0  0  0
 20 30  1  0  0  0
 21 31  1  0  0  0
M  END
$$$$
