1qwf_ligand
  -I-interpret- 

200203  0  0  0  0  0  0  0  0999 V2000
   63.4380    0.4180   11.2510 N   0  3  0  0  0
   64.2060    1.4960   10.5650 C   0  0  0  0  0
   65.3500    0.8750    9.7610 C   0  0  0  0  0
   66.5090    1.1450   10.0050 O   0  0  0  0  0
   64.7820    2.4530   11.6100 C   0  0  0  0  0
   65.7550    3.4210   10.9350 C   0  0  0  0  0
   63.6450    3.2450   12.2600 C   0  0  0  0  0
   65.0370    0.0430    8.8060 N   0  0  0  0  0
   66.1160   -0.5920    7.9940 C   0  0  0  0  0
   65.5490   -1.1240    6.6740 C   0  0  0  0  0
   66.2230   -1.1400    5.6630 O   0  0  0  0  0
   66.7300   -1.7490    8.7830 C   0  0  0  0  0
   67.5740   -2.5070    7.9260 O   0  0  0  0  0
   64.3220   -1.5690    6.6730 N   0  0  0  0  0
   63.7280   -2.1090    5.4130 C   0  0  0  0  0
   63.0350   -0.9830    4.6390 C   0  0  0  0  0
   62.3940   -1.2140    3.6330 O   0  0  0  0  0
   62.7100   -3.2230    5.7180 C   0  0  0  0  0
   62.7370   -3.5980    7.2040 C   0  0  0  0  0
   61.7410   -4.7280    7.4640 C   0  0  0  0  0
   64.1440   -4.0630    7.5870 C   0  0  0  0  0
   63.1620    0.2330    5.0940 N   0  0  0  0  0
   62.5130    1.3690    4.3750 C   0  0  0  0  0
   63.4830    1.9330    3.3370 C   0  0  0  0  0
   63.1160    2.7340    2.5000 O   0  0  0  0  0
   62.1690    2.4770    5.3720 C   0  0  0  0  0
   64.7230    1.5360    3.3920 N   0  0  0  0  0
   65.7140    2.0660    2.4160 C   0  0  0  0  0
   65.8940    1.0720    1.2700 C   0  0  0  0  0
   66.7270    0.1890    1.3230 O   0  0  0  0  0
   67.0530    2.2910    3.1190 C   0  0  0  0  0
   67.1470    3.7490    3.5730 C   0  0  0  0  0
   68.1060    3.8550    4.7580 C   0  0  0  0  0
   69.5070    3.9230    4.2550 N   0  0  0  0  0
   70.4600    4.3840    5.0210 C   0  0  0  0  0
   70.1930    4.7850    6.2350 N   0  0  0  0  0
   71.6840    4.4420    4.5710 N   0  0  0  0  0
   65.1220    1.2150    0.2290 N   0  0  0  0  0
   65.2470    0.2880   -0.9280 C   0  0  0  0  0
   65.0910    1.0850   -2.2250 C   0  0  0  0  0
   64.5900    2.1920   -2.2130 O   0  0  0  0  0
   64.1570   -0.7830   -0.8460 C   0  0  0  0  0
   64.6840   -1.9850   -0.0610 C   0  0  0  0  0
   63.5230   -2.6840    0.6460 C   0  0  0  0  0
   63.0490   -3.8250   -0.1880 N   0  0  0  0  0
   62.3420   -4.7840    0.3500 C   0  0  0  0  0
   62.0390   -4.7440    1.6200 N   0  0  0  0  0
   61.9370   -5.7830   -0.3850 N   0  0  0  0  0
   65.5260    0.4970   -3.3080 N   0  0  0  0  0
   65.4530    1.1330   -4.6330 C   0  0  0  0  0
   64.0190    1.0910   -5.1640 C   0  0  0  0  0
   63.5500    0.0730   -5.6310 O   0  0  0  0  0
   66.3900    0.2820   -5.4940 C   0  0  0  0  0
   66.5050   -1.0890   -4.7880 C   0  0  0  0  0
   66.1210   -0.8550   -3.3150 C   0  0  0  0  0
   63.3230    2.1940   -5.0910 N   0  0  0  0  0
   61.9190    2.2250   -5.5880 C   0  0  0  0  0
   61.8350    1.4690   -6.9150 C   0  0  0  0  0
   62.7760    1.4650   -7.6830 O   0  0  0  0  0
   61.4860    3.6770   -5.7980 C   0  0  0  0  0
   61.1670    4.3150   -4.4450 C   0  0  0  0  0
   61.6930    5.7510   -4.4200 C   0  0  0  0  0
   59.6520    4.3250   -4.2350 C   0  0  0  0  0
   60.7100    0.8450   -7.1400 N   0  0  0  0  0
   60.4690    0.0670   -8.3620 C   0  0  0  0  0
   60.1050    1.0070   -9.5170 C   0  0  0  0  0
   59.9330    2.1930   -9.3160 O   0  0  0  0  0
   59.2880   -0.8310   -7.9840 C   0  0  0  0  0
   58.5660   -0.1350   -6.8070 C   0  0  0  0  0
   59.5710    0.8590   -6.1980 C   0  0  0  0  0
   59.9980    0.4460  -10.6910 N   0  0  0  0  0
   59.6520    1.2080  -11.9040 C   0  0  0  0  0
   58.1620    1.5570  -11.8970 C   0  0  0  0  0
   57.3130    0.6890  -11.8740 O   0  0  0  0  0
   59.9920    0.2450  -13.0440 C   0  0  0  0  0
   59.9770   -1.1760  -12.4310 C   0  0  0  0  0
   60.2040   -0.9990  -10.9180 C   0  0  0  0  0
   57.8360    2.8220  -11.9030 N   0  0  0  0  0
   56.4010    3.2150  -11.8820 C   0  0  0  0  0
   55.7230    2.8190  -13.1970 C   0  0  0  0  0
   56.3690    2.6780  -14.2160 O   0  0  0  0  0
   56.2670    4.7340  -11.6990 C   0  0  0  0  0
   56.5970    5.1650  -10.2590 C   0  0  0  0  0
   55.7680    6.3900   -9.9010 C   0  0  0  0  0
   56.2650    4.0610   -9.2580 C   0  0  0  0  0
   54.4260    2.6670  -13.1190 N   0  0  0  0  0
   53.5830    2.3040  -14.2690 C   0  0  0  0  0
   53.3050    3.5350  -15.1370 C   0  0  0  0  0
   53.2450    3.3810  -16.3460 O   0  0  0  0  0
   52.2930    1.7940  -13.6160 C   0  0  0  0  0
   52.2490    2.3950  -12.1980 C   0  0  0  0  0
   53.6790    2.8430  -11.8590 C   0  0  0  0  0
   53.1570    4.6090  -14.5780 O   0  0  0  0  0
   63.0538   -0.2202   10.5542 H   0  0  0  0  0
   64.0589   -0.0943   11.8774 H   0  0  0  0  0
   62.6776    0.8336   11.7891 H   0  0  0  0  0
   63.5441    2.0430    9.8936 H   0  0  0  0  0
   65.3092    1.8807   12.3733 H   0  0  0  0  0
   65.2263    3.9924   10.1721 H   0  0  0  0  0
   66.1651    4.1014   11.6814 H   0  0  0  0  0
   66.5646    2.8566   10.4722 H   0  0  0  0  0
   64.0575    3.9256   13.0048 H   0  0  0  0  0
   63.1188    3.8167   11.4955 H   0  0  0  0  0
   62.9518    2.5548   12.7409 H   0  0  0  0  0
   64.0585   -0.1726    8.6151 H   0  0  0  0  0
   66.8783    0.1557    7.7752 H   0  0  0  0  0
   65.9364   -2.3874    9.1712 H   0  0  0  0  0
   67.3142   -1.3542    9.6142 H   0  0  0  0  0
   67.9602   -3.2338    8.4202 H   0  0  0  0  0
   63.7700   -1.5481    7.5304 H   0  0  0  0  0
   64.5333   -2.5283    4.8098 H   0  0  0  0  0
   62.9679   -4.1037    5.1298 H   0  0  0  0  0
   61.7122   -2.8643    5.4654 H   0  0  0  0  0
   62.4646   -2.7284    7.8021 H   0  0  0  0  0
   60.7389   -4.3974    7.1907 H   0  0  0  0  0
   62.0144   -5.5966    6.8649 H   0  0  0  0  0
   61.7619   -4.9930    8.5211 H   0  0  0  0  0
   64.4139   -4.9322    6.9872 H   0  0  0  0  0
   64.8545   -3.2574    7.4018 H   0  0  0  0  0
   64.1621   -4.3294    8.6438 H   0  0  0  0  0
   63.7042    0.4074    5.9402 H   0  0  0  0  0
   61.6060    1.0120    3.8871 H   0  0  0  0  0
   61.4853    2.0864    6.1257 H   0  0  0  0  0
   63.0820    2.8266    5.8540 H   0  0  0  0  0
   61.6954    3.3048    4.8442 H   0  0  0  0  0
   65.0137    0.8638    4.1020 H   0  0  0  0  0
   65.3530    3.0126    2.0137 H   0  0  0  0  0
   67.8684    2.0700    2.4302 H   0  0  0  0  0
   67.1252    1.6336    3.9855 H   0  0  0  0  0
   66.1596    4.0996    3.8732 H   0  0  0  0  0
   67.5174    4.3615    2.7510 H   0  0  0  0  0
   67.9910    2.9810    5.3991 H   0  0  0  0  0
   67.8802    4.7549    5.3301 H   0  0  0  0  0
   69.7229    3.6085    3.3090 H   0  0  0  0  0
   70.9403    5.1428    6.8299 H   0  0  0  0  0
   69.2371    4.7404    6.5882 H   0  0  0  0  0
   71.8945    4.1279    3.6237 H   0  0  0  0  0
   64.4305    1.9645    0.2078 H   0  0  0  0  0
   66.2240   -0.1950   -0.9102 H   0  0  0  0  0
   63.8801   -1.0983   -1.8520 H   0  0  0  0  0
   63.2819   -0.3738   -0.3411 H   0  0  0  0  0
   65.4075   -1.6449    0.6799 H   0  0  0  0  0
   65.1640   -2.6833   -0.7466 H   0  0  0  0  0
   62.7069   -1.9763    0.7916 H   0  0  0  0  0
   63.8578   -3.0558    1.6144 H   0  0  0  0  0
   63.2770   -3.8576   -1.1816 H   0  0  0  0  0
   61.4862   -5.4934    2.0363 H   0  0  0  0  0
   62.3552   -3.9634    2.1954 H   0  0  0  0  0
   62.1721   -5.8145   -1.3770 H   0  0  0  0  0
   65.7386    2.1849   -4.6235 H   0  0  0  0  0
   67.3673    0.7544   -5.5935 H   0  0  0  0  0
   65.9988    0.1701   -6.5052 H   0  0  0  0  0
   67.5166   -1.4866   -4.8695 H   0  0  0  0  0
   65.8462   -1.8234   -5.2514 H   0  0  0  0  0
   65.4293   -1.6115   -2.9444 H   0  0  0  0  0
   66.9800   -0.9306   -2.6483 H   0  0  0  0  0
   63.7413    3.0350   -4.6933 H   0  0  0  0  0
   61.2616    1.7528   -4.8580 H   0  0  0  0  0
   60.5986    3.7036   -6.4304 H   0  0  0  0  0
   62.2922    4.2304   -6.2795 H   0  0  0  0  0
   61.6432    3.7407   -3.6503 H   0  0  0  0  0
   62.7722    5.7440   -4.5731 H   0  0  0  0  0
   61.2158    6.3253   -5.2141 H   0  0  0  0  0
   61.4646    6.2035   -3.4550 H   0  0  0  0  0
   59.1799    4.9010   -5.0309 H   0  0  0  0  0
   59.2771    3.3017   -4.2539 H   0  0  0  0  0
   59.4231    4.7794   -3.2711 H   0  0  0  0  0
   61.3355   -0.5038   -8.6960 H   0  0  0  0  0
   59.6300   -1.8258   -7.6985 H   0  0  0  0  0
   58.6142   -0.9661   -8.8300 H   0  0  0  0  0
   58.2418   -0.8640   -6.0643 H   0  0  0  0  0
   57.6695    0.3806   -7.1513 H   0  0  0  0  0
   59.1452    1.8556   -6.0819 H   0  0  0  0  0
   59.8686    0.5766   -5.1882 H   0  0  0  0  0
   60.1849    2.1550  -11.9894 H   0  0  0  0  0
   60.9662    0.4759  -13.4749 H   0  0  0  0  0
   59.2705    0.3291  -13.8567 H   0  0  0  0  0
   60.7533   -1.8008  -12.8726 H   0  0  0  0  0
   59.0294   -1.6773  -12.6284 H   0  0  0  0  0
   59.5248   -1.6109  -10.3244 H   0  0  0  0  0
   61.1959   -1.3281  -10.6083 H   0  0  0  0  0
   58.5625    3.5377  -11.9220 H   0  0  0  0  0
   55.9212    2.6999  -11.0498 H   0  0  0  0  0
   55.2365    5.0163  -11.9144 H   0  0  0  0  0
   56.9687    5.2245  -12.3737 H   0  0  0  0  0
   57.6641    5.3816  -10.2100 H   0  0  0  0  0
   56.0046    7.2011  -10.5896 H   0  0  0  0  0
   54.7086    6.1449   -9.9765 H   0  0  0  0  0
   55.9992    6.6982   -8.8814 H   0  0  0  0  0
   55.2017    3.8281   -9.3153 H   0  0  0  0  0
   56.8466    3.1702   -9.4953 H   0  0  0  0  0
   56.5105    4.3992   -8.2513 H   0  0  0  0  0
   54.0447    1.5675  -14.9266 H   0  0  0  0  0
   53.3919    2.4561  -16.5573 H   0  0  0  0  0
   52.2809    0.7048  -13.5774 H   0  0  0  0  0
   51.4191    2.0955  -14.1936 H   0  0  0  0  0
   51.8930    1.6592  -11.4769 H   0  0  0  0  0
   51.5594    3.2381  -12.1564 H   0  0  0  0  0
   53.7124    3.8728  -11.5032 H   0  0  0  0  0
   54.1083    2.2611  -11.0434 H   0  0  0  0  0
  1  2  1  0  0  0
  2  3  1  0  0  0
  2  5  1  0  0  0
  3  4  2  0  0  0
  3  8  1  0  0  0
  5  6  1  0  0  0
  5  7  1  0  0  0
  8  9  1  0  0  0
  9 10  1  0  0  0
  9 12  1  0  0  0
 10 11  2  0  0  0
 10 14  1  0  0  0
 12 13  1  0  0  0
 14 15  1  0  0  0
 15 16  1  0  0  0
 15 18  1  0  0  0
 16 17  2  0  0  0
 16 22  1  0  0  0
 18 19  1  0  0  0
 19 20  1  0  0  0
 19 21  1  0  0  0
 22 23  1  0  0  0
 23 24  1  0  0  0
 23 26  1  0  0  0
 24 25  2  0  0  0
 24 27  1  0  0  0
 27 28  1  0  0  0
 28 29  1  0  0  0
 28 31  1  0  0  0
 29 30  2  0  0  0
 29 38  1  0  0  0
 31 32  1  0  0  0
 32 33  1  0  0  0
 33 34  1  0  0  0
 34 35  1  0  0  0
 35 36  1  0  0  0
 35 37  2  0  0  0
 38 39  1  0  0  0
 39 40  1  0  0  0
 39 42  1  0  0  0
 40 41  2  0  0  0
 40 49  1  0  0  0
 42 43  1  0  0  0
 43 44  1  0  0  0
 44 45  1  0  0  0
 45 46  1  0  0  0
 46 47  1  0  0  0
 46 48  2  0  0  0
 49 50  1  0  0  0
 49 55  1  0  0  0
 50 51  1  0  0  0
 50 53  1  0  0  0
 51 52  2  0  0  0
 51 56  1  0  0  0
 53 54  1  0  0  0
 54 55  1  0  0  0
 56 57  1  0  0  0
 57 58  1  0  0  0
 57 60  1  0  0  0
 58 59  2  0  0  0
 58 64  1  0  0  0
 60 61  1  0  0  0
 61 62  1  0  0  0
 61 63  1  0  0  0
 64 65  1  0  0  0
 64 70  1  0  0  0
 65 66  1  0  0  0
 65 68  1  0  0  0
 66 67  2  0  0  0
 66 71  1  0  0  0
 68 69  1  0  0  0
 69 70  1  0  0  0
 71 72  1  0  0  0
 71 77  1  0  0  0
 72 73  1  0  0  0
 72 75  1  0  0  0
 73 74  2  0  0  0
 73 78  1  0  0  0
 75 76  1  0  0  0
 76 77  1  0  0  0
 78 79  1  0  0  0
 79 80  1  0  0  0
 79 82  1  0  0  0
 80 81  2  0  0  0
 80 86  1  0  0  0
 82 83  1  0  0  0
 83 84  1  0  0  0
 83 85  1  0  0  0
 86 87  1  0  0  0
 86 92  1  0  0  0
 87 88  1  0  0  0
 87 90  1  0  0  0
 88 89  1  0  0  0
 88 93  2  0  0  0
 90 91  1  0  0  0
 91 92  1  0  0  0
  1 94  1  0  0  0
  1 95  1  0  0  0
  1 96  1  0  0  0
  2 97  1  0  0  0
  5 98  1  0  0  0
  6 99  1  0  0  0
  6100  1  0  0  0
  6101  1  0  0  0
  7102  1  0  0  0
  7103  1  0  0  0
  7104  1  0  0  0
  8105  1  0  0  0
  9106  1  0  0  0
 12107  1  0  0  0
 12108  1  0  0  0
 13109  1  0  0  0
 14110  1  0  0  0
 15111  1  0  0  0
 18112  1  0  0  0
 18113  1  0  0  0
 19114  1  0  0  0
 20115  1  0  0  0
 20116  1  0  0  0
 20117  1  0  0  0
 21118  1  0  0  0
 21119  1  0  0  0
 21120  1  0  0  0
 22121  1  0  0  0
 23122  1  0  0  0
 26123  1  0  0  0
 26124  1  0  0  0
 26125  1  0  0  0
 27126  1  0  0  0
 28127  1  0  0  0
 31128  1  0  0  0
 31129  1  0  0  0
 32130  1  0  0  0
 32131  1  0  0  0
 33132  1  0  0  0
 33133  1  0  0  0
 34134  1  0  0  0
 36135  1  0  0  0
 36136  1  0  0  0
 37137  1  0  0  0
 38138  1  0  0  0
 39139  1  0  0  0
 42140  1  0  0  0
 42141  1  0  0  0
 43142  1  0  0  0
 43143  1  0  0  0
 44144  1  0  0  0
 44145  1  0  0  0
 45146  1  0  0  0
 47147  1  0  0  0
 47148  1  0  0  0
 48149  1  0  0  0
 50150  1  0  0  0
 53151  1  0  0  0
 53152  1  0  0  0
 54153  1  0  0  0
 54154  1  0  0  0
 55155  1  0  0  0
 55156  1  0  0  0
 56157  1  0  0  0
 57158  1  0  0  0
 60159  1  0  0  0
 60160  1  0  0  0
 61161  1  0  0  0
 62162  1  0  0  0
 62163  1  0  0  0
 62164  1  0  0  0
 63165  1  0  0  0
 63166  1  0  0  0
 63167  1  0  0  0
 65168  1  0  0  0
 68169  1  0  0  0
 68170  1  0  0  0
 69171  1  0  0  0
 69172  1  0  0  0
 70173  1  0  0  0
 70174  1  0  0  0
 72175  1  0  0  0
 75176  1  0  0  0
 75177  1  0  0  0
 76178  1  0  0  0
 76179  1  0  0  0
 77180  1  0  0  0
 77181  1  0  0  0
 78182  1  0  0  0
 79183  1  0  0  0
 82184  1  0  0  0
 82185  1  0  0  0
 83186  1  0  0  0
 84187  1  0  0  0
 84188  1  0  0  0
 84189  1  0  0  0
 85190  1  0  0  0
 85191  1  0  0  0
 85192  1  0  0  0
 87193  1  0  0  0
 89194  1  0  0  0
 90195  1  0  0  0
 90196  1  0  0  0
 91197  1  0  0  0
 91198  1  0  0  0
 92199  1  0  0  0
 92200  1  0  0  0
M  END
$$$$
