### 
### Created by X-TOOL on Mon Sep 10 21:12:45 2018
### 

@<TRIPOS>MOLECULE
1qwf_ligand
  201   204     1     0     0
SMALL
GAST_HUCK


@<TRIPOS>ATOM
      1 N          63.4380    0.4180   11.2510 N.4       1 VAL         0.2381
      2 CA         64.2060    1.4960   10.5650 C.3       1 VAL         0.0673
      3 C          65.3500    0.8750    9.7610 C.2       1 VAL         0.2270
      4 O          66.5090    1.1450   10.0050 O.2       1 VAL        -0.3907
      5 CB         64.7820    2.4530   11.6100 C.3       1 VAL         0.0139
      6 CG1        65.7550    3.4210   10.9350 C.3       1 VAL        -0.0553
      7 CG2        63.6450    3.2450   12.2600 C.3       1 VAL        -0.0553
      8 H1         63.0579   -0.2134   10.5633 H         1 VAL         0.2015
      9 H2         62.6862    0.8275   11.7831 H         1 VAL         0.2015
     10 H3         64.0507   -0.0891   11.8703 H         1 VAL         0.2015
     11 H4         63.5385    2.0490    9.8878 H         1 VAL         0.1101
     12 H5         65.3142    1.8763   12.3808 H         1 VAL         0.0376
     13 H6         66.1688    4.1088   11.6871 H         1 VAL         0.0236
     14 H7         65.2229    3.9977   10.1641 H         1 VAL         0.0236
     15 H8         66.5731    2.8527   10.4684 H         1 VAL         0.0236
     16 H9         62.9447    2.5495   12.7457 H         1 VAL         0.0236
     17 H10        63.1131    3.8224   11.4895 H         1 VAL         0.0236
     18 H11        64.0600    3.9322   13.0120 H         1 VAL         0.0236
     19 N          65.0370    0.0430    8.8060 N.am      1 SER        -0.2588
     20 CA         66.1160   -0.5920    7.9940 C.3       1 SER         0.1540
     21 C          65.5490   -1.1240    6.6740 C.2       1 SER         0.2062
     22 O          66.2230   -1.1400    5.6630 O.2       1 SER        -0.3943
     23 CB         66.7300   -1.7490    8.7830 C.3       1 SER         0.0843
     24 OG         67.5740   -2.5070    7.9260 O.3       1 SER        -0.3903
     25 H12        64.0777   -0.1684    8.6189 H         1 SER         0.1885
     26 H13        66.8932    0.1559    7.7782 H         1 SER         0.0823
     27 H14        65.9287   -2.3936    9.1734 H         1 SER         0.0606
     28 H15        67.3205   -1.3498    9.6209 H         1 SER         0.0606
     29 H16        67.0626   -2.8506    7.2028 H         1 SER         0.2097
     30 N          64.3220   -1.5690    6.6730 N.am      1 LEU        -0.2636
     31 CA         63.7280   -2.1090    5.4130 C.3       1 LEU         0.1312
     32 C          63.0350   -0.9830    4.6390 C.2       1 LEU         0.2039
     33 O          62.3940   -1.2140    3.6330 O.2       1 LEU        -0.3944
     34 CB         62.7100   -3.2230    5.7180 C.3       1 LEU        -0.0101
     35 CG         62.7370   -3.5980    7.2040 C.3       1 LEU        -0.0425
     36 CD1        61.7410   -4.7280    7.4640 C.3       1 LEU        -0.0625
     37 CD2        64.1440   -4.0630    7.5870 C.3       1 LEU        -0.0625
     38 H17        63.7808   -1.5485    7.5136 H         1 LEU         0.1883
     39 H18        64.5350   -2.5263    4.7928 H         1 LEU         0.0800
     40 H19        62.9577   -4.1111    5.1181 H         1 LEU         0.0315
     41 H20        61.7017   -2.8715    5.4537 H         1 LEU         0.0315
     42 H21        62.4629   -2.7209    7.8086 H         1 LEU         0.0298
     43 H22        61.7612   -4.9963    8.5306 H         1 LEU         0.0232
     44 H23        62.0159   -5.6053    6.8600 H         1 LEU         0.0232
     45 H24        60.7292   -4.3956    7.1886 H         1 LEU         0.0232
     46 H25        64.8620   -3.2508    7.4005 H         1 LEU         0.0232
     47 H26        64.4176   -4.9403    6.9824 H         1 LEU         0.0232
     48 H27        64.1637   -4.3320    8.6534 H         1 LEU         0.0232
     49 N          63.1620    0.2330    5.0940 N.am      1 ALA        -0.2640
     50 CA         62.5130    1.3690    4.3750 C.3       1 ALA         0.1282
     51 C          63.4830    1.9330    3.3370 C.2       1 ALA         0.2036
     52 O          63.1160    2.7340    2.5000 O.2       1 ALA        -0.3944
     53 CB         62.1690    2.4770    5.3720 C.3       1 ALA        -0.0244
     54 H28        63.6936    0.4040    5.9236 H         1 ALA         0.1883
     55 H29        61.5970    1.0171    3.8779 H         1 ALA         0.0797
     56 H30        61.6910    3.3130    4.8405 H         1 ALA         0.0277
     57 H31        63.0896    2.8307    5.8592 H         1 ALA         0.0277
     58 H32        61.4790    2.0841    6.1332 H         1 ALA         0.0277
     59 N          64.7230    1.5360    3.3920 N.am      1 ARG        -0.2637
     60 CA         65.7140    2.0660    2.4160 C.3       1 ARG         0.1311
     61 C          65.8940    1.0720    1.2700 C.2       1 ARG         0.2039
     62 O          66.7270    0.1890    1.3230 O.2       1 ARG        -0.3944
     63 CB         67.0530    2.2910    3.1190 C.3       1 ARG        -0.0092
     64 CG         67.1470    3.7490    3.5730 C.3       1 ARG        -0.0156
     65 CD         68.1060    3.8550    4.7580 C.3       1 ARG         0.0627
     66 NE         69.5070    3.9230    4.2550 N.pl3     1 ARG        -0.2723
     67 CZ         70.4600    4.3840    5.0210 C.cat     1 ARG         0.2882
     68 NH1        70.1930    4.7850    6.2350 N.pl3     1 ARG        -0.2849
     69 NH2        71.6840    4.4420    4.5710 N.pl3     1 ARG        -0.2849
     70 H33        65.0080    0.8770    4.0881 H         1 ARG         0.1883
     71 H34        65.3504    3.0224    2.0123 H         1 ARG         0.0800
     72 H35        67.8753    2.0692    2.4229 H         1 ARG         0.0313
     73 H36        67.1245    1.6284    3.9941 H         1 ARG         0.0313
     74 H37        66.1506    4.1034    3.8754 H         1 ARG         0.0301
     75 H38        67.5201    4.3676    2.7435 H         1 ARG         0.0301
     76 H39        67.9903    2.9723    5.4041 H         1 ARG         0.0689
     77 H40        67.8784    4.7638    5.3345 H         1 ARG         0.0689
     78 H41        69.7251    3.6054    3.2998 H         1 ARG         0.2642
     79 H42        70.9474    5.1476    6.8352 H         1 ARG         0.2615
     80 H43        69.2280    4.7386    6.5922 H         1 ARG         0.2615
     81 H44        71.8963    4.1262    3.6139 H         1 ARG         0.2615
     82 H45        72.4375    4.8036    5.1731 H         1 ARG         0.2615
     83 N          65.1220    1.2150    0.2290 N.am      1 ARG        -0.2637
     84 CA         65.2470    0.2880   -0.9280 C.3       1 ARG         0.1313
     85 C          65.0910    1.0850   -2.2250 C.2       1 ARG         0.2064
     86 O          64.5900    2.1920   -2.2130 O.2       1 ARG        -0.3942
     87 CB         64.1570   -0.7830   -0.8460 C.3       1 ARG        -0.0092
     88 CG         64.6840   -1.9850   -0.0610 C.3       1 ARG        -0.0156
     89 CD         63.5230   -2.6840    0.6460 C.3       1 ARG         0.0627
     90 NE         63.0490   -3.8250   -0.1880 N.pl3     1 ARG        -0.2723
     91 CZ         62.3420   -4.7840    0.3500 C.cat     1 ARG         0.2882
     92 NH1        62.0390   -4.7440    1.6200 N.pl3     1 ARG        -0.2849
     93 NH2        61.9370   -5.7830   -0.3850 N.pl3     1 ARG        -0.2849
     94 H46        64.4440    1.9498    0.2082 H         1 ARG         0.1883
     95 H47        66.2356   -0.1939   -0.9090 H         1 ARG         0.0800
     96 H48        63.8782   -1.1014   -1.8613 H         1 ARG         0.0313
     97 H49        63.2743   -0.3700   -0.3359 H         1 ARG         0.0313
     98 H50        65.4149   -1.6424    0.6863 H         1 ARG         0.0301
     99 H51        65.1693   -2.6897   -0.7523 H         1 ARG         0.0301
    100 H52        62.6993   -1.9698    0.7926 H         1 ARG         0.0689
    101 H53        63.8611   -3.0595    1.6231 H         1 ARG         0.0689
    102 H54        63.2793   -3.8579   -1.1914 H         1 ARG         0.2642
    103 H55        61.4818   -5.5013    2.0406 H         1 ARG         0.2615
    104 H56        62.3573   -3.9552    2.2008 H         1 ARG         0.2615
    105 H57        62.1754   -5.8154   -1.3865 H         1 ARG         0.2615
    106 H58        61.3788   -6.5393    0.0363 H         1 ARG         0.2615
    107 N          65.5260    0.4970   -3.3080 N.am      1 PRO        -0.2498
    108 CA         65.4530    1.1330   -4.6330 C.3       1 PRO         0.1338
    109 C          64.0190    1.0910   -5.1640 C.2       1 PRO         0.2041
    110 O          63.5500    0.0730   -5.6310 O.2       1 PRO        -0.3944
    111 CB         66.3900    0.2820   -5.4940 C.3       1 PRO        -0.0104
    112 CG         66.5050   -1.0890   -4.7880 C.3       1 PRO        -0.0281
    113 CD         66.1210   -0.8550   -3.3150 C.3       1 PRO         0.0369
    114 H59        65.7994    2.1762   -4.5906 H         1 PRO         0.0802
    115 H60        67.3792    0.7579   -5.5646 H         1 PRO         0.0313
    116 H61        65.9706    0.1564   -6.5031 H         1 PRO         0.0313
    117 H62        67.5358   -1.4667   -4.8567 H         1 PRO         0.0287
    118 H63        65.8176   -1.8132   -5.2496 H         1 PRO         0.0287
    119 H64        65.3902   -1.6050   -2.9782 H         1 PRO         0.0524
    120 H65        67.0104   -0.8936   -2.6688 H         1 PRO         0.0524
    121 N          63.3230    2.1940   -5.0910 N.am      1 LEU        -0.2637
    122 CA         61.9190    2.2250   -5.5880 C.3       1 LEU         0.1314
    123 C          61.8350    1.4690   -6.9150 C.2       1 LEU         0.2064
    124 O          62.7760    1.4650   -7.6830 O.2       1 LEU        -0.3942
    125 CB         61.4860    3.6770   -5.7980 C.3       1 LEU        -0.0101
    126 CG         61.1670    4.3150   -4.4450 C.3       1 LEU        -0.0425
    127 CD1        61.6930    5.7510   -4.4200 C.3       1 LEU        -0.0625
    128 CD2        59.6520    4.3250   -4.2350 C.3       1 LEU        -0.0625
    129 H66        63.7331    3.0185   -4.7011 H         1 LEU         0.1883
    130 H67        61.2570    1.7476   -4.8506 H         1 LEU         0.0800
    131 H68        60.5905    3.7039   -6.4362 H         1 LEU         0.0315
    132 H69        62.2995    4.2356   -6.2840 H         1 LEU         0.0315
    133 H70        61.6459    3.7344   -3.6428 H         1 LEU         0.0298
    134 H71        61.4630    6.2088   -3.4466 H         1 LEU         0.0232
    135 H72        61.2121    6.3317   -5.2210 H         1 LEU         0.0232
    136 H73        62.7821    5.7453   -4.5743 H         1 LEU         0.0232
    137 H74        59.2726    3.2927   -4.2528 H         1 LEU         0.0232
    138 H75        59.1743    4.9051   -5.0383 H         1 LEU         0.0232
    139 H76        59.4196    4.7843   -3.2629 H         1 LEU         0.0232
    140 N          60.7100    0.8450   -7.1400 N.am      1 PRO        -0.2498
    141 CA         60.4690    0.0670   -8.3620 C.3       1 PRO         0.1340
    142 C          60.1050    1.0070   -9.5170 C.2       1 PRO         0.2066
    143 O          59.9330    2.1930   -9.3160 O.2       1 PRO        -0.3942
    144 CB         59.2880   -0.8310   -7.9840 C.3       1 PRO        -0.0104
    145 CG         58.5660   -0.1350   -6.8070 C.3       1 PRO        -0.0281
    146 CD         59.5710    0.8590   -6.1980 C.3       1 PRO         0.0369
    147 H77        61.3499   -0.5329   -8.6344 H         1 PRO         0.0802
    148 H78        59.6487   -1.8232   -7.6751 H         1 PRO         0.0313
    149 H79        58.6041   -0.9392   -8.8387 H         1 PRO         0.0313
    150 H80        58.2644   -0.8783   -6.0543 H         1 PRO         0.0287
    151 H81        57.6765    0.4002   -7.1709 H         1 PRO         0.0287
    152 H82        59.1324    1.8655   -6.1309 H         1 PRO         0.0524
    153 H83        59.8880    0.5297   -5.1975 H         1 PRO         0.0524
    154 N          59.9980    0.4460  -10.6910 N.am      1 PRO        -0.2498
    155 CA         59.6520    1.2080  -11.9040 C.3       1 PRO         0.1338
    156 C          58.1620    1.5570  -11.8970 C.2       1 PRO         0.2041
    157 O          57.3130    0.6890  -11.8740 O.2       1 PRO        -0.3944
    158 CB         59.9920    0.2450  -13.0440 C.3       1 PRO        -0.0104
    159 CG         59.9770   -1.1760  -12.4310 C.3       1 PRO        -0.0281
    160 CD         60.2040   -0.9990  -10.9180 C.3       1 PRO         0.0369
    161 H84        60.2476    2.1298  -11.9778 H         1 PRO         0.0802
    162 H85        60.9879    0.4735  -13.4515 H         1 PRO         0.0313
    163 H86        59.2416    0.3224  -13.8446 H         1 PRO         0.0313
    164 H87        60.7808   -1.7871  -12.8674 H         1 PRO         0.0287
    165 H88        59.0067   -1.6600  -12.6161 H         1 PRO         0.0287
    166 H89        59.4786   -1.5924  -10.3420 H         1 PRO         0.0524
    167 H90        61.2254   -1.2967  -10.6387 H         1 PRO         0.0524
    168 N          57.8360    2.8220  -11.9030 N.am      1 LEU        -0.2637
    169 CA         56.4010    3.2150  -11.8820 C.3       1 LEU         0.1314
    170 C          55.7230    2.8190  -13.1970 C.2       1 LEU         0.2058
    171 O          56.3690    2.6780  -14.2160 O.2       1 LEU        -0.3942
    172 CB         56.2670    4.7340  -11.6990 C.3       1 LEU        -0.0101
    173 CG         56.5970    5.1650  -10.2590 C.3       1 LEU        -0.0425
    174 CD1        55.7680    6.3900   -9.9010 C.3       1 LEU        -0.0625
    175 CD2        56.2650    4.0610   -9.2580 C.3       1 LEU        -0.0625
    176 H91        58.5482    3.5237  -11.9216 H         1 LEU         0.1883
    177 H92        55.9018    2.7025  -11.0464 H         1 LEU         0.0800
    178 H93        55.2340    5.0314  -11.9322 H         1 LEU         0.0315
    179 H94        56.9587    5.2387  -12.3895 H         1 LEU         0.0315
    180 H95        57.6678    5.4075  -10.1920 H         1 LEU         0.0298
    181 H96        56.0004    6.7021   -8.8721 H         1 LEU         0.0232
    182 H97        54.6986    6.1440   -9.9768 H         1 LEU         0.0232
    183 H98        56.0059    7.2094  -10.5952 H         1 LEU         0.0232
    184 H99        56.8527    3.1620   -9.4954 H         1 LEU         0.0232
    185 H100       55.1925    3.8238   -9.3161 H         1 LEU         0.0232
    186 H101       56.5107    4.4018   -8.2414 H         1 LEU         0.0232
    187 N          54.4260    2.6670  -13.1190 N.am      1 PRO        -0.2556
    188 CA         53.5830    2.3040  -14.2690 C.3       1 PRO         0.0972
    189 C          53.3050    3.5350  -15.1370 C.2       1 PRO         0.0603
    190 O          53.2450    3.3810  -16.3460 O.co2     1 PRO        -0.5666
    191 CB         52.2930    1.7940  -13.6160 C.3       1 PRO        -0.0159
    192 CG         52.2490    2.3950  -12.1980 C.3       1 PRO        -0.0288
    193 CD         53.6790    2.8430  -11.8590 C.3       1 PRO         0.0362
    194 OXT        53.1570    4.6090  -14.5780 O.co2     1 PRO        -0.5666
    195 H102       54.0562    1.5194  -14.8777 H         1 PRO         0.0728
    196 H103       52.3036    0.6954  -13.5622 H         1 PRO         0.0306
    197 H104       51.4182    2.1243  -14.1953 H         1 PRO         0.0306
    198 H105       51.9088    1.6376  -11.4765 H         1 PRO         0.0286
    199 H106       51.5666    3.2574  -12.1736 H         1 PRO         0.0286
    200 H107       53.6923    3.8963  -11.5423 H         1 PRO         0.0524
    201 H108       54.1052    2.2152  -11.0626 H         1 PRO         0.0524
@<TRIPOS>BOND
     1    1    2 1  
     2    1    8 1  
     3    1    9 1  
     4    1   10 1  
     5    2    3 1  
     6    2    5 1  
     7    2   11 1  
     8    3    4 2  
     9    3   19 am 
    10    5    6 1  
    11    5    7 1  
    12    5   12 1  
    13    6   13 1  
    14    6   14 1  
    15    6   15 1  
    16    7   16 1  
    17    7   17 1  
    18    7   18 1  
    19   19   20 1  
    20   19   25 1  
    21   20   21 1  
    22   20   23 1  
    23   20   26 1  
    24   21   22 2  
    25   21   30 am 
    26   23   24 1  
    27   23   27 1  
    28   23   28 1  
    29   24   29 1  
    30   30   31 1  
    31   30   38 1  
    32   31   32 1  
    33   31   34 1  
    34   31   39 1  
    35   32   33 2  
    36   32   49 am 
    37   34   35 1  
    38   34   40 1  
    39   34   41 1  
    40   35   36 1  
    41   35   37 1  
    42   35   42 1  
    43   36   43 1  
    44   36   44 1  
    45   36   45 1  
    46   37   46 1  
    47   37   47 1  
    48   37   48 1  
    49   49   50 1  
    50   49   54 1  
    51   50   51 1  
    52   50   53 1  
    53   50   55 1  
    54   51   52 2  
    55   51   59 am 
    56   53   56 1  
    57   53   57 1  
    58   53   58 1  
    59   59   60 1  
    60   59   70 1  
    61   60   61 1  
    62   60   63 1  
    63   60   71 1  
    64   61   62 2  
    65   61   83 am 
    66   63   64 1  
    67   63   72 1  
    68   63   73 1  
    69   64   65 1  
    70   64   74 1  
    71   64   75 1  
    72   65   66 1  
    73   65   76 1  
    74   65   77 1  
    75   66   67 ar 
    76   66   78 1  
    77   67   68 ar 
    78   67   69 ar 
    79   68   79 1  
    80   68   80 1  
    81   69   81 1  
    82   69   82 1  
    83   83   84 1  
    84   83   94 1  
    85   84   85 1  
    86   84   87 1  
    87   84   95 1  
    88   85   86 2  
    89   85  107 am 
    90   87   88 1  
    91   87   96 1  
    92   87   97 1  
    93   88   89 1  
    94   88   98 1  
    95   88   99 1  
    96   89   90 1  
    97   89  100 1  
    98   89  101 1  
    99   90   91 ar 
   100   90  102 1  
   101   91   92 ar 
   102   91   93 ar 
   103   92  103 1  
   104   92  104 1  
   105   93  105 1  
   106   93  106 1  
   107  107  108 1  
   108  107  113 1  
   109  108  109 1  
   110  108  111 1  
   111  108  114 1  
   112  109  110 2  
   113  109  121 am 
   114  111  112 1  
   115  111  115 1  
   116  111  116 1  
   117  112  113 1  
   118  112  117 1  
   119  112  118 1  
   120  113  119 1  
   121  113  120 1  
   122  121  122 1  
   123  121  129 1  
   124  122  123 1  
   125  122  125 1  
   126  122  130 1  
   127  123  124 2  
   128  123  140 am 
   129  125  126 1  
   130  125  131 1  
   131  125  132 1  
   132  126  127 1  
   133  126  128 1  
   134  126  133 1  
   135  127  134 1  
   136  127  135 1  
   137  127  136 1  
   138  128  137 1  
   139  128  138 1  
   140  128  139 1  
   141  140  141 1  
   142  140  146 1  
   143  141  142 1  
   144  141  144 1  
   145  141  147 1  
   146  142  143 2  
   147  142  154 am 
   148  144  145 1  
   149  144  148 1  
   150  144  149 1  
   151  145  146 1  
   152  145  150 1  
   153  145  151 1  
   154  146  152 1  
   155  146  153 1  
   156  154  155 1  
   157  154  160 1  
   158  155  156 1  
   159  155  158 1  
   160  155  161 1  
   161  156  157 2  
   162  156  168 am 
   163  158  159 1  
   164  158  162 1  
   165  158  163 1  
   166  159  160 1  
   167  159  164 1  
   168  159  165 1  
   169  160  166 1  
   170  160  167 1  
   171  168  169 1  
   172  168  176 1  
   173  169  170 1  
   174  169  172 1  
   175  169  177 1  
   176  170  171 2  
   177  170  187 am 
   178  172  173 1  
   179  172  178 1  
   180  172  179 1  
   181  173  174 1  
   182  173  175 1  
   183  173  180 1  
   184  174  181 1  
   185  174  182 1  
   186  174  183 1  
   187  175  184 1  
   188  175  185 1  
   189  175  186 1  
   190  187  188 1  
   191  187  193 1  
   192  188  189 1  
   193  188  191 1  
   194  188  195 1  
   195  189  190 ar 
   196  189  194 ar 
   197  191  192 1  
   198  191  196 1  
   199  191  197 1  
   200  192  193 1  
   201  192  198 1  
   202  192  199 1  
   203  193  200 1  
   204  193  201 1  
@<TRIPOS>SUBSTRUCTURE
     1 VAL         1

