### 
### Created by X-TOOL on Mon Sep 10 21:12:59 2018
### 

@<TRIPOS>MOLECULE
2rny_ligand
  261   261     1     0     0
SMALL
GAST_HUCK


@<TRIPOS>ATOM
      1 N         -22.6770  -12.3490   -3.7930 N.4       1 GLY         0.2357
      2 CA        -22.8840  -10.9520   -4.2660 C.3       1 GLY         0.0545
      3 C         -21.5810  -10.2540   -4.6010 C.2       1 GLY         0.2234
      4 O         -20.5510  -10.9030   -4.7820 O.2       1 GLY        -0.3911
      5 N         -21.6280   -8.9280   -4.6840 N.am      1 GLY        -0.2639
      6 CA        -20.4370   -8.1610   -4.9990 C.3       1 GLY         0.1202
      7 C         -20.3490   -7.8050   -6.4710 C.2       1 GLY         0.2007
      8 O         -20.9250   -6.8080   -6.9090 O.2       1 GLY        -0.3947
      9 N         -19.6230   -8.6220   -7.2330 N.am      1 ALA        -0.2642
     10 CA        -19.4540   -8.3990   -8.6680 C.3       1 ALA         0.1282
     11 C         -18.7420   -7.0780   -8.9470 C.2       1 ALA         0.2036
     12 O         -18.5510   -6.2580   -8.0490 O.2       1 ALA        -0.3944
     13 CB        -20.8030   -8.4330   -9.3730 C.3       1 ALA        -0.0244
     14 N         -18.3470   -6.8830  -10.2030 N.am      1 LYS        -0.2637
     15 CA        -17.6550   -5.6660  -10.6120 C.3       1 LYS         0.1310
     16 C         -18.6440   -4.6210  -11.1140 C.2       1 LYS         0.2039
     17 O         -19.1870   -4.7460  -12.2120 O.2       1 LYS        -0.3944
     18 CB        -16.6380   -5.9800  -11.7100 C.3       1 LYS        -0.0122
     19 CG        -15.5310   -6.9200  -11.2670 C.3       1 LYS        -0.0440
     20 CD        -14.6680   -7.3510  -12.4410 C.3       1 LYS        -0.0124
     21 CE        -13.4900   -8.1960  -11.9880 C.3       1 LYS        -0.0354
     22 NZ        -12.6910   -8.6940  -13.1420 N.4       1 LYS         0.2185
     23 N         -18.8710   -3.5880  -10.3070 N.am      1 ARG        -0.2637
     24 CA        -19.7960   -2.5220  -10.6720 C.3       1 ARG         0.1311
     25 C         -19.6950   -1.3530   -9.6940 C.2       1 ARG         0.2040
     26 O         -19.1990   -1.5080   -8.5780 O.2       1 ARG        -0.3944
     27 CB        -21.2300   -3.0590  -10.7060 C.3       1 ARG        -0.0092
     28 CG        -22.2480   -2.0720  -11.2570 C.3       1 ARG        -0.0156
     29 CD        -22.0330   -1.8150  -12.7400 C.3       1 ARG         0.0627
     30 NE        -22.2040   -3.0250  -13.5390 N.pl3     1 ARG        -0.2723
     31 CZ        -22.5240   -3.0200  -14.8300 C.cat     1 ARG         0.2882
     32 NH1       -22.7080   -1.8720  -15.4660 N.pl3     1 ARG        -0.2849
     33 NH2       -22.6600   -4.1650  -15.4860 N.pl3     1 ARG        -0.2849
     34 N         -20.1650   -0.1860  -10.1260 N.am      1 HIS        -0.2625
     35 CA        -20.1350    1.0160   -9.2990 C.3       1 HIS         0.1369
     36 C         -18.7070    1.3380   -8.8550 C.2       1 HIS         0.2054
     37 O         -17.8740    1.7130   -9.6730 O.2       1 HIS        -0.3942
     38 CB        -21.0590    0.8550   -8.0880 C.3       1 HIS         0.0145
     39 CG        -21.3110    2.1340   -7.3500 C.2       1 HIS        -0.0027
     40 ND1       -21.8840    3.2430   -7.9380 N.2       1 HIS        -0.3252
     41 CD2       -21.0640    2.4780   -6.0640 C.2       1 HIS         0.0291
     42 CE1       -21.9770    4.2130   -7.0470 C.2       1 HIS         0.0907
     43 NE2       -21.4860    3.7750   -5.9020 N.pl3     1 HIS        -0.2752
     44 N         -18.4230    1.1820   -7.5630 N.am      1 ARG        -0.2636
     45 CA        -17.0910    1.4680   -7.0340 C.3       1 ARG         0.1311
     46 C         -16.0620    0.4490   -7.5390 C.2       1 ARG         0.2039
     47 O         -16.2200   -0.1270   -8.6170 O.2       1 ARG        -0.3944
     48 CB        -17.1260    1.4770   -5.5020 C.3       1 ARG        -0.0092
     49 CG        -17.3310    2.8530   -4.8880 C.3       1 ARG        -0.0156
     50 CD        -17.1790    2.8060   -3.3730 C.3       1 ARG         0.0627
     51 NE        -17.3420    4.1210   -2.7570 N.pl3     1 ARG        -0.2723
     52 CZ        -16.6210    4.5490   -1.7210 C.cat     1 ARG         0.2882
     53 NH1       -15.6850    3.7730   -1.1880 N.pl3     1 ARG        -0.2849
     54 NH2       -16.8340    5.7570   -1.2190 N.pl3     1 ARG        -0.2849
     55 OH        -11.3890    3.3590   -3.4130 O.2       1 ALY        -0.3974
     56 CH        -10.6580    2.4690   -3.8470 C.2       1 ALY         0.1729
     57 CH3        -9.2280    2.3530   -3.3070 C.3       1 ALY         0.0256
     58 NZ        -11.0570    1.6310   -4.7980 N.am      1 ALY        -0.2872
     59 CE        -10.2790    1.3440   -5.9990 C.3       1 ALY         0.0309
     60 CD        -11.0220    0.4390   -6.9620 C.3       1 ALY        -0.0325
     61 CG        -11.4950   -0.8290   -6.2760 C.3       1 ALY        -0.0470
     62 CB        -12.9560   -0.7520   -5.8940 C.3       1 ALY        -0.0123
     63 CA        -13.9330   -0.6860   -7.0850 C.3       1 ALY         0.1310
     64 N         -15.0080    0.2450   -6.7510 N.am      1 ALY        -0.2637
     65 C         -14.5290   -2.0560   -7.3980 C.2       1 ALY         0.2039
     66 O         -14.9150   -2.3380   -8.5330 O.2       1 ALY        -0.3944
     67 N         -14.5870   -2.8980   -6.3850 N.am      1 VAL        -0.2635
     68 CA        -15.1980   -4.2090   -6.4950 C.3       1 VAL         0.1332
     69 C         -16.3090   -4.2320   -5.4620 C.2       1 VAL         0.2041
     70 O         -16.9180   -5.2570   -5.1560 O.2       1 VAL        -0.3944
     71 CB        -14.1830   -5.3430   -6.2530 C.3       1 VAL        -0.0063
     72 CG1       -14.8340   -6.7090   -6.4230 C.3       1 VAL        -0.0584
     73 CG2       -13.0010   -5.1940   -7.2000 C.3       1 VAL        -0.0584
     74 N         -16.5430   -3.0290   -4.9460 N.am      1 LEU        -0.2637
     75 CA        -17.5440   -2.7500   -3.9380 C.3       1 LEU         0.1312
     76 C         -18.9260   -3.2490   -4.3630 C.2       1 LEU         0.2039
     77 O         -19.2200   -4.4410   -4.2650 O.2       1 LEU        -0.3944
     78 CB        -17.5560   -1.2350   -3.6960 C.3       1 LEU        -0.0101
     79 CG        -16.4460   -0.6910   -2.7910 C.3       1 LEU        -0.0425
     80 CD1       -16.4130   -1.4420   -1.4710 C.3       1 LEU        -0.0625
     81 CD2       -15.0910   -0.7660   -3.4810 C.3       1 LEU        -0.0625
     82 N         -19.7700   -2.3310   -4.8350 N.am      1 ARG        -0.2637
     83 CA        -21.1190   -2.6740   -5.2760 C.3       1 ARG         0.1311
     84 C         -21.8320   -3.5460   -4.2440 C.2       1 ARG         0.2040
     85 O         -21.9490   -4.7590   -4.4160 O.2       1 ARG        -0.3944
     86 CB        -21.0640   -3.3950   -6.6250 C.3       1 ARG        -0.0092
     87 CG        -22.4170   -3.5390   -7.3050 C.3       1 ARG        -0.0156
     88 CD        -22.9430   -2.2010   -7.8040 C.3       1 ARG         0.0627
     89 NE        -23.4330   -1.3620   -6.7130 N.pl3     1 ARG        -0.2723
     90 CZ        -24.0520   -0.2000   -6.8950 C.cat     1 ARG         0.2882
     91 NH1       -24.2630    0.2590   -8.1210 N.pl3     1 ARG        -0.2849
     92 NH2       -24.4640    0.5030   -5.8490 N.pl3     1 ARG        -0.2849
     93 N         -22.3080   -2.9200   -3.1700 N.am      1 ASP        -0.2622
     94 CA        -23.0080   -3.6390   -2.1120 C.3       1 ASP         0.1423
     95 C         -24.2800   -4.2940   -2.6440 C.2       1 ASP         0.2057
     96 O         -24.3830   -5.5210   -2.6850 O.2       1 ASP        -0.3943
     97 CB        -23.3520   -2.6920   -0.9600 C.3       1 ASP         0.0406
     98 CG        -22.1150   -2.1680   -0.2560 C.2       1 ASP         0.0393
     99 OD1       -21.6560   -2.8240    0.7030 O.co2     1 ASP        -0.5688
    100 OD2       -21.6060   -1.1030   -0.6630 O.co2     1 ASP        -0.5688
    101 N         -25.2420   -3.4650   -3.0480 N.am      1 ASN        -0.2615
    102 CA        -26.5140   -3.9520   -3.5810 C.3       1 ASN         0.1476
    103 C         -27.2950   -4.7290   -2.5250 C.2       1 ASN         0.2063
    104 O         -26.8430   -5.7680   -2.0400 O.2       1 ASN        -0.3942
    105 CB        -26.2830   -4.8310   -4.8130 C.3       1 ASN         0.0773
    106 CG        -27.5750   -5.3890   -5.3810 C.2       1 ASN         0.1780
    107 OD1       -27.6030   -6.4970   -5.9160 O.2       1 ASN        -0.3970
    108 ND2       -28.6530   -4.6210   -5.2710 N.am      1 ASN        -0.3007
    109 N         -28.4730   -4.2210   -2.1750 N.am      1 ILE        -0.2633
    110 CA        -29.3210   -4.8640   -1.1790 C.3       1 ILE         0.1335
    111 C         -30.7970   -4.6150   -1.4730 C.2       1 ILE         0.2036
    112 O         -31.6490   -5.4560   -1.1830 O.2       1 ILE        -0.3944
    113 CB        -28.9920   -4.3640    0.2440 C.3       1 ILE        -0.0037
    114 CG1       -29.9040   -5.0390    1.2740 C.3       1 ILE        -0.0491
    115 CG2       -29.1270   -2.8490    0.3180 C.3       1 ILE        -0.0582
    116 CD1       -29.5430   -4.7190    2.7090 C.3       1 ILE        -0.0648
    117 N         -31.0920   -3.4570   -2.0550 N.am      1 GLN        -0.2693
    118 CA        -32.4650   -3.0960   -2.3880 C.3       1 GLN         0.0964
    119 C         -32.5950   -2.7610   -3.8720 C.2       1 GLN         0.0602
    120 O         -32.3400   -1.5950   -4.2390 O.co2     1 GLN        -0.5666
    121 CB        -32.9190   -1.9060   -1.5400 C.3       1 GLN        -0.0010
    122 CG        -34.3710   -1.5160   -1.7640 C.3       1 GLN         0.0407
    123 CD        -34.7960   -0.3350   -0.9130 C.2       1 GLN         0.1737
    124 OE1       -34.2870   -0.1340    0.1890 O.2       1 GLN        -0.3973
    125 NE2       -35.7330    0.4560   -1.4240 N.am      1 GLN        -0.3009
    126 OXT       -32.9470   -3.6690   -4.6540 O.co2     1 GLN        -0.5666
    127 H1        -23.5693  -12.7686   -3.5840 H         1 GLY         0.2012
    128 H2        -22.1064  -12.3414   -2.9621 H         1 GLY         0.2012
    129 H3        -22.2152  -12.8825   -4.5128 H         1 GLY         0.2012
    130 H4        -23.3954  -10.3838   -3.4751 H         1 GLY         0.1061
    131 H5        -23.5141  -10.9744   -5.1673 H         1 GLY         0.1061
    132 H6        -22.4943   -8.4535   -4.5275 H         1 GLY         0.1882
    133 H7        -19.5523   -8.7549   -4.7260 H         1 GLY         0.0763
    134 H8        -20.4502   -7.2313   -4.4113 H         1 GLY         0.0763
    135 H9        -19.1798   -9.4125   -6.8102 H         1 ALA         0.1883
    136 H10       -18.8334   -9.2135   -9.0698 H         1 ALA         0.0797
    137 H11       -20.6581   -8.2638  -10.4502 H         1 ALA         0.0277
    138 H12       -21.4515   -7.6452   -8.9621 H         1 ALA         0.0277
    139 H13       -21.2741   -9.4146   -9.2162 H         1 ALA         0.0277
    140 H14       -18.5298   -7.5908  -10.8854 H         1 LYS         0.1883
    141 H15       -17.1218   -5.2568   -9.7412 H         1 LYS         0.0800
    142 H16       -16.1802   -5.0356  -12.0396 H         1 LYS         0.0312
    143 H17       -17.1701   -6.4437  -12.5537 H         1 LYS         0.0312
    144 H18       -15.9813   -7.8120  -10.8072 H         1 LYS         0.0269
    145 H19       -14.8991   -6.4059  -10.5279 H         1 LYS         0.0269
    146 H20       -14.2883   -6.4546  -12.9531 H         1 LYS         0.0317
    147 H21       -15.2821   -7.9394  -13.1386 H         1 LYS         0.0317
    148 H22       -13.8680   -9.0577  -11.4183 H         1 LYS         0.0813
    149 H23       -12.8412   -7.5857  -11.3426 H         1 LYS         0.0813
    150 H24       -11.9207   -9.2487  -12.8029 H         1 LYS         0.1994
    151 H25       -12.3353   -7.9108  -13.6674 H         1 LYS         0.1994
    152 H26       -13.2762   -9.2596  -13.7367 H         1 LYS         0.1994
    153 H27       -18.3955   -3.5416   -9.4285 H         1 ARG         0.1883
    154 H28       -19.5322   -2.1599  -11.6766 H         1 ARG         0.0800
    155 H29       -21.5248   -3.3230   -9.6797 H         1 ARG         0.0313
    156 H30       -21.2467   -3.9607  -11.3358 H         1 ARG         0.0313
    157 H31       -22.1538   -1.1208  -10.7126 H         1 ARG         0.0301
    158 H32       -23.2583   -2.4810  -11.1085 H         1 ARG         0.0301
    159 H33       -21.0123   -1.4331  -12.8892 H         1 ARG         0.0689
    160 H34       -22.7595   -1.0615  -13.0781 H         1 ARG         0.0689
    161 H35       -22.0690   -3.9352  -13.0761 H         1 ARG         0.2642
    162 H36       -22.9557   -1.8711  -16.4658 H         1 ARG         0.2615
    163 H37       -22.6033   -0.9807  -14.9605 H         1 ARG         0.2615
    164 H38       -22.5179   -5.0595  -14.9956 H         1 ARG         0.2615
    165 H39       -22.9077   -4.1595  -16.4858 H         1 ARG         0.2615
    166 H40       -20.5512   -0.1306  -11.0468 H         1 HIS         0.1885
    167 H41       -20.5036    1.8581   -9.9032 H         1 HIS         0.0817
    168 H42       -20.5988    0.1375   -7.3927 H         1 HIS         0.0420
    169 H43       -22.0241    0.4595   -8.4374 H         1 HIS         0.0420
    170 H44       -20.6146    1.8446   -5.3006 H         1 HIS         0.0729
    171 H45       -22.3885    5.2053   -7.2259 H         1 HIS         0.1199
    172 H46       -21.4288    4.3181   -5.0287 H         1 HIS         0.2361
    173 H47       -19.1375    0.8619   -6.9408 H         1 ARG         0.1883
    174 H48       -16.7872    2.4662   -7.3822 H         1 ARG         0.0800
    175 H49       -16.1711    1.0743   -5.1334 H         1 ARG         0.0313
    176 H50       -17.9498    0.8268   -5.1725 H         1 ARG         0.0313
    177 H51       -18.3411    3.2105   -5.1367 H         1 ARG         0.0301
    178 H52       -16.5843    3.5462   -5.3025 H         1 ARG         0.0301
    179 H53       -16.1766    2.4236   -3.1300 H         1 ARG         0.0689
    180 H54       -17.9402    2.1265   -2.9622 H         1 ARG         0.0689
    181 H55       -18.0555    4.7539   -3.1460 H         1 ARG         0.2642
    182 H56       -15.1313    4.1097   -0.3874 H         1 ARG         0.2615
    183 H57       -15.5125    2.8342   -1.5750 H         1 ARG         0.2615
    184 H58       -17.5587    6.3642   -1.6278 H         1 ARG         0.2615
    185 H59       -16.2749    6.0886   -0.4201 H         1 ARG         0.2615
    186 H60        -8.7177    1.5114   -3.7983 H         1 ALY         0.0467
    187 H61        -9.2590    2.1796   -2.2212 H         1 ALY         0.0467
    188 H62        -8.6811    3.2847   -3.5141 H         1 ALY         0.0467
    189 H63       -11.9382    1.1721   -4.6846 H         1 ALY         0.1850
    190 H64        -9.3405    0.8521   -5.7036 H         1 ALY         0.0520
    191 H65       -10.0515    2.2921   -6.5083 H         1 ALY         0.0520
    192 H66       -10.3502    0.1688   -7.7900 H         1 ALY         0.0285
    193 H67       -11.8948    0.9781   -7.3589 H         1 ALY         0.0285
    194 H68       -10.8973   -0.9852   -5.3659 H         1 ALY         0.0268
    195 H69       -11.3506   -1.6784   -6.9598 H         1 ALY         0.0268
    196 H70       -13.1024    0.1495   -5.2810 H         1 ALY         0.0312
    197 H71       -13.2016   -1.6439   -5.2990 H         1 ALY         0.0312
    198 H72       -13.3940   -0.3214   -7.9718 H         1 ALY         0.0800
    199 H73       -14.9498    0.7524   -5.8912 H         1 ALY         0.1883
    200 H74       -14.1948   -2.6223   -5.5074 H         1 VAL         0.1883
    201 H75       -15.6247   -4.3330   -7.5012 H         1 VAL         0.0802
    202 H76       -13.8142   -5.2633   -5.2197 H         1 VAL         0.0343
    203 H77       -14.0866   -7.4961   -6.2445 H         1 VAL         0.0234
    204 H78       -15.2280   -6.8027   -7.4457 H         1 VAL         0.0234
    205 H79       -15.6576   -6.8150   -5.7016 H         1 VAL         0.0234
    206 H80       -12.5442   -4.2027   -7.0631 H         1 VAL         0.0234
    207 H81       -13.3480   -5.2975   -8.2387 H         1 VAL         0.0234
    208 H82       -12.2564   -5.9740   -6.9827 H         1 VAL         0.0234
    209 H83       -15.9896   -2.2646   -5.2769 H         1 LEU         0.1883
    210 H84       -17.2638   -3.2608   -3.0050 H         1 LEU         0.0800
    211 H85       -18.5216   -0.9749   -3.2378 H         1 LEU         0.0315
    212 H86       -17.4679   -0.7373   -4.6730 H         1 LEU         0.0315
    213 H87       -16.6646    0.3661   -2.5798 H         1 LEU         0.0298
    214 H88       -15.6103   -1.0358   -0.8381 H         1 LEU         0.0232
    215 H89       -16.2257   -2.5092   -1.6608 H         1 LEU         0.0232
    216 H90       -17.3790   -1.3248   -0.9582 H         1 LEU         0.0232
    217 H91       -15.1338   -0.2176   -4.4336 H         1 LEU         0.0232
    218 H92       -14.8360   -1.8183   -3.6749 H         1 LEU         0.0232
    219 H93       -14.3242   -0.3162   -2.8331 H         1 LEU         0.0232
    220 H94       -19.4699   -1.3786   -4.8886 H         1 ARG         0.1883
    221 H95       -21.6915   -1.7428   -5.3987 H         1 ARG         0.0800
    222 H96       -20.6495   -4.4010   -6.4630 H         1 ARG         0.0313
    223 H97       -20.3995   -2.8279   -7.2935 H         1 ARG         0.0313
    224 H98       -23.1350   -3.9577   -6.5845 H         1 ARG         0.0301
    225 H99       -22.3148   -4.2229   -8.1604 H         1 ARG         0.0301
    226 H100      -23.7678   -2.3844   -8.5083 H         1 ARG         0.0689
    227 H101      -22.1299   -1.6708   -8.3215 H         1 ARG         0.0689
    228 H102      -23.2905   -1.6899   -5.7470 H         1 ARG         0.2642
    229 H103      -24.7430    1.1599   -8.2581 H         1 ARG         0.2615
    230 H104      -23.9469   -0.2854   -8.9362 H         1 ARG         0.2615
    231 H105      -24.3020    0.1499   -4.8951 H         1 ARG         0.2615
    232 H106      -24.9460    1.4022   -5.9904 H         1 ARG         0.2615
    233 H107      -22.1823   -1.9314   -3.0866 H         1 ASP         0.1884
    234 H108      -22.3431   -4.4280   -1.7306 H         1 ASP         0.0819
    235 H109      -23.9716   -3.2335   -0.2300 H         1 ASP         0.0478
    236 H110      -23.9189   -1.8388   -1.3608 H         1 ASP         0.0478
    237 H111      -25.0894   -2.4787   -2.9847 H         1 ASN         0.1885
    238 H112      -27.1146   -3.0814   -3.8834 H         1 ASN         0.0826
    239 H113      -25.6309   -5.6704   -4.5299 H         1 ASN         0.0551
    240 H114      -25.7885   -4.2279   -5.5887 H         1 ASN         0.0551
    241 H115      -29.5316   -4.9384   -5.6279 H         1 ASN         0.1814
    242 H116      -28.5861   -3.7253   -4.8313 H         1 ASN         0.1814
    243 H117      -28.7856   -3.3749   -2.6068 H         1 ILE         0.1883
    244 H118      -29.1349   -5.9474   -1.2192 H         1 ILE         0.0803
    245 H119      -27.9503   -4.6316    0.4748 H         1 ILE         0.0345
    246 H120      -29.8392   -6.1282    1.1343 H         1 ILE         0.0267
    247 H121      -30.9370   -4.7070    1.0936 H         1 ILE         0.0267
    248 H122      -28.4652   -2.3851   -0.4282 H         1 ILE         0.0235
    249 H123      -28.8442   -2.5043    1.3236 H         1 ILE         0.0235
    250 H124      -30.1690   -2.5632    0.1120 H         1 ILE         0.0235
    251 H125      -30.2383   -5.2367    3.3862 H         1 ILE         0.0230
    252 H126      -29.6132   -3.6333    2.8714 H         1 ILE         0.0230
    253 H127      -28.5153   -5.0545    2.9121 H         1 ILE         0.0230
    254 H128      -30.3539   -2.8174   -2.2699 H         1 GLN         0.1875
    255 H129      -33.1152   -3.9549   -2.1655 H         1 GLN         0.0727
    256 H130      -32.2851   -1.0416   -1.7866 H         1 GLN         0.0330
    257 H131      -32.7887   -2.1655   -0.4790 H         1 GLN         0.0330
    258 H132      -35.0093   -2.3768   -1.5157 H         1 GLN         0.0504
    259 H133      -34.5057   -1.2531   -2.8236 H         1 GLN         0.0504
    260 H134      -36.0528    1.2505   -0.9077 H         1 GLN         0.1814
    261 H135      -36.1185    0.2570   -2.3250 H         1 GLN         0.1814
@<TRIPOS>BOND
     1    2    1 1  
     2    3    2 1  
     3    3    4 2  
     4    5    3 am 
     5    6    5 1  
     6    7    6 1  
     7    7    8 2  
     8    9    7 am 
     9   10    9 1  
    10   11   10 1  
    11   10   13 1  
    12   11   12 2  
    13   14   11 am 
    14   15   14 1  
    15   16   15 1  
    16   15   18 1  
    17   16   17 2  
    18   23   16 am 
    19   18   19 1  
    20   19   20 1  
    21   20   21 1  
    22   21   22 1  
    23   24   23 1  
    24   25   24 1  
    25   24   27 1  
    26   25   26 2  
    27   34   25 am 
    28   27   28 1  
    29   28   29 1  
    30   29   30 1  
    31   30   31 ar 
    32   31   32 ar 
    33   31   33 ar 
    34   35   34 1  
    35   36   35 1  
    36   35   38 1  
    37   36   37 2  
    38   44   36 am 
    39   38   39 1  
    40   39   40 1  
    41   39   41 2  
    42   40   42 2  
    43   41   43 1  
    44   43   42 1  
    45   45   44 1  
    46   46   45 1  
    47   45   48 1  
    48   46   47 2  
    49   64   46 am 
    50   48   49 1  
    51   49   50 1  
    52   50   51 1  
    53   51   52 ar 
    54   52   53 ar 
    55   52   54 ar 
    56   56   55 2  
    57   56   57 1  
    58   58   56 am 
    59   59   58 1  
    60   60   59 1  
    61   61   60 1  
    62   62   61 1  
    63   63   62 1  
    64   63   64 1  
    65   63   65 1  
    66   65   66 2  
    67   65   67 am 
    68   67   68 1  
    69   68   69 1  
    70   68   71 1  
    71   69   70 2  
    72   69   74 am 
    73   71   72 1  
    74   71   73 1  
    75   74   75 1  
    76   75   76 1  
    77   75   78 1  
    78   76   77 2  
    79   76   82 am 
    80   78   79 1  
    81   79   80 1  
    82   79   81 1  
    83   82   83 1  
    84   83   84 1  
    85   83   86 1  
    86   84   85 2  
    87   84   93 am 
    88   86   87 1  
    89   87   88 1  
    90   88   89 1  
    91   89   90 ar 
    92   90   91 ar 
    93   90   92 ar 
    94   93   94 1  
    95   94   95 1  
    96   94   97 1  
    97   95   96 2  
    98   95  101 am 
    99   97   98 1  
   100   98   99 ar 
   101   98  100 ar 
   102  101  102 1  
   103  102  103 1  
   104  102  105 1  
   105  103  104 2  
   106  103  109 am 
   107  105  106 1  
   108  106  107 2  
   109  106  108 am 
   110  109  110 1  
   111  110  111 1  
   112  110  113 1  
   113  111  112 2  
   114  111  117 am 
   115  113  114 1  
   116  113  115 1  
   117  114  116 1  
   118  117  118 1  
   119  118  119 1  
   120  118  121 1  
   121  119  120 ar 
   122  119  126 ar 
   123  121  122 1  
   124  122  123 1  
   125  123  124 2  
   126  123  125 am 
   127    1  127 1  
   128    1  128 1  
   129    1  129 1  
   130    2  130 1  
   131    2  131 1  
   132    5  132 1  
   133    6  133 1  
   134    6  134 1  
   135    9  135 1  
   136   10  136 1  
   137   13  137 1  
   138   13  138 1  
   139   13  139 1  
   140   14  140 1  
   141   15  141 1  
   142   18  142 1  
   143   18  143 1  
   144   19  144 1  
   145   19  145 1  
   146   20  146 1  
   147   20  147 1  
   148   21  148 1  
   149   21  149 1  
   150   22  150 1  
   151   22  151 1  
   152   22  152 1  
   153   23  153 1  
   154   24  154 1  
   155   27  155 1  
   156   27  156 1  
   157   28  157 1  
   158   28  158 1  
   159   29  159 1  
   160   29  160 1  
   161   30  161 1  
   162   32  162 1  
   163   32  163 1  
   164   33  164 1  
   165   33  165 1  
   166   34  166 1  
   167   35  167 1  
   168   38  168 1  
   169   38  169 1  
   170   41  170 1  
   171   42  171 1  
   172   43  172 1  
   173   44  173 1  
   174   45  174 1  
   175   48  175 1  
   176   48  176 1  
   177   49  177 1  
   178   49  178 1  
   179   50  179 1  
   180   50  180 1  
   181   51  181 1  
   182   53  182 1  
   183   53  183 1  
   184   54  184 1  
   185   54  185 1  
   186   57  186 1  
   187   57  187 1  
   188   57  188 1  
   189   58  189 1  
   190   59  190 1  
   191   59  191 1  
   192   60  192 1  
   193   60  193 1  
   194   61  194 1  
   195   61  195 1  
   196   62  196 1  
   197   62  197 1  
   198   63  198 1  
   199   64  199 1  
   200   67  200 1  
   201   68  201 1  
   202   71  202 1  
   203   72  203 1  
   204   72  204 1  
   205   72  205 1  
   206   73  206 1  
   207   73  207 1  
   208   73  208 1  
   209   74  209 1  
   210   75  210 1  
   211   78  211 1  
   212   78  212 1  
   213   79  213 1  
   214   80  214 1  
   215   80  215 1  
   216   80  216 1  
   217   81  217 1  
   218   81  218 1  
   219   81  219 1  
   220   82  220 1  
   221   83  221 1  
   222   86  222 1  
   223   86  223 1  
   224   87  224 1  
   225   87  225 1  
   226   88  226 1  
   227   88  227 1  
   228   89  228 1  
   229   91  229 1  
   230   91  230 1  
   231   92  231 1  
   232   92  232 1  
   233   93  233 1  
   234   94  234 1  
   235   97  235 1  
   236   97  236 1  
   237  101  237 1  
   238  102  238 1  
   239  105  239 1  
   240  105  240 1  
   241  108  241 1  
   242  108  242 1  
   243  109  243 1  
   244  110  244 1  
   245  113  245 1  
   246  114  246 1  
   247  114  247 1  
   248  115  248 1  
   249  115  249 1  
   250  115  250 1  
   251  116  251 1  
   252  116  252 1  
   253  116  253 1  
   254  117  254 1  
   255  118  255 1  
   256  121  256 1  
   257  121  257 1  
   258  122  258 1  
   259  122  259 1  
   260  125  260 1  
   261  125  261 1  
@<TRIPOS>SUBSTRUCTURE
     1 GLY         1

