2rny_ligand
  -I-interpret- 

259259  0  0  0  0  0  0  0  0999 V2000
  -22.6770  -12.3490   -3.7930 N   0  3  0  0  0
  -22.8840  -10.9520   -4.2660 C   0  0  0  0  0
  -21.5810  -10.2540   -4.6010 C   0  0  0  0  0
  -20.5510  -10.9030   -4.7820 O   0  0  0  0  0
  -21.6280   -8.9280   -4.6840 N   0  0  0  0  0
  -20.4370   -8.1610   -4.9990 C   0  0  0  0  0
  -20.3490   -7.8050   -6.4710 C   0  0  0  0  0
  -20.9250   -6.8080   -6.9090 O   0  0  0  0  0
  -19.6230   -8.6220   -7.2330 N   0  0  0  0  0
  -19.4540   -8.3990   -8.6680 C   0  0  0  0  0
  -18.7420   -7.0780   -8.9470 C   0  0  0  0  0
  -18.5510   -6.2580   -8.0490 O   0  0  0  0  0
  -20.8030   -8.4330   -9.3730 C   0  0  0  0  0
  -18.3470   -6.8830  -10.2030 N   0  0  0  0  0
  -17.6550   -5.6660  -10.6120 C   0  0  0  0  0
  -18.6440   -4.6210  -11.1140 C   0  0  0  0  0
  -19.1870   -4.7460  -12.2120 O   0  0  0  0  0
  -16.6380   -5.9800  -11.7100 C   0  0  0  0  0
  -15.5310   -6.9200  -11.2670 C   0  0  0  0  0
  -14.6680   -7.3510  -12.4410 C   0  0  0  0  0
  -13.4900   -8.1960  -11.9880 C   0  0  0  0  0
  -12.6910   -8.6940  -13.1420 N   0  3  0  0  0
  -18.8710   -3.5880  -10.3070 N   0  0  0  0  0
  -19.7960   -2.5220  -10.6720 C   0  0  0  0  0
  -19.6950   -1.3530   -9.6940 C   0  0  0  0  0
  -19.1990   -1.5080   -8.5780 O   0  0  0  0  0
  -21.2300   -3.0590  -10.7060 C   0  0  0  0  0
  -22.2480   -2.0720  -11.2570 C   0  0  0  0  0
  -22.0330   -1.8150  -12.7400 C   0  0  0  0  0
  -22.2040   -3.0250  -13.5390 N   0  0  0  0  0
  -22.5240   -3.0200  -14.8300 C   0  0  0  0  0
  -22.7080   -1.8720  -15.4660 N   0  0  0  0  0
  -22.6600   -4.1650  -15.4860 N   0  0  0  0  0
  -20.1650   -0.1860  -10.1260 N   0  0  0  0  0
  -20.1350    1.0160   -9.2990 C   0  0  0  0  0
  -18.7070    1.3380   -8.8550 C   0  0  0  0  0
  -17.8740    1.7130   -9.6730 O   0  0  0  0  0
  -21.0590    0.8550   -8.0880 C   0  0  0  0  0
  -21.3110    2.1340   -7.3500 C   0  0  0  0  0
  -21.8840    3.2430   -7.9380 N   0  0  0  0  0
  -21.0640    2.4780   -6.0640 C   0  0  0  0  0
  -21.9770    4.2130   -7.0470 C   0  0  0  0  0
  -21.4860    3.7750   -5.9020 N   0  0  0  0  0
  -18.4230    1.1820   -7.5630 N   0  0  0  0  0
  -17.0910    1.4680   -7.0340 C   0  0  0  0  0
  -16.0620    0.4490   -7.5390 C   0  0  0  0  0
  -16.2200   -0.1270   -8.6170 O   0  0  0  0  0
  -17.1260    1.4770   -5.5020 C   0  0  0  0  0
  -17.3310    2.8530   -4.8880 C   0  0  0  0  0
  -17.1790    2.8060   -3.3730 C   0  0  0  0  0
  -17.3420    4.1210   -2.7570 N   0  0  0  0  0
  -16.6210    4.5490   -1.7210 C   0  0  0  0  0
  -15.6850    3.7730   -1.1880 N   0  0  0  0  0
  -16.8340    5.7570   -1.2190 N   0  0  0  0  0
  -11.3890    3.3590   -3.4130 O   0  0  0  0  0
  -10.6580    2.4690   -3.8470 C   0  0  0  0  0
   -9.2280    2.3530   -3.3070 C   0  0  0  0  0
  -11.0570    1.6310   -4.7980 N   0  0  0  0  0
  -10.2790    1.3440   -5.9990 C   0  0  0  0  0
  -11.0220    0.4390   -6.9620 C   0  0  0  0  0
  -11.4950   -0.8290   -6.2760 C   0  0  0  0  0
  -12.9560   -0.7520   -5.8940 C   0  0  0  0  0
  -13.9330   -0.6860   -7.0850 C   0  0  0  0  0
  -15.0080    0.2450   -6.7510 N   0  0  0  0  0
  -14.5290   -2.0560   -7.3980 C   0  0  0  0  0
  -14.9150   -2.3380   -8.5330 O   0  0  0  0  0
  -14.5870   -2.8980   -6.3850 N   0  0  0  0  0
  -15.1980   -4.2090   -6.4950 C   0  0  0  0  0
  -16.3090   -4.2320   -5.4620 C   0  0  0  0  0
  -16.9180   -5.2570   -5.1560 O   0  0  0  0  0
  -14.1830   -5.3430   -6.2530 C   0  0  0  0  0
  -14.8340   -6.7090   -6.4230 C   0  0  0  0  0
  -13.0010   -5.1940   -7.2000 C   0  0  0  0  0
  -16.5430   -3.0290   -4.9460 N   0  0  0  0  0
  -17.5440   -2.7500   -3.9380 C   0  0  0  0  0
  -18.9260   -3.2490   -4.3630 C   0  0  0  0  0
  -19.2200   -4.4410   -4.2650 O   0  0  0  0  0
  -17.5560   -1.2350   -3.6960 C   0  0  0  0  0
  -16.4460   -0.6910   -2.7910 C   0  0  0  0  0
  -16.4130   -1.4420   -1.4710 C   0  0  0  0  0
  -15.0910   -0.7660   -3.4810 C   0  0  0  0  0
  -19.7700   -2.3310   -4.8350 N   0  0  0  0  0
  -21.1190   -2.6740   -5.2760 C   0  0  0  0  0
  -21.8320   -3.5460   -4.2440 C   0  0  0  0  0
  -21.9490   -4.7590   -4.4160 O   0  0  0  0  0
  -21.0640   -3.3950   -6.6250 C   0  0  0  0  0
  -22.4170   -3.5390   -7.3050 C   0  0  0  0  0
  -22.9430   -2.2010   -7.8040 C   0  0  0  0  0
  -23.4330   -1.3620   -6.7130 N   0  0  0  0  0
  -24.0520   -0.2000   -6.8950 C   0  0  0  0  0
  -24.2630    0.2590   -8.1210 N   0  0  0  0  0
  -24.4640    0.5030   -5.8490 N   0  0  0  0  0
  -22.3080   -2.9200   -3.1700 N   0  0  0  0  0
  -23.0080   -3.6390   -2.1120 C   0  0  0  0  0
  -24.2800   -4.2940   -2.6440 C   0  0  0  0  0
  -24.3830   -5.5210   -2.6850 O   0  0  0  0  0
  -23.3520   -2.6920   -0.9600 C   0  0  0  0  0
  -22.1150   -2.1680   -0.2560 C   0  0  0  0  0
  -21.6560   -2.8240    0.7030 O   0  0  0  0  0
  -21.6060   -1.1030   -0.6630 O   0  0  0  0  0
  -25.2420   -3.4650   -3.0480 N   0  0  0  0  0
  -26.5140   -3.9520   -3.5810 C   0  0  0  0  0
  -27.2950   -4.7290   -2.5250 C   0  0  0  0  0
  -26.8430   -5.7680   -2.0400 O   0  0  0  0  0
  -26.2830   -4.8310   -4.8130 C   0  0  0  0  0
  -27.5750   -5.3890   -5.3810 C   0  0  0  0  0
  -27.6030   -6.4970   -5.9160 O   0  0  0  0  0
  -28.6530   -4.6210   -5.2710 N   0  0  0  0  0
  -28.4730   -4.2210   -2.1750 N   0  0  0  0  0
  -29.3210   -4.8640   -1.1790 C   0  0  0  0  0
  -30.7970   -4.6150   -1.4730 C   0  0  0  0  0
  -31.6490   -5.4560   -1.1830 O   0  0  0  0  0
  -28.9920   -4.3640    0.2440 C   0  0  0  0  0
  -29.9040   -5.0390    1.2740 C   0  0  0  0  0
  -29.1270   -2.8490    0.3180 C   0  0  0  0  0
  -29.5430   -4.7190    2.7090 C   0  0  0  0  0
  -31.0920   -3.4570   -2.0550 N   0  0  0  0  0
  -32.4650   -3.0960   -2.3880 C   0  0  0  0  0
  -32.5950   -2.7610   -3.8720 C   0  0  0  0  0
  -32.3400   -1.5950   -4.2390 O   0  0  0  0  0
  -32.9190   -1.9060   -1.5400 C   0  0  0  0  0
  -34.3710   -1.5160   -1.7640 C   0  0  0  0  0
  -34.7960   -0.3350   -0.9130 C   0  0  0  0  0
  -34.2870   -0.1340    0.1890 O   0  0  0  0  0
  -35.7330    0.4560   -1.4240 N   0  0  0  0  0
  -32.9470   -3.6690   -4.6540 O   0  0  0  0  0
  -23.5805  -12.7726   -3.5818 H   0  0  0  0  0
  -22.2097  -12.8878   -4.5221 H   0  0  0  0  0
  -22.0995  -12.3400   -2.9523 H   0  0  0  0  0
  -23.3684  -10.3938   -3.4648 H   0  0  0  0  0
  -23.4882  -10.9897   -5.1724 H   0  0  0  0  0
  -22.5116   -8.4440   -4.5244 H   0  0  0  0  0
  -19.5684   -8.7694   -4.7473 H   0  0  0  0  0
  -20.4743   -7.2323   -4.4297 H   0  0  0  0  0
  -19.1710   -9.4283   -6.8017 H   0  0  0  0  0
  -18.8307   -9.2033   -9.0589 H   0  0  0  0  0
  -21.2687   -9.4060   -9.2168 H   0  0  0  0  0
  -21.4446   -7.6520   -8.9649 H   0  0  0  0  0
  -20.6581   -8.2652  -10.4402 H   0  0  0  0  0
  -18.5335   -7.6049  -10.8990 H   0  0  0  0  0
  -17.1351   -5.2645   -9.7421 H   0  0  0  0  0
  -16.1699   -5.0390  -11.9991 H   0  0  0  0  0
  -17.1759   -6.4700  -12.5216 H   0  0  0  0  0
  -15.9856   -7.8076  -10.8269 H   0  0  0  0  0
  -14.9008   -6.3981  -10.5469 H   0  0  0  0  0
  -14.2824   -6.4573  -12.9316 H   0  0  0  0  0
  -15.2799   -7.9475  -13.1177 H   0  0  0  0  0
  -13.8755   -9.0565  -11.4412 H   0  0  0  0  0
  -12.8438   -7.5774  -11.3651 H   0  0  0  0  0
  -11.9119   -9.2551  -12.7977 H   0  0  0  0  0
  -13.2841   -9.2661  -13.7430 H   0  0  0  0  0
  -12.3316   -7.9006  -13.6728 H   0  0  0  0  0
  -18.3860   -3.5407   -9.4110 H   0  0  0  0  0
  -19.5268   -2.1603  -11.6644 H   0  0  0  0  0
  -21.5171   -3.2791   -9.6778 H   0  0  0  0  0
  -21.2340   -3.9283  -11.3636 H   0  0  0  0  0
  -22.1354   -1.1278  -10.7241 H   0  0  0  0  0
  -23.2442   -2.4932  -11.1215 H   0  0  0  0  0
  -21.0123   -1.4584  -12.8782 H   0  0  0  0  0
  -22.7719   -1.0841  -13.0685 H   0  0  0  0  0
  -22.0703   -3.9263  -13.0806 H   0  0  0  0  0
  -22.6043   -0.9893  -14.9655 H   0  0  0  0  0
  -22.9053   -4.1595  -16.4761 H   0  0  0  0  0
  -22.5193   -5.0508  -15.0003 H   0  0  0  0  0
  -20.5589   -0.1295  -11.0652 H   0  0  0  0  0
  -20.4957    1.8524   -9.8977 H   0  0  0  0  0
  -20.5721    0.1688   -7.3950 H   0  0  0  0  0
  -22.0200    0.4959   -8.4562 H   0  0  0  0  0
  -20.6142    1.8440   -5.2999 H   0  0  0  0  0
  -22.3889    5.2062   -7.2261 H   0  0  0  0  0
  -19.1518    0.8555   -6.9284 H   0  0  0  0  0
  -16.7875    2.4526   -7.3896 H   0  0  0  0  0
  -16.1581    1.1132   -5.1572 H   0  0  0  0  0
  -17.9719    0.8608   -5.1972 H   0  0  0  0  0
  -18.3380    3.1950   -5.1270 H   0  0  0  0  0
  -16.5797    3.5310   -5.2930 H   0  0  0  0  0
  -16.1748    2.4485   -3.1453 H   0  0  0  0  0
  -17.9529    2.1489   -2.9762 H   0  0  0  0  0
  -18.0486    4.7477   -3.1422 H   0  0  0  0  0
  -15.1348    4.1075   -0.3969 H   0  0  0  0  0
  -15.5160    2.8423   -1.5696 H   0  0  0  0  0
  -17.5498    6.3593   -1.6255 H   0  0  0  0  0
   -8.6872    3.2768   -3.5128 H   0  0  0  0  0
   -9.2601    2.1812   -2.2311 H   0  0  0  0  0
   -8.7235    1.5188   -3.7945 H   0  0  0  0  0
  -11.9558    1.1629   -4.6823 H   0  0  0  0  0
   -9.3631    0.8366   -5.6959 H   0  0  0  0  0
  -10.0796    2.2877   -6.5067 H   0  0  0  0  0
  -10.3450    0.1635   -7.7706 H   0  0  0  0  0
  -11.8933    0.9748   -7.3385 H   0  0  0  0  0
  -10.9104   -0.9637   -5.3659 H   0  0  0  0  0
  -11.3662   -1.6607   -6.9686 H   0  0  0  0  0
  -13.0865    0.1692   -5.3261 H   0  0  0  0  0
  -13.1880   -1.6643   -5.3445 H   0  0  0  0  0
  -13.3872   -0.3504   -7.9668 H   0  0  0  0  0
  -14.9486    0.7625   -5.8741 H   0  0  0  0  0
  -14.1870   -2.6168   -5.4899 H   0  0  0  0  0
  -15.5809   -4.3773   -7.5016 H   0  0  0  0  0
  -13.8261   -5.2700   -5.2257 H   0  0  0  0  0
  -15.6499   -6.8128   -5.7077 H   0  0  0  0  0
  -15.2240   -6.8006   -7.4367 H   0  0  0  0  0
  -14.0925   -7.4880   -6.2459 H   0  0  0  0  0
  -13.3541   -5.2416   -8.2301 H   0  0  0  0  0
  -12.5156   -4.2339   -7.0249 H   0  0  0  0  0
  -12.2896   -6.0002   -7.0208 H   0  0  0  0  0
  -15.9785   -2.2493   -5.2835 H   0  0  0  0  0
  -17.2960   -3.2783   -3.0174 H   0  0  0  0  0
  -18.4973   -1.0126   -3.1935 H   0  0  0  0  0
  -17.4129   -0.7681   -4.6705 H   0  0  0  0  0
  -16.6644    0.3572   -2.5869 H   0  0  0  0  0
  -17.3708   -1.3251   -0.9639 H   0  0  0  0  0
  -16.2274   -2.4992   -1.6605 H   0  0  0  0  0
  -15.6173   -1.0386   -0.8448 H   0  0  0  0  0
  -14.8658   -1.8043   -3.7247 H   0  0  0  0  0
  -15.1174   -0.1742   -4.3960 H   0  0  0  0  0
  -14.3231   -0.3731   -2.8146 H   0  0  0  0  0
  -19.4639   -1.3595   -4.8897 H   0  0  0  0  0
  -21.6844   -1.7487   -5.3863 H   0  0  0  0  0
  -20.6869   -4.4006   -6.4391 H   0  0  0  0  0
  -20.4324   -2.7996   -7.2844 H   0  0  0  0  0
  -23.1255   -3.9365   -6.5783 H   0  0  0  0  0
  -22.3013   -4.2030   -8.1616 H   0  0  0  0  0
  -23.7729   -2.3940   -8.4838 H   0  0  0  0  0
  -22.1242   -1.6757   -8.2957 H   0  0  0  0  0
  -23.2919   -1.6867   -5.7564 H   0  0  0  0  0
  -24.7407    1.1499   -8.2568 H   0  0  0  0  0
  -23.9476   -0.2788   -8.9282 H   0  0  0  0  0
  -24.3059    0.1521   -4.9044 H   0  0  0  0  0
  -22.1798   -1.9117   -3.0849 H   0  0  0  0  0
  -22.3452   -4.4219   -1.7435 H   0  0  0  0  0
  -23.9456   -3.2460   -0.2328 H   0  0  0  0  0
  -23.8924   -1.8401   -1.3727 H   0  0  0  0  0
  -22.1984   -3.6033    0.8450 H   0  0  0  0  0
  -25.0863   -2.4590   -2.9835 H   0  0  0  0  0
  -27.1034   -3.0827   -3.8726 H   0  0  0  0  0
  -25.6573   -5.6716   -4.5132 H   0  0  0  0  0
  -25.8163   -4.2154   -5.5820 H   0  0  0  0  0
  -29.5485   -4.9435   -5.6376 H   0  0  0  0  0
  -28.5854   -3.7087   -4.8199 H   0  0  0  0  0
  -28.7918   -3.3580   -2.6154 H   0  0  0  0  0
  -29.1219   -5.9344   -1.2317 H   0  0  0  0  0
  -27.9603   -4.6291    0.4752 H   0  0  0  0  0
  -29.8005   -6.1163    1.1444 H   0  0  0  0  0
  -30.9161   -4.6722    1.1030 H   0  0  0  0  0
  -28.4368   -2.3890   -0.3892 H   0  0  0  0  0
  -30.1489   -2.5639    0.0681 H   0  0  0  0  0
  -28.8915   -2.5134    1.3280 H   0  0  0  0  0
  -28.5245   -5.0519    2.9090 H   0  0  0  0  0
  -29.6129   -3.6430    2.8686 H   0  0  0  0  0
  -30.2326   -5.2325    3.3790 H   0  0  0  0  0
  -30.3392   -2.8046   -2.2742 H   0  0  0  0  0
  -33.1042   -3.9520   -2.1718 H   0  0  0  0  0
  -32.3043   -1.0511   -1.8218 H   0  0  0  0  0
  -32.8159   -2.1929   -0.4935 H   0  0  0  0  0
  -34.9931   -2.3680   -1.4898 H   0  0  0  0  0
  -34.4846   -1.2333   -2.8105 H   0  0  0  0  0
  -36.0576    1.2676   -0.8983 H   0  0  0  0  0
  -36.1278    0.2517   -2.3420 H   0  0  0  0  0
  -33.0896   -4.4789   -4.1587 H   0  0  0  0  0
  2  1  1  0  0  0
  3  2  1  0  0  0
  3  4  2  0  0  0
  5  3  1  0  0  0
  6  5  1  0  0  0
  7  6  1  0  0  0
  7  8  2  0  0  0
  9  7  1  0  0  0
 10  9  1  0  0  0
 11 10  1  0  0  0
 10 13  1  0  0  0
 11 12  2  0  0  0
 14 11  1  0  0  0
 15 14  1  0  0  0
 16 15  1  0  0  0
 15 18  1  0  0  0
 16 17  2  0  0  0
 23 16  1  0  0  0
 18 19  1  0  0  0
 19 20  1  0  0  0
 20 21  1  0  0  0
 21 22  1  0  0  0
 24 23  1  0  0  0
 25 24  1  0  0  0
 24 27  1  0  0  0
 25 26  2  0  0  0
 34 25  1  0  0  0
 27 28  1  0  0  0
 28 29  1  0  0  0
 29 30  1  0  0  0
 30 31  1  0  0  0
 31 32  2  0  0  0
 31 33  1  0  0  0
 35 34  1  0  0  0
 36 35  1  0  0  0
 35 38  1  0  0  0
 36 37  2  0  0  0
 44 36  1  0  0  0
 38 39  1  0  0  0
 39 40  4  0  0  0
 39 41  4  0  0  0
 40 42  4  0  0  0
 41 43  4  0  0  0
 43 42  4  0  0  0
 45 44  1  0  0  0
 46 45  1  0  0  0
 45 48  1  0  0  0
 46 47  2  0  0  0
 64 46  1  0  0  0
 48 49  1  0  0  0
 49 50  1  0  0  0
 50 51  1  0  0  0
 51 52  1  0  0  0
 52 53  1  0  0  0
 52 54  2  0  0  0
 56 55  2  0  0  0
 56 57  1  0  0  0
 58 56  1  0  0  0
 59 58  1  0  0  0
 60 59  1  0  0  0
 61 60  1  0  0  0
 62 61  1  0  0  0
 63 62  1  0  0  0
 63 64  1  0  0  0
 63 65  1  0  0  0
 65 66  2  0  0  0
 65 67  1  0  0  0
 67 68  1  0  0  0
 68 69  1  0  0  0
 68 71  1  0  0  0
 69 70  2  0  0  0
 69 74  1  0  0  0
 71 72  1  0  0  0
 71 73  1  0  0  0
 74 75  1  0  0  0
 75 76  1  0  0  0
 75 78  1  0  0  0
 76 77  2  0  0  0
 76 82  1  0  0  0
 78 79  1  0  0  0
 79 80  1  0  0  0
 79 81  1  0  0  0
 82 83  1  0  0  0
 83 84  1  0  0  0
 83 86  1  0  0  0
 84 85  2  0  0  0
 84 93  1  0  0  0
 86 87  1  0  0  0
 87 88  1  0  0  0
 88 89  1  0  0  0
 89 90  1  0  0  0
 90 91  1  0  0  0
 90 92  2  0  0  0
 93 94  1  0  0  0
 94 95  1  0  0  0
 94 97  1  0  0  0
 95 96  2  0  0  0
 95101  1  0  0  0
 97 98  1  0  0  0
 98 99  1  0  0  0
 98100  2  0  0  0
101102  1  0  0  0
102103  1  0  0  0
102105  1  0  0  0
103104  2  0  0  0
103109  1  0  0  0
105106  1  0  0  0
106107  2  0  0  0
106108  1  0  0  0
109110  1  0  0  0
110111  1  0  0  0
110113  1  0  0  0
111112  2  0  0  0
111117  1  0  0  0
113114  1  0  0  0
113115  1  0  0  0
114116  1  0  0  0
117118  1  0  0  0
118119  1  0  0  0
118121  1  0  0  0
119120  2  0  0  0
119126  1  0  0  0
121122  1  0  0  0
122123  1  0  0  0
123124  2  0  0  0
123125  1  0  0  0
  1127  1  0  0  0
  1128  1  0  0  0
  1129  1  0  0  0
  2130  1  0  0  0
  2131  1  0  0  0
  5132  1  0  0  0
  6133  1  0  0  0
  6134  1  0  0  0
  9135  1  0  0  0
 10136  1  0  0  0
 13137  1  0  0  0
 13138  1  0  0  0
 13139  1  0  0  0
 14140  1  0  0  0
 15141  1  0  0  0
 18142  1  0  0  0
 18143  1  0  0  0
 19144  1  0  0  0
 19145  1  0  0  0
 20146  1  0  0  0
 20147  1  0  0  0
 21148  1  0  0  0
 21149  1  0  0  0
 22150  1  0  0  0
 22151  1  0  0  0
 22152  1  0  0  0
 23153  1  0  0  0
 24154  1  0  0  0
 27155  1  0  0  0
 27156  1  0  0  0
 28157  1  0  0  0
 28158  1  0  0  0
 29159  1  0  0  0
 29160  1  0  0  0
 30161  1  0  0  0
 32162  1  0  0  0
 33163  1  0  0  0
 33164  1  0  0  0
 34165  1  0  0  0
 35166  1  0  0  0
 38167  1  0  0  0
 38168  1  0  0  0
 41169  1  0  0  0
 42170  1  0  0  0
 44171  1  0  0  0
 45172  1  0  0  0
 48173  1  0  0  0
 48174  1  0  0  0
 49175  1  0  0  0
 49176  1  0  0  0
 50177  1  0  0  0
 50178  1  0  0  0
 51179  1  0  0  0
 53180  1  0  0  0
 53181  1  0  0  0
 54182  1  0  0  0
 57183  1  0  0  0
 57184  1  0  0  0
 57185  1  0  0  0
 58186  1  0  0  0
 59187  1  0  0  0
 59188  1  0  0  0
 60189  1  0  0  0
 60190  1  0  0  0
 61191  1  0  0  0
 61192  1  0  0  0
 62193  1  0  0  0
 62194  1  0  0  0
 63195  1  0  0  0
 64196  1  0  0  0
 67197  1  0  0  0
 68198  1  0  0  0
 71199  1  0  0  0
 72200  1  0  0  0
 72201  1  0  0  0
 72202  1  0  0  0
 73203  1  0  0  0
 73204  1  0  0  0
 73205  1  0  0  0
 74206  1  0  0  0
 75207  1  0  0  0
 78208  1  0  0  0
 78209  1  0  0  0
 79210  1  0  0  0
 80211  1  0  0  0
 80212  1  0  0  0
 80213  1  0  0  0
 81214  1  0  0  0
 81215  1  0  0  0
 81216  1  0  0  0
 82217  1  0  0  0
 83218  1  0  0  0
 86219  1  0  0  0
 86220  1  0  0  0
 87221  1  0  0  0
 87222  1  0  0  0
 88223  1  0  0  0
 88224  1  0  0  0
 89225  1  0  0  0
 91226  1  0  0  0
 91227  1  0  0  0
 92228  1  0  0  0
 93229  1  0  0  0
 94230  1  0  0  0
 97231  1  0  0  0
 97232  1  0  0  0
 99233  1  0  0  0
101234  1  0  0  0
102235  1  0  0  0
105236  1  0  0  0
105237  1  0  0  0
108238  1  0  0  0
108239  1  0  0  0
109240  1  0  0  0
110241  1  0  0  0
113242  1  0  0  0
114243  1  0  0  0
114244  1  0  0  0
115245  1  0  0  0
115246  1  0  0  0
115247  1  0  0  0
116248  1  0  0  0
116249  1  0  0  0
116250  1  0  0  0
117251  1  0  0  0
118252  1  0  0  0
121253  1  0  0  0
121254  1  0  0  0
122255  1  0  0  0
122256  1  0  0  0
125257  1  0  0  0
125258  1  0  0  0
126259  1  0  0  0
M  END
$$$$
