6r8r_ligand
  -I-interpret- 

 38 40  0  0  0  0  0  0  0  0999 V2000
   -0.7290    5.4030    5.3640 C   0  0  0  0  0
   -1.0670    7.9860    6.3510 C   0  0  0  0  0
   -2.1150    7.0870    6.4310 C   0  0  0  0  0
   -1.9200    5.7880    5.9630 C   0  0  0  0  0
   -4.1930    5.0930    6.5250 C   0  0  0  0  0
   -7.6640    5.2810    9.7660 C   0  0  0  0  0
   -8.3430    5.5560   10.9170 C   0  0  0  0  0
   -8.3350    6.5760   13.2040 C   0  0  0  0  0
   -6.4240    7.4870   14.0640 C   0  0  0  0  0
   -5.6890    7.1760   12.9580 C   0  0  0  0  0
   -6.3200    6.5170   11.8730 C   0  0  0  0  0
   -5.6460    6.2120   10.6640 C   0  0  0  0  0
   -5.7410    5.3430    8.3550 N   0  0  0  0  0
   -0.5810    4.0580    4.7070 C   0  0  0  0  0
   -2.8070    4.7760    6.1360 O   0  0  0  0  0
   -7.6930    6.1930   11.9990 C   0  0  0  0  0
    0.3090    6.3310    5.3230 C   0  0  0  0  0
    0.1470    7.5980    5.8230 C   0  0  0  0  0
   -4.4410    5.3690    7.9860 C   0  0  0  0  0
   -6.3180    5.6130    9.6180 C   0  0  0  0  0
   -7.7300    7.2040   14.2060 N   0  0  0  0  0
   -3.4980    5.5920    8.7490 O   0  0  0  0  0
   -1.2011    9.0073    6.7073 H   0  0  0  0  0
   -3.0745    7.3880    6.8516 H   0  0  0  0  0
   -4.7822    4.2085    6.2827 H   0  0  0  0  0
   -4.4494    6.0123    5.9985 H   0  0  0  0  0
   -8.1855    4.7908    8.9439 H   0  0  0  0  0
   -9.3946    5.2825   11.0030 H   0  0  0  0  0
   -9.3933    6.3398   13.3152 H   0  0  0  0  0
   -5.9201    7.9975   14.8848 H   0  0  0  0  0
   -4.6303    7.4308   12.9090 H   0  0  0  0  0
   -4.5880    6.4526   10.5595 H   0  0  0  0  0
   -6.3999    5.0931    7.6176 H   0  0  0  0  0
   -0.7552    3.2740    5.4439 H   0  0  0  0  0
   -1.3077    3.9675    3.8996 H   0  0  0  0  0
    0.4268    3.9613    4.3030 H   0  0  0  0  0
    1.2660    6.0456    4.8863 H   0  0  0  0  0
    0.9802    8.3005    5.8031 H   0  0  0  0  0
  4  1  4  0  0  0
  1 14  1  0  0  0
  1 17  4  0  0  0
  3  2  4  0  0  0
  2 18  4  0  0  0
  4  3  4  0  0  0
 15  4  1  0  0  0
  5 15  1  0  0  0
 19  5  1  0  0  0
  6  7  4  0  0  0
 20  6  4  0  0  0
  7 16  4  0  0  0
 16  8  4  0  0  0
  8 21  4  0  0  0
 10  9  4  0  0  0
  9 21  4  0  0  0
 11 10  4  0  0  0
 12 11  4  0  0  0
 11 16  4  0  0  0
 20 12  4  0  0  0
 13 19  1  0  0  0
 13 20  1  0  0  0
 17 18  4  0  0  0
 19 22  2  0  0  0
  2 23  1  0  0  0
  3 24  1  0  0  0
  5 25  1  0  0  0
  5 26  1  0  0  0
  6 27  1  0  0  0
  7 28  1  0  0  0
  8 29  1  0  0  0
  9 30  1  0  0  0
 10 31  1  0  0  0
 12 32  1  0  0  0
 13 33  1  0  0  0
 14 34  1  0  0  0
 14 35  1  0  0  0
 14 36  1  0  0  0
 17 37  1  0  0  0
 18 38  1  0  0  0
M  END
$$$$
