### 
### Created by X-TOOL on Mon Sep 10 21:13:03 2018
### 

@<TRIPOS>MOLECULE
3mo5_ligand
   93    95     1     0     0
SMALL
GAST_HUCK


@<TRIPOS>ATOM
      1 N1         15.1970   42.1440   37.5180 N.ar      1 E72        -0.2473
      2 C2         14.3560   41.3740   38.2750 C.ar      1 E72         0.1533
      3 N3         13.0140   41.4650   38.1070 N.ar      1 E72        -0.3045
      4 C4         12.4760   42.3310   37.2080 C.ar      1 E72         0.0078
      5 C5         13.3320   43.1580   36.4170 C.ar      1 E72         0.0267
      6 C6         14.7210   43.0280   36.5890 C.ar      1 E72         0.1243
      7 CAA        10.5150   43.4030   36.1750 C.ar      1 E72         0.1280
      8 CAB        11.3730   44.2240   35.3840 C.ar      1 E72         0.1272
      9 CAC        12.7840   44.0950   35.5120 C.ar      1 E72        -0.0226
     10 CAF        11.0730   42.4580   37.0890 C.ar      1 E72        -0.0244
     11 OAK         9.1730   43.6560   36.1750 O.3       1 E72        -0.3141
     12 OAL        10.8250   45.2240   34.6050 O.3       1 E72        -0.3230
     13 CAM        11.3050   45.1800   33.2480 C.3       1 E72         0.0572
     14 NAN        15.5570   43.7790   35.8520 N.pl3     1 E72        -0.2940
     15 CAO        17.0210   43.7170   36.0160 C.3       1 E72         0.0395
     16 CAP        17.6260   45.1040   35.6980 C.3       1 E72        -0.0477
     17 CAQ        19.1680   45.0560   35.7400 C.3       1 E72        -0.1108
     18 NAR        19.6740   44.0150   34.8080 N.4       1 E72         0.4030
     19 CAS        19.1360   42.6620   35.1260 C.3       1 E72        -0.1108
     20 CAT        17.5990   42.6700   35.0470 C.3       1 E72        -0.0477
     21 NAU        14.8440   40.5650   39.2310 N.pl3     1 E72        -0.2962
     22 CAV        16.2880   40.5430   39.5630 C.3       1 E72         0.0282
     23 CAW        16.6090   41.7760   40.4200 C.3       1 E72        -0.0511
     24 CAX        17.9120   41.6250   41.2160 C.3       1 E72        -0.1120
     25 NAY        17.6870   40.9650   42.5240 N.4       1 E72         0.3987
     26 CAZ        16.7140   41.7080   43.3540 C.3       1 E72        -0.1260
     27 CBA        18.9710   40.9000   43.2390 C.3       1 E72        -0.1260
     28 CBB         8.3840   42.5220   35.7900 C.3       1 E72         0.0710
     29 CBC         6.9110   42.9230   35.8610 C.3       1 E72        -0.0248
     30 CBD         6.0390   42.0740   34.9340 C.3       1 E72        -0.0458
     31 CBE         6.3550   42.3260   33.4590 C.3       1 E72        -0.0126
     32 CBF         5.7920   41.1990   32.6020 C.3       1 E72        -0.0354
     33 NBG         6.2480   41.3590   31.2230 N.4       1 E72         0.2185
     34 CBH        21.1450   43.9870   34.8410 C.3       1 E72        -0.1130
     35 CBI        21.6830   43.6650   33.4440 C.3       1 E72        -0.0716
     36 CBJ        23.1870   43.3860   33.4730 C.3       1 E72        -0.0501
     37 CBK        23.6980   43.0870   32.0630 C.3       1 E72        -0.0127
     38 CBL        25.1990   42.8100   32.0650 C.3       1 E72        -0.0354
     39 NBM        25.6420   42.5470   30.6890 N.4       1 E72         0.2185
     40 H          13.4439   44.7203   34.9107 H         1 E72         0.0541
     41 H          10.4165   41.8341   37.6954 H         1 E72         0.0461
     42 H          12.3883   45.3009   33.2430 H         1 E72         0.0573
     43 H          11.0431   44.2204   32.8023 H         1 E72         0.0573
     44 H          10.8456   45.9856   32.6752 H         1 E72         0.0573
     45 H          15.1655   44.4133   35.1557 H         1 E72         0.1901
     46 H          17.2658   43.4368   37.0405 H         1 E72         0.0566
     47 H          17.2774   45.8176   36.4445 H         1 E72         0.0269
     48 H          17.3120   45.4020   34.6976 H         1 E72         0.0269
     49 H          19.4902   44.8153   36.7531 H         1 E72         0.0018
     50 H          19.5637   46.0264   35.4402 H         1 E72         0.0018
     51 H          19.4402   42.3849   36.1354 H         1 E72         0.0018
     52 H          19.5269   41.9438   34.4052 H         1 E72         0.0018
     53 H          17.2958   42.9198   34.0303 H         1 E72         0.0269
     54 H          17.2230   41.6845   35.3216 H         1 E72         0.0269
     55 H          14.2061   39.9525   39.7393 H         1 E72         0.1855
     56 H          16.8806   40.5608   38.6484 H         1 E72         0.0523
     57 H          16.5297   39.6338   40.1135 H         1 E72         0.0523
     58 H          15.7955   41.9071   41.1336 H         1 E72         0.0265
     59 H          16.7247   42.6274   39.7493 H         1 E72         0.0265
     60 H          18.3173   42.6199   41.4003 H         1 E72         0.0017
     61 H          18.5978   41.0081   40.6353 H         1 E72         0.0017
     62 H          17.0893   42.7147   43.5380 H         1 E72        -0.0019
     63 H          15.7599   41.7647   42.8300 H         1 E72        -0.0019
     64 H          16.5783   41.1903   44.3035 H         1 E72        -0.0019
     65 H          19.6852   40.3256   42.6490 H         1 E72        -0.0019
     66 H          19.3522   41.9098   43.3911 H         1 E72        -0.0019
     67 H          18.8236   40.4166   44.2048 H         1 E72        -0.0019
     68 H           8.5782   41.6842   36.4597 H         1 E72         0.0615
     69 H           8.6407   42.2119   34.7771 H         1 E72         0.0615
     70 H           6.8263   43.9639   35.5489 H         1 E72         0.0291
     71 H           6.5664   42.7730   36.8842 H         1 E72         0.0291
     72 H           4.9965   42.3398   35.1092 H         1 E72         0.0268
     73 H           6.2350   41.0237   35.1496 H         1 E72         0.0268
     74 H           7.4362   42.3691   33.3274 H         1 E72         0.0317
     75 H           5.9018   43.2687   33.1524 H         1 E72         0.0317
     76 H           4.7028   41.2315   32.6299 H         1 E72         0.0813
     77 H           6.1382   40.2409   32.9896 H         1 E72         0.0813
     78 H           5.8699   40.6036   30.6513 H         1 E72         0.1994
     79 H           5.9240   42.2558   30.8609 H         1 E72         0.1994
     80 H           7.2672   41.3289   31.1975 H         1 E72         0.1994
     81 H          21.4774   43.2221   35.5427 H         1 E72         0.0017
     82 H          21.5191   44.9604   35.1581 H         1 E72         0.0017
     83 H          21.5037   44.5247   32.7983 H         1 E72         0.0246
     84 H          21.1738   42.7749   33.0746 H         1 E72         0.0246
     85 H          23.3768   42.5228   34.1110 H         1 E72         0.0266
     86 H          23.7045   44.2635   33.8607 H         1 E72         0.0266
     87 H          23.5060   43.9553   31.4327 H         1 E72         0.0317
     88 H          23.1823   42.2034   31.6869 H         1 E72         0.0317
     89 H          25.4106   41.9425   32.6901 H         1 E72         0.0813
     90 H          25.7306   43.6748   32.4621 H         1 E72         0.0813
     91 H          26.6449   42.3613   30.6856 H         1 E72         0.1994
     92 H          25.1437   41.7363   30.3217 H         1 E72         0.1994
     93 H          25.4438   43.3614   30.1078 H         1 E72         0.1994
@<TRIPOS>BOND
     1    2    1 ar 
     2    6    1 ar 
     3    3    2 ar 
     4    2   21 1  
     5    4    3 ar 
     6    4    5 ar 
     7   10    4 ar 
     8    5    6 ar 
     9    5    9 ar 
    10    6   14 1  
    11    7    8 ar 
    12    7   10 ar 
    13    7   11 1  
    14    8    9 ar 
    15    8   12 1  
    16   11   28 1  
    17   12   13 1  
    18   14   15 1  
    19   15   16 1  
    20   15   20 1  
    21   16   17 1  
    22   17   18 1  
    23   18   19 1  
    24   18   34 1  
    25   19   20 1  
    26   21   22 1  
    27   22   23 1  
    28   23   24 1  
    29   24   25 1  
    30   25   26 1  
    31   25   27 1  
    32   28   29 1  
    33   29   30 1  
    34   30   31 1  
    35   31   32 1  
    36   32   33 1  
    37   34   35 1  
    38   35   36 1  
    39   36   37 1  
    40   37   38 1  
    41   38   39 1  
    42    9   40 1  
    43   10   41 1  
    44   13   42 1  
    45   13   43 1  
    46   13   44 1  
    47   14   45 1  
    48   15   46 1  
    49   16   47 1  
    50   16   48 1  
    51   17   49 1  
    52   17   50 1  
    53   19   51 1  
    54   19   52 1  
    55   20   53 1  
    56   20   54 1  
    57   21   55 1  
    58   22   56 1  
    59   22   57 1  
    60   23   58 1  
    61   23   59 1  
    62   24   60 1  
    63   24   61 1  
    64   26   62 1  
    65   26   63 1  
    66   26   64 1  
    67   27   65 1  
    68   27   66 1  
    69   27   67 1  
    70   28   68 1  
    71   28   69 1  
    72   29   70 1  
    73   29   71 1  
    74   30   72 1  
    75   30   73 1  
    76   31   74 1  
    77   31   75 1  
    78   32   76 1  
    79   32   77 1  
    80   33   78 1  
    81   33   79 1  
    82   33   80 1  
    83   34   81 1  
    84   34   82 1  
    85   35   83 1  
    86   35   84 1  
    87   36   85 1  
    88   36   86 1  
    89   37   87 1  
    90   37   88 1  
    91   38   89 1  
    92   38   90 1  
    93   39   91 1  
    94   39   92 1  
    95   39   93 1  
@<TRIPOS>SUBSTRUCTURE
     1 E72         1

