3mo5_ligand
  -I-interpret- 

 95 97  0  0  0  0  0  0  0  0999 V2000
   15.1970   42.1440   37.5180 N   0  0  0  0  0
   14.3560   41.3740   38.2750 C   0  0  0  0  0
   13.0140   41.4650   38.1070 N   0  0  0  0  0
   12.4760   42.3310   37.2080 C   0  0  0  0  0
   13.3320   43.1580   36.4170 C   0  0  0  0  0
   14.7210   43.0280   36.5890 C   0  0  0  0  0
   10.5150   43.4030   36.1750 C   0  0  0  0  0
   11.3730   44.2240   35.3840 C   0  0  0  0  0
   12.7840   44.0950   35.5120 C   0  0  0  0  0
   11.0730   42.4580   37.0890 C   0  0  0  0  0
    9.1730   43.6560   36.1750 O   0  0  0  0  0
   10.8250   45.2240   34.6050 O   0  0  0  0  0
   11.3050   45.1800   33.2480 C   0  0  0  0  0
   15.5570   43.7790   35.8520 N   0  0  0  0  0
   17.0210   43.7170   36.0160 C   0  0  0  0  0
   17.6260   45.1040   35.6980 C   0  0  0  0  0
   19.1680   45.0560   35.7400 C   0  0  0  0  0
   19.6740   44.0150   34.8080 N   0  3  0  0  0
   19.1360   42.6620   35.1260 C   0  0  0  0  0
   17.5990   42.6700   35.0470 C   0  0  0  0  0
   14.8440   40.5650   39.2310 N   0  0  0  0  0
   16.2880   40.5430   39.5630 C   0  0  0  0  0
   16.6090   41.7760   40.4200 C   0  0  0  0  0
   17.9120   41.6250   41.2160 C   0  0  0  0  0
   17.6870   40.9650   42.5240 N   0  3  0  0  0
   16.7140   41.7080   43.3540 C   0  0  0  0  0
   18.9710   40.9000   43.2390 C   0  0  0  0  0
    8.3840   42.5220   35.7900 C   0  0  0  0  0
    6.9110   42.9230   35.8610 C   0  0  0  0  0
    6.0390   42.0740   34.9340 C   0  0  0  0  0
    6.3550   42.3260   33.4590 C   0  0  0  0  0
    5.7920   41.1990   32.6020 C   0  0  0  0  0
    6.2480   41.3590   31.2230 N   0  3  0  0  0
   21.1450   43.9870   34.8410 C   0  0  0  0  0
   21.6830   43.6650   33.4440 C   0  0  0  0  0
   23.1870   43.3860   33.4730 C   0  0  0  0  0
   23.6980   43.0870   32.0630 C   0  0  0  0  0
   25.1990   42.8100   32.0650 C   0  0  0  0  0
   25.6420   42.5470   30.6890 N   0  3  0  0  0
   13.4439   44.7203   34.9107 H   0  0  0  0  0
   10.4165   41.8341   37.6954 H   0  0  0  0  0
   12.3883   45.3009   33.2430 H   0  0  0  0  0
   11.0431   44.2204   32.8023 H   0  0  0  0  0
   10.8456   45.9856   32.6752 H   0  0  0  0  0
   15.1655   44.4133   35.1557 H   0  0  0  0  0
   17.2658   43.4368   37.0405 H   0  0  0  0  0
   17.2774   45.8176   36.4445 H   0  0  0  0  0
   17.3120   45.4020   34.6976 H   0  0  0  0  0
   19.4902   44.8153   36.7531 H   0  0  0  0  0
   19.5637   46.0264   35.4402 H   0  0  0  0  0
   19.3508   44.2604   33.8722 H   0  0  0  0  0
   19.4402   42.3849   36.1354 H   0  0  0  0  0
   19.5269   41.9438   34.4052 H   0  0  0  0  0
   17.2958   42.9198   34.0303 H   0  0  0  0  0
   17.2230   41.6845   35.3216 H   0  0  0  0  0
   14.2061   39.9525   39.7393 H   0  0  0  0  0
   16.8806   40.5608   38.6484 H   0  0  0  0  0
   16.5297   39.6338   40.1135 H   0  0  0  0  0
   15.7955   41.9071   41.1336 H   0  0  0  0  0
   16.7247   42.6274   39.7493 H   0  0  0  0  0
   18.3173   42.6199   41.4003 H   0  0  0  0  0
   18.5978   41.0081   40.6353 H   0  0  0  0  0
   17.3087   40.0331   42.3541 H   0  0  0  0  0
   17.0893   42.7147   43.5380 H   0  0  0  0  0
   15.7599   41.7647   42.8300 H   0  0  0  0  0
   16.5783   41.1903   44.3035 H   0  0  0  0  0
   19.6852   40.3256   42.6490 H   0  0  0  0  0
   19.3522   41.9098   43.3911 H   0  0  0  0  0
   18.8236   40.4166   44.2048 H   0  0  0  0  0
    8.5782   41.6842   36.4597 H   0  0  0  0  0
    8.6407   42.2119   34.7771 H   0  0  0  0  0
    6.8263   43.9639   35.5489 H   0  0  0  0  0
    6.5664   42.7730   36.8842 H   0  0  0  0  0
    4.9965   42.3398   35.1092 H   0  0  0  0  0
    6.2350   41.0237   35.1496 H   0  0  0  0  0
    7.4362   42.3691   33.3274 H   0  0  0  0  0
    5.9018   43.2687   33.1524 H   0  0  0  0  0
    4.7028   41.2315   32.6299 H   0  0  0  0  0
    6.1382   40.2409   32.9896 H   0  0  0  0  0
    5.8699   40.6036   30.6513 H   0  0  0  0  0
    5.9240   42.2558   30.8609 H   0  0  0  0  0
    7.2672   41.3289   31.1975 H   0  0  0  0  0
   21.4774   43.2221   35.5427 H   0  0  0  0  0
   21.5191   44.9604   35.1581 H   0  0  0  0  0
   21.5037   44.5247   32.7983 H   0  0  0  0  0
   21.1738   42.7749   33.0746 H   0  0  0  0  0
   23.3768   42.5228   34.1110 H   0  0  0  0  0
   23.7045   44.2635   33.8607 H   0  0  0  0  0
   23.5060   43.9553   31.4327 H   0  0  0  0  0
   23.1823   42.2034   31.6869 H   0  0  0  0  0
   25.4106   41.9425   32.6901 H   0  0  0  0  0
   25.7306   43.6748   32.4621 H   0  0  0  0  0
   26.6449   42.3613   30.6856 H   0  0  0  0  0
   25.1437   41.7363   30.3217 H   0  0  0  0  0
   25.4438   43.3614   30.1078 H   0  0  0  0  0
  2  1  4  0  0  0
  6  1  4  0  0  0
  3  2  4  0  0  0
  2 21  1  0  0  0
  4  3  4  0  0  0
  4  5  4  0  0  0
 10  4  4  0  0  0
  5  6  4  0  0  0
  5  9  4  0  0  0
  6 14  1  0  0  0
  7  8  4  0  0  0
  7 10  4  0  0  0
  7 11  1  0  0  0
  8  9  4  0  0  0
  8 12  1  0  0  0
 11 28  1  0  0  0
 12 13  1  0  0  0
 14 15  1  0  0  0
 15 16  1  0  0  0
 15 20  1  0  0  0
 16 17  1  0  0  0
 17 18  1  0  0  0
 18 19  1  0  0  0
 18 34  1  0  0  0
 19 20  1  0  0  0
 21 22  1  0  0  0
 22 23  1  0  0  0
 23 24  1  0  0  0
 24 25  1  0  0  0
 25 26  1  0  0  0
 25 27  1  0  0  0
 28 29  1  0  0  0
 29 30  1  0  0  0
 30 31  1  0  0  0
 31 32  1  0  0  0
 32 33  1  0  0  0
 34 35  1  0  0  0
 35 36  1  0  0  0
 36 37  1  0  0  0
 37 38  1  0  0  0
 38 39  1  0  0  0
  9 40  1  0  0  0
 10 41  1  0  0  0
 13 42  1  0  0  0
 13 43  1  0  0  0
 13 44  1  0  0  0
 14 45  1  0  0  0
 15 46  1  0  0  0
 16 47  1  0  0  0
 16 48  1  0  0  0
 17 49  1  0  0  0
 17 50  1  0  0  0
 18 51  1  0  0  0
 19 52  1  0  0  0
 19 53  1  0  0  0
 20 54  1  0  0  0
 20 55  1  0  0  0
 21 56  1  0  0  0
 22 57  1  0  0  0
 22 58  1  0  0  0
 23 59  1  0  0  0
 23 60  1  0  0  0
 24 61  1  0  0  0
 24 62  1  0  0  0
 25 63  1  0  0  0
 26 64  1  0  0  0
 26 65  1  0  0  0
 26 66  1  0  0  0
 27 67  1  0  0  0
 27 68  1  0  0  0
 27 69  1  0  0  0
 28 70  1  0  0  0
 28 71  1  0  0  0
 29 72  1  0  0  0
 29 73  1  0  0  0
 30 74  1  0  0  0
 30 75  1  0  0  0
 31 76  1  0  0  0
 31 77  1  0  0  0
 32 78  1  0  0  0
 32 79  1  0  0  0
 33 80  1  0  0  0
 33 81  1  0  0  0
 33 82  1  0  0  0
 34 83  1  0  0  0
 34 84  1  0  0  0
 35 85  1  0  0  0
 35 86  1  0  0  0
 36 87  1  0  0  0
 36 88  1  0  0  0
 37 89  1  0  0  0
 37 90  1  0  0  0
 38 91  1  0  0  0
 38 92  1  0  0  0
 39 93  1  0  0  0
 39 94  1  0  0  0
 39 95  1  0  0  0
M  END
$$$$
