1moq_ligand
  -I-interpret- 

 31 31  0  0  0  0  0  0  0  0999 V2000
   28.6010   16.1110   -4.4140 C   0  0  0  0  0
   28.8910   15.4320   -3.0910 C   0  0  0  0  0
   28.4690   16.3310   -1.9410 C   0  0  0  0  0
   29.1460   17.6830   -2.0190 C   0  0  0  0  0
   28.8520   18.3080   -3.3990 C   0  0  0  0  0
   29.7790   19.5210   -3.5920 C   0  0  0  0  0
   27.2100   16.2670   -4.5550 O   0  0  0  0  0
   28.2120   14.1670   -3.0350 N   0  3  0  0  0
   28.8730   15.7090   -0.7040 O   0  0  0  0  0
   28.6900   18.5990   -1.0450 O   0  0  0  0  0
   29.1460   17.3920   -4.4350 O   0  0  0  0  0
   31.1380   19.0410   -3.7440 O   0  0  0  0  0
   32.4010   19.8890   -3.1820 P   0  0  0  0  0
   32.4310   21.1820   -3.9060 O   0  0  0  0  0
   33.5520   19.0030   -3.3860 O   0  0  0  0  0
   32.1520   20.2280   -1.7260 O   0  0  0  0  0
   29.0270   15.4994   -5.2094 H   0  0  0  0  0
   29.9622   15.2507   -3.0030 H   0  0  0  0  0
   27.3893   16.4706   -1.9940 H   0  0  0  0  0
   30.2080   17.5056   -1.8495 H   0  0  0  0  0
   27.7989   18.5865   -3.4369 H   0  0  0  0  0
   29.7121   20.1819   -2.7278 H   0  0  0  0  0
   29.4804   20.0804   -4.4786 H   0  0  0  0  0
   26.7898   15.4039   -4.5459 H   0  0  0  0  0
   28.5138   13.5856   -3.8168 H   0  0  0  0  0
   28.4366   13.7005   -2.1562 H   0  0  0  0  0
   27.2052   14.3201   -3.0924 H   0  0  0  0  0
   28.4564   14.8473   -0.6294 H   0  0  0  0  0
   28.8569   18.2427   -0.1693 H   0  0  0  0  0
   31.6358   21.6799   -3.7026 H   0  0  0  0  0
   31.3897   20.8077   -1.6594 H   0  0  0  0  0
  1 11  1  0  0  0
  1  7  1  0  0  0
  1  2  1  0  0  0
  2  8  1  0  0  0
  2  3  1  0  0  0
  3  9  1  0  0  0
  3  4  1  0  0  0
  4 10  1  0  0  0
  4  5  1  0  0  0
  5 11  1  0  0  0
  5  6  1  0  0  0
  6 12  1  0  0  0
 12 13  1  0  0  0
 13 16  1  0  0  0
 13 15  2  0  0  0
 13 14  1  0  0  0
  1 17  1  0  0  0
  2 18  1  0  0  0
  3 19  1  0  0  0
  4 20  1  0  0  0
  5 21  1  0  0  0
  6 22  1  0  0  0
  6 23  1  0  0  0
  7 24  1  0  0  0
  8 25  1  0  0  0
  8 26  1  0  0  0
  8 27  1  0  0  0
  9 28  1  0  0  0
 10 29  1  0  0  0
 14 30  1  0  0  0
 16 31  1  0  0  0
M  END
$$$$
