5evb_ligand
  -I-interpret- 

 25 26  0  0  0  0  0  0  0  0999 V2000
  -15.2580   24.1950   -0.0030 O   0  0  0  0  0
  -17.4160   26.0340   -2.0790 N   0  3  0  0  0
  -16.2330   24.4040   -0.7410 C   0  0  0  0  0
  -17.2090   23.6950   -1.0540 O   0  0  0  0  0
  -16.1670   25.7820   -1.3950 C   0  0  0  0  0
  -15.0080   25.8260   -2.3830 C   0  0  0  0  0
  -15.5570   26.8200   -3.7840 S   0  0  0  0  0
  -17.3140   26.8270   -3.2750 C   0  0  0  0  0
  -17.7900   28.2340   -2.9040 C   0  0  0  0  0
  -18.3380   28.1710   -1.1970 S   0  0  0  0  0
  -18.5590   26.3960   -1.2970 C   0  0  0  0  0
  -19.8490   26.1550   -2.0610 C   0  0  0  0  0
  -21.2640   26.7350   -1.1130 S   0  0  0  0  0
  -17.6228   25.0769   -2.3646 H   0  0  0  0  0
  -17.7779   24.1826   -1.6542 H   0  0  0  0  0
  -16.0069   26.5479   -0.6361 H   0  0  0  0  0
  -14.7335   24.8212   -2.7041 H   0  0  0  0  0
  -14.1215   26.2615   -1.9220 H   0  0  0  0  0
  -17.9154   26.4487   -4.1016 H   0  0  0  0  0
  -18.6025   28.5506   -3.5579 H   0  0  0  0  0
  -16.9834   28.9574   -3.0231 H   0  0  0  0  0
  -18.6274   25.8482   -0.3572 H   0  0  0  0  0
  -19.9586   25.0855   -2.2407 H   0  0  0  0  0
  -19.8082   26.7001   -3.0040 H   0  0  0  0  0
  -22.3791   26.5127   -1.8030 H   0  0  0  0  0
  3  1  2  0  0  0
  5  2  1  0  0  0
  2  8  1  0  0  0
  2 11  1  0  0  0
  3  4  1  0  0  0
  3  5  1  0  0  0
  5  6  1  0  0  0
  6  7  1  0  0  0
  7  8  1  0  0  0
  8  9  1  0  0  0
  9 10  1  0  0  0
 10 11  1  0  0  0
 11 12  1  0  0  0
 12 13  1  0  0  0
  2 14  1  0  0  0
  4 15  1  0  0  0
  5 16  1  0  0  0
  6 17  1  0  0  0
  6 18  1  0  0  0
  8 19  1  0  0  0
  9 20  1  0  0  0
  9 21  1  0  0  0
 11 22  1  0  0  0
 12 23  1  0  0  0
 12 24  1  0  0  0
 13 25  1  0  0  0
M  END
$$$$
