3lxl_ligand
  -I-interpret- 

 38 41  0  0  0  0  0  0  0  0999 V2000
   -2.8790   13.5630    2.7270 O   0  0  0  0  0
   -1.8130   13.2280    3.2460 C   0  0  0  0  0
   -1.4780   11.9060    3.3560 N   0  0  0  0  0
   -0.2970   11.4250    3.8890 C   0  0  0  0  0
    0.6130   12.2730    4.3800 C   0  0  0  0  0
    0.3360   13.7010    4.3320 C   0  0  0  0  0
    1.2530   14.5970    4.8430 C   0  0  0  0  0
   -0.8320   14.2260    3.7800 C   0  0  0  0  0
   -1.0700   15.6020    3.7430 C   0  0  0  0  0
   -2.2290   16.1700    3.2060 C   0  0  0  0  0
   -2.4070   17.5410    3.1960 C   0  0  0  0  0
   -3.5440   18.0760    2.6530 F   0  0  0  0  0
   -1.4540   18.4010    3.7210 C   0  0  0  0  0
   -0.2940   17.8580    4.2590 C   0  0  0  0  0
   -0.1270   16.4860    4.2640 C   0  0  0  0  0
    1.0500   15.9630    4.8210 C   0  0  0  0  0
    2.1140   16.6110    5.4000 N   0  0  0  0  0
    2.9700   15.6730    5.7670 C   0  0  0  0  0
    2.4820   14.4340    5.4500 N   0  0  0  0  0
    4.2680   15.8830    6.4690 C   0  0  0  0  0
    5.0540   14.5930    6.6050 C   0  0  0  0  0
    3.8560   16.3250    7.8570 C   0  0  0  0  0
    5.1230   16.9580    5.8420 C   0  0  0  0  0
   -0.1069   10.3519    3.9092 H   0  0  0  0  0
    1.4952   12.1346    3.7550 H   0  0  0  0  0
    0.6800   12.0331    5.4412 H   0  0  0  0  0
   -3.0020   15.5239    2.7900 H   0  0  0  0  0
   -1.6117   19.4795    3.7117 H   0  0  0  0  0
    0.4770   18.5077    4.6732 H   0  0  0  0  0
    4.4697   13.8715    7.1761 H   0  0  0  0  0
    5.2630   14.1902    5.6140 H   0  0  0  0  0
    5.9922   14.7935    7.1224 H   0  0  0  0  0
    3.2705   17.2416    7.7862 H   0  0  0  0  0
    3.2552   15.5436    8.3224 H   0  0  0  0  0
    4.7467   16.5069    8.4584 H   0  0  0  0  0
    5.3485   16.6858    4.8109 H   0  0  0  0  0
    4.5841   17.9053    5.8595 H   0  0  0  0  0
    6.0514   17.0562    6.4046 H   0  0  0  0  0
  1  2  2  0  0  0
  2  3  1  0  0  0
  2  8  1  0  0  0
  3  4  2  0  0  0
  4  5  1  0  0  0
  5  6  1  0  0  0
  6  7  4  0  0  0
  6  8  4  0  0  0
  7 16  4  0  0  0
  7 19  4  0  0  0
  8  9  4  0  0  0
  9 10  4  0  0  0
  9 15  4  0  0  0
 10 11  4  0  0  0
 11 12  1  0  0  0
 11 13  4  0  0  0
 13 14  4  0  0  0
 14 15  4  0  0  0
 15 16  4  0  0  0
 16 17  4  0  0  0
 17 18  4  0  0  0
 18 19  4  0  0  0
 18 20  1  0  0  0
 20 21  1  0  0  0
 20 22  1  0  0  0
 20 23  1  0  0  0
  4 24  1  0  0  0
  5 25  1  0  0  0
  5 26  1  0  0  0
 10 27  1  0  0  0
 13 28  1  0  0  0
 14 29  1  0  0  0
 21 30  1  0  0  0
 21 31  1  0  0  0
 21 32  1  0  0  0
 22 33  1  0  0  0
 22 34  1  0  0  0
 22 35  1  0  0  0
 23 36  1  0  0  0
 23 37  1  0  0  0
 23 38  1  0  0  0
M  END
$$$$
