4wy3_ligand
  -I-interpret- 

 69 73  0  0  0  0  0  0  0  0999 V2000
  -21.0300  -44.7730    1.3920 O   0  0  0  0  0
  -20.5690  -43.6450    1.4530 C   0  0  0  0  0
  -21.3940  -42.5090    2.0100 C   0  0  0  0  0
  -20.4920  -41.5640    2.7940 C   0  0  0  0  0
  -19.8000  -40.6210    1.8400 C   0  0  0  0  0
  -18.5780  -40.0730    2.0050 N   0  0  0  0  0
  -18.3200  -39.2900    0.9340 C   0  0  0  0  0
  -19.3770  -39.3420    0.0950 N   0  0  0  0  0
  -20.3050  -40.1600    0.6350 C   0  0  0  0  0
  -22.4360  -43.0500    2.9040 N   0  3  0  0  0
  -23.3880  -41.9820    3.2500 C   0  0  0  0  0
  -24.7610  -42.5940    3.5290 C   0  0  0  0  0
  -24.8730  -42.9890    5.0000 C   0  0  0  0  0
  -24.7540  -41.7770    5.9130 C   0  0  0  0  0
  -24.9510  -42.1890    7.3660 C   0  0  0  0  0
  -24.8580  -40.9770    8.2860 C   0  0  0  0  0
  -25.8460  -39.8910    7.8750 C   0  0  0  0  0
  -25.6640  -39.4990    6.4120 C   0  0  0  0  0
  -25.7730  -40.7230    5.5120 C   0  0  0  0  0
  -25.5640  -40.3270    4.0570 C   0  0  0  0  0
  -25.7640  -41.5530    3.2900 N   0  0  0  0  0
  -26.7520  -41.7760    2.4270 C   0  0  0  0  0
  -27.1490  -42.9030    2.1820 O   0  0  0  0  0
  -27.3910  -40.6050    1.7410 C   0  0  0  0  0
  -28.2890  -39.8000    2.4320 C   0  0  0  0  0
  -28.8810  -38.7150    1.7960 C   0  0  0  0  0
  -28.5750  -38.4350    0.4690 C   0  0  0  0  0
  -27.6770  -39.2410   -0.2220 C   0  0  0  0  0
  -27.0850  -40.3250    0.4140 C   0  0  0  0  0
  -29.2080  -37.2750   -0.2110 C   0  0  0  0  0
  -29.2600  -37.2260   -1.5990 C   0  0  0  0  0
  -29.8520  -36.1410   -2.2350 C   0  0  0  0  0
  -30.3930  -35.1050   -1.4830 C   0  0  0  0  0
  -30.3410  -35.1530   -0.0950 C   0  0  0  0  0
  -29.7490  -36.2380    0.5410 C   0  0  0  0  0
  -19.5543  -43.4557    1.1029 H   0  0  0  0  0
  -21.8650  -41.9657    1.1908 H   0  0  0  0  0
  -19.7455  -42.1425    3.3382 H   0  0  0  0  0
  -21.0929  -40.9904    3.4997 H   0  0  0  0  0
  -17.4097  -38.7123    0.7739 H   0  0  0  0  0
  -21.2734  -40.4116    0.2026 H   0  0  0  0  0
  -22.0019  -43.4076    3.7550 H   0  0  0  0  0
  -22.9306  -43.8065    2.4312 H   0  0  0  0  0
  -23.4649  -41.2806    2.4192 H   0  0  0  0  0
  -23.0373  -41.4563    4.1381 H   0  0  0  0  0
  -24.9049  -43.4689    2.8949 H   0  0  0  0  0
  -24.0629  -43.6794    5.2350 H   0  0  0  0  0
  -25.8482  -43.4485    5.1611 H   0  0  0  0  0
  -23.7554  -41.3524    5.8103 H   0  0  0  0  0
  -24.1717  -42.9003    7.6397 H   0  0  0  0  0
  -25.9378  -42.6392    7.4743 H   0  0  0  0  0
  -23.8489  -40.5698    8.2219 H   0  0  0  0  0
  -25.0942  -41.2940    9.3018 H   0  0  0  0  0
  -25.6708  -39.0110    8.4939 H   0  0  0  0  0
  -26.8576  -40.2747    8.0076 H   0  0  0  0  0
  -24.6770  -39.0542    6.2855 H   0  0  0  0  0
  -26.4430  -38.7878    6.1372 H   0  0  0  0  0
  -26.7720  -41.1436    5.6268 H   0  0  0  0  0
  -24.5702  -39.9101    3.8940 H   0  0  0  0  0
  -26.2589  -39.5450    3.7508 H   0  0  0  0  0
  -28.5289  -40.0195    3.4724 H   0  0  0  0  0
  -29.5852  -38.0836    2.3377 H   0  0  0  0  0
  -27.4376  -39.0223   -1.2626 H   0  0  0  0  0
  -26.3804  -40.9562   -0.1275 H   0  0  0  0  0
  -28.8364  -38.0387   -2.1891 H   0  0  0  0  0
  -29.8919  -36.1027   -3.3236 H   0  0  0  0  0
  -30.8581  -34.2548   -1.9818 H   0  0  0  0  0
  -30.7644  -34.3400    0.4948 H   0  0  0  0  0
  -29.7088  -36.2759    1.6296 H   0  0  0  0  0
  1  2  2  0  0  0
  2  3  1  0  0  0
  3  4  1  0  0  0
  3 10  1  0  0  0
  4  5  1  0  0  0
  5  6  4  0  0  0
  5  9  4  0  0  0
  6  7  4  0  0  0
  7  8  4  0  0  0
  8  9  4  0  0  0
 10 11  1  0  0  0
 11 12  1  0  0  0
 12 13  1  0  0  0
 12 21  1  0  0  0
 13 14  1  0  0  0
 14 15  1  0  0  0
 14 19  1  0  0  0
 15 16  1  0  0  0
 16 17  1  0  0  0
 17 18  1  0  0  0
 18 19  1  0  0  0
 19 20  1  0  0  0
 20 21  1  0  0  0
 21 22  1  0  0  0
 22 23  2  0  0  0
 22 24  1  0  0  0
 24 25  4  0  0  0
 24 29  4  0  0  0
 25 26  4  0  0  0
 26 27  4  0  0  0
 27 28  4  0  0  0
 27 30  1  0  0  0
 28 29  4  0  0  0
 30 31  4  0  0  0
 30 35  4  0  0  0
 31 32  4  0  0  0
 32 33  4  0  0  0
 33 34  4  0  0  0
 34 35  4  0  0  0
  2 36  1  0  0  0
  3 37  1  0  0  0
  4 38  1  0  0  0
  4 39  1  0  0  0
  7 40  1  0  0  0
  9 41  1  0  0  0
 10 42  1  0  0  0
 10 43  1  0  0  0
 11 44  1  0  0  0
 11 45  1  0  0  0
 12 46  1  0  0  0
 13 47  1  0  0  0
 13 48  1  0  0  0
 14 49  1  0  0  0
 15 50  1  0  0  0
 15 51  1  0  0  0
 16 52  1  0  0  0
 16 53  1  0  0  0
 17 54  1  0  0  0
 17 55  1  0  0  0
 18 56  1  0  0  0
 18 57  1  0  0  0
 19 58  1  0  0  0
 20 59  1  0  0  0
 20 60  1  0  0  0
 25 61  1  0  0  0
 26 62  1  0  0  0
 28 63  1  0  0  0
 29 64  1  0  0  0
 31 65  1  0  0  0
 32 66  1  0  0  0
 33 67  1  0  0  0
 34 68  1  0  0  0
 35 69  1  0  0  0
M  END
$$$$
