4hn2_ligand
  -I-interpret- 

 59 59  0  0  0  0  0  0  0  0999 V2000
    0.9250   19.5720   10.0360 C   0  0  0  0  0
   -0.5540   19.8700    9.7830 C   0  0  0  0  0
   -1.2950   19.7920   11.1310 C   0  0  0  0  0
   -0.7690   20.8450   12.1000 C   0  0  0  0  0
    0.7410   20.6930   12.3200 C   0  0  0  0  0
    1.5300   20.6170   10.9890 C   0  0  0  0  0
    1.6620   19.5280    8.7930 O   0  0  0  0  0
   -0.7080   21.1780    9.1850 O   0  0  0  0  0
   -2.6910   20.0100   10.9360 O   0  0  0  0  0
   -1.4420   20.6730   13.3450 O   0  0  0  0  0
    1.2110   21.8060   13.1050 O   0  0  0  0  0
    2.8620   20.2170   11.2810 O   0  0  0  0  0
    2.2700   16.9800    9.1450 O   0  0  0  0  0
   -2.8100   21.1440    7.7190 O   0  0  0  0  0
   -3.5790   18.4770   12.8060 O   0  0  0  0  0
   -3.8370   21.5820   13.6810 O   0  0  0  0  0
    1.7650   20.3060   14.7910 O   0  0  0  0  0
    5.1400   20.8470   12.2040 O   0  0  0  0  0
    0.4310   17.6480    7.4640 O   0  0  0  0  0
   -0.6760   20.0450    6.8090 O   0  0  0  0  0
   -3.2400   17.5390   10.4310 O   0  0  0  0  0
   -1.9140   23.2450   13.2510 O   0  0  0  0  0
    3.5880   22.7110   11.2600 O   0  0  0  0  0
    2.9210   18.2110    6.9560 O   0  0  0  0  0
   -0.7150   22.5820    7.0490 O   0  0  0  0  0
   -5.1530   19.2830   10.8950 O   0  0  0  0  0
   -2.0090   21.9760   15.4920 O   0  0  0  0  0
    3.8300   24.5500   15.7470 O   0  0  0  0  0
    4.7090   20.9930    9.6590 O   0  0  0  0  0
    4.4020   22.5490   14.2130 O   0  0  0  0  0
    2.8190   24.3640   13.3480 O   0  0  0  0  0
    1.8920   18.0950    8.0240 P   0  0  0  0  0
   -1.1940   21.3250    7.6520 P   0  0  0  0  0
   -3.7700   18.8390   11.2440 P   0  0  0  0  0
   -2.2890   21.8820   14.0400 P   0  0  0  0  0
    1.6060   21.4580   14.3770 C   0  0  0  0  0
    4.1170   21.1900   11.0020 P   0  0  0  0  0
    1.8840   22.6460   15.2940 C   0  0  0  0  0
    3.2290   23.6120   14.5590 P   0  0  0  0  0
    0.9990   18.5919   10.5072 H   0  0  0  0  0
   -0.9734   19.1413    9.0893 H   0  0  0  0  0
   -1.1256   18.7996   11.5487 H   0  0  0  0  0
   -0.9515   21.8362   11.6850 H   0  0  0  0  0
    0.9116   19.7523   12.8436 H   0  0  0  0  0
    1.4927   21.5959   10.5111 H   0  0  0  0  0
    1.5761   16.9459    9.8075 H   0  0  0  0  0
   -3.0198   20.2999    8.1254 H   0  0  0  0  0
   -2.6727   18.2007   12.9608 H   0  0  0  0  0
   -3.9400   21.5354   12.7277 H   0  0  0  0  0
    4.7028   20.9926   13.0462 H   0  0  0  0  0
   -0.1872   17.5906    8.1962 H   0  0  0  0  0
   -0.9999   19.2402    7.2200 H   0  0  0  0  0
   -2.3487   17.3256   10.7169 H   0  0  0  0  0
   -2.1114   23.1378   12.3177 H   0  0  0  0  0
    3.2172   22.7741   12.1433 H   0  0  0  0  0
    4.0732   24.0000   16.4953 H   0  0  0  0  0
    4.6493   22.0761   15.0110 H   0  0  0  0  0
    2.1674   22.2984   16.2875 H   0  0  0  0  0
    0.9899   23.2608   15.3976 H   0  0  0  0  0
  1  2  1  0  0  0
  6  1  1  0  0  0
  1  7  1  0  0  0
  3  2  1  0  0  0
  2  8  1  0  0  0
  4  3  1  0  0  0
  3  9  1  0  0  0
  5  4  1  0  0  0
  4 10  1  0  0  0
  5  6  1  0  0  0
 11  5  1  0  0  0
  6 12  1  0  0  0
  7 32  1  0  0  0
  8 33  1  0  0  0
  9 34  1  0  0  0
 10 35  1  0  0  0
 36 11  1  0  0  0
 12 37  1  0  0  0
 32 13  1  0  0  0
 33 14  1  0  0  0
 34 15  1  0  0  0
 35 16  1  0  0  0
 36 17  2  0  0  0
 37 18  1  0  0  0
 32 19  1  0  0  0
 33 20  1  0  0  0
 34 21  1  0  0  0
 35 22  1  0  0  0
 37 23  1  0  0  0
 32 24  2  0  0  0
 33 25  2  0  0  0
 34 26  2  0  0  0
 35 27  2  0  0  0
 39 28  1  0  0  0
 37 29  2  0  0  0
 39 30  1  0  0  0
 39 31  2  0  0  0
 38 36  1  0  0  0
 38 39  1  0  0  0
  1 40  1  0  0  0
  2 41  1  0  0  0
  3 42  1  0  0  0
  4 43  1  0  0  0
  5 44  1  0  0  0
  6 45  1  0  0  0
 13 46  1  0  0  0
 14 47  1  0  0  0
 15 48  1  0  0  0
 16 49  1  0  0  0
 18 50  1  0  0  0
 19 51  1  0  0  0
 20 52  1  0  0  0
 21 53  1  0  0  0
 22 54  1  0  0  0
 23 55  1  0  0  0
 28 56  1  0  0  0
 30 57  1  0  0  0
 38 58  1  0  0  0
 38 59  1  0  0  0
M  END
$$$$
