### 
### Created by X-TOOL on Mon Sep 10 21:13:10 2018
### 

@<TRIPOS>MOLECULE
4hn2_ligand
   47    47     1     0     0
SMALL
GAST_HUCK


@<TRIPOS>ATOM
      1 C1          0.9250   19.5720   10.0360 C.3       1 0EJ         0.1557
      2 C2         -0.5540   19.8700    9.7830 C.3       1 0EJ         0.1556
      3 C3         -1.2950   19.7920   11.1310 C.3       1 0EJ         0.1557
      4 C4         -0.7690   20.8450   12.1000 C.3       1 0EJ         0.1556
      5 C5          0.7410   20.6930   12.3200 C.3       1 0EJ         0.1541
      6 C6          1.5300   20.6170   10.9890 C.3       1 0EJ         0.1556
      7 O11         1.6620   19.5280    8.7930 O.3       1 0EJ        -0.2668
      8 O12        -0.7080   21.1780    9.1850 O.3       1 0EJ        -0.2668
      9 O13        -2.6910   20.0100   10.9360 O.3       1 0EJ        -0.2668
     10 O14        -1.4420   20.6730   13.3450 O.3       1 0EJ        -0.2668
     11 O15         1.2110   21.8060   13.1050 O.3       1 0EJ        -0.2663
     12 O16         2.8620   20.2170   11.2810 O.3       1 0EJ        -0.2668
     13 O21         2.2700   16.9800    9.1450 O.co2     1 0EJ        -0.5537
     14 O22        -2.8100   21.1440    7.7190 O.co2     1 0EJ        -0.5537
     15 O23        -3.5790   18.4770   12.8060 O.co2     1 0EJ        -0.5537
     16 O24        -3.8370   21.5820   13.6810 O.co2     1 0EJ        -0.5537
     17 O25         1.7650   20.3060   14.7910 O.2       1 0EJ        -0.3688
     18 O26         5.1400   20.8470   12.2040 O.co2     1 0EJ        -0.5537
     19 O31         0.4310   17.6480    7.4640 O.co2     1 0EJ        -0.5537
     20 O32        -0.6760   20.0450    6.8090 O.co2     1 0EJ        -0.5537
     21 O33        -3.2400   17.5390   10.4310 O.co2     1 0EJ        -0.5537
     22 O34        -1.9140   23.2450   13.2510 O.co2     1 0EJ        -0.5537
     23 O36         3.5880   22.7110   11.2600 O.co2     1 0EJ        -0.5537
     24 O41         2.9210   18.2110    6.9560 O.co2     1 0EJ        -0.5537
     25 O42        -0.7150   22.5820    7.0490 O.co2     1 0EJ        -0.5537
     26 O43        -5.1530   19.2830   10.8950 O.co2     1 0EJ        -0.5537
     27 O44        -2.0090   21.9760   15.4920 O.co2     1 0EJ        -0.5537
     28 O45         3.8300   24.5500   15.7470 O.co2     1 0EJ        -0.5605
     29 O46         4.7090   20.9930    9.6590 O.co2     1 0EJ        -0.5537
     30 O55         4.4020   22.5490   14.2130 O.co2     1 0EJ        -0.5605
     31 O65         2.8190   24.3640   13.3480 O.co2     1 0EJ        -0.5605
     32 PA1         1.8920   18.0950    8.0240 P.3       1 0EJ         0.2013
     33 PA2        -1.1940   21.3250    7.6520 P.3       1 0EJ         0.2013
     34 PA3        -3.7700   18.8390   11.2440 P.3       1 0EJ         0.2013
     35 PA4        -2.2890   21.8820   14.0400 P.3       1 0EJ         0.2013
     36 CA5         1.6060   21.4580   14.3770 C.2       1 0EJ         0.2508
     37 PA6         4.1170   21.1900   11.0020 P.3       1 0EJ         0.2013
     38 CB5         1.8840   22.6460   15.2940 C.3       1 0EJ         0.1197
     39 PB5         3.2290   23.6120   14.5590 P.3       1 0EJ         0.0791
     40 H           0.9990   18.5919   10.5072 H         1 0EJ         0.0710
     41 H          -0.9734   19.1413    9.0893 H         1 0EJ         0.0710
     42 H          -1.1256   18.7996   11.5487 H         1 0EJ         0.0710
     43 H          -0.9515   21.8362   11.6850 H         1 0EJ         0.0710
     44 H           0.9116   19.7523   12.8436 H         1 0EJ         0.0711
     45 H           1.4927   21.5959   10.5111 H         1 0EJ         0.0710
     46 H           2.1674   22.2984   16.2875 H         1 0EJ         0.0709
     47 H           0.9899   23.2608   15.3976 H         1 0EJ         0.0709
@<TRIPOS>BOND
     1    1    2 1  
     2    6    1 1  
     3    1    7 1  
     4    3    2 1  
     5    2    8 1  
     6    4    3 1  
     7    3    9 1  
     8    5    4 1  
     9    4   10 1  
    10    5    6 1  
    11   11    5 1  
    12    6   12 1  
    13    7   32 1  
    14    8   33 1  
    15    9   34 1  
    16   10   35 1  
    17   36   11 1  
    18   12   37 1  
    19   32   13 ar 
    20   33   14 ar 
    21   34   15 ar 
    22   35   16 ar 
    23   36   17 2  
    24   37   18 ar 
    25   32   19 ar 
    26   33   20 ar 
    27   34   21 ar 
    28   35   22 ar 
    29   37   23 ar 
    30   32   24 ar 
    31   33   25 ar 
    32   34   26 ar 
    33   35   27 ar 
    34   39   28 ar 
    35   37   29 ar 
    36   39   30 ar 
    37   39   31 ar 
    38   38   36 1  
    39   38   39 1  
    40    1   40 1  
    41    2   41 1  
    42    3   42 1  
    43    4   43 1  
    44    5   44 1  
    45    6   45 1  
    46   38   46 1  
    47   38   47 1  
@<TRIPOS>SUBSTRUCTURE
     1 0EJ         1

