4ab8_ligand
  -I-interpret- 

 27 28  0  0  0  0  0  0  0  0999 V2000
  -21.6540    1.8780   14.0220 C   0  0  0  0  0
  -20.9480    1.4880   15.1370 C   0  0  0  0  0
  -22.5570    2.8990   14.1430 C   0  0  0  0  0
  -21.1600    2.1080   16.3400 C   0  0  0  0  0
  -22.7530    3.5430   15.3460 C   0  0  0  0  0
  -22.0560    3.1340   16.4580 C   0  0  0  0  0
  -23.3750    5.6390   17.4910 C   0  0  0  0  0
  -22.9970    5.6560   16.0290 C   0  0  0  0  0
  -23.4710    4.1890   17.9130 C   0  0  0  0  0
  -20.4300    1.7050   17.5590 C   0  0  0  0  0
  -19.1290    1.1590   17.2010 N   0  3  0  0  0
  -23.6730    4.5690   15.3870 O   0  0  0  0  0
  -22.1690    3.6650   17.7410 O   0  0  0  0  0
  -21.4973    1.3842   13.0630 H   0  0  0  0  0
  -20.2173    0.6826   15.0627 H   0  0  0  0  0
  -23.1327    3.2092   13.2710 H   0  0  0  0  0
  -24.3265    6.1474   17.6469 H   0  0  0  0  0
  -22.6272    6.1628   18.0864 H   0  0  0  0  0
  -21.9181    5.5487   15.9167 H   0  0  0  0  0
  -23.2885    6.6030   15.5747 H   0  0  0  0  0
  -24.2048    3.6452   17.3181 H   0  0  0  0  0
  -23.8100    4.0923   18.9444 H   0  0  0  0  0
  -21.0054    0.9448   18.0873 H   0  0  0  0  0
  -20.2900    2.5766   18.1984 H   0  0  0  0  0
  -18.6324    0.8836   18.0483 H   0  0  0  0  0
  -19.2570    0.3445   16.6005 H   0  0  0  0  0
  -18.5892    1.8677   16.7042 H   0  0  0  0  0
  1  2  4  0  0  0
  3  1  4  0  0  0
  4  2  4  0  0  0
  5  3  4  0  0  0
  6  4  4  0  0  0
  4 10  1  0  0  0
  5  6  4  0  0  0
 12  5  1  0  0  0
  6 13  1  0  0  0
  8  7  1  0  0  0
  7  9  1  0  0  0
  8 12  1  0  0  0
  9 13  1  0  0  0
 10 11  1  0  0  0
  1 14  1  0  0  0
  2 15  1  0  0  0
  3 16  1  0  0  0
  7 17  1  0  0  0
  7 18  1  0  0  0
  8 19  1  0  0  0
  8 20  1  0  0  0
  9 21  1  0  0  0
  9 22  1  0  0  0
 10 23  1  0  0  0
 10 24  1  0  0  0
 11 25  1  0  0  0
 11 26  1  0  0  0
 11 27  1  0  0  0
M  END
$$$$
