### 
### Created by X-TOOL on Mon Sep 10 21:13:30 2018
### 

@<TRIPOS>MOLECULE
5j5x_ligand
  159   161     1     0     0
SMALL
GAST_HUCK


@<TRIPOS>ATOM
      1 C4         -3.5380   51.2920   -0.9830 C.ar      1 6J9         0.1213
      2 C5         -3.6070   50.0930   -0.0910 C.ar      1 6J9         0.0435
      3 C6         -2.3550   49.3620    0.1370 C.ar      1 6J9         0.1355
      4 N1         -6.8820   53.8110   -1.6770 N.am      1 6J9        -0.2692
      5 C7         -4.5990   49.4000    0.6510 C.2       1 6J9        -0.0545
      6 C8         -3.9840   48.3270    1.2710 C.2       1 6J9         0.0249
      7 N2         -2.3200   51.6050   -1.4940 N.ar      1 6J9        -0.2730
      8 C9         -1.2120   50.8870   -1.2380 C.ar      1 6J9         0.0500
      9 N          -4.6440   52.1080   -1.3010 N.pl3     1 6J9        -0.2839
     10 C1         -5.9120   51.5610   -1.7650 C.3       1 6J9         0.0534
     11 C          -4.5190   53.5560   -1.1740 C.3       1 6J9         0.0534
     12 C2         -5.5330   54.2010   -2.1120 C.3       1 6J9         0.0547
     13 C3         -7.0160   52.4340   -1.1690 C.3       1 6J9         0.0547
     14 N4         -1.2160   49.8040   -0.4460 N.ar      1 6J9        -0.2772
     15 N3         -2.6590   48.3300    0.9540 N.pl3     1 6J9        -0.2665
     16 C1        -13.8850   56.1870    3.4670 C.2       1 AZ1         0.1782
     17 C2        -12.6250   55.5060    3.9630 C.3       1 AZ1         0.0374
     18 C3        -11.6630   55.1790    2.8140 C.3       1 AZ1        -0.0361
     19 C4        -10.5310   56.1950    2.6810 C.3       1 AZ1        -0.0510
     20 C5         -9.8790   56.1460    1.2960 C.3       1 AZ1        -0.0528
     21 C6         -9.1290   54.8370    1.0440 C.3       1 AZ1        -0.0510
     22 C7         -9.7360   53.9690   -0.0640 C.3       1 AZ1        -0.0361
     23 C8         -9.3440   54.3020   -1.5110 C.3       1 AZ1         0.0374
     24 C9         -7.8930   54.6990   -1.7520 C.2       1 AZ1         0.1786
     25 O2        -14.1380   57.3090    3.8810 O.2       1 AZ1        -0.3969
     26 O3         -7.7100   55.8780   -2.0300 O.2       1 AZ1        -0.3969
     27 N         -14.6390   55.5340    2.5750 N.am      1 DAL        -0.2659
     28 CA        -15.8150   56.1110    1.9300 C.3       1 DAL         0.1281
     29 CB        -16.6600   54.9340    1.4330 C.3       1 DAL        -0.0244
     30 C         -15.3920   57.0860    0.8390 C.2       1 DAL         0.2036
     31 O         -14.4340   57.8350    1.0280 O.2       1 DAL        -0.3944
     32 N         -16.1010   57.1240   -0.2950 N.am      1 DAR        -0.2637
     33 CA        -15.6720   57.9450   -1.4390 C.3       1 DAR         0.1311
     34 CB        -16.2900   59.3460   -1.3410 C.3       1 DAR        -0.0092
     35 CG        -15.1850   60.3960   -1.2400 C.3       1 DAR        -0.0156
     36 CD        -15.7020   61.8160   -1.0340 C.3       1 DAR         0.0627
     37 NE        -14.5620   62.7260   -0.9490 N.pl3     1 DAR        -0.2723
     38 CZ        -14.3050   63.6420    0.0060 C.cat     1 DAR         0.2882
     39 NH1       -15.0970   63.8780    1.0640 N.pl3     1 DAR        -0.2849
     40 NH2       -13.1870   64.3700   -0.1080 N.pl3     1 DAR        -0.2849
     41 C         -15.9790   57.2970   -2.7620 C.2       1 DAR         0.2039
     42 O         -16.7630   56.3480   -2.8400 O.2       1 DAR        -0.3944
     43 N         -15.3140   57.8020   -3.8030 N.am      1 DAR        -0.2637
     44 CA        -15.3800   57.2580   -5.1740 C.3       1 DAR         0.1311
     45 CB        -14.2350   56.2570   -5.4230 C.3       1 DAR        -0.0092
     46 CG        -13.4690   55.8150   -4.1680 C.3       1 DAR        -0.0156
     47 CD        -12.2650   54.9400   -4.4950 C.3       1 DAR         0.0627
     48 NE        -11.1610   55.7270   -5.0240 N.pl3     1 DAR        -0.2723
     49 CZ         -9.8930   55.3060   -5.1290 C.cat     1 DAR         0.2882
     50 NH1        -9.4910   54.0860   -4.7430 N.pl3     1 DAR        -0.2849
     51 NH2        -8.9940   56.1520   -5.6410 N.pl3     1 DAR        -0.2849
     52 C         -15.3060   58.4560   -6.1070 C.2       1 DAR         0.2039
     53 O         -14.2790   59.1450   -6.1360 O.2       1 DAR        -0.3944
     54 N         -16.3760   58.7070   -6.8630 N.am      1 DAR        -0.2637
     55 CA        -16.5020   59.9340   -7.6650 C.3       1 DAR         0.1310
     56 CB        -17.9100   60.4900   -7.5030 C.3       1 DAR        -0.0092
     57 CG        -18.0950   61.7290   -8.3690 C.3       1 DAR        -0.0156
     58 CD        -18.0260   62.9990   -7.5310 C.3       1 DAR         0.0627
     59 NE        -19.2590   63.7530   -7.6230 N.pl3     1 DAR        -0.2723
     60 CZ        -19.9870   64.0320   -6.5460 C.cat     1 DAR         0.2882
     61 NH1       -19.5880   63.6190   -5.3440 N.pl3     1 DAR        -0.2849
     62 NH2       -21.1170   64.7270   -6.6720 N.pl3     1 DAR        -0.2849
     63 C         -16.2420   59.7190   -9.1300 C.2       1 DAR         0.2033
     64 O         -17.1630   59.7840   -9.9490 O.2       1 DAR        -0.3944
     65 N         -14.9800   59.4640   -9.4640 N.am      1 DAR        -0.2695
     66 CA        -14.5170   59.3780  -10.8780 C.3       1 DAR         0.0945
     67 CB        -14.5670   57.9680  -11.4990 C.3       1 DAR        -0.0148
     68 CG        -15.9630   57.3420  -11.6050 C.3       1 DAR        -0.0162
     69 CD        -15.9320   56.0090  -12.3660 C.3       1 DAR         0.0627
     70 NE        -15.6880   54.8430  -11.5160 N.pl3     1 DAR        -0.2723
     71 CZ        -15.2720   53.6360  -11.9480 C.cat     1 DAR         0.2882
     72 NH1       -15.0820   52.6590  -11.0560 N.pl3     1 DAR        -0.2849
     73 NH2       -15.0300   53.3460  -13.2320 N.pl3     1 DAR        -0.2849
     74 C         -13.1000   59.9130  -10.9170 C.2       1 DAR         0.0601
     75 O         -12.6240   60.4690   -9.9360 O.co2     1 DAR        -0.5666
     76 OXT       -12.4230   59.7920  -11.9300 O.co2     1 DAR        -0.5666
     77 H1         -5.6530   49.6649    0.7198 H         1 6J9         0.0311
     78 H2         -4.4794   47.5973    1.9098 H         1 6J9         0.0922
     79 H3         -0.2767   51.1962   -1.6904 H         1 6J9         0.0975
     80 H4         -6.0243   50.5221   -1.4215 H         1 6J9         0.0549
     81 H5         -5.9576   51.5909   -2.8636 H         1 6J9         0.0549
     82 H6         -3.5017   53.8686   -1.4523 H         1 6J9         0.0549
     83 H7         -4.7249   53.8588   -0.1368 H         1 6J9         0.0549
     84 H8         -5.4319   55.2956   -2.0722 H         1 6J9         0.0543
     85 H9         -5.3598   53.8540   -3.1413 H         1 6J9         0.0543
     86 H10        -7.9980   52.0308   -1.4573 H         1 6J9         0.0543
     87 H11        -6.9287   52.4376   -0.0725 H         1 6J9         0.0543
     88 H12        -1.9778   47.6358    1.2931 H         1 6J9         0.2318
     89 H13       -12.9025   54.5710    4.4717 H         1 AZ1         0.0502
     90 H14       -12.1161   56.1733    4.6741 H         1 AZ1         0.0502
     91 H15       -12.2325   55.1626    1.8730 H         1 AZ1         0.0290
     92 H16       -11.2246   54.1865    2.9947 H         1 AZ1         0.0290
     93 H17        -9.7667   55.9774    3.4416 H         1 AZ1         0.0267
     94 H18       -10.9371   57.2037    2.8473 H         1 AZ1         0.0267
     95 H19        -9.1679   56.9810    1.2118 H         1 AZ1         0.0265
     96 H20       -10.6640   56.2545    0.5332 H         1 AZ1         0.0265
     97 H21        -9.1282   54.2546    1.9771 H         1 AZ1         0.0267
     98 H22        -8.0938   55.0809    0.7631 H         1 AZ1         0.0267
     99 H23       -10.8301   54.0548    0.0104 H         1 AZ1         0.0290
    100 H24        -9.4358   52.9285    0.1289 H         1 AZ1         0.0290
    101 H25        -9.9779   55.1368   -1.8445 H         1 AZ1         0.0502
    102 H26        -9.5533   53.4143   -2.1259 H         1 AZ1         0.0502
    103 H27       -14.3824   54.5974    2.3365 H         1 DAL         0.1882
    104 H28       -16.4004   56.6719    2.6735 H         1 DAL         0.0797
    105 H29       -17.5640   55.3157    0.9359 H         1 DAL         0.0277
    106 H30       -16.9495   54.3040    2.2870 H         1 DAL         0.0277
    107 H31       -16.0734   54.3371    0.7192 H         1 DAL         0.0277
    108 H32       -16.9394   56.5837   -0.3669 H         1 DAR         0.1883
    109 H33       -14.5794   58.0556   -1.3762 H         1 DAR         0.0800
    110 H34       -16.9284   59.4013   -0.4469 H         1 DAR         0.0313
    111 H35       -16.8969   59.5404   -2.2376 H         1 DAR         0.0313
    112 H36       -14.5980   60.3722   -2.1699 H         1 DAR         0.0301
    113 H37       -14.5365   60.1364   -0.3902 H         1 DAR         0.0301
    114 H38       -16.2845   61.8656   -0.1022 H         1 DAR         0.0689
    115 H39       -16.3413   62.1030   -1.8818 H         1 DAR         0.0689
    116 H40       -13.8716   62.6596   -1.7105 H         1 DAR         0.2642
    117 H41       -14.8340   64.5959    1.7542 H         1 DAR         0.2615
    118 H42       -15.9676   63.3412    1.1855 H         1 DAR         0.2615
    119 H43       -12.5531   64.2189   -0.9057 H         1 DAR         0.2615
    120 H44       -12.9609   65.0811    0.6020 H         1 DAR         0.2615
    121 H45       -14.7334   58.6006   -3.6442 H         1 DAR         0.1883
    122 H46       -16.3378   56.7374   -5.3212 H         1 DAR         0.0800
    123 H47       -13.5172   56.7255   -6.1124 H         1 DAR         0.0313
    124 H48       -14.6635   55.3599   -5.8937 H         1 DAR         0.0313
    125 H49       -14.1523   55.2464   -3.5201 H         1 DAR         0.0301
    126 H50       -13.1189   56.7112   -3.6349 H         1 DAR         0.0301
    127 H51       -12.5607   54.1907   -5.2440 H         1 DAR         0.0689
    128 H52       -11.9336   54.4309   -3.5780 H         1 DAR         0.0689
    129 H53       -11.3709   56.6836   -5.3431 H         1 DAR         0.2642
    130 H54        -8.5033   53.8127   -4.8459 H         1 DAR         0.2615
    131 H55       -10.1700   53.4224   -4.3437 H         1 DAR         0.2615
    132 H56        -9.2854   57.0928   -5.9425 H         1 DAR         0.2615
    133 H57        -8.0097   55.8632   -5.7341 H         1 DAR         0.2615
    134 H58       -17.1186   58.0376   -6.8854 H         1 DAR         0.1883
    135 H59       -15.7756   60.6689   -7.2878 H         1 DAR         0.0800
    136 H60       -18.0751   60.7569   -6.4487 H         1 DAR         0.0313
    137 H61       -18.6391   59.7241   -7.8059 H         1 DAR         0.0313
    138 H62       -19.0760   61.6781   -8.8640 H         1 DAR         0.0301
    139 H63       -17.3012   61.7572   -9.1300 H         1 DAR         0.0301
    140 H64       -17.1956   63.6232   -7.8926 H         1 DAR         0.0689
    141 H65       -17.8493   62.7266   -6.4800 H         1 DAR         0.0689
    142 H66       -19.5798   64.0811   -8.5452 H         1 DAR         0.2642
    143 H67       -20.1534   63.8362   -4.5109 H         1 DAR         0.2615
    144 H68       -18.7141   63.0825   -5.2477 H         1 DAR         0.2615
    145 H69       -21.4246   65.0458   -7.6019 H         1 DAR         0.2615
    146 H70       -21.6829   64.9454   -5.8395 H         1 DAR         0.2615
    147 H71       -14.3118   59.3237   -8.7334 H         1 DAR         0.1875
    148 H72       -15.1623   60.0286  -11.4865 H         1 DAR         0.0726
    149 H73       -13.9438   57.3038  -10.8822 H         1 DAR         0.0307
    150 H74       -14.1453   58.0292  -12.5131 H         1 DAR         0.0307
    151 H75       -16.6272   58.0399  -12.1358 H         1 DAR         0.0301
    152 H76       -16.3520   57.1647  -10.5915 H         1 DAR         0.0301
    153 H77       -15.1331   56.0601  -13.1204 H         1 DAR         0.0689
    154 H78       -16.9018   55.8744  -12.8674 H         1 DAR         0.0689
    155 H79       -15.8473   54.9539  -10.5044 H         1 DAR         0.2642
    156 H80       -14.7643   51.7305  -11.3690 H         1 DAR         0.2615
    157 H81       -15.2533   52.8345  -10.0556 H         1 DAR         0.2615
    158 H82       -15.1621   54.0662  -13.9564 H         1 DAR         0.2615
    159 H83       -14.7117   52.4026  -13.4958 H         1 DAR         0.2615
@<TRIPOS>BOND
     1    1    2 ar 
     2    1    7 ar 
     3    9    1 1  
     4    2    3 ar 
     5    2    5 1  
     6    3   14 ar 
     7    3   15 1  
     8    4   12 1  
     9    4   13 1  
    10   24    4 am 
    11    5    6 2  
    12    6   15 1  
    13    7    8 ar 
    14    8   14 ar 
    15   10    9 1  
    16   11    9 1  
    17   13   10 1  
    18   12   11 1  
    19   17   16 1  
    20   16   25 2  
    21   16   27 am 
    22   18   17 1  
    23   19   18 1  
    24   20   19 1  
    25   21   20 1  
    26   22   21 1  
    27   23   22 1  
    28   23   24 1  
    29   24   26 2  
    30   27   28 1  
    31   28   29 1  
    32   28   30 1  
    33   30   31 2  
    34   30   32 am 
    35   32   33 1  
    36   33   34 1  
    37   33   41 1  
    38   34   35 1  
    39   35   36 1  
    40   36   37 1  
    41   37   38 ar 
    42   38   39 ar 
    43   38   40 ar 
    44   41   42 2  
    45   41   43 am 
    46   43   44 1  
    47   44   45 1  
    48   44   52 1  
    49   45   46 1  
    50   46   47 1  
    51   47   48 1  
    52   48   49 ar 
    53   49   50 ar 
    54   49   51 ar 
    55   52   53 2  
    56   52   54 am 
    57   54   55 1  
    58   55   56 1  
    59   55   63 1  
    60   56   57 1  
    61   57   58 1  
    62   58   59 1  
    63   59   60 ar 
    64   60   61 ar 
    65   60   62 ar 
    66   63   64 2  
    67   63   65 am 
    68   65   66 1  
    69   66   67 1  
    70   66   74 1  
    71   67   68 1  
    72   68   69 1  
    73   69   70 1  
    74   70   71 ar 
    75   71   72 ar 
    76   71   73 ar 
    77   74   75 ar 
    78   74   76 ar 
    79    5   77 1  
    80    6   78 1  
    81    8   79 1  
    82   10   80 1  
    83   10   81 1  
    84   11   82 1  
    85   11   83 1  
    86   12   84 1  
    87   12   85 1  
    88   13   86 1  
    89   13   87 1  
    90   15   88 1  
    91   17   89 1  
    92   17   90 1  
    93   18   91 1  
    94   18   92 1  
    95   19   93 1  
    96   19   94 1  
    97   20   95 1  
    98   20   96 1  
    99   21   97 1  
   100   21   98 1  
   101   22   99 1  
   102   22  100 1  
   103   23  101 1  
   104   23  102 1  
   105   27  103 1  
   106   28  104 1  
   107   29  105 1  
   108   29  106 1  
   109   29  107 1  
   110   32  108 1  
   111   33  109 1  
   112   34  110 1  
   113   34  111 1  
   114   35  112 1  
   115   35  113 1  
   116   36  114 1  
   117   36  115 1  
   118   37  116 1  
   119   39  117 1  
   120   39  118 1  
   121   40  119 1  
   122   40  120 1  
   123   43  121 1  
   124   44  122 1  
   125   45  123 1  
   126   45  124 1  
   127   46  125 1  
   128   46  126 1  
   129   47  127 1  
   130   47  128 1  
   131   48  129 1  
   132   50  130 1  
   133   50  131 1  
   134   51  132 1  
   135   51  133 1  
   136   54  134 1  
   137   55  135 1  
   138   56  136 1  
   139   56  137 1  
   140   57  138 1  
   141   57  139 1  
   142   58  140 1  
   143   58  141 1  
   144   59  142 1  
   145   61  143 1  
   146   61  144 1  
   147   62  145 1  
   148   62  146 1  
   149   65  147 1  
   150   66  148 1  
   151   67  149 1  
   152   67  150 1  
   153   68  151 1  
   154   68  152 1  
   155   69  153 1  
   156   69  154 1  
   157   70  155 1  
   158   72  156 1  
   159   72  157 1  
   160   73  158 1  
   161   73  159 1  
@<TRIPOS>SUBSTRUCTURE
     1 6J9         1

