5j5x_ligand
  -I-interpret- 

155157  0  0  0  0  0  0  0  0999 V2000
   -3.5380   51.2920   -0.9830 C   0  0  0  0  0
   -3.6070   50.0930   -0.0910 C   0  0  0  0  0
   -2.3550   49.3620    0.1370 C   0  0  0  0  0
   -6.8820   53.8110   -1.6770 N   0  0  0  0  0
   -4.5990   49.4000    0.6510 C   0  0  0  0  0
   -3.9840   48.3270    1.2710 C   0  0  0  0  0
   -2.3200   51.6050   -1.4940 N   0  0  0  0  0
   -1.2120   50.8870   -1.2380 C   0  0  0  0  0
   -4.6440   52.1080   -1.3010 N   0  0  0  0  0
   -5.9120   51.5610   -1.7650 C   0  0  0  0  0
   -4.5190   53.5560   -1.1740 C   0  0  0  0  0
   -5.5330   54.2010   -2.1120 C   0  0  0  0  0
   -7.0160   52.4340   -1.1690 C   0  0  0  0  0
   -1.2160   49.8040   -0.4460 N   0  0  0  0  0
   -2.6590   48.3300    0.9540 N   0  0  0  0  0
  -13.8850   56.1870    3.4670 C   0  0  0  0  0
  -12.6250   55.5060    3.9630 C   0  0  0  0  0
  -11.6630   55.1790    2.8140 C   0  0  0  0  0
  -10.5310   56.1950    2.6810 C   0  0  0  0  0
   -9.8790   56.1460    1.2960 C   0  0  0  0  0
   -9.1290   54.8370    1.0440 C   0  0  0  0  0
   -9.7360   53.9690   -0.0640 C   0  0  0  0  0
   -9.3440   54.3020   -1.5110 C   0  0  0  0  0
   -7.8930   54.6990   -1.7520 C   0  0  0  0  0
  -14.1380   57.3090    3.8810 O   0  0  0  0  0
   -7.7100   55.8780   -2.0300 O   0  0  0  0  0
  -14.6390   55.5340    2.5750 N   0  0  0  0  0
  -15.8150   56.1110    1.9300 C   0  0  0  0  0
  -16.6600   54.9340    1.4330 C   0  0  0  0  0
  -15.3920   57.0860    0.8390 C   0  0  0  0  0
  -14.4340   57.8350    1.0280 O   0  0  0  0  0
  -16.1010   57.1240   -0.2950 N   0  0  0  0  0
  -15.6720   57.9450   -1.4390 C   0  0  0  0  0
  -16.2900   59.3460   -1.3410 C   0  0  0  0  0
  -15.1850   60.3960   -1.2400 C   0  0  0  0  0
  -15.7020   61.8160   -1.0340 C   0  0  0  0  0
  -14.5620   62.7260   -0.9490 N   0  0  0  0  0
  -14.3050   63.6420    0.0060 C   0  0  0  0  0
  -15.0970   63.8780    1.0640 N   0  0  0  0  0
  -13.1870   64.3700   -0.1080 N   0  0  0  0  0
  -15.9790   57.2970   -2.7620 C   0  0  0  0  0
  -16.7630   56.3480   -2.8400 O   0  0  0  0  0
  -15.3140   57.8020   -3.8030 N   0  0  0  0  0
  -15.3800   57.2580   -5.1740 C   0  0  0  0  0
  -14.2350   56.2570   -5.4230 C   0  0  0  0  0
  -13.4690   55.8150   -4.1680 C   0  0  0  0  0
  -12.2650   54.9400   -4.4950 C   0  0  0  0  0
  -11.1610   55.7270   -5.0240 N   0  0  0  0  0
   -9.8930   55.3060   -5.1290 C   0  0  0  0  0
   -9.4910   54.0860   -4.7430 N   0  0  0  0  0
   -8.9940   56.1520   -5.6410 N   0  0  0  0  0
  -15.3060   58.4560   -6.1070 C   0  0  0  0  0
  -14.2790   59.1450   -6.1360 O   0  0  0  0  0
  -16.3760   58.7070   -6.8630 N   0  0  0  0  0
  -16.5020   59.9340   -7.6650 C   0  0  0  0  0
  -17.9100   60.4900   -7.5030 C   0  0  0  0  0
  -18.0950   61.7290   -8.3690 C   0  0  0  0  0
  -18.0260   62.9990   -7.5310 C   0  0  0  0  0
  -19.2590   63.7530   -7.6230 N   0  0  0  0  0
  -19.9870   64.0320   -6.5460 C   0  0  0  0  0
  -19.5880   63.6190   -5.3440 N   0  0  0  0  0
  -21.1170   64.7270   -6.6720 N   0  0  0  0  0
  -16.2420   59.7190   -9.1300 C   0  0  0  0  0
  -17.1630   59.7840   -9.9490 O   0  0  0  0  0
  -14.9800   59.4640   -9.4640 N   0  0  0  0  0
  -14.5170   59.3780  -10.8780 C   0  0  0  0  0
  -14.5670   57.9680  -11.4990 C   0  0  0  0  0
  -15.9630   57.3420  -11.6050 C   0  0  0  0  0
  -15.9320   56.0090  -12.3660 C   0  0  0  0  0
  -15.6880   54.8430  -11.5160 N   0  0  0  0  0
  -15.2720   53.6360  -11.9480 C   0  0  0  0  0
  -15.0820   52.6590  -11.0560 N   0  0  0  0  0
  -15.0300   53.3460  -13.2320 N   0  0  0  0  0
  -13.1000   59.9130  -10.9170 C   0  0  0  0  0
  -12.6240   60.4690   -9.9360 O   0  0  0  0  0
  -12.4230   59.7920  -11.9300 O   0  0  0  0  0
   -5.6540   49.6652    0.7198 H   0  0  0  0  0
   -4.4798   47.5966    1.9103 H   0  0  0  0  0
   -0.2715   51.1979   -1.6929 H   0  0  0  0  0
   -6.0252   50.5242   -1.4483 H   0  0  0  0  0
   -5.9602   51.5660   -2.8539 H   0  0  0  0  0
   -3.5093   53.8711   -1.4371 H   0  0  0  0  0
   -4.7103   53.8615   -0.1453 H   0  0  0  0  0
   -5.4308   55.2858   -2.0823 H   0  0  0  0  0
   -5.3599   53.8665   -3.1349 H   0  0  0  0  0
   -7.9890   52.0345   -1.4548 H   0  0  0  0  0
   -6.9294   52.4377   -0.0825 H   0  0  0  0  0
  -12.9090   54.5720    4.4479 H   0  0  0  0  0
  -12.1186   56.1826    4.6513 H   0  0  0  0  0
  -12.2348   55.1937    1.8861 H   0  0  0  0  0
  -11.2157   54.2067    3.0203 H   0  0  0  0  0
   -9.7705   55.9586    3.4252 H   0  0  0  0  0
  -10.9474   57.1916    2.8275 H   0  0  0  0  0
   -9.1587   56.9619    1.2356 H   0  0  0  0  0
  -10.6697   56.2281    0.5503 H   0  0  0  0  0
   -9.1729   54.2582    1.9666 H   0  0  0  0  0
   -8.1190   55.1002    0.7297 H   0  0  0  0  0
  -10.8131   54.1256   -0.0058 H   0  0  0  0  0
   -9.3688   52.9588    0.1170 H   0  0  0  0  0
   -9.9432   55.1678   -1.7930 H   0  0  0  0  0
   -9.5047   53.3886   -2.0836 H   0  0  0  0  0
  -14.3773   54.5786    2.3318 H   0  0  0  0  0
  -16.4206   56.7073    2.6125 H   0  0  0  0  0
  -16.0776   54.3433    0.7258 H   0  0  0  0  0
  -16.9462   54.3106    2.2801 H   0  0  0  0  0
  -17.5554   55.3135    0.9407 H   0  0  0  0  0
  -16.9562   56.5729   -0.3683 H   0  0  0  0  0
  -14.5868   58.0360   -1.3929 H   0  0  0  0  0
  -16.9194   59.3999   -0.4527 H   0  0  0  0  0
  -16.8881   59.5381   -2.2318 H   0  0  0  0  0
  -14.6373   60.3831   -2.1823 H   0  0  0  0  0
  -14.5748   60.1433   -0.3729 H   0  0  0  0  0
  -16.2839   61.8668   -0.1137 H   0  0  0  0  0
  -16.3400   62.1012   -1.8705 H   0  0  0  0  0
  -13.8783   62.6602   -1.7031 H   0  0  0  0  0
  -14.8382   64.5912    1.7458 H   0  0  0  0  0
  -15.9575   63.3441    1.1861 H   0  0  0  0  0
  -12.5608   64.2225   -0.8996 H   0  0  0  0  0
  -14.7218   58.6165   -3.6410 H   0  0  0  0  0
  -16.3009   56.6998   -5.3428 H   0  0  0  0  0
  -13.5147   56.7595   -6.0686 H   0  0  0  0  0
  -14.6893   55.3603   -5.8445 H   0  0  0  0  0
  -14.1493   55.2316   -3.5476 H   0  0  0  0  0
  -13.1061   56.7105   -3.6635 H   0  0  0  0  0
  -12.5624   54.2118   -5.2496 H   0  0  0  0  0
  -11.9333   54.4529   -3.5781 H   0  0  0  0  0
  -11.3688   56.6743   -5.3400 H   0  0  0  0  0
   -8.5123   53.8164   -4.8423 H   0  0  0  0  0
  -10.1640   53.4278   -4.3502 H   0  0  0  0  0
   -9.2821   57.0846   -5.9371 H   0  0  0  0  0
  -17.1335   58.0243   -6.8859 H   0  0  0  0  0
  -15.7459   60.6283   -7.2985 H   0  0  0  0  0
  -18.0668   60.7603   -6.4588 H   0  0  0  0  0
  -18.6289   59.7309   -7.8114 H   0  0  0  0  0
  -19.0739   61.6784   -8.8457 H   0  0  0  0  0
  -17.2978   61.7575   -9.1119 H   0  0  0  0  0
  -17.2101   63.6184   -7.9035 H   0  0  0  0  0
  -17.8645   62.7209   -6.4895 H   0  0  0  0  0
  -19.5766   64.0779   -8.5362 H   0  0  0  0  0
  -18.7225   63.0877   -5.2486 H   0  0  0  0  0
  -21.6774   64.9432   -5.8476 H   0  0  0  0  0
  -21.4216   65.0427   -7.5928 H   0  0  0  0  0
  -14.2984   59.3209   -8.7188 H   0  0  0  0  0
  -15.2069   59.9651  -11.4841 H   0  0  0  0  0
  -13.9852   57.3196  -10.8439 H   0  0  0  0  0
  -14.1920   58.0643  -12.5179 H   0  0  0  0  0
  -16.6083   58.0324  -12.1482 H   0  0  0  0  0
  -16.3319   57.1531  -10.5969 H   0  0  0  0  0
  -15.1116   56.0645  -13.0815 H   0  0  0  0  0
  -16.9121   55.8756  -12.8239 H   0  0  0  0  0
  -15.8457   54.9528  -10.5143 H   0  0  0  0  0
  -15.2516   52.8328  -10.0653 H   0  0  0  0  0
  -14.7148   52.4118  -13.4932 H   0  0  0  0  0
  -15.1608   54.0592  -13.9493 H   0  0  0  0  0
  -12.9351   59.3384  -12.6035 H   0  0  0  0  0
  1  2  4  0  0  0
  1  7  4  0  0  0
  9  1  1  0  0  0
  2  3  4  0  0  0
  2  5  4  0  0  0
  3 14  4  0  0  0
  3 15  4  0  0  0
  4 12  1  0  0  0
  4 13  1  0  0  0
 24  4  1  0  0  0
  5  6  4  0  0  0
  6 15  4  0  0  0
  7  8  4  0  0  0
  8 14  4  0  0  0
 10  9  1  0  0  0
 11  9  1  0  0  0
 13 10  1  0  0  0
 12 11  1  0  0  0
 17 16  1  0  0  0
 16 25  2  0  0  0
 16 27  1  0  0  0
 18 17  1  0  0  0
 19 18  1  0  0  0
 20 19  1  0  0  0
 21 20  1  0  0  0
 22 21  1  0  0  0
 23 22  1  0  0  0
 23 24  1  0  0  0
 24 26  2  0  0  0
 27 28  1  0  0  0
 28 29  1  0  0  0
 28 30  1  0  0  0
 30 31  2  0  0  0
 30 32  1  0  0  0
 32 33  1  0  0  0
 33 34  1  0  0  0
 33 41  1  0  0  0
 34 35  1  0  0  0
 35 36  1  0  0  0
 36 37  1  0  0  0
 37 38  1  0  0  0
 38 39  1  0  0  0
 38 40  2  0  0  0
 41 42  2  0  0  0
 41 43  1  0  0  0
 43 44  1  0  0  0
 44 45  1  0  0  0
 44 52  1  0  0  0
 45 46  1  0  0  0
 46 47  1  0  0  0
 47 48  1  0  0  0
 48 49  1  0  0  0
 49 50  1  0  0  0
 49 51  2  0  0  0
 52 53  2  0  0  0
 52 54  1  0  0  0
 54 55  1  0  0  0
 55 56  1  0  0  0
 55 63  1  0  0  0
 56 57  1  0  0  0
 57 58  1  0  0  0
 58 59  1  0  0  0
 59 60  1  0  0  0
 60 61  2  0  0  0
 60 62  1  0  0  0
 63 64  2  0  0  0
 63 65  1  0  0  0
 65 66  1  0  0  0
 66 67  1  0  0  0
 66 74  1  0  0  0
 67 68  1  0  0  0
 68 69  1  0  0  0
 69 70  1  0  0  0
 70 71  1  0  0  0
 71 72  2  0  0  0
 71 73  1  0  0  0
 74 75  2  0  0  0
 74 76  1  0  0  0
  5 77  1  0  0  0
  6 78  1  0  0  0
  8 79  1  0  0  0
 10 80  1  0  0  0
 10 81  1  0  0  0
 11 82  1  0  0  0
 11 83  1  0  0  0
 12 84  1  0  0  0
 12 85  1  0  0  0
 13 86  1  0  0  0
 13 87  1  0  0  0
 17 88  1  0  0  0
 17 89  1  0  0  0
 18 90  1  0  0  0
 18 91  1  0  0  0
 19 92  1  0  0  0
 19 93  1  0  0  0
 20 94  1  0  0  0
 20 95  1  0  0  0
 21 96  1  0  0  0
 21 97  1  0  0  0
 22 98  1  0  0  0
 22 99  1  0  0  0
 23100  1  0  0  0
 23101  1  0  0  0
 27102  1  0  0  0
 28103  1  0  0  0
 29104  1  0  0  0
 29105  1  0  0  0
 29106  1  0  0  0
 32107  1  0  0  0
 33108  1  0  0  0
 34109  1  0  0  0
 34110  1  0  0  0
 35111  1  0  0  0
 35112  1  0  0  0
 36113  1  0  0  0
 36114  1  0  0  0
 37115  1  0  0  0
 39116  1  0  0  0
 39117  1  0  0  0
 40118  1  0  0  0
 43119  1  0  0  0
 44120  1  0  0  0
 45121  1  0  0  0
 45122  1  0  0  0
 46123  1  0  0  0
 46124  1  0  0  0
 47125  1  0  0  0
 47126  1  0  0  0
 48127  1  0  0  0
 50128  1  0  0  0
 50129  1  0  0  0
 51130  1  0  0  0
 54131  1  0  0  0
 55132  1  0  0  0
 56133  1  0  0  0
 56134  1  0  0  0
 57135  1  0  0  0
 57136  1  0  0  0
 58137  1  0  0  0
 58138  1  0  0  0
 59139  1  0  0  0
 61140  1  0  0  0
 62141  1  0  0  0
 62142  1  0  0  0
 65143  1  0  0  0
 66144  1  0  0  0
 67145  1  0  0  0
 67146  1  0  0  0
 68147  1  0  0  0
 68148  1  0  0  0
 69149  1  0  0  0
 69150  1  0  0  0
 70151  1  0  0  0
 72152  1  0  0  0
 73153  1  0  0  0
 73154  1  0  0  0
 76155  1  0  0  0
M  END
$$$$
