3wtk_ligand
  -I-interpret- 

 25 26  0  0  0  0  0  0  0  0999 V2000
   57.7370  -13.4980  -29.1210 C   0  0  0  0  0
   56.9170  -13.9590  -30.1580 C   0  0  0  0  0
   55.5490  -13.6690  -30.1280 C   0  0  0  0  0
   54.5140  -14.2560  -31.4410 Cl  0  0  0  0  0
   55.0170  -12.9180  -29.1000 N   0  0  0  0  0
   55.7920  -12.4590  -28.0800 C   0  0  0  0  0
   57.1960  -12.7340  -28.0780 C   0  0  0  0  0
   58.1220  -12.2390  -26.9800 C   0  0  0  0  0
   57.6630  -12.4740  -25.6200 N   0  0  0  0  0
   57.0490  -11.3360  -24.9350 C   0  0  0  0  0
   56.6590  -11.8150  -23.5390 C   0  0  0  0  0
   57.1340  -13.5120  -23.4090 S   0  0  0  0  0
   57.7710  -13.6530  -24.9460 C   0  0  0  0  0
   58.3000  -14.7330  -25.4400 N   0  0  0  0  0
   58.4150  -15.8030  -24.8400 C   0  0  0  0  0
   58.5460  -16.8110  -24.2670 N   0  0  0  0  0
   58.8011  -13.7344  -29.1249 H   0  0  0  0  0
   57.3399  -14.5374  -30.9794 H   0  0  0  0  0
   55.3453  -11.8846  -27.2684 H   0  0  0  0  0
   58.1957  -11.1581  -27.1001 H   0  0  0  0  0
   59.0567  -12.7886  -27.0913 H   0  0  0  0  0
   56.1740  -10.9830  -25.4807 H   0  0  0  0  0
   57.7451  -10.4993  -24.8758 H   0  0  0  0  0
   55.5855  -11.7064  -23.3844 H   0  0  0  0  0
   57.1610  -11.2188  -22.7770 H   0  0  0  0  0
  1  2  4  0  0  0
  1  7  4  0  0  0
  2  3  4  0  0  0
  3  4  1  0  0  0
  3  5  4  0  0  0
  5  6  4  0  0  0
  6  7  4  0  0  0
  7  8  1  0  0  0
  8  9  1  0  0  0
  9 10  1  0  0  0
  9 13  1  0  0  0
 10 11  1  0  0  0
 11 12  1  0  0  0
 12 13  1  0  0  0
 13 14  2  0  0  0
 14 15  1  0  0  0
 15 16  3  0  0  0
  1 17  1  0  0  0
  2 18  1  0  0  0
  6 19  1  0  0  0
  8 20  1  0  0  0
  8 21  1  0  0  0
 10 22  1  0  0  0
 10 23  1  0  0  0
 11 24  1  0  0  0
 11 25  1  0  0  0
M  END
$$$$
