5lwd_ligand
  -I-interpret- 

 55 55  0  0  0  0  0  0  0  0999 V2000
   11.8940   42.0390   -8.9110 O   0  0  0  0  0
    8.1260   41.8860   -4.2980 C   0  0  0  0  0
    8.9210   39.5720   -3.9500 C   0  0  0  0  0
   13.2580   40.7240  -10.1200 O   0  0  0  0  0
   10.1430   38.7040   -3.6710 C   0  0  0  0  0
   11.2990   39.1290   -4.4670 N   0  0  0  0  0
   10.5050   38.7490   -2.1890 C   0  0  0  0  0
    9.4540   38.2370   -1.2130 C   0  0  0  0  0
   12.6790   40.0940   -8.0770 N   0  0  0  0  0
    9.8150   38.6250    0.2050 C   0  0  0  0  0
    9.5740   42.8430   -5.9420 O   0  0  0  0  0
    9.2400   36.7260   -1.3580 C   0  0  0  0  0
   12.0080   40.2790   -6.7960 C   0  0  0  0  0
   12.5520   41.0370   -9.0230 C   0  0  0  0  0
    7.3680   43.3540   -6.0760 N   0  0  0  0  0
   13.6570   41.8500  -10.9900 C   0  0  0  0  0
   15.0110   41.3750  -11.4480 C   0  0  0  0  0
   15.1480   40.7620  -12.6840 C   0  0  0  0  0
    8.4090   42.7190   -5.5420 C   0  0  0  0  0
    9.1630   40.8640   -4.1670 N   0  0  0  0  0
    7.7930   39.0800   -3.8930 O   0  0  0  0  0
   11.5080   38.7280   -6.0490 P   0  0  0  0  0
   10.2000   38.2910   -6.5800 O   0  0  0  0  0
   12.5990   37.6840   -6.2630 O   0  0  0  0  0
   16.1480   41.5480  -10.6650 C   0  0  0  0  0
   17.3850   41.1050  -11.1020 C   0  0  0  0  0
   17.5040   40.4730  -12.3310 C   0  0  0  0  0
   16.3840   40.3040  -13.1190 C   0  0  0  0  0
    7.1491   41.4107   -4.3870 H   0  0  0  0  0
    8.1272   42.5274   -3.4167 H   0  0  0  0  0
    9.8857   37.6830   -3.9528 H   0  0  0  0  0
   12.0111   39.7035   -4.0161 H   0  0  0  0  0
   10.6519   39.8017   -1.9474 H   0  0  0  0  0
   11.3689   38.0949   -2.0707 H   0  0  0  0  0
    8.5029   38.7110   -1.4556 H   0  0  0  0  0
   13.2377   39.2587   -8.2518 H   0  0  0  0  0
   10.7811   38.1918    0.4641 H   0  0  0  0  0
    9.8704   39.7110    0.2803 H   0  0  0  0  0
    9.0526   38.2506    0.8881 H   0  0  0  0  0
    8.9074   36.5031   -2.3718 H   0  0  0  0  0
   10.1776   36.2068   -1.1594 H   0  0  0  0  0
    8.4833   36.3975   -0.6455 H   0  0  0  0  0
   11.1102   40.8721   -6.9703 H   0  0  0  0  0
   12.7081   40.7673   -6.1182 H   0  0  0  0  0
    7.5062   43.9877   -6.8633 H   0  0  0  0  0
    6.4322   43.2069   -5.6979 H   0  0  0  0  0
   13.6697   42.8180  -10.4891 H   0  0  0  0  0
   12.9587   42.0562  -11.8011 H   0  0  0  0  0
   14.2734   40.6381  -13.3227 H   0  0  0  0  0
   10.1360   41.1596   -4.2470 H   0  0  0  0  0
   13.4273   38.0101   -5.9037 H   0  0  0  0  0
   16.0639   42.0385   -9.6952 H   0  0  0  0  0
   18.2670   41.2532  -10.4790 H   0  0  0  0  0
   18.4747   40.1127  -12.6716 H   0  0  0  0  0
   16.4701   39.8092  -14.0864 H   0  0  0  0  0
 14  1  2  0  0  0
  2 19  1  0  0  0
 20  2  1  0  0  0
  5  3  1  0  0  0
  3 20  1  0  0  0
  3 21  2  0  0  0
 14  4  1  0  0  0
  4 16  1  0  0  0
  6  5  1  0  0  0
  5  7  1  0  0  0
 22  6  1  0  0  0
  7  8  1  0  0  0
  8 10  1  0  0  0
  8 12  1  0  0  0
 13  9  1  0  0  0
  9 14  1  0  0  0
 19 11  2  0  0  0
 13 22  1  0  0  0
 19 15  1  0  0  0
 16 17  1  0  0  0
 17 18  4  0  0  0
 17 25  4  0  0  0
 18 28  4  0  0  0
 22 23  2  0  0  0
 22 24  1  0  0  0
 25 26  4  0  0  0
 26 27  4  0  0  0
 27 28  4  0  0  0
  2 29  1  0  0  0
  2 30  1  0  0  0
  5 31  1  0  0  0
  6 32  1  0  0  0
  7 33  1  0  0  0
  7 34  1  0  0  0
  8 35  1  0  0  0
  9 36  1  0  0  0
 10 37  1  0  0  0
 10 38  1  0  0  0
 10 39  1  0  0  0
 12 40  1  0  0  0
 12 41  1  0  0  0
 12 42  1  0  0  0
 13 43  1  0  0  0
 13 44  1  0  0  0
 15 45  1  0  0  0
 15 46  1  0  0  0
 16 47  1  0  0  0
 16 48  1  0  0  0
 18 49  1  0  0  0
 20 50  1  0  0  0
 24 51  1  0  0  0
 25 52  1  0  0  0
 26 53  1  0  0  0
 27 54  1  0  0  0
 28 55  1  0  0  0
M  END
$$$$
