### 
### Created by X-TOOL on Mon Sep 10 21:13:24 2018
### 

@<TRIPOS>MOLECULE
3wyj_ligand
   88    92     1     0     0
SMALL
GAST_HUCK


@<TRIPOS>ATOM
      1 OAC        38.8310   45.1820   54.8190 O.co2     1 H78        -0.5593
      2 PCC        39.0360   44.6980   56.3440 P.3       1 H78         0.1121
      3 OAD        38.5950   45.8460   57.3870 O.co2     1 H78        -0.5593
      4 OAE        40.6150   44.5210   56.4970 O.co2     1 H78        -0.5593
      5 CCA        38.6650   42.9090   56.4560 C.3       1 H78         0.2140
      6 PCD        36.8940   43.1920   56.3270 P.3       1 H78         0.1121
      7 OAG        36.4680   44.2260   57.4560 O.co2     1 H78        -0.5593
      8 OAH        36.4470   43.6820   54.8630 O.co2     1 H78        -0.5593
      9 OAF        36.1760   41.8020   56.6620 O.co2     1 H78        -0.5593
     10 OAA        39.0080   42.4030   57.7760 O.3       1 H78        -0.3579
     11 CBM        39.4230   42.1350   55.4940 C.3       1 H78         0.0415
     12 CBQ        39.2880   40.7280   55.5400 C.ar      1 H78        -0.0369
     13 CBH        40.2920   39.9100   56.1570 C.ar      1 H78        -0.0530
     14 CAX        38.1210   40.1010   54.9610 C.ar      1 H78        -0.0599
     15 CAS        37.9420   38.6770   54.9990 C.ar      1 H78        -0.0677
     16 CBB        38.9470   37.8760   55.6200 C.ar      1 H78        -0.0611
     17 CBU        40.1320   38.4610   56.2010 C.ar      1 H78        -0.0289
     18 CBW        41.0920   37.6030   56.6860 C.ar      1 H78        -0.0358
     19 CBJ        41.6030   36.3700   56.1540 C.ar      1 H78        -0.0385
     20 CBD        41.6260   38.1210   57.9340 C.ar      1 H78        -0.0713
     21 CAU        42.6630   37.4090   58.6250 C.ar      1 H78        -0.0768
     22 CAZ        43.1600   36.1780   58.0690 C.ar      1 H78        -0.0452
     23 CBS        42.6410   35.6450   56.8350 C.ar      1 H78         0.0628
     24 NBO        43.0530   34.4800   56.2480 N.am      1 H78        -0.1872
     25 SCG        43.6960   34.5980   54.5790 S.o2      1 H78         0.0894
     26 OAO        42.5380   34.6780   53.7970 O.2       1 H78        -0.1446
     27 OAP        44.3220   33.3380   54.2400 O.2       1 H78        -0.1446
     28 CBY        44.6830   36.0360   54.2640 C.ar      1 H78         0.1159
     29 CBL        44.2980   37.0710   53.3280 C.ar      1 H78        -0.0074
     30 CBF        45.9120   36.1430   54.9910 C.ar      1 H78        -0.0344
     31 CAW        46.7790   37.2560   54.8150 C.ar      1 H78        -0.0580
     32 CBG        46.3990   38.2830   53.8850 C.ar      1 H78        -0.0344
     33 CBZ        45.1740   38.2060   53.1410 C.ar      1 H78         0.1159
     34 SCH        44.7250   39.3760   52.0720 S.o2      1 H78         0.0894
     35 OAQ        45.9430   40.2280   51.6600 O.2       1 H78        -0.1446
     36 OAR        44.1570   38.6390   50.8590 O.2       1 H78        -0.1446
     37 NBP        43.5520   40.2920   52.7760 N.am      1 H78        -0.1872
     38 CBT        43.5640   41.2960   53.6560 C.ar      1 H78         0.0628
     39 CBK        44.2560   41.1990   54.8990 C.ar      1 H78        -0.0385
     40 CBA        42.8620   42.5110   53.3380 C.ar      1 H78        -0.0452
     41 CAV        42.8450   43.6280   54.2510 C.ar      1 H78        -0.0768
     42 CBE        43.5410   43.5100   55.4910 C.ar      1 H78        -0.0713
     43 CBX        44.2500   42.2930   55.8200 C.ar      1 H78        -0.0358
     44 CBV        44.9490   42.0460   56.9560 C.ar      1 H78        -0.0289
     45 CBI        45.7080   43.0920   57.5850 C.ar      1 H78        -0.0530
     46 CBC        44.8830   40.7300   57.5730 C.ar      1 H78        -0.0611
     47 CAT        45.5730   40.4710   58.8080 C.ar      1 H78        -0.0677
     48 CAY        46.3230   41.5280   59.4270 C.ar      1 H78        -0.0599
     49 CBR        46.3930   42.8320   58.8240 C.ar      1 H78        -0.0369
     50 CBN        47.1170   43.8920   59.4260 C.3       1 H78         0.0415
     51 CCB        46.9960   44.7320   60.1290 C.3       1 H78         0.2140
     52 PCE        46.9090   44.3730   61.8730 P.3       1 H78         0.1121
     53 OAJ        48.2530   43.9880   62.6530 O.co2     1 H78        -0.5593
     54 OAK        46.1420   45.5640   62.5970 O.co2     1 H78        -0.5593
     55 OAI        45.9210   43.1320   62.0130 O.co2     1 H78        -0.5593
     56 PCF        48.2940   45.8660   60.6020 P.3       1 H78         0.1121
     57 OAM        48.3610   46.9100   59.4080 O.co2     1 H78        -0.5593
     58 OAN        48.3990   46.8220   61.8880 O.co2     1 H78        -0.5593
     59 OAL        49.6840   45.0640   60.4910 O.co2     1 H78        -0.5593
     60 OAB        45.7960   45.4360   59.6980 O.3       1 H78        -0.3579
     61 H1         39.9348   42.5383   57.9348 H         1 H78         0.2134
     62 H2         40.4868   42.3696   55.6465 H         1 H78         0.0483
     63 H3         39.1153   42.4634   54.4903 H         1 H78         0.0483
     64 H4         41.1720   40.3701   56.5917 H         1 H78         0.0560
     65 H5         37.3658   40.7186   54.4886 H         1 H78         0.0559
     66 H6         37.0607   38.2191   54.5645 H         1 H78         0.0600
     67 H7         38.8171   36.8004   55.6563 H         1 H78         0.0567
     68 H8         41.2001   35.9809   55.2259 H         1 H78         0.0482
     69 H9         41.2403   39.0473   58.3441 H         1 H78         0.0481
     70 H10        43.0670   37.7937   59.5544 H         1 H78         0.0574
     71 H11        43.9429   35.6394   58.5906 H         1 H78         0.0485
     72 H12        42.9980   33.6041   56.7273 H         1 H78         0.2161
     73 H13        43.3679   36.9963   52.7762 H         1 H78         0.0657
     74 H14        46.1866   35.3604   55.6890 H         1 H78         0.0637
     75 H15        47.7070   37.3282   55.3707 H         1 H78         0.0619
     76 H16        47.0526   39.1358   53.7419 H         1 H78         0.0637
     77 H17        42.6301   40.0420   52.4802 H         1 H78         0.2161
     78 H18        44.7905   40.2893   55.1476 H         1 H78         0.0482
     79 H19        42.3354   42.5887   52.3937 H         1 H78         0.0485
     80 H20        42.3139   44.5390   53.9999 H         1 H78         0.0574
     81 H21        43.5384   44.3377   56.1909 H         1 H78         0.0481
     82 H22        45.7644   44.0733   57.1279 H         1 H78         0.0560
     83 H23        44.3107   39.9406   57.0993 H         1 H78         0.0567
     84 H24        45.5276   39.4897   59.2662 H         1 H78         0.0600
     85 H25        46.8425   41.3408   60.3598 H         1 H78         0.0559
     86 H26        47.4953   44.4174   58.5367 H         1 H78         0.0483
     87 H27        47.9395   43.3384   59.9025 H         1 H78         0.0483
     88 H28        45.0344   44.8936   59.8661 H         1 H78         0.2134
@<TRIPOS>BOND
     1    1    2 ar 
     2    2    3 ar 
     3    2    4 ar 
     4    2    5 1  
     5    5    6 1  
     6    5   10 1  
     7    5   11 1  
     8    6    7 ar 
     9    6    8 ar 
    10    6    9 ar 
    11   11   12 1  
    12   12   13 ar 
    13   12   14 ar 
    14   13   17 ar 
    15   14   15 ar 
    16   15   16 ar 
    17   16   17 ar 
    18   17   18 1  
    19   18   19 ar 
    20   18   20 ar 
    21   19   23 ar 
    22   20   21 ar 
    23   21   22 ar 
    24   22   23 ar 
    25   23   24 1  
    26   24   25 am 
    27   25   26 2  
    28   25   27 2  
    29   25   28 1  
    30   28   29 ar 
    31   28   30 ar 
    32   29   33 ar 
    33   30   31 ar 
    34   31   32 ar 
    35   32   33 ar 
    36   33   34 1  
    37   34   35 2  
    38   34   36 2  
    39   34   37 am 
    40   37   38 1  
    41   38   39 ar 
    42   38   40 ar 
    43   39   43 ar 
    44   40   41 ar 
    45   41   42 ar 
    46   42   43 ar 
    47   43   44 1  
    48   44   45 ar 
    49   44   46 ar 
    50   45   49 ar 
    51   46   47 ar 
    52   47   48 ar 
    53   48   49 ar 
    54   49   50 1  
    55   50   51 1  
    56   51   52 1  
    57   51   56 1  
    58   51   60 1  
    59   52   53 ar 
    60   52   54 ar 
    61   52   55 ar 
    62   56   57 ar 
    63   56   58 ar 
    64   56   59 ar 
    65   10   61 1  
    66   11   62 1  
    67   11   63 1  
    68   13   64 1  
    69   14   65 1  
    70   15   66 1  
    71   16   67 1  
    72   19   68 1  
    73   20   69 1  
    74   21   70 1  
    75   22   71 1  
    76   24   72 1  
    77   29   73 1  
    78   30   74 1  
    79   31   75 1  
    80   32   76 1  
    81   37   77 1  
    82   39   78 1  
    83   40   79 1  
    84   41   80 1  
    85   42   81 1  
    86   45   82 1  
    87   46   83 1  
    88   47   84 1  
    89   48   85 1  
    90   50   86 1  
    91   50   87 1  
    92   60   88 1  
@<TRIPOS>SUBSTRUCTURE
     1 H78         1

