3wyj_ligand
  -I-interpret- 

 96100  0  0  0  0  0  0  0  0999 V2000
   38.8310   45.1820   54.8190 O   0  0  0  0  0
   39.0360   44.6980   56.3440 P   0  0  0  0  0
   38.5950   45.8460   57.3870 O   0  0  0  0  0
   40.6150   44.5210   56.4970 O   0  0  0  0  0
   38.6650   42.9090   56.4560 C   0  0  0  0  0
   36.8940   43.1920   56.3270 P   0  0  0  0  0
   36.4680   44.2260   57.4560 O   0  0  0  0  0
   36.4470   43.6820   54.8630 O   0  0  0  0  0
   36.1760   41.8020   56.6620 O   0  0  0  0  0
   39.0080   42.4030   57.7760 O   0  0  0  0  0
   39.4230   42.1350   55.4940 C   0  0  0  0  0
   39.2880   40.7280   55.5400 C   0  0  0  0  0
   40.2920   39.9100   56.1570 C   0  0  0  0  0
   38.1210   40.1010   54.9610 C   0  0  0  0  0
   37.9420   38.6770   54.9990 C   0  0  0  0  0
   38.9470   37.8760   55.6200 C   0  0  0  0  0
   40.1320   38.4610   56.2010 C   0  0  0  0  0
   41.0920   37.6030   56.6860 C   0  0  0  0  0
   41.6030   36.3700   56.1540 C   0  0  0  0  0
   41.6260   38.1210   57.9340 C   0  0  0  0  0
   42.6630   37.4090   58.6250 C   0  0  0  0  0
   43.1600   36.1780   58.0690 C   0  0  0  0  0
   42.6410   35.6450   56.8350 C   0  0  0  0  0
   43.0530   34.4800   56.2480 N   0  0  0  0  0
   43.6960   34.5980   54.5790 S   0  0  0  0  0
   42.5380   34.6780   53.7970 O   0  0  0  0  0
   44.3220   33.3380   54.2400 O   0  0  0  0  0
   44.6830   36.0360   54.2640 C   0  0  0  0  0
   44.2980   37.0710   53.3280 C   0  0  0  0  0
   45.9120   36.1430   54.9910 C   0  0  0  0  0
   46.7790   37.2560   54.8150 C   0  0  0  0  0
   46.3990   38.2830   53.8850 C   0  0  0  0  0
   45.1740   38.2060   53.1410 C   0  0  0  0  0
   44.7250   39.3760   52.0720 S   0  0  0  0  0
   45.9430   40.2280   51.6600 O   0  0  0  0  0
   44.1570   38.6390   50.8590 O   0  0  0  0  0
   43.5520   40.2920   52.7760 N   0  0  0  0  0
   43.5640   41.2960   53.6560 C   0  0  0  0  0
   44.2560   41.1990   54.8990 C   0  0  0  0  0
   42.8620   42.5110   53.3380 C   0  0  0  0  0
   42.8450   43.6280   54.2510 C   0  0  0  0  0
   43.5410   43.5100   55.4910 C   0  0  0  0  0
   44.2500   42.2930   55.8200 C   0  0  0  0  0
   44.9490   42.0460   56.9560 C   0  0  0  0  0
   45.7080   43.0920   57.5850 C   0  0  0  0  0
   44.8830   40.7300   57.5730 C   0  0  0  0  0
   45.5730   40.4710   58.8080 C   0  0  0  0  0
   46.3230   41.5280   59.4270 C   0  0  0  0  0
   46.3930   42.8320   58.8240 C   0  0  0  0  0
   47.1170   43.8920   59.4260 C   0  0  0  0  0
   46.9960   44.7320   60.1290 C   0  0  0  0  0
   46.9090   44.3730   61.8730 P   0  0  0  0  0
   48.2530   43.9880   62.6530 O   0  0  0  0  0
   46.1420   45.5640   62.5970 O   0  0  0  0  0
   45.9210   43.1320   62.0130 O   0  0  0  0  0
   48.2940   45.8660   60.6020 P   0  0  0  0  0
   48.3610   46.9100   59.4080 O   0  0  0  0  0
   48.3990   46.8220   61.8880 O   0  0  0  0  0
   49.6840   45.0640   60.4910 O   0  0  0  0  0
   45.7960   45.4360   59.6980 O   0  0  0  0  0
   37.8951   45.3113   54.6486 H   0  0  0  0  0
   37.6469   45.9844   57.3268 H   0  0  0  0  0
   36.7217   43.0325   54.2117 H   0  0  0  0  0
   36.4131   41.1521   55.9964 H   0  0  0  0  0
   38.5221   42.8947   58.4422 H   0  0  0  0  0
   40.4712   42.3374   55.7138 H   0  0  0  0  0
   39.0491   42.4347   54.5150 H   0  0  0  0  0
   41.1769   40.3726   56.5941 H   0  0  0  0  0
   37.3616   40.7221   54.4859 H   0  0  0  0  0
   37.0559   38.2165   54.5621 H   0  0  0  0  0
   38.8163   36.7945   55.6565 H   0  0  0  0  0
   41.1979   35.9787   55.2208 H   0  0  0  0  0
   41.2382   39.0525   58.3464 H   0  0  0  0  0
   43.0693   37.7958   59.5596 H   0  0  0  0  0
   43.9472   35.6364   58.5935 H   0  0  0  0  0
   42.9969   33.5866   56.7369 H   0  0  0  0  0
   43.3628   36.9959   52.7731 H   0  0  0  0  0
   46.1882   35.3560   55.6928 H   0  0  0  0  0
   47.7121   37.3286   55.3737 H   0  0  0  0  0
   47.0562   39.1406   53.7411 H   0  0  0  0  0
   42.6116   40.0370   52.4742 H   0  0  0  0  0
   44.7935   40.2843   55.1490 H   0  0  0  0  0
   42.3325   42.5891   52.3885 H   0  0  0  0  0
   42.3110   44.5440   53.9985 H   0  0  0  0  0
   43.5384   44.3423   56.1948 H   0  0  0  0  0
   45.7647   44.0787   57.1254 H   0  0  0  0  0
   44.3076   39.9362   57.0967 H   0  0  0  0  0
   45.5273   39.4842   59.2688 H   0  0  0  0  0
   46.8454   41.3397   60.3650 H   0  0  0  0  0
   47.2005   44.5025   58.5269 H   0  0  0  0  0
   47.7097   43.2656   60.0926 H   0  0  0  0  0
   48.6930   43.2686   62.1942 H   0  0  0  0  0
   46.3149   42.3622   61.5960 H   0  0  0  0  0
   48.3682   46.2883   62.6854 H   0  0  0  0  0
   49.7272   44.4030   61.1859 H   0  0  0  0  0
   45.6393   46.1842   60.2787 H   0  0  0  0  0
  1  2  1  0  0  0
  2  3  1  0  0  0
  2  4  2  0  0  0
  2  5  1  0  0  0
  5  6  1  0  0  0
  5 10  1  0  0  0
  5 11  1  0  0  0
  6  7  2  0  0  0
  6  8  1  0  0  0
  6  9  1  0  0  0
 11 12  1  0  0  0
 12 13  4  0  0  0
 12 14  4  0  0  0
 13 17  4  0  0  0
 14 15  4  0  0  0
 15 16  4  0  0  0
 16 17  4  0  0  0
 17 18  1  0  0  0
 18 19  4  0  0  0
 18 20  4  0  0  0
 19 23  4  0  0  0
 20 21  4  0  0  0
 21 22  4  0  0  0
 22 23  4  0  0  0
 23 24  1  0  0  0
 24 25  1  0  0  0
 25 26  2  0  0  0
 25 27  2  0  0  0
 25 28  1  0  0  0
 28 29  4  0  0  0
 28 30  4  0  0  0
 29 33  4  0  0  0
 30 31  4  0  0  0
 31 32  4  0  0  0
 32 33  4  0  0  0
 33 34  1  0  0  0
 34 35  2  0  0  0
 34 36  2  0  0  0
 34 37  1  0  0  0
 37 38  1  0  0  0
 38 39  4  0  0  0
 38 40  4  0  0  0
 39 43  4  0  0  0
 40 41  4  0  0  0
 41 42  4  0  0  0
 42 43  4  0  0  0
 43 44  1  0  0  0
 44 45  4  0  0  0
 44 46  4  0  0  0
 45 49  4  0  0  0
 46 47  4  0  0  0
 47 48  4  0  0  0
 48 49  4  0  0  0
 49 50  1  0  0  0
 50 51  1  0  0  0
 51 52  1  0  0  0
 51 56  1  0  0  0
 51 60  1  0  0  0
 52 53  1  0  0  0
 52 54  2  0  0  0
 52 55  1  0  0  0
 56 57  2  0  0  0
 56 58  1  0  0  0
 56 59  1  0  0  0
  1 61  1  0  0  0
  3 62  1  0  0  0
  8 63  1  0  0  0
  9 64  1  0  0  0
 10 65  1  0  0  0
 11 66  1  0  0  0
 11 67  1  0  0  0
 13 68  1  0  0  0
 14 69  1  0  0  0
 15 70  1  0  0  0
 16 71  1  0  0  0
 19 72  1  0  0  0
 20 73  1  0  0  0
 21 74  1  0  0  0
 22 75  1  0  0  0
 24 76  1  0  0  0
 29 77  1  0  0  0
 30 78  1  0  0  0
 31 79  1  0  0  0
 32 80  1  0  0  0
 37 81  1  0  0  0
 39 82  1  0  0  0
 40 83  1  0  0  0
 41 84  1  0  0  0
 42 85  1  0  0  0
 45 86  1  0  0  0
 46 87  1  0  0  0
 47 88  1  0  0  0
 48 89  1  0  0  0
 50 90  1  0  0  0
 50 91  1  0  0  0
 53 92  1  0  0  0
 55 93  1  0  0  0
 58 94  1  0  0  0
 59 95  1  0  0  0
 60 96  1  0  0  0
M  END
$$$$
