4x6o_ligand
  -I-interpret- 

 67 71  0  0  0  0  0  0  0  0999 V2000
   37.4310  -17.2830   28.0350 C   0  0  0  0  0
   36.7910  -15.9060   27.9300 C   0  0  0  0  0
   38.5490  -17.2490   29.1090 C   0  0  0  0  0
   39.2690  -18.5290   29.4730 C   0  0  0  0  0
   38.4980  -15.1320   24.9770 C   0  0  0  0  0
   39.9520  -20.7580   28.8320 C   0  0  0  0  0
   39.8120  -23.7900   29.6700 C   0  0  0  0  0
   33.6880  -14.0890   29.6900 Cl  0  0  0  0  0
   35.0900  -14.3900   28.6980 C   0  0  0  0  0
   35.6140  -13.3640   27.9350 C   0  0  0  0  0
   36.7440  -13.6050   27.1580 C   0  0  0  0  0
   37.3300  -14.8710   27.1510 C   0  0  0  0  0
   38.4730  -15.1030   26.3290 N   0  0  0  0  0
   39.7330  -15.3710   26.7590 N   0  0  0  0  0
   40.4470  -15.5580   25.6900 N   0  0  0  0  0
   39.7060  -15.4080   24.5670 N   0  0  0  0  0
   35.6610  -15.6470   28.7070 C   0  0  0  0  0
   39.7750  -18.6700   30.5860 O   0  0  0  0  0
   39.3280  -19.4740   28.5240 N   0  0  0  0  0
   39.3950  -21.9350   28.0020 C   0  0  0  0  0
   40.0200  -23.2550   28.3970 C   0  0  0  0  0
   40.5610  -24.8630   30.1230 C   0  0  0  0  0
   41.5100  -25.4440   29.3060 C   0  0  0  0  0
   41.6950  -24.9600   28.0210 C   0  0  0  0  0
   40.9500  -23.8780   27.5670 C   0  0  0  0  0
   41.4520  -20.7160   28.8000 C   0  0  0  0  0
   42.2330  -20.9820   29.8930 N   0  0  0  0  0
   43.5520  -20.9330   29.4960 C   0  0  0  0  0
   43.5330  -20.6250   28.1300 C   0  0  0  0  0
   44.8310  -20.4020   27.0230 Cl  0  0  0  0  0
   42.2450  -20.4920   27.7150 N   0  0  0  0  0
   44.6250  -21.2150   30.4640 C   0  0  0  0  0
   45.9030  -20.6820   30.2930 C   0  0  0  0  0
   46.9280  -21.0160   31.1650 C   0  0  0  0  0
   46.6830  -21.8640   32.2480 C   0  0  0  0  0
   45.4010  -22.3670   32.4390 C   0  0  0  0  0
   44.3890  -22.0530   31.5530 C   0  0  0  0  0
   47.6690  -22.2840   33.1770 N   0  0  0  0  0
   48.9710  -21.8830   33.2400 C   0  0  0  0  0
   49.5510  -21.1740   32.4420 O   0  0  0  0  0
   49.5330  -22.4000   34.3470 O   0  0  0  0  0
   50.9710  -22.2360   34.4710 C   0  0  0  0  0
   37.8591  -17.5604   27.0718 H   0  0  0  0  0
   36.6753  -18.0156   28.3185 H   0  0  0  0  0
   38.0438  -16.9447   30.0257 H   0  0  0  0  0
   39.3214  -16.6073   28.6851 H   0  0  0  0  0
   37.6403  -14.9523   24.3288 H   0  0  0  0  0
   39.6680  -20.9527   29.8662 H   0  0  0  0  0
   39.0489  -23.3567   30.3165 H   0  0  0  0  0
   35.1486  -12.3784   27.9413 H   0  0  0  0  0
   37.1711  -12.8039   26.5547 H   0  0  0  0  0
   35.2292  -16.4373   29.3211 H   0  0  0  0  0
   38.9412  -19.2981   27.5967 H   0  0  0  0  0
   39.6248  -21.7502   26.9527 H   0  0  0  0  0
   38.3217  -21.9996   28.1809 H   0  0  0  0  0
   40.4005  -25.2505   31.1291 H   0  0  0  0  0
   42.1100  -26.2782   29.6695 H   0  0  0  0  0
   42.4272  -25.4293   27.3640 H   0  0  0  0  0
   41.0948  -23.5127   26.5503 H   0  0  0  0  0
   46.0972  -19.9975   29.4673 H   0  0  0  0  0
   47.9290  -20.6154   31.0049 H   0  0  0  0  0
   45.1935  -23.0125   33.2924 H   0  0  0  0  0
   43.3922  -22.4660   31.7073 H   0  0  0  0  0
   47.3705  -22.9629   33.8773 H   0  0  0  0  0
   51.4646  -22.7193   33.6279 H   0  0  0  0  0
   51.2151  -21.1737   34.4763 H   0  0  0  0  0
   51.3085  -22.6924   35.4015 H   0  0  0  0  0
  1  2  1  0  0  0
  3  1  1  0  0  0
  2 12  4  0  0  0
  2 17  4  0  0  0
  4  3  1  0  0  0
  4 18  2  0  0  0
 19  4  1  0  0  0
 13  5  4  0  0  0
  5 16  4  0  0  0
  6 19  1  0  0  0
 20  6  1  0  0  0
  6 26  1  0  0  0
 21  7  4  0  0  0
  7 22  4  0  0  0
  9  8  1  0  0  0
  9 10  4  0  0  0
 17  9  4  0  0  0
 11 10  4  0  0  0
 12 11  4  0  0  0
 12 13  1  0  0  0
 13 14  4  0  0  0
 14 15  4  0  0  0
 15 16  4  0  0  0
 20 21  1  0  0  0
 21 25  4  0  0  0
 22 23  4  0  0  0
 23 24  4  0  0  0
 24 25  4  0  0  0
 26 27  4  0  0  0
 26 31  4  0  0  0
 27 28  4  0  0  0
 28 29  4  0  0  0
 28 32  1  0  0  0
 29 30  1  0  0  0
 29 31  4  0  0  0
 32 33  4  0  0  0
 32 37  4  0  0  0
 33 34  4  0  0  0
 34 35  4  0  0  0
 35 36  4  0  0  0
 35 38  1  0  0  0
 36 37  4  0  0  0
 38 39  1  0  0  0
 39 40  2  0  0  0
 39 41  1  0  0  0
 41 42  1  0  0  0
  1 43  1  0  0  0
  1 44  1  0  0  0
  3 45  1  0  0  0
  3 46  1  0  0  0
  5 47  1  0  0  0
  6 48  1  0  0  0
  7 49  1  0  0  0
 10 50  1  0  0  0
 11 51  1  0  0  0
 17 52  1  0  0  0
 19 53  1  0  0  0
 20 54  1  0  0  0
 20 55  1  0  0  0
 22 56  1  0  0  0
 23 57  1  0  0  0
 24 58  1  0  0  0
 25 59  1  0  0  0
 33 60  1  0  0  0
 34 61  1  0  0  0
 36 62  1  0  0  0
 37 63  1  0  0  0
 38 64  1  0  0  0
 42 65  1  0  0  0
 42 66  1  0  0  0
 42 67  1  0  0  0
M  END
$$$$
