4hev_ligand
  -I-interpret- 

 34 36  0  0  0  0  0  0  0  0999 V2000
   -4.7640   -4.4020   21.8480 O   0  0  0  0  0
   -4.5100   -5.1650   22.7670 C   0  0  0  0  0
   -3.9400   -4.7570   23.8960 N   0  0  0  0  0
   -3.8220   -3.3930   24.1520 O   0  0  0  0  0
   -4.8460   -6.6350   22.6570 C   0  0  0  0  0
   -3.9580   -7.3250   21.6240 C   0  0  0  0  0
   -2.5790   -6.6760   21.5820 C   0  0  0  0  0
   -1.7140   -7.3700   20.5360 C   0  0  0  0  0
   -3.8030   -8.7920   22.0010 C   0  0  0  0  0
   -2.9420   -9.5080   20.9630 C   0  0  0  0  0
   -3.6020   -9.3930   19.5940 C   0  0  0  0  0
   -1.5700   -8.8430   20.9030 C   0  0  0  0  0
   -4.6320   -7.2370   20.2620 C   0  0  0  0  0
   -3.7680   -7.9250   19.2120 C   0  0  0  0  0
   -2.3980   -7.2530   19.1780 C   0  0  0  0  0
   -3.5913   -5.4381   24.5705 H   0  0  0  0  0
   -3.3920   -3.2638   25.0005 H   0  0  0  0  0
   -5.8857   -6.7331   22.3449 H   0  0  0  0  0
   -4.6824   -7.1041   23.6272 H   0  0  0  0  0
   -2.1067   -6.7691   22.5599 H   0  0  0  0  0
   -2.6839   -5.6227   21.3219 H   0  0  0  0  0
   -0.7285   -6.9058   20.4971 H   0  0  0  0  0
   -4.7869   -9.2598   22.0360 H   0  0  0  0  0
   -3.3228   -8.8633   22.9769 H   0  0  0  0  0
   -2.8374  -10.5573   21.2389 H   0  0  0  0  0
   -4.5834   -9.8660   19.6297 H   0  0  0  0  0
   -2.9741   -9.8864   18.8521 H   0  0  0  0  0
   -1.0922   -8.9222   21.8795 H   0  0  0  0  0
   -0.9647   -9.3417   20.1460 H   0  0  0  0  0
   -4.7615   -6.1891   19.9914 H   0  0  0  0  0
   -5.6031   -7.7298   20.3083 H   0  0  0  0  0
   -4.2379   -7.8498   18.2314 H   0  0  0  0  0
   -1.7804   -7.7443   18.4261 H   0  0  0  0  0
   -2.5261   -6.1982   18.9350 H   0  0  0  0  0
  1  2  2  0  0  0
  2  3  1  0  0  0
  2  5  1  0  0  0
  3  4  1  0  0  0
  5  6  1  0  0  0
  6  7  1  0  0  0
  6  9  1  0  0  0
  6 13  1  0  0  0
  7  8  1  0  0  0
  8 12  1  0  0  0
  8 15  1  0  0  0
  9 10  1  0  0  0
 10 11  1  0  0  0
 10 12  1  0  0  0
 11 14  1  0  0  0
 13 14  1  0  0  0
 14 15  1  0  0  0
  3 16  1  0  0  0
  4 17  1  0  0  0
  5 18  1  0  0  0
  5 19  1  0  0  0
  7 20  1  0  0  0
  7 21  1  0  0  0
  8 22  1  0  0  0
  9 23  1  0  0  0
  9 24  1  0  0  0
 10 25  1  0  0  0
 11 26  1  0  0  0
 11 27  1  0  0  0
 12 28  1  0  0  0
 12 29  1  0  0  0
 13 30  1  0  0  0
 13 31  1  0  0  0
 14 32  1  0  0  0
 15 33  1  0  0  0
 15 34  1  0  0  0
M  END
$$$$
