4oeg_ligand
  -I-interpret- 

 64 65  0  0  0  0  0  0  0  0999 V2000
   13.5200  -18.8250   19.8740 N   0  0  0  0  0
   13.4050  -19.3160   22.2420 C   0  0  0  0  0
   13.9550  -17.3650   19.5970 S   0  0  0  0  0
   14.2010  -19.5650   20.9560 C   0  0  0  0  0
   16.7500  -22.4500   25.3920 S   0  0  0  0  0
   14.2580  -21.0710   20.6510 C   0  0  0  0  0
   15.1770  -21.3130   19.5870 O   0  0  0  0  0
   14.8420  -22.2570   18.4250 S   0  0  0  0  0
   14.7380  -21.8220   21.8900 C   0  0  0  0  0
   14.7080  -23.2370   21.6680 O   0  0  0  0  0
   13.8890  -21.4780   23.1040 C   0  0  0  0  0
   13.9590  -20.0700   23.3330 O   0  0  0  0  0
   14.4360  -22.1930   24.3300 C   0  0  0  0  0
   15.7460  -21.6780   24.5340 O   0  0  0  0  0
   13.6170  -16.5240   20.7560 O   0  0  0  0  0
   15.4130  -17.3900   19.3700 O   0  0  0  0  0
   13.2230  -16.8990   18.3970 O   0  0  0  0  0
   16.9040  -23.7980   24.7940 O   0  0  0  0  0
   18.0420  -21.7400   25.4000 O   0  0  0  0  0
   16.2000  -22.5420   26.7590 O   0  0  0  0  0
   15.6410  -23.4910   18.5990 O   0  0  0  0  0
   13.3980  -22.5560   18.4690 O   0  0  0  0  0
   15.1730  -21.6220   17.1330 O   0  0  0  0  0
    9.7610  -18.3400   18.4610 S   0  0  0  0  0
    8.5910  -19.2870   21.5270 C   0  0  0  0  0
    7.5780  -18.6470   22.2990 O   0  0  0  0  0
    9.5740  -18.2280   21.0200 C   0  0  0  0  0
   10.2570  -18.7260   19.8630 O   0  0  0  0  0
   10.5750  -17.7710   22.0830 C   0  0  0  0  0
    9.9380  -16.8240   22.9430 O   0  0  0  0  0
   11.1110  -18.9140   22.9400 C   0  0  0  0  0
   12.0280  -19.7010   22.1700 O   0  0  0  0  0
    9.9610  -19.7840   23.4280 C   0  0  0  0  0
    9.2590  -20.2970   22.2980 O   0  0  0  0  0
   10.5120  -20.9190   24.2330 C   0  0  0  0  0
    6.4140  -19.4640   22.4240 C   0  0  0  0  0
   10.0890  -22.0710   24.0040 O   0  0  0  0  0
   11.3760  -20.6650   25.0970 O   0  0  0  0  0
   10.6270  -19.0500   17.4990 O   0  0  0  0  0
    9.8620  -16.8760   18.3620 O   0  0  0  0  0
    8.3600  -18.8170   18.3450 O   0  0  0  0  0
   12.7822  -19.2645   19.3235 H   0  0  0  0  0
   13.4694  -18.2379   22.3888 H   0  0  0  0  0
   15.2302  -19.2202   21.0562 H   0  0  0  0  0
   13.2634  -21.4139   20.3658 H   0  0  0  0  0
   15.7650  -21.5123   22.0836 H   0  0  0  0  0
   15.2446  -23.4509   20.9013 H   0  0  0  0  0
   12.8590  -21.7865   22.9249 H   0  0  0  0  0
   14.4556  -23.2726   24.1808 H   0  0  0  0  0
   13.8044  -22.0205   25.2015 H   0  0  0  0  0
   13.4515  -17.4548   17.6483 H   0  0  0  0  0
   16.0553  -24.2467   24.7962 H   0  0  0  0  0
   16.5754  -23.2730   18.5671 H   0  0  0  0  0
    8.1371  -19.7871   20.6714 H   0  0  0  0  0
    8.9907  -17.3448   20.7595 H   0  0  0  0  0
   11.4219  -17.3354   21.5529 H   0  0  0  0  0
   10.5606  -16.5326   23.6131 H   0  0  0  0  0
   11.6297  -18.5010   23.8052 H   0  0  0  0  0
    9.2825  -19.1963   24.0463 H   0  0  0  0  0
    6.0104  -19.6732   21.4333 H   0  0  0  0  0
    6.6799  -20.4004   22.9146 H   0  0  0  0  0
    5.6661  -18.9401   23.0192 H   0  0  0  0  0
    9.4324  -22.0364   23.3045 H   0  0  0  0  0
    7.8098  -18.3469   18.9758 H   0  0  0  0  0
  1  3  1  0  0  0
  4  1  1  0  0  0
  2  4  1  0  0  0
  2 12  1  0  0  0
 32  2  1  0  0  0
  3 15  2  0  0  0
  3 16  2  0  0  0
  3 17  1  0  0  0
  4  6  1  0  0  0
 14  5  1  0  0  0
  5 18  1  0  0  0
  5 19  2  0  0  0
  5 20  2  0  0  0
  6  7  1  0  0  0
  6  9  1  0  0  0
  7  8  1  0  0  0
  8 21  1  0  0  0
  8 22  2  0  0  0
  8 23  2  0  0  0
  9 10  1  0  0  0
 11  9  1  0  0  0
 12 11  1  0  0  0
 11 13  1  0  0  0
 13 14  1  0  0  0
 28 24  1  0  0  0
 24 39  2  0  0  0
 24 40  2  0  0  0
 24 41  1  0  0  0
 25 26  1  0  0  0
 27 25  1  0  0  0
 25 34  1  0  0  0
 26 36  1  0  0  0
 27 28  1  0  0  0
 29 27  1  0  0  0
 29 30  1  0  0  0
 31 29  1  0  0  0
 31 32  1  0  0  0
 31 33  1  0  0  0
 33 34  1  0  0  0
 33 35  1  0  0  0
 35 37  1  0  0  0
 35 38  2  0  0  0
  1 42  1  0  0  0
  2 43  1  0  0  0
  4 44  1  0  0  0
  6 45  1  0  0  0
  9 46  1  0  0  0
 10 47  1  0  0  0
 11 48  1  0  0  0
 13 49  1  0  0  0
 13 50  1  0  0  0
 17 51  1  0  0  0
 18 52  1  0  0  0
 21 53  1  0  0  0
 25 54  1  0  0  0
 27 55  1  0  0  0
 29 56  1  0  0  0
 30 57  1  0  0  0
 31 58  1  0  0  0
 33 59  1  0  0  0
 36 60  1  0  0  0
 36 61  1  0  0  0
 36 62  1  0  0  0
 37 63  1  0  0  0
 41 64  1  0  0  0
M  END
$$$$
