4dvi_ligand
  -I-interpret- 

 53 58  0  0  0  0  0  0  0  0999 V2000
   -4.0410   44.6030   26.7270 C   0  0  0  0  0
   -6.0050   43.3070   26.9170 N   0  0  0  0  0
   -3.9120   42.1870   26.8600 O   0  0  0  0  0
   -3.3630   45.1160   28.0730 C   0  0  0  0  0
  -13.0290   40.0250   29.3460 N   0  0  0  0  0
   -7.6070   45.0120   27.0530 O   0  0  0  0  0
   -5.2680   45.5440   26.8410 C   0  0  0  0  0
  -10.5210   39.0580   28.0520 N   0  0  0  0  0
   -9.1860   37.8050   26.6530 O   0  0  0  0  0
   -4.6250   43.1880   26.8460 C   0  0  0  0  0
   -6.4600   44.6020   26.9500 C   0  0  0  0  0
   -5.1390   46.4670   28.1660 C   0  0  0  0  0
   -4.1390   44.5380   29.2590 C   0  0  0  0  0
   -3.6140   46.5880   28.1720 C   0  0  0  0  0
   -5.1400   45.4630   29.3620 C   0  0  0  0  0
  -11.5650   38.1740   28.2460 C   0  0  0  0  0
   -9.4050   38.8610   27.2580 C   0  0  0  0  0
  -15.3130   39.5990   30.1570 C   0  0  0  0  0
  -15.1940   38.2200   29.7200 C   0  0  0  0  0
  -13.9770   37.7040   29.0700 C   0  0  0  0  0
  -12.8080   38.6700   28.8810 C   0  0  0  0  0
  -14.1910   40.5100   29.9650 C   0  0  0  0  0
  -13.7680   36.3300   28.6290 C   0  0  0  0  0
  -12.5340   35.8550   28.0140 C   0  0  0  0  0
  -11.4400   36.7710   27.8310 C   0  0  0  0  0
  -16.3850   37.3710   29.9340 C   0  0  0  0  0
   -7.9910   40.5720   28.4090 C   0  0  0  0  0
   -7.1310   41.7170   28.2900 C   0  0  0  0  0
   -6.8200   42.2350   26.9700 C   0  0  0  0  0
   -7.3270   41.6750   25.7380 C   0  0  0  0  0
   -8.1920   40.5260   25.8480 C   0  0  0  0  0
   -8.4980   40.0150   27.1790 C   0  0  0  0  0
   -3.3879   44.5964   25.8544 H   0  0  0  0  0
   -2.3075   44.8439   28.0773 H   0  0  0  0  0
   -5.3598   46.2243   25.9943 H   0  0  0  0  0
  -10.5790   39.9487   28.5456 H   0  0  0  0  0
   -5.8239   47.3141   28.2019 H   0  0  0  0  0
   -3.9479   43.6438   29.8522 H   0  0  0  0  0
   -3.1632   47.2210   27.4076 H   0  0  0  0  0
   -3.1610   47.1134   29.0128 H   0  0  0  0  0
   -5.8557   45.4960   30.1834 H   0  0  0  0  0
  -16.2329   39.9503   30.6245 H   0  0  0  0  0
  -14.2536   41.5468   30.2956 H   0  0  0  0  0
  -14.5808   35.6170   28.7669 H   0  0  0  0  0
  -12.4415   34.8165   27.6962 H   0  0  0  0  0
  -10.5111   36.4209   27.3808 H   0  0  0  0  0
  -16.6171   37.3344   30.9984 H   0  0  0  0  0
  -17.2314   37.7910   29.3905 H   0  0  0  0  0
  -16.1817   36.3638   29.5703 H   0  0  0  0  0
   -8.2471   40.1462   29.3792 H   0  0  0  0  0
   -6.7172   42.1909   29.1801 H   0  0  0  0  0
   -7.0674   42.1017   24.7692 H   0  0  0  0  0
   -8.6065   40.0516   24.9585 H   0  0  0  0  0
  1  4  1  0  0  0
  7  1  1  0  0  0
 10  1  1  0  0  0
  2 10  1  0  0  0
  2 11  1  0  0  0
 29  2  1  0  0  0
 10  3  2  0  0  0
  4 13  1  0  0  0
  4 14  1  0  0  0
 21  5  4  0  0  0
  5 22  4  0  0  0
 11  6  2  0  0  0
 11  7  1  0  0  0
  7 12  1  0  0  0
  8 16  1  0  0  0
 17  8  1  0  0  0
 17  9  2  0  0  0
 12 14  1  0  0  0
 12 15  1  0  0  0
 15 13  2  0  0  0
 16 21  4  0  0  0
 16 25  4  0  0  0
 32 17  1  0  0  0
 19 18  4  0  0  0
 22 18  4  0  0  0
 20 19  4  0  0  0
 19 26  1  0  0  0
 21 20  4  0  0  0
 20 23  4  0  0  0
 24 23  4  0  0  0
 25 24  4  0  0  0
 28 27  4  0  0  0
 27 32  4  0  0  0
 28 29  4  0  0  0
 29 30  4  0  0  0
 30 31  4  0  0  0
 31 32  4  0  0  0
  1 33  1  0  0  0
  4 34  1  0  0  0
  7 35  1  0  0  0
  8 36  1  0  0  0
 12 37  1  0  0  0
 13 38  1  0  0  0
 14 39  1  0  0  0
 14 40  1  0  0  0
 15 41  1  0  0  0
 18 42  1  0  0  0
 22 43  1  0  0  0
 23 44  1  0  0  0
 24 45  1  0  0  0
 25 46  1  0  0  0
 26 47  1  0  0  0
 26 48  1  0  0  0
 26 49  1  0  0  0
 27 50  1  0  0  0
 28 51  1  0  0  0
 30 52  1  0  0  0
 31 53  1  0  0  0
M  END
$$$$
