4h4m_ligand
  -I-interpret- 

 45 47  0  0  0  0  0  0  0  0999 V2000
  270.2100  -24.0190   19.6490 C   0  0  0  0  0
  271.0880  -23.2230   18.8850 C   0  0  0  0  0
  272.3090  -22.7770   19.4290 C   0  0  0  0  0
  272.6400  -23.1390   20.7460 C   0  0  0  0  0
  271.7700  -23.9460   21.5330 C   0  0  0  0  0
  270.5160  -24.4000   20.9780 C   0  0  0  0  0
  270.6510  -22.7970   17.2810 Cl  0  0  0  0  0
  272.1740  -24.2400   22.8170 O   0  0  0  0  0
  269.5100  -25.1810   21.5400 O   0  0  0  0  0
  272.0060  -23.3130   23.8220 C   0  0  0  0  0
  271.2750  -22.1110   23.6450 C   0  0  0  0  0
  271.1350  -21.1950   24.6970 C   0  0  0  0  0
  271.7250  -21.4780   25.9470 C   0  0  0  0  0
  272.4650  -22.6680   26.1680 C   0  0  0  0  0
  272.5950  -23.5850   25.0820 C   0  0  0  0  0
  270.2410  -19.7520   24.4260 Cl  0  0  0  0  0
  273.0270  -22.8510   27.4910 C   0  0  0  0  0
  269.5520  -25.7170   22.8590 C   0  0  0  0  0
  268.5460  -26.8680   23.0310 C   0  0  0  0  0
  269.1440  -28.1570   22.6350 N   0  0  0  0  0
  268.8540  -28.7560   21.4330 C   0  0  0  0  0
  269.4750  -29.9400   21.2040 N   0  0  0  0  0
  270.3460  -30.6030   22.0070 C   0  0  0  0  0
  270.6340  -29.9380   23.2860 C   0  0  0  0  0
  270.0380  -28.7490   23.5670 C   0  0  0  0  0
  268.0860  -28.2810   20.5960 O   0  0  0  0  0
  270.8370  -31.6800   21.6650 O   0  0  0  0  0
  273.8540  -23.8590   27.8110 C   0  0  0  0  0
  274.6700  -23.8320   28.9800 C   0  0  0  0  0
  275.3300  -23.8100   29.9290 N   0  0  0  0  0
  269.2711  -24.3497   19.2049 H   0  0  0  0  0
  272.9862  -22.1608   18.8375 H   0  0  0  0  0
  273.5818  -22.7950   21.1737 H   0  0  0  0  0
  270.8165  -21.8967   22.6796 H   0  0  0  0  0
  271.6094  -20.7647   26.7630 H   0  0  0  0  0
  273.1559  -24.5087   25.2239 H   0  0  0  0  0
  272.7645  -22.1324   28.2674 H   0  0  0  0  0
  269.2946  -24.9250   23.5623 H   0  0  0  0  0
  270.5543  -26.1036   23.0432 H   0  0  0  0  0
  267.6813  -26.6742   22.3963 H   0  0  0  0  0
  268.2560  -26.9249   24.0802 H   0  0  0  0  0
  269.2599  -30.3900   20.3142 H   0  0  0  0  0
  271.3184  -30.3936   24.0016 H   0  0  0  0  0
  270.2470  -28.2474   24.5119 H   0  0  0  0  0
  273.9034  -24.7278   27.1547 H   0  0  0  0  0
  1  2  4  0  0  0
  1  6  4  0  0  0
  2  3  4  0  0  0
  2  7  1  0  0  0
  3  4  4  0  0  0
  4  5  4  0  0  0
  5  6  4  0  0  0
  5  8  1  0  0  0
  6  9  1  0  0  0
  8 10  1  0  0  0
  9 18  1  0  0  0
 10 11  4  0  0  0
 10 15  4  0  0  0
 11 12  4  0  0  0
 12 13  4  0  0  0
 12 16  1  0  0  0
 13 14  4  0  0  0
 14 15  4  0  0  0
 14 17  1  0  0  0
 17 28  2  0  0  0
 18 19  1  0  0  0
 19 20  1  0  0  0
 20 21  1  0  0  0
 20 25  1  0  0  0
 21 22  1  0  0  0
 21 26  2  0  0  0
 22 23  1  0  0  0
 23 24  1  0  0  0
 23 27  2  0  0  0
 24 25  2  0  0  0
 28 29  1  0  0  0
 29 30  3  0  0  0
  1 31  1  0  0  0
  3 32  1  0  0  0
  4 33  1  0  0  0
 11 34  1  0  0  0
 13 35  1  0  0  0
 15 36  1  0  0  0
 17 37  1  0  0  0
 18 38  1  0  0  0
 18 39  1  0  0  0
 19 40  1  0  0  0
 19 41  1  0  0  0
 22 42  1  0  0  0
 24 43  1  0  0  0
 25 44  1  0  0  0
 28 45  1  0  0  0
M  END
$$$$
