1mqi_ligand
  -I-interpret- 

 24 24  0  0  0  0  0  0  0  0999 V2000
   16.3460    1.7690   15.4420 N   0  0  0  0  0
   16.4520    0.4720   14.8800 C   0  0  0  0  0
   16.4860   -0.5540   15.5220 O   0  0  0  0  0
   16.5110    0.4660   13.4730 N   0  0  0  0  0
   16.4800    1.5440   12.6260 C   0  0  0  0  0
   16.5550    1.4430   11.4210 O   0  0  0  0  0
   16.3720    2.8640   13.3280 C   0  0  0  0  0
   16.3160    3.9720   12.5750 F   0  0  0  0  0
   16.2890    2.8890   14.6780 C   0  0  0  0  0
   16.2070    1.8990   16.8970 C   0  0  0  0  0
   14.8860    1.3810   17.4490 C   0  0  0  0  0
   13.7800    2.3630   17.1840 N   0  3  0  0  0
   14.9390    1.0120   18.9290 C   0  0  0  0  0
   14.1300    1.5030   19.6780 O   0  0  0  0  0
   15.9070    0.2240   19.2430 O   0  0  0  0  0
   16.5858   -0.4501   13.0309 H   0  0  0  0  0
   16.1710    3.8522   15.1744 H   0  0  0  0  0
   16.2570    2.9626   17.1302 H   0  0  0  0  0
   16.9995    1.3028   17.3494 H   0  0  0  0  0
   14.6806    0.4522   16.9169 H   0  0  0  0  0
   12.9053    1.9979   17.5608 H   0  0  0  0  0
   14.0008    3.2515   17.6337 H   0  0  0  0  0
   13.6858    2.5038   16.1782 H   0  0  0  0  0
   16.3937   -0.0147   18.4507 H   0  0  0  0  0
  1  2  1  0  0  0
  1  9  1  0  0  0
  1 10  1  0  0  0
  2  3  2  0  0  0
  2  4  1  0  0  0
  4  5  1  0  0  0
  5  6  2  0  0  0
  5  7  1  0  0  0
  7  8  1  0  0  0
  7  9  2  0  0  0
 10 11  1  0  0  0
 11 12  1  0  0  0
 11 13  1  0  0  0
 13 14  2  0  0  0
 13 15  1  0  0  0
  4 16  1  0  0  0
  9 17  1  0  0  0
 10 18  1  0  0  0
 10 19  1  0  0  0
 11 20  1  0  0  0
 12 21  1  0  0  0
 12 22  1  0  0  0
 12 23  1  0  0  0
 15 24  1  0  0  0
M  END
$$$$
