6fo7_ligand
  -I-interpret- 

 73 74  0  0  0  0  0  0  0  0999 V2000
   -3.9640   34.0940   36.2100 C   0  0  0  0  0
   -3.4620   34.5700   37.5230 C   0  0  0  0  0
   -2.0780   35.1390   37.4630 C   0  0  0  0  0
   -1.4880   35.1870   38.8600 C   0  0  0  0  0
   -0.0310   35.5380   38.9150 C   0  0  0  0  0
    4.8130   28.5350   34.0790 O   0  0  0  0  0
    4.3130   29.5960   33.2380 C   0  0  0  0  0
    5.4390   30.5870   32.9870 C   0  0  0  0  0
    3.8600   28.9870   31.9250 C   0  0  0  0  0
    3.1280   30.2480   33.9610 C   0  0  0  0  0
    3.3880   31.0450   35.2350 C   0  0  0  0  0
    2.9370   30.3500   36.5090 C   0  0  0  0  0
    1.4880   30.5820   36.8970 C   0  0  0  0  0
    1.2720   30.7130   38.4000 C   0  0  0  0  0
    1.5710   32.0990   38.9150 C   0  0  0  0  0
    0.6580   33.1350   38.7220 C   0  0  0  0  0
    2.7780   32.3780   39.5410 C   0  0  0  0  0
    3.0840   33.6650   39.9470 C   0  0  0  0  0
    2.1830   34.6920   39.7340 C   0  0  0  0  0
    0.9550   34.4380   39.1230 C   0  0  0  0  0
    0.4610   36.8000   38.7970 C   0  0  0  0  0
   -0.2470   38.0340   38.5930 C   0  0  0  0  0
    0.2910   39.2390   38.2470 C   0  0  0  0  0
    1.7240   39.3910   37.9660 C   0  0  0  0  0
    2.3570   38.5320   37.1860 C   0  0  0  0  0
    2.3030   40.6430   38.5850 C   0  0  0  0  0
    3.6830   40.7540   38.2160 O   0  0  0  0  0
    1.5130   41.8260   38.0380 C   0  0  0  0  0
    0.0750   41.7600   38.5190 C   0  0  0  0  0
    0.0650   41.8070   39.9470 O   0  0  0  0  0
   -0.5700   40.4710   38.0330 C   0  0  0  0  0
   -3.9829   34.9262   35.5063 H   0  0  0  0  0
   -3.3052   33.3121   35.8323 H   0  0  0  0  0
   -4.9713   33.6954   36.3304 H   0  0  0  0  0
   -3.4343   33.7114   38.1939 H   0  0  0  0  0
   -4.1283   35.3641   37.8601 H   0  0  0  0  0
   -2.1180   36.1475   37.0513 H   0  0  0  0  0
   -1.4546   34.5102   36.8274 H   0  0  0  0  0
   -1.5888   34.1866   39.2809 H   0  0  0  0  0
   -2.0223   35.9668   39.4028 H   0  0  0  0  0
    4.1107   27.9019   34.2451 H   0  0  0  0  0
    6.2782   30.0710   32.5206 H   0  0  0  0  0
    5.0845   31.3780   32.3262 H   0  0  0  0  0
    5.7585   31.0198   33.9350 H   0  0  0  0  0
    3.5042   29.7767   31.2633 H   0  0  0  0  0
    4.6979   28.4697   31.4577 H   0  0  0  0  0
    3.0535   28.2785   32.1137 H   0  0  0  0  0
    2.4972   29.4159   34.2738 H   0  0  0  0  0
    2.7307   30.9739   33.2515 H   0  0  0  0  0
    2.8192   31.9715   35.1560 H   0  0  0  0  0
    4.4661   31.1867   35.3108 H   0  0  0  0  0
    3.5452   30.7555   37.3176 H   0  0  0  0  0
    3.0459   29.2794   36.3356 H   0  0  0  0  0
    0.9168   29.7174   36.5590 H   0  0  0  0  0
    1.1731   31.5195   36.4387 H   0  0  0  0  0
    1.9502   30.0189   38.8964 H   0  0  0  0  0
    0.2233   30.4993   38.6064 H   0  0  0  0  0
   -0.3020   32.9239   38.2509 H   0  0  0  0  0
    3.4931   31.5740   39.7148 H   0  0  0  0  0
    4.0367   33.8695   40.4355 H   0  0  0  0  0
    2.4338   35.7060   40.0454 H   0  0  0  0  0
    1.5452   36.8883   38.8670 H   0  0  0  0  0
   -1.3280   38.0039   38.7291 H   0  0  0  0  0
    1.8148   37.6972   36.7419 H   0  0  0  0  0
    3.4212   38.6584   36.9869 H   0  0  0  0  0
    2.2374   40.6159   39.6727 H   0  0  0  0  0
    4.0548   41.5480   38.6071 H   0  0  0  0  0
    1.5277   41.7930   36.9486 H   0  0  0  0  0
    1.9660   42.7525   38.3908 H   0  0  0  0  0
   -0.4899   42.6034   38.1219 H   0  0  0  0  0
   -0.8412   41.7658   40.2611 H   0  0  0  0  0
   -1.4877   40.3304   38.6041 H   0  0  0  0  0
   -0.7327   40.5725   36.9600 H   0  0  0  0  0
  2  1  1  0  0  0
  3  2  1  0  0  0
  4  3  1  0  0  0
  5  4  1  0  0  0
 20  5  1  0  0  0
  5 21  2  0  0  0
  7  6  1  0  0  0
  7  8  1  0  0  0
  7  9  1  0  0  0
 10  7  1  0  0  0
 11 10  1  0  0  0
 12 11  1  0  0  0
 13 12  1  0  0  0
 14 13  1  0  0  0
 15 14  1  0  0  0
 16 15  4  0  0  0
 15 17  4  0  0  0
 16 20  4  0  0  0
 17 18  4  0  0  0
 18 19  4  0  0  0
 19 20  4  0  0  0
 21 22  1  0  0  0
 22 23  2  0  0  0
 23 24  1  0  0  0
 23 31  1  0  0  0
 24 25  2  0  0  0
 24 26  1  0  0  0
 26 27  1  0  0  0
 26 28  1  0  0  0
 28 29  1  0  0  0
 29 30  1  0  0  0
 29 31  1  0  0  0
  1 32  1  0  0  0
  1 33  1  0  0  0
  1 34  1  0  0  0
  2 35  1  0  0  0
  2 36  1  0  0  0
  3 37  1  0  0  0
  3 38  1  0  0  0
  4 39  1  0  0  0
  4 40  1  0  0  0
  6 41  1  0  0  0
  8 42  1  0  0  0
  8 43  1  0  0  0
  8 44  1  0  0  0
  9 45  1  0  0  0
  9 46  1  0  0  0
  9 47  1  0  0  0
 10 48  1  0  0  0
 10 49  1  0  0  0
 11 50  1  0  0  0
 11 51  1  0  0  0
 12 52  1  0  0  0
 12 53  1  0  0  0
 13 54  1  0  0  0
 13 55  1  0  0  0
 14 56  1  0  0  0
 14 57  1  0  0  0
 16 58  1  0  0  0
 17 59  1  0  0  0
 18 60  1  0  0  0
 19 61  1  0  0  0
 21 62  1  0  0  0
 22 63  1  0  0  0
 25 64  1  0  0  0
 25 65  1  0  0  0
 26 66  1  0  0  0
 27 67  1  0  0  0
 28 68  1  0  0  0
 28 69  1  0  0  0
 29 70  1  0  0  0
 30 71  1  0  0  0
 31 72  1  0  0  0
 31 73  1  0  0  0
M  END
$$$$
