5vom_ligand
  -I-interpret- 

 54 57  0  0  0  0  0  0  0  0999 V2000
    1.7530   20.4960   -6.0920 C   0  0  0  0  0
    3.2170   20.7000   -5.9490 N   0  0  0  0  0
    3.9900   19.6290   -5.7430 C   0  0  0  0  0
    3.5330   18.4890   -5.6920 O   0  0  0  0  0
    5.3650   19.8800   -5.5410 C   0  0  0  0  0
    6.3760   19.2070   -6.2560 C   0  0  0  0  0
    5.7300   20.8010   -4.5510 C   0  0  0  0  0
    7.0770   21.0710   -4.2750 C   0  0  0  0  0
    8.0720   20.4130   -5.0230 C   0  0  0  0  0
    7.7400   19.4580   -6.0000 C   0  0  0  0  0
    8.7590   18.8280   -6.7560 C   0  0  0  0  0
   10.0850   18.6840   -6.3000 C   0  0  0  0  0
   11.0600   18.0310   -7.0770 C   0  0  0  0  0
    8.4860   18.3610   -8.0490 C   0  0  0  0  0
    9.4570   17.7630   -8.8610 C   0  0  0  0  0
   10.7630   17.5900   -8.3680 C   0  0  0  0  0
   11.7820   17.0260   -9.0760 N   0  0  0  0  0
   11.6980   15.9020   -9.8330 C   0  0  0  0  0
   12.6670   15.4620  -10.4460 O   0  0  0  0  0
   10.3390   15.1530   -9.9360 C   0  0  0  0  0
   13.1440   17.6960   -9.0010 C   0  0  0  0  0
   13.4070   18.5580  -10.2490 C   0  0  0  0  0
   13.2880   18.5220   -7.6950 C   0  0  0  0  0
   12.3680   17.9140   -6.6830 N   0  0  0  0  0
   12.9020   17.5080   -5.4960 C   0  0  0  0  0
   14.1250   17.6190   -5.3400 O   0  0  0  0  0
   12.2370   16.8650   -4.5250 C   0  0  0  0  0
   10.9600   16.3700   -4.5880 O   0  0  0  0  0
   10.7450   15.7460   -3.3450 C   0  0  0  0  0
   11.8630   15.8750   -2.6230 C   0  0  0  0  0
   12.7630   16.5530   -3.3350 C   0  0  0  0  0
    1.5599   19.8428   -6.9430 H   0  0  0  0  0
    1.3609   20.0376   -5.1841 H   0  0  0  0  0
    1.2674   21.4584   -6.2535 H   0  0  0  0  0
    3.6226   21.6341   -6.0065 H   0  0  0  0  0
    6.0991   18.4803   -7.0197 H   0  0  0  0  0
    4.9534   21.3163   -3.9858 H   0  0  0  0  0
    7.3504   21.7796   -3.4932 H   0  0  0  0  0
    9.1205   20.6487   -4.8410 H   0  0  0  0  0
   10.3610   19.0867   -5.3254 H   0  0  0  0  0
    7.4739   18.4681   -8.4392 H   0  0  0  0  0
    9.2027   17.4337   -9.8685 H   0  0  0  0  0
   10.0173   15.1282  -10.9771 H   0  0  0  0  0
   10.4581   14.1344   -9.5668 H   0  0  0  0  0
    9.5925   15.6733   -9.3360 H   0  0  0  0  0
   13.9033   16.9143   -8.9787 H   0  0  0  0  0
   13.3764   17.9274  -11.1376 H   0  0  0  0  0
   12.6415   19.3303  -10.3235 H   0  0  0  0  0
   14.3887   19.0244  -10.1665 H   0  0  0  0  0
   13.0291   19.5661   -7.8707 H   0  0  0  0  0
   14.3180   18.5008   -7.3390 H   0  0  0  0  0
    9.8298   15.2464   -3.0273 H   0  0  0  0  0
   12.0140   15.4883   -1.6152 H   0  0  0  0  0
   13.7677   16.8121   -3.0009 H   0  0  0  0  0
  1  2  1  0  0  0
  2  3  1  0  0  0
  3  4  2  0  0  0
  3  5  1  0  0  0
  5  6  4  0  0  0
  5  7  4  0  0  0
  6 10  4  0  0  0
  7  8  4  0  0  0
  8  9  4  0  0  0
  9 10  4  0  0  0
 10 11  1  0  0  0
 11 12  4  0  0  0
 11 14  4  0  0  0
 12 13  4  0  0  0
 13 16  4  0  0  0
 13 24  1  0  0  0
 14 15  4  0  0  0
 15 16  4  0  0  0
 16 17  1  0  0  0
 17 18  1  0  0  0
 17 21  1  0  0  0
 18 19  2  0  0  0
 18 20  1  0  0  0
 21 22  1  0  0  0
 21 23  1  0  0  0
 23 24  1  0  0  0
 24 25  1  0  0  0
 25 26  2  0  0  0
 25 27  1  0  0  0
 27 28  4  0  0  0
 27 31  4  0  0  0
 28 29  4  0  0  0
 29 30  4  0  0  0
 30 31  4  0  0  0
  1 32  1  0  0  0
  1 33  1  0  0  0
  1 34  1  0  0  0
  2 35  1  0  0  0
  6 36  1  0  0  0
  7 37  1  0  0  0
  8 38  1  0  0  0
  9 39  1  0  0  0
 12 40  1  0  0  0
 14 41  1  0  0  0
 15 42  1  0  0  0
 20 43  1  0  0  0
 20 44  1  0  0  0
 20 45  1  0  0  0
 21 46  1  0  0  0
 22 47  1  0  0  0
 22 48  1  0  0  0
 22 49  1  0  0  0
 23 50  1  0  0  0
 23 51  1  0  0  0
 29 52  1  0  0  0
 30 53  1  0  0  0
 31 54  1  0  0  0
M  END
$$$$
