3wkc_ligand
  -I-interpret- 

 38 40  0  0  0  0  0  0  0  0999 V2000
  -13.6730   -3.5510   59.7680 C   0  0  0  0  0
  -11.5370   -4.3000   57.7840 C   0  0  0  0  0
  -13.7460   -4.6650   58.9070 C   0  0  0  0  0
  -12.7610   -4.9140   57.9030 C   0  0  0  0  0
  -14.8390   -3.5650   60.4850 C   0  0  0  0  0
  -14.9340   -5.3420   59.0840 C   0  0  0  0  0
  -12.1830   -5.8720   56.0100 C   0  0  0  0  0
  -18.5990   -6.9170   62.7270 C   0  0  0  0  0
  -18.3580   -5.4800   62.5010 C   0  0  0  0  0
  -17.7580   -7.5230   61.6440 C   0  0  0  0  0
  -16.9560   -5.4950   61.9390 C   0  0  0  0  0
  -15.2280   -2.5860   61.5170 C   0  0  0  0  0
  -15.4940   -6.5530   58.4230 C   0  0  0  0  0
  -16.9310   -5.0530   60.5050 C   0  0  0  0  0
  -13.1280   -5.7840   56.9100 N   0  0  0  0  0
  -15.5820   -4.6620   60.0750 N   0  0  0  0  0
  -12.2480   -6.6380   54.9160 N   0  0  0  0  0
  -16.5310   -6.8190   61.8110 O   0  0  0  0  0
  -10.8110   -4.8990   56.3500 S   0  0  0  0  0
  -12.8592   -2.8301   59.8463 H   0  0  0  0  0
  -11.1086   -3.5703   58.4711 H   0  0  0  0  0
  -19.6504   -7.2003   62.6790 H   0  0  0  0  0
  -18.3372   -7.2553   63.7295 H   0  0  0  0  0
  -18.4612   -4.8733   63.4006 H   0  0  0  0  0
  -19.0884   -5.0136   61.8398 H   0  0  0  0  0
  -18.1883   -7.4202   60.6478 H   0  0  0  0  0
  -17.6551   -8.6051   61.7249 H   0  0  0  0  0
  -16.3614   -4.8646   62.6002 H   0  0  0  0  0
  -14.4922   -2.5958   62.3211 H   0  0  0  0  0
  -15.2709   -1.5909   61.0742 H   0  0  0  0  0
  -16.2074   -2.8502   61.9158 H   0  0  0  0  0
  -15.5939   -6.3682   57.3534 H   0  0  0  0  0
  -14.8239   -7.3971   58.5861 H   0  0  0  0  0
  -16.4727   -6.7772   58.8473 H   0  0  0  0  0
  -17.5862   -4.1879   60.4028 H   0  0  0  0  0
  -17.2587   -5.8873   59.8848 H   0  0  0  0  0
  -13.0767   -7.2059   54.7395 H   0  0  0  0  0
  -11.4689   -6.6545   54.2579 H   0  0  0  0  0
  3  1  4  0  0  0
  5  1  4  0  0  0
  4  2  4  0  0  0
  2 19  4  0  0  0
  3  4  1  0  0  0
  6  3  4  0  0  0
  4 15  4  0  0  0
  5 12  1  0  0  0
 16  5  4  0  0  0
  6 13  1  0  0  0
 16  6  4  0  0  0
 15  7  4  0  0  0
  7 17  1  0  0  0
  7 19  4  0  0  0
  9  8  1  0  0  0
 10  8  1  0  0  0
 11  9  1  0  0  0
 18 10  1  0  0  0
 14 11  1  0  0  0
 11 18  1  0  0  0
 14 16  1  0  0  0
  1 20  1  0  0  0
  2 21  1  0  0  0
  8 22  1  0  0  0
  8 23  1  0  0  0
  9 24  1  0  0  0
  9 25  1  0  0  0
 10 26  1  0  0  0
 10 27  1  0  0  0
 11 28  1  0  0  0
 12 29  1  0  0  0
 12 30  1  0  0  0
 12 31  1  0  0  0
 13 32  1  0  0  0
 13 33  1  0  0  0
 13 34  1  0  0  0
 14 35  1  0  0  0
 14 36  1  0  0  0
 17 37  1  0  0  0
 17 38  1  0  0  0
M  END
$$$$
