5l3a_ligand
  -I-interpret- 

 22 23  0  0  0  0  0  0  0  0999 V2000
   12.8500  -18.8300  -20.0810 C   0  0  0  0  0
   13.6120  -19.9850  -19.6930 C   0  0  0  0  0
   11.5260  -19.1770  -20.0240 C   0  0  0  0  0
   15.0420  -19.9480  -19.6870 C   0  0  0  0  0
   15.6440  -18.7650  -20.0630 C   0  0  0  0  0
   14.8730  -17.6040  -20.4540 C   0  0  0  0  0
   13.6290  -14.6190  -21.7690 O   0  0  0  0  0
   12.7660  -15.0150  -20.7170 S   0  0  0  0  0
   11.4490  -14.4870  -20.6420 O   0  0  0  0  0
   13.5740  -14.6990  -19.2600 C   0  0  0  0  0
   12.6220  -16.6140  -20.9250 N   0  0  0  0  0
   13.4930  -17.6480  -20.4660 C   0  0  0  0  0
   12.7410  -21.0040  -19.4100 N   0  0  0  0  0
   11.5220  -20.4640  -19.6420 N   0  0  0  0  0
   10.6641  -18.5461  -20.2413 H   0  0  0  0  0
   15.6313  -20.8180  -19.3975 H   0  0  0  0  0
   16.7322  -18.7028  -20.0657 H   0  0  0  0  0
   15.3865  -16.6866  -20.7416 H   0  0  0  0  0
   14.5027  -15.2689  -19.2300 H   0  0  0  0  0
   13.7973  -13.6342  -19.1934 H   0  0  0  0  0
   12.9396  -14.9915  -18.4233 H   0  0  0  0  0
   11.8044  -16.9222  -21.4513 H   0  0  0  0  0
  1  2  4  0  0  0
  1  3  4  0  0  0
 12  1  4  0  0  0
  2  4  4  0  0  0
  2 13  4  0  0  0
  3 14  4  0  0  0
  5  4  4  0  0  0
  6  5  4  0  0  0
 12  6  4  0  0  0
  8  7  2  0  0  0
  8  9  2  0  0  0
  8 10  1  0  0  0
 11  8  1  0  0  0
 11 12  1  0  0  0
 13 14  4  0  0  0
  3 15  1  0  0  0
  4 16  1  0  0  0
  5 17  1  0  0  0
  6 18  1  0  0  0
 10 19  1  0  0  0
 10 20  1  0  0  0
 10 21  1  0  0  0
 11 22  1  0  0  0
M  END
$$$$
