1n7m_ligand
  -I-interpret- 

 95 99  0  0  0  0  0  0  0  0999 V2000
  -10.3560 -109.9990   10.3250 C   0  0  0  0  0
  -11.0950 -109.1940   11.4260 N   0  3  0  0  0
  -11.9490 -108.1050   11.0300 C   0  0  0  0  0
  -11.6970 -106.9430   11.8850 C   0  0  0  0  0
  -10.7060 -107.2990   12.8050 C   0  0  0  0  0
  -10.3280 -108.6810   12.5330 C   0  0  0  0  0
   -9.3310 -109.4340   13.2790 C   0  0  0  0  0
  -12.4300 -105.5560   11.7800 C   0  0  0  0  0
  -10.1080 -106.4250   13.9180 C   0  0  0  0  0
   -9.4360 -105.3000   13.7030 C   0  0  0  0  0
  -10.7220 -111.4910   13.3960 N   0  3  0  0  0
   -9.6400 -110.7290   13.8250 C   0  0  0  0  0
   -8.9250 -111.4540   14.8710 C   0  0  0  0  0
   -9.6030 -112.6670   15.0570 C   0  0  0  0  0
  -10.7290 -112.6720   14.1220 C   0  0  0  0  0
  -11.6930 -113.7190   13.9610 C   0  0  0  0  0
   -7.6550 -110.9700   15.6310 C   0  0  0  0  0
   -9.2400 -113.7820   16.0510 C   0  0  0  0  0
   -9.8010 -113.8310   17.2700 C   0  0  0  0  0
  -13.2030 -112.8140   12.2030 N   0  0  0  0  0
  -12.8210 -113.8040   13.0870 C   0  0  0  0  0
  -13.7410 -114.9370   12.9820 C   0  0  0  0  0
  -14.6860 -114.6070   12.0060 C   0  0  0  0  0
  -14.3260 -113.2600   11.5300 C   0  0  0  0  0
  -15.0190 -112.5170   10.5220 C   0  0  0  0  0
  -13.6760 -116.2630   13.8020 C   0  0  0  0  0
  -15.9070 -115.4960   11.5070 C   0  0  0  0  0
  -17.2360 -115.1950   12.2830 C   0  0  0  0  0
  -18.3850 -114.7790   11.3690 C   0  0  0  0  0
  -18.7720 -113.4600   11.3080 O   0  0  0  0  0
  -19.0380 -115.7230   10.6120 O   0  0  0  0  0
  -13.7820 -110.3610   10.4800 N   0  0  0  0  0
  -14.7700 -111.1990   10.0180 C   0  0  0  0  0
  -15.5260 -110.5310    8.9390 C   0  0  0  0  0
  -14.9390 -109.2600    8.7760 C   0  0  0  0  0
  -13.8520 -109.1640    9.7510 C   0  0  0  0  0
  -12.9570 -108.0400    9.9810 C   0  0  0  0  0
  -15.3740 -108.1570    7.7540 C   0  0  0  0  0
  -16.7540 -111.1270    8.1230 C   0  0  0  0  0
  -18.1340 -110.9130    8.8410 C   0  0  0  0  0
  -19.1900 -110.2830    7.9310 C   0  0  0  0  0
  -20.1010 -111.0840    7.2830 O   0  0  0  0  0
  -19.2330 -108.9160    7.7660 O   0  0  0  0  0
   -9.5919 -109.3702    9.8680 H   0  0  0  0  0
   -9.8875 -110.8764   10.7709 H   0  0  0  0  0
  -11.0712 -110.3141    9.5652 H   0  0  0  0  0
  -11.6552 -109.9947   11.7183 H   0  0  0  0  0
  -12.4004 -108.6082   10.1749 H   0  0  0  0  0
   -9.5391 -109.2319   13.0450 H   0  0  0  0  0
   -9.1333 -108.8168   14.1554 H   0  0  0  0  0
   -8.5478 -109.6343   12.5478 H   0  0  0  0  0
  -12.9495 -105.3493   12.7157 H   0  0  0  0  0
  -11.6967 -104.7725   11.5893 H   0  0  0  0  0
  -13.1502 -105.5881   10.9625 H   0  0  0  0  0
  -10.2440 -106.7489   14.9498 H   0  0  0  0  0
   -9.2800 -104.9445   12.6845 H   0  0  0  0  0
   -9.0404 -104.7321   14.5450 H   0  0  0  0  0
  -11.5929 -110.9811   13.5441 H   0  0  0  0  0
  -10.6393 -111.6906   12.3992 H   0  0  0  0  0
   -9.1547 -109.7717   13.6345 H   0  0  0  0  0
  -11.4176 -113.5167   14.1034 H   0  0  0  0  0
  -11.5433 -114.5856   14.6049 H   0  0  0  0  0
   -7.8719 -110.9107   16.6975 H   0  0  0  0  0
   -6.8416 -111.6759   15.4631 H   0  0  0  0  0
   -7.3656 -109.9858   15.2625 H   0  0  0  0  0
   -8.5164 -114.5442   15.7620 H   0  0  0  0  0
  -10.5255 -113.0729   17.5674 H   0  0  0  0  0
   -9.5318 -114.6289   17.9621 H   0  0  0  0  0
  -12.7399 -111.9149   12.0702 H   0  0  0  0  0
  -14.9210 -112.7415   10.7782 H   0  0  0  0  0
  -15.9761 -112.3588   11.0189 H   0  0  0  0  0
  -14.7791 -113.1120    9.6408 H   0  0  0  0  0
  -14.5977 -116.3820   14.3716 H   0  0  0  0  0
  -13.5575 -117.1050   13.1200 H   0  0  0  0  0
  -12.8275 -116.2250   14.4852 H   0  0  0  0  0
  -15.6503 -116.5414   11.6782 H   0  0  0  0  0
  -16.0766 -115.2690   10.4545 H   0  0  0  0  0
  -17.0401 -114.3674   12.9648 H   0  0  0  0  0
  -17.5349 -116.1105   12.7935 H   0  0  0  0  0
  -17.7127 -114.6635   10.5188 H   0  0  0  0  0
  -19.5019 -113.3700   10.6909 H   0  0  0  0  0
  -19.7284 -115.2978   10.0981 H   0  0  0  0  0
  -13.3408 -108.2042    9.6768 H   0  0  0  0  0
  -12.3816 -107.9602    9.0587 H   0  0  0  0  0
  -13.6164 -107.2291   10.2905 H   0  0  0  0  0
  -15.2848 -108.5473    6.7402 H   0  0  0  0  0
  -16.4089 -107.8736    7.9458 H   0  0  0  0  0
  -14.7302 -107.2847    7.8668 H   0  0  0  0  0
  -16.5955 -112.2009    8.0241 H   0  0  0  0  0
  -16.7962 -110.6102    7.1642 H   0  0  0  0  0
  -17.9707 -110.2352    9.6789 H   0  0  0  0  0
  -18.5028 -111.8911    9.1499 H   0  0  0  0  0
  -18.5325 -109.8969    7.1521 H   0  0  0  0  0
  -20.6887 -110.5372    6.7565 H   0  0  0  0  0
  -19.9490 -108.6893    7.1681 H   0  0  0  0  0
  1  2  1  0  0  0
  2  3  1  0  0  0
  2  6  1  0  0  0
  3  4  1  0  0  0
  3 37  1  0  0  0
  4  5  2  0  0  0
  4  8  1  0  0  0
  5  6  1  0  0  0
  5  9  1  0  0  0
  6  7  1  0  0  0
  7 12  1  0  0  0
  9 10  2  0  0  0
 12 13  1  0  0  0
 13 14  2  0  0  0
 13 17  1  0  0  0
 14 15  1  0  0  0
 14 18  1  0  0  0
 15 16  1  0  0  0
 16 21  2  0  0  0
 18 19  2  0  0  0
 21 22  1  0  0  0
 22 23  2  0  0  0
 22 26  1  0  0  0
 23 24  1  0  0  0
 23 27  1  0  0  0
 24 25  1  0  0  0
 25 33  1  0  0  0
 27 28  1  0  0  0
 28 29  1  0  0  0
 29 30  1  0  0  0
 29 31  1  0  0  0
 33 34  1  0  0  0
 34 35  2  0  0  0
 34 39  1  0  0  0
 35 36  1  0  0  0
 35 38  1  0  0  0
 36 37  1  0  0  0
 39 40  1  0  0  0
 40 41  1  0  0  0
 41 42  1  0  0  0
 41 43  1  0  0  0
 36 32  1  0  0  0
 33 32  2  0  0  0
 24 20  1  0  0  0
 21 20  1  0  0  0
 15 11  1  0  0  0
 12 11  1  0  0  0
  1 44  1  0  0  0
  1 45  1  0  0  0
  1 46  1  0  0  0
  2 47  1  0  0  0
  3 48  1  0  0  0
  6 49  1  0  0  0
  7 50  1  0  0  0
  7 51  1  0  0  0
  8 52  1  0  0  0
  8 53  1  0  0  0
  8 54  1  0  0  0
  9 55  1  0  0  0
 10 56  1  0  0  0
 10 57  1  0  0  0
 11 58  1  0  0  0
 11 59  1  0  0  0
 12 60  1  0  0  0
 15 61  1  0  0  0
 16 62  1  0  0  0
 17 63  1  0  0  0
 17 64  1  0  0  0
 17 65  1  0  0  0
 18 66  1  0  0  0
 19 67  1  0  0  0
 19 68  1  0  0  0
 20 69  1  0  0  0
 24 70  1  0  0  0
 25 71  1  0  0  0
 25 72  1  0  0  0
 26 73  1  0  0  0
 26 74  1  0  0  0
 26 75  1  0  0  0
 27 76  1  0  0  0
 27 77  1  0  0  0
 28 78  1  0  0  0
 28 79  1  0  0  0
 29 80  1  0  0  0
 30 81  1  0  0  0
 31 82  1  0  0  0
 36 83  1  0  0  0
 37 84  1  0  0  0
 37 85  1  0  0  0
 38 86  1  0  0  0
 38 87  1  0  0  0
 38 88  1  0  0  0
 39 89  1  0  0  0
 39 90  1  0  0  0
 40 91  1  0  0  0
 40 92  1  0  0  0
 41 93  1  0  0  0
 42 94  1  0  0  0
 43 95  1  0  0  0
M  END
$$$$
