### 
### Created by X-TOOL on Sun Sep  9 21:50:04 2018
### 

@<TRIPOS>MOLECULE
1n7m_ligand
   95    99     1     0     0
SMALL
GAST_HUCK


@<TRIPOS>ATOM
      1 C1        -10.3560 -109.9990   10.3250 C.3       1 NON        -0.0400
      2 N1        -11.0950 -109.1940   11.4260 N.4       1 NON         0.2585
      3 C11       -11.9490 -108.1050   11.0300 C.3       1 NON         0.0186
      4 C12       -11.6970 -106.9430   11.8850 C.2       1 NON        -0.0038
      5 C13       -10.7060 -107.2990   12.8050 C.2       1 NON        -0.0074
      6 C14       -10.3280 -108.6810   12.5330 C.3       1 NON         0.0067
      7 C15        -9.3310 -109.4340   13.2790 C.3       1 NON         0.0493
      8 C16       -12.4300 -105.5560   11.7800 C.3       1 NON        -0.0235
      9 C17       -10.1080 -106.4250   13.9180 C.2       1 NON        -0.0909
     10 C18        -9.4360 -105.3000   13.7030 C.2       1 NON        -0.1269
     11 N2        -10.7220 -111.4910   13.3960 N.4       1 NON         0.2584
     12 C21        -9.6400 -110.7290   13.8250 C.3       1 NON         0.0208
     13 C22        -8.9250 -111.4540   14.8710 C.2       1 NON        -0.0027
     14 C23        -9.6030 -112.6670   15.0570 C.2       1 NON        -0.0048
     15 C24       -10.7290 -112.6720   14.1220 C.3       1 NON         0.0014
     16 C25       -11.6930 -113.7190   13.9610 C.2       1 NON        -0.0486
     17 C26        -7.6550 -110.9700   15.6310 C.3       1 NON        -0.0234
     18 C27        -9.2400 -113.7820   16.0510 C.2       1 NON        -0.0897
     19 C28        -9.8010 -113.8310   17.2700 C.2       1 NON        -0.1266
     20 N3        -13.2030 -112.8140   12.2030 N.pl3     1 NON        -0.3221
     21 C31       -12.8210 -113.8040   13.0870 C.2       1 NON         0.0034
     22 C32       -13.7410 -114.9370   12.9820 C.2       1 NON        -0.0481
     23 C33       -14.6860 -114.6070   12.0060 C.2       1 NON        -0.0370
     24 C34       -14.3260 -113.2600   11.5300 C.3       1 NON         0.0757
     25 C35       -15.0190 -112.5170   10.5220 C.3       1 NON         0.0300
     26 C36       -13.6760 -116.2630   13.8020 C.3       1 NON        -0.0487
     27 C37       -15.9070 -115.4960   11.5070 C.3       1 NON        -0.0164
     28 C38       -17.2360 -115.1950   12.2830 C.3       1 NON         0.0079
     29 C39       -18.3850 -114.7790   11.3690 C.3       1 NON         0.1551
     30 O31       -18.7720 -113.4600   11.3080 O.3       1 NON        -0.3670
     31 O32       -19.0380 -115.7230   10.6120 O.3       1 NON        -0.3670
     32 N4        -13.7820 -110.3610   10.4800 N.2       1 NON        -0.3677
     33 C41       -14.7700 -111.1990   10.0180 C.2       1 NON        -0.0005
     34 C42       -15.5260 -110.5310    8.9390 C.2       1 NON        -0.0173
     35 C43       -14.9390 -109.2600    8.7760 C.2       1 NON        -0.0278
     36 C44       -13.8520 -109.1640    9.7510 C.3       1 NON         0.0434
     37 C45       -12.9570 -108.0400    9.9810 C.3       1 NON         0.0244
     38 C46       -15.3740 -108.1570    7.7540 C.3       1 NON        -0.0183
     39 C47       -16.7540 -111.1270    8.1230 C.3       1 NON        -0.0253
     40 C48       -18.1340 -110.9130    8.8410 C.3       1 NON         0.0021
     41 C49       -19.1900 -110.2830    7.9310 C.3       1 NON         0.1541
     42 O41       -20.1010 -111.0840    7.2830 O.3       1 NON        -0.3671
     43 O42       -19.2330 -108.9160    7.7660 O.3       1 NON        -0.3671
     44 H1        -11.0768 -110.3175    9.5575 H         1 NON         0.0778
     45 H2         -9.8827 -110.8848   10.7737 H         1 NON         0.0778
     46 H3         -9.5845 -109.3655    9.8630 H         1 NON         0.0778
     47 H4        -11.7124 -109.8825   11.8270 H         1 NON         0.2062
     48 H5        -11.2035 -107.7805   10.2891 H         1 NON         0.1055
     49 H6         -9.5255 -108.3535   11.8558 H         1 NON         0.0934
     50 H7         -9.0292 -108.8007   14.1262 H         1 NON         0.0417
     51 H8         -8.4746 -109.5751   12.6033 H         1 NON         0.0417
     52 H9        -12.0368 -104.8744   12.5487 H         1 NON         0.0428
     53 H10       -13.5096 -105.6992   11.9345 H         1 NON         0.0428
     54 H11       -12.2563 -105.1240   10.7834 H         1 NON         0.0428
     55 H12       -10.2438 -106.7487   14.9489 H         1 NON         0.0541
     56 H13        -9.0407 -104.7326   14.5443 H         1 NON         0.0260
     57 H14        -9.2802 -104.9448   12.6854 H         1 NON         0.0260
     58 H15       -11.5801 -110.9866   13.5551 H         1 NON         0.2052
     59 H16       -10.6289 -111.6942   12.4131 H         1 NON         0.2052
     60 H17        -8.9852 -111.1662   13.0569 H         1 NON         0.1056
     61 H18       -11.3899 -112.2324   14.8835 H         1 NON         0.0997
     62 H19       -11.5434 -114.5848   14.6044 H         1 NON         0.0231
     63 H20        -7.3500 -111.7353   16.3598 H         1 NON         0.0428
     64 H21        -7.8786 -110.0306   16.1577 H         1 NON         0.0428
     65 H22        -6.8393 -110.8023   14.9124 H         1 NON         0.0428
     66 H23        -8.5171 -114.5435   15.7623 H         1 NON         0.0543
     67 H24        -9.5321 -114.6281   17.9615 H         1 NON         0.0262
     68 H25       -10.5249 -113.0736   17.5671 H         1 NON         0.0262
     69 H26       -12.7353 -111.9061   12.0689 H         1 NON         0.1727
     70 H27       -14.9883 -112.7964   12.2759 H         1 NON         0.0744
     71 H28       -16.0567 -112.4748   10.8845 H         1 NON         0.0544
     72 H29       -14.9678 -113.1599    9.6309 H         1 NON         0.0544
     73 H30       -12.8200 -116.2259   14.4919 H         1 NON         0.0307
     74 H31       -13.5564 -117.1136   13.1149 H         1 NON         0.0307
     75 H32       -14.6056 -116.3843   14.3774 H         1 NON         0.0307
     76 H33       -15.6503 -116.5563   11.6480 H         1 NON         0.0437
     77 H34       -16.0720 -115.2977   10.4377 H         1 NON         0.0437
     78 H35       -17.0464 -114.3813   12.9985 H         1 NON         0.0338
     79 H36       -17.5348 -116.1017   12.8295 H         1 NON         0.0338
     80 H37       -17.6731 -114.6102   10.5476 H         1 NON         0.0907
     81 H38       -18.2237 -112.9432   11.8867 H         1 NON         0.2125
     82 H39       -18.6510 -116.5763   10.7691 H         1 NON         0.2125
     83 H40       -13.1322 -109.5355    9.0068 H         1 NON         0.0599
     84 H41       -12.4198 -107.8657    9.0370 H         1 NON         0.0387
     85 H42       -13.5927 -107.1712   10.2071 H         1 NON         0.0387
     86 H43       -16.2211 -108.5246    7.1563 H         1 NON         0.0469
     87 H44       -14.5307 -107.9208    7.0884 H         1 NON         0.0469
     88 H45       -15.6759 -107.2506    8.2991 H         1 NON         0.0469
     89 H46       -16.5935 -112.2068    7.9882 H         1 NON         0.0343
     90 H47       -16.7916 -110.6363    7.1393 H         1 NON         0.0343
     91 H48       -17.9797 -110.2534    9.7077 H         1 NON         0.0326
     92 H49       -18.5054 -111.8896    9.1850 H         1 NON         0.0326
     93 H50       -18.5046 -110.3660    7.0747 H         1 NON         0.0906
     94 H51       -19.9343 -111.9931    7.5026 H         1 NON         0.2125
     95 H52       -18.5409 -108.5144    8.2781 H         1 NON         0.2125
@<TRIPOS>BOND
     1    1    2 1  
     2    2    3 1  
     3    2    6 1  
     4    3    4 1  
     5    3   37 1  
     6    4    5 2  
     7    4    8 1  
     8    5    6 1  
     9    5    9 1  
    10    6    7 1  
    11    7   12 1  
    12    9   10 2  
    13   12   13 1  
    14   13   14 2  
    15   13   17 1  
    16   14   15 1  
    17   14   18 1  
    18   15   16 1  
    19   16   21 2  
    20   18   19 2  
    21   21   22 1  
    22   22   23 2  
    23   22   26 1  
    24   23   24 1  
    25   23   27 1  
    26   24   25 1  
    27   25   33 1  
    28   27   28 1  
    29   28   29 1  
    30   29   30 1  
    31   29   31 1  
    32   33   34 1  
    33   34   35 2  
    34   34   39 1  
    35   35   36 1  
    36   35   38 1  
    37   36   37 1  
    38   39   40 1  
    39   40   41 1  
    40   41   42 1  
    41   41   43 1  
    42   36   32 1  
    43   33   32 2  
    44   24   20 1  
    45   21   20 1  
    46   15   11 1  
    47   12   11 1  
    48    1   44 1  
    49    1   45 1  
    50    1   46 1  
    51    2   47 1  
    52    3   48 1  
    53    6   49 1  
    54    7   50 1  
    55    7   51 1  
    56    8   52 1  
    57    8   53 1  
    58    8   54 1  
    59    9   55 1  
    60   10   56 1  
    61   10   57 1  
    62   11   58 1  
    63   11   59 1  
    64   12   60 1  
    65   15   61 1  
    66   16   62 1  
    67   17   63 1  
    68   17   64 1  
    69   17   65 1  
    70   18   66 1  
    71   19   67 1  
    72   19   68 1  
    73   20   69 1  
    74   24   70 1  
    75   25   71 1  
    76   25   72 1  
    77   26   73 1  
    78   26   74 1  
    79   26   75 1  
    80   27   76 1  
    81   27   77 1  
    82   28   78 1  
    83   28   79 1  
    84   29   80 1  
    85   30   81 1  
    86   31   82 1  
    87   36   83 1  
    88   37   84 1  
    89   37   85 1  
    90   38   86 1  
    91   38   87 1  
    92   38   88 1  
    93   39   89 1  
    94   39   90 1  
    95   40   91 1  
    96   40   92 1  
    97   41   93 1  
    98   42   94 1  
    99   43   95 1  
@<TRIPOS>SUBSTRUCTURE
     1 NON         1

