2r5q_ligand
  -I-interpret- 

 86 89  0  0  0  0  0  0  0  0999 V2000
   25.3670   -9.4850   -1.7570 C   0  0  0  0  0
   26.0470   -8.1590   -2.3020 C   0  0  0  0  0
   25.4380   -6.9210   -1.6360 C   0  0  0  0  0
   25.5090   -7.0440   -0.1030 C   0  0  0  0  0
   24.7820   -8.3180    0.3890 C   0  0  0  0  0
   25.4630   -9.6100   -0.2020 C   0  0  0  0  0
   27.5140  -10.7540   -2.2070 N   0  3  0  0  0
   28.1670   -9.5150   -2.7770 C   0  0  0  0  0
   27.5930   -8.2540   -2.0820 C   0  0  0  0  0
   26.0260  -10.7300   -2.4520 C   0  0  0  0  0
   29.6410   -9.5200   -2.5070 C   0  0  0  0  0
   30.3510   -9.0880   -3.5820 N   0  0  0  0  0
   31.8560   -8.9720   -3.6520 C   0  0  0  0  0
   32.4080   -7.9710   -2.5870 C   0  0  0  0  0
   32.4980  -10.3710   -3.3860 C   0  0  0  0  0
   32.1850   -8.4300   -5.0720 C   0  0  0  0  0
   30.0580   -9.8910   -1.3970 O   0  0  0  0  0
   27.9940  -12.0010   -2.8510 C   0  0  0  0  0
   27.9040  -13.1280   -1.8020 C   0  0  0  0  0
   29.0600  -13.2110   -0.7860 C   0  0  0  0  0
   27.8300  -14.3240   -2.5950 O   0  0  0  0  0
   28.6740  -14.3140    0.1150 N   0  0  0  0  0
   30.4050  -13.6150   -1.3630 C   0  0  0  0  0
   28.3240  -14.0030    1.4170 C   0  0  0  0  0
   28.3310  -12.8290    1.8460 O   0  0  0  0  0
   27.9320  -15.1160    2.2760 C   0  0  0  0  0
   28.8540  -16.1590    2.5100 C   0  0  0  0  0
   28.5430  -17.2690    3.3290 C   0  0  0  0  0
   27.2740  -17.3320    3.9240 C   0  0  0  0  0
   26.3320  -16.3010    3.7070 C   0  0  0  0  0
   26.6260  -15.1700    2.8830 C   0  0  0  0  0
   25.0790  -16.3880    4.3080 O   0  0  0  0  0
   25.5570  -14.1080    2.7040 C   0  0  0  0  0
   31.7250  -13.2730   -0.1890 S   0  0  0  0  0
   32.0040  -14.7430    0.6910 C   0  0  0  0  0
   32.3970  -14.6050    2.0460 C   0  0  0  0  0
   32.6390  -15.7870    2.7910 C   0  0  0  0  0
   32.4890  -17.0570    2.1800 C   0  0  0  0  0
   32.0950  -17.1820    0.8210 C   0  0  0  0  0
   31.8510  -16.0040    0.0720 C   0  0  0  0  0
   24.3055   -9.4419   -2.0009 H   0  0  0  0  0
   25.8584   -8.0563   -3.3706 H   0  0  0  0  0
   24.3938   -6.8346   -1.9365 H   0  0  0  0  0
   25.9986   -6.0395   -1.9470 H   0  0  0  0  0
   25.0243   -6.1736    0.3392 H   0  0  0  0  0
   26.5562   -7.1040    0.1936 H   0  0  0  0  0
   23.7445   -8.2827    0.0565 H   0  0  0  0  0
   24.8361   -8.3570    1.4770 H   0  0  0  0  0
   26.5009   -9.6887    0.1214 H   0  0  0  0  0
   24.9632  -10.5124    0.1501 H   0  0  0  0  0
   27.7496  -10.7485   -1.2146 H   0  0  0  0  0
   27.9734   -9.5052   -3.8496 H   0  0  0  0  0
   27.7941   -8.3179   -1.0126 H   0  0  0  0  0
   28.0654   -7.3695   -2.5094 H   0  0  0  0  0
   25.8472  -10.6691   -3.5255 H   0  0  0  0  0
   25.5867  -11.6375   -2.0378 H   0  0  0  0  0
   29.8232   -8.8191   -4.4124 H   0  0  0  0  0
   31.9786   -6.9843   -2.7607 H   0  0  0  0  0
   32.1357   -8.3167   -1.5898 H   0  0  0  0  0
   33.4934   -7.9160   -2.6701 H   0  0  0  0  0
   32.2053  -10.7214   -2.3962 H   0  0  0  0  0
   32.1516  -11.0776   -4.1402 H   0  0  0  0  0
   33.5836  -10.2867   -3.4366 H   0  0  0  0  0
   31.8100   -9.1270   -5.8214 H   0  0  0  0  0
   31.7100   -7.4584   -5.2077 H   0  0  0  0  0
   33.2648   -8.3260   -5.1786 H   0  0  0  0  0
   29.0213  -11.8815   -3.1953 H   0  0  0  0  0
   27.3831  -12.2404   -3.7214 H   0  0  0  0  0
   27.0463  -12.9518   -1.1529 H   0  0  0  0  0
   29.1895  -12.2228   -0.3446 H   0  0  0  0  0
   27.7705  -15.0874   -2.0159 H   0  0  0  0  0
   28.6654  -15.2797   -0.2132 H   0  0  0  0  0
   30.5850  -13.0437   -2.2737 H   0  0  0  0  0
   30.3910  -14.6835   -1.5778 H   0  0  0  0  0
   29.8380  -16.1070    2.0441 H   0  0  0  0  0
   29.2746  -18.0599    3.4947 H   0  0  0  0  0
   27.0133  -18.1804    4.5568 H   0  0  0  0  0
   24.5561  -15.6195    4.0679 H   0  0  0  0  0
   25.9317  -13.1519    3.0696 H   0  0  0  0  0
   25.3063  -14.0212    1.6468 H   0  0  0  0  0
   24.6678  -14.3907    3.2675 H   0  0  0  0  0
   32.5097  -13.6210    2.5010 H   0  0  0  0  0
   32.9411  -15.7187    3.8361 H   0  0  0  0  0
   32.6800  -17.9566    2.7651 H   0  0  0  0  0
   31.9825  -18.1648    0.3632 H   0  0  0  0  0
   31.5478  -16.0701   -0.9729 H   0  0  0  0  0
  1  2  1  0  0  0
  1  6  1  0  0  0
 10  1  1  0  0  0
  2  3  1  0  0  0
  2  9  1  0  0  0
  3  4  1  0  0  0
  5  4  1  0  0  0
  6  5  1  0  0  0
  7  8  1  0  0  0
  7 10  1  0  0  0
  7 18  1  0  0  0
  8  9  1  0  0  0
  8 11  1  0  0  0
 11 12  1  0  0  0
 11 17  2  0  0  0
 12 13  1  0  0  0
 13 14  1  0  0  0
 13 15  1  0  0  0
 13 16  1  0  0  0
 18 19  1  0  0  0
 19 20  1  0  0  0
 19 21  1  0  0  0
 20 22  1  0  0  0
 20 23  1  0  0  0
 22 24  1  0  0  0
 23 34  1  0  0  0
 24 25  2  0  0  0
 24 26  1  0  0  0
 26 27  4  0  0  0
 26 31  4  0  0  0
 27 28  4  0  0  0
 28 29  4  0  0  0
 29 30  4  0  0  0
 30 31  4  0  0  0
 30 32  1  0  0  0
 31 33  1  0  0  0
 34 35  1  0  0  0
 35 36  4  0  0  0
 35 40  4  0  0  0
 36 37  4  0  0  0
 37 38  4  0  0  0
 38 39  4  0  0  0
 39 40  4  0  0  0
  1 41  1  0  0  0
  2 42  1  0  0  0
  3 43  1  0  0  0
  3 44  1  0  0  0
  4 45  1  0  0  0
  4 46  1  0  0  0
  5 47  1  0  0  0
  5 48  1  0  0  0
  6 49  1  0  0  0
  6 50  1  0  0  0
  7 51  1  0  0  0
  8 52  1  0  0  0
  9 53  1  0  0  0
  9 54  1  0  0  0
 10 55  1  0  0  0
 10 56  1  0  0  0
 12 57  1  0  0  0
 14 58  1  0  0  0
 14 59  1  0  0  0
 14 60  1  0  0  0
 15 61  1  0  0  0
 15 62  1  0  0  0
 15 63  1  0  0  0
 16 64  1  0  0  0
 16 65  1  0  0  0
 16 66  1  0  0  0
 18 67  1  0  0  0
 18 68  1  0  0  0
 19 69  1  0  0  0
 20 70  1  0  0  0
 21 71  1  0  0  0
 22 72  1  0  0  0
 23 73  1  0  0  0
 23 74  1  0  0  0
 27 75  1  0  0  0
 28 76  1  0  0  0
 29 77  1  0  0  0
 32 78  1  0  0  0
 33 79  1  0  0  0
 33 80  1  0  0  0
 33 81  1  0  0  0
 36 82  1  0  0  0
 37 83  1  0  0  0
 38 84  1  0  0  0
 39 85  1  0  0  0
 40 86  1  0  0  0
M  END
$$$$
