2b53_ligand
  -I-interpret- 

 45 47  0  0  0  0  0  0  0  0999 V2000
   82.4300   65.0130   59.3270 C   0  0  0  0  0
   83.3220   65.2760   60.4460 C   0  0  0  0  0
   83.5370   66.5950   61.0380 C   0  0  0  0  0
   82.8550   67.7220   60.4330 C   0  0  0  0  0
   81.9850   67.4520   59.2960 C   0  0  0  0  0
   81.7040   66.1150   58.7130 C   0  0  0  0  0
   84.0230   64.1860   60.9370 N   0  0  0  0  0
   80.7080   65.8880   57.5900 C   0  0  0  0  0
   79.4870   66.7300   57.5590 C   0  0  0  0  0
   78.5350   66.6590   56.4760 C   0  0  0  0  0
   78.7520   65.7190   55.3740 C   0  0  0  0  0
   79.9610   64.8020   55.3300 C   0  0  0  0  0
   80.9060   64.9230   56.4510 C   0  0  0  0  0
   77.8500   65.6320   54.3280 N   0  0  0  0  0
   77.9960   64.7770   53.2800 C   0  0  0  0  0
   79.0650   63.9280   53.1600 N   0  0  0  0  0
   80.0260   63.9220   54.1480 C   0  0  0  0  0
   80.9900   62.9060   53.8270 N   0  0  0  0  0
   81.2110   61.7530   52.9140 C   0  0  0  0  0
   80.0050   60.7700   53.0640 C   0  0  0  0  0
   81.2260   62.2460   51.4510 C   0  0  0  0  0
   82.5690   61.1050   53.2740 C   0  0  0  0  0
   76.8960   64.7290   52.2720 C   0  0  0  0  0
   76.6800   63.4730   51.9710 F   0  0  0  0  0
   75.8050   65.3020   52.7650 F   0  0  0  0  0
   77.3410   65.3750   51.2510 F   0  0  0  0  0
   82.3063   63.9974   58.9510 H   0  0  0  0  0
   84.1868   66.7264   61.9032 H   0  0  0  0  0
   82.9882   68.7343   60.8147 H   0  0  0  0  0
   81.4962   68.3083   58.8313 H   0  0  0  0  0
   83.8970   63.2662   60.5145 H   0  0  0  0  0
   84.6650   64.3035   61.7209 H   0  0  0  0  0
   79.3029   67.4238   58.3793 H   0  0  0  0  0
   77.6562   67.3039   56.4785 H   0  0  0  0  0
   81.7898   64.2851   56.4574 H   0  0  0  0  0
   81.8025   63.0121   54.4345 H   0  0  0  0  0
   79.9459   60.4243   54.0960 H   0  0  0  0  0
   79.0822   61.2860   52.7988 H   0  0  0  0  0
   80.1489   59.9166   52.4013 H   0  0  0  0  0
   80.2705   62.7157   51.2174 H   0  0  0  0  0
   82.0299   62.9706   51.3213 H   0  0  0  0  0
   81.3881   61.3985   50.7850 H   0  0  0  0  0
   83.3648   61.8395   53.1503 H   0  0  0  0  0
   82.5447   60.7647   54.3092 H   0  0  0  0  0
   82.7510   60.2559   52.6152 H   0  0  0  0  0
  1  2  4  0  0  0
  1  6  4  0  0  0
  2  3  4  0  0  0
  2  7  1  0  0  0
  3  4  4  0  0  0
  4  5  4  0  0  0
  5  6  4  0  0  0
  6  8  1  0  0  0
  8  9  4  0  0  0
  8 13  4  0  0  0
  9 10  4  0  0  0
 10 11  4  0  0  0
 11 12  4  0  0  0
 11 14  4  0  0  0
 12 13  4  0  0  0
 12 17  4  0  0  0
 14 15  4  0  0  0
 15 16  4  0  0  0
 15 23  1  0  0  0
 16 17  4  0  0  0
 17 18  1  0  0  0
 18 19  1  0  0  0
 19 20  1  0  0  0
 19 21  1  0  0  0
 19 22  1  0  0  0
 23 24  1  0  0  0
 23 25  1  0  0  0
 23 26  1  0  0  0
  1 27  1  0  0  0
  3 28  1  0  0  0
  4 29  1  0  0  0
  5 30  1  0  0  0
  7 31  1  0  0  0
  7 32  1  0  0  0
  9 33  1  0  0  0
 10 34  1  0  0  0
 13 35  1  0  0  0
 18 36  1  0  0  0
 20 37  1  0  0  0
 20 38  1  0  0  0
 20 39  1  0  0  0
 21 40  1  0  0  0
 21 41  1  0  0  0
 21 42  1  0  0  0
 22 43  1  0  0  0
 22 44  1  0  0  0
 22 45  1  0  0  0
M  END
$$$$
