1dtq_ligand
  -I-interpret- 

 40 41  0  0  0  0  0  0  0  0999 V2000
    0.2380  -37.3790   19.0320 C   0  0  0  0  0
    0.2770  -37.4010   20.4190 N   0  0  0  0  0
   -0.7440  -36.8670   21.1790 C   0  0  0  0  0
   -1.8570  -36.2940   20.5200 C   0  0  0  0  0
   -1.8760  -36.2550   19.1130 C   0  0  0  0  0
   -0.8430  -36.7850   18.3600 C   0  0  0  0  0
   -3.0160  -35.8050   21.2560 C   0  0  0  0  0
   -3.9720  -35.4400   21.8140 N   0  0  0  0  0
    1.1040  -38.0740   18.2690 N   0  0  0  0  0
    2.4030  -38.2360   18.3360 C   0  0  0  0  0
    3.4100  -38.2210   16.9450 S   0  0  0  0  0
    2.8830  -38.3830   19.5530 N   0  0  0  0  0
    2.9620  -39.6970   20.1960 C   0  0  0  0  0
    3.7810  -39.7290   21.5000 C   0  0  0  0  0
    3.7140  -38.4160   22.2530 C   0  0  0  0  0
    4.7770  -37.5450   22.0930 N   0  0  0  0  0
    4.8590  -36.3330   22.7490 C   0  0  0  0  0
    3.8370  -35.9580   23.6240 C   0  0  0  0  0
    2.7420  -36.8290   23.8190 C   0  0  0  0  0
    2.6500  -38.0690   23.1240 C   0  0  0  0  0
    1.8120  -36.4960   24.8030 O   0  0  0  0  0
    0.8440  -35.5180   24.4280 C   0  0  0  0  0
    0.0820  -35.0560   25.6660 C   0  0  0  0  0
    1.5450  -38.8370   23.2280 F   0  0  0  0  0
   -0.6936  -36.8864   22.2677 H   0  0  0  0  0
   -2.7243  -35.7966   18.6047 H   0  0  0  0  0
   -0.8676  -36.7425   17.2711 H   0  0  0  0  0
    0.6656  -38.5679   17.4916 H   0  0  0  0  0
    3.2083  -37.5608   20.0614 H   0  0  0  0  0
    3.4602  -40.3643   19.4927 H   0  0  0  0  0
    1.9430  -39.9847   20.4549 H   0  0  0  0  0
    4.8228  -39.9175   21.2406 H   0  0  0  0  0
    3.3670  -40.5078   22.1405 H   0  0  0  0  0
    5.7128  -35.6753   22.5857 H   0  0  0  0  0
    3.8837  -35.0046   24.1502 H   0  0  0  0  0
    0.1458  -35.9533   23.7131 H   0  0  0  0  0
    1.3469  -34.6654   23.9717 H   0  0  0  0  0
   -0.4204  -35.9094   26.1214 H   0  0  0  0  0
    0.7812  -34.6209   26.3801 H   0  0  0  0  0
   -0.6574  -34.3087   25.3781 H   0  0  0  0  0
  1  2  4  0  0  0
  1  6  4  0  0  0
  1  9  1  0  0  0
  2  3  4  0  0  0
  3  4  4  0  0  0
  4  5  4  0  0  0
  4  7  1  0  0  0
  5  6  4  0  0  0
  7  8  3  0  0  0
  9 10  1  0  0  0
 10 11  2  0  0  0
 10 12  1  0  0  0
 12 13  1  0  0  0
 13 14  1  0  0  0
 14 15  1  0  0  0
 15 16  4  0  0  0
 15 20  4  0  0  0
 16 17  4  0  0  0
 17 18  4  0  0  0
 18 19  4  0  0  0
 19 20  4  0  0  0
 19 21  1  0  0  0
 20 24  1  0  0  0
 21 22  1  0  0  0
 22 23  1  0  0  0
  3 25  1  0  0  0
  5 26  1  0  0  0
  6 27  1  0  0  0
  9 28  1  0  0  0
 12 29  1  0  0  0
 13 30  1  0  0  0
 13 31  1  0  0  0
 14 32  1  0  0  0
 14 33  1  0  0  0
 17 34  1  0  0  0
 18 35  1  0  0  0
 22 36  1  0  0  0
 22 37  1  0  0  0
 23 38  1  0  0  0
 23 39  1  0  0  0
 23 40  1  0  0  0
M  END
$$$$
