4z93_ligand
  -I-interpret- 

 52 57  0  0  0  0  0  0  0  0999 V2000
   16.3430   -7.4940    9.5250 C   0  0  0  0  0
   18.1460   -5.3920    8.7370 C   0  0  0  0  0
   19.0040   -4.4430    8.1980 C   0  0  0  0  0
   20.2450   -3.8670    8.6390 C   0  0  0  0  0
   21.0110   -3.9440    9.8000 C   0  0  0  0  0
   15.2480   -6.9180    5.6550 C   0  0  0  0  0
   14.4390   -4.8440    5.5870 C   0  0  0  0  0
   21.3190   -5.6440   11.6520 C   0  0  0  0  0
   13.5020   -5.6720    5.0880 N   0  0  0  0  0
   13.9930   -6.9580    5.1230 O   0  0  0  0  0
   20.6020   -4.6340   10.9890 C   0  0  0  0  0
   20.7100   -3.0580    7.5560 C   0  0  0  0  0
   16.0030   -8.1740    5.7520 C   0  0  0  0  0
   15.5740   -5.6330    5.9890 C   0  0  0  0  0
   16.7770   -5.2010    6.6980 C   0  0  0  0  0
   18.7580   -3.9110    6.9180 C   0  0  0  0  0
   17.0110   -5.7660    7.9700 C   0  0  0  0  0
   20.5160   -6.0370   12.6970 N   0  0  0  0  0
   14.2790   -3.3760    5.6710 C   0  0  0  0  0
   16.0530   -6.6700    8.4170 O   0  0  0  0  0
   22.6540   -6.2430   11.3800 C   0  0  0  0  0
   19.3770   -4.4860   11.7240 C   0  0  0  0  0
   18.2640   -3.5490   11.4640 C   0  0  0  0  0
   17.4220   -3.0260   12.6190 C   0  0  0  0  0
   16.8400   -4.0360   11.6930 C   0  0  0  0  0
   22.6470   -2.5870    8.7850 C   0  0  0  0  0
   21.9420   -2.4110    7.5900 C   0  0  0  0  0
   17.6740   -4.2630    6.1650 C   0  0  0  0  0
   19.3350   -5.3610   12.7590 N   0  0  0  0  0
   22.2240   -3.2870    9.8600 N   0  0  0  0  0
   19.8000   -3.0580    6.5410 N   0  0  0  0  0
   17.2128   -8.1110    9.2995 H   0  0  0  0  0
   16.5534   -6.8710   10.3943 H   0  0  0  0  0
   15.4860   -8.1343    9.7342 H   0  0  0  0  0
   18.3369   -5.8345    9.7147 H   0  0  0  0  0
   15.4548   -8.8786    6.3774 H   0  0  0  0  0
   16.1334   -8.5960    4.7555 H   0  0  0  0  0
   16.9792   -7.9764    6.1948 H   0  0  0  0  0
   14.1288   -2.9703    4.6705 H   0  0  0  0  0
   13.4154   -3.1409    6.2932 H   0  0  0  0  0
   15.1753   -2.9387    6.1110 H   0  0  0  0  0
   22.6540   -6.6914   10.3865 H   0  0  0  0  0
   23.4165   -5.4656   11.4292 H   0  0  0  0  0
   22.8658   -7.0092   12.1258 H   0  0  0  0  0
   18.8184   -3.0890   10.6460 H   0  0  0  0  0
   17.1434   -2.0642   13.0496 H   0  0  0  0  0
   17.5238   -2.8737   13.6935 H   0  0  0  0  0
   16.3073   -4.9847   11.7578 H   0  0  0  0  0
   15.9270   -4.1755   11.1142 H   0  0  0  0  0
   23.6276   -2.1162    8.8553 H   0  0  0  0  0
   22.3238   -1.8191    6.7582 H   0  0  0  0  0
   17.5107   -3.8279    5.1790 H   0  0  0  0  0
 20  1  1  0  0  0
  2  3  4  0  0  0
 17  2  4  0  0  0
  3  4  4  0  0  0
  3 16  4  0  0  0
  4  5  4  0  0  0
  4 12  4  0  0  0
  5 11  1  0  0  0
  5 30  4  0  0  0
  6 10  4  0  0  0
  6 13  1  0  0  0
 14  6  4  0  0  0
  7  9  4  0  0  0
 14  7  4  0  0  0
  7 19  1  0  0  0
 11  8  4  0  0  0
  8 18  4  0  0  0
  8 21  1  0  0  0
  9 10  4  0  0  0
 11 22  4  0  0  0
 12 27  4  0  0  0
 31 12  4  0  0  0
 15 14  1  0  0  0
 17 15  4  0  0  0
 15 28  4  0  0  0
 28 16  4  0  0  0
 16 31  4  0  0  0
 17 20  1  0  0  0
 18 29  4  0  0  0
 22 23  1  0  0  0
 22 29  4  0  0  0
 23 24  1  0  0  0
 23 25  1  0  0  0
 24 25  1  0  0  0
 27 26  4  0  0  0
 26 30  4  0  0  0
  1 32  1  0  0  0
  1 33  1  0  0  0
  1 34  1  0  0  0
  2 35  1  0  0  0
 13 36  1  0  0  0
 13 37  1  0  0  0
 13 38  1  0  0  0
 19 39  1  0  0  0
 19 40  1  0  0  0
 19 41  1  0  0  0
 21 42  1  0  0  0
 21 43  1  0  0  0
 21 44  1  0  0  0
 23 45  1  0  0  0
 24 46  1  0  0  0
 24 47  1  0  0  0
 25 48  1  0  0  0
 25 49  1  0  0  0
 26 50  1  0  0  0
 27 51  1  0  0  0
 28 52  1  0  0  0
M  END
$$$$
