4tuh_ligand
  -I-interpret- 

 77 84  0  0  0  0  0  0  0  0999 V2000
  -10.8650   17.3990   50.7200 C   0  0  0  0  0
  -11.3490   19.5290   51.4910 N   0  0  0  0  0
   -8.3840   20.4120   48.9210 O   0  0  0  0  0
   -9.7460   18.3160   49.8540 S   0  0  0  0  0
  -11.0230   16.0270   50.6690 C   0  0  0  0  0
   -9.9170   20.9990   50.3370 N   0  0  0  0  0
   -1.0850   22.8330   44.6990 O   0  0  0  0  0
   -4.5860   20.3780   47.1360 S   0  0  0  0  0
  -11.9880   15.4160   51.4570 C   0  0  0  0  0
   -5.5600   22.8930   47.1200 N   0  0  0  0  0
   -0.2360   20.9730   45.5210 O   0  0  0  0  0
  -12.7690   16.2040   52.3020 C   0  0  0  0  0
   -3.3830   22.5060   46.2430 N   0  0  0  0  0
   -1.2170   16.3480   47.3500 O   0  0  0  0  0
  -12.5990   17.5870   52.3550 C   0  0  0  0  0
    1.1550   11.5130   46.2160 N   0  0  0  0  0
  -11.6330   18.1990   51.5610 C   0  0  0  0  0
    0.4830   10.2930   46.3430 N   0  0  0  0  0
  -10.3080   19.7410   50.6690 C   0  0  0  0  0
   -8.9910   21.3370   49.4370 C   0  0  0  0  0
   -8.8490   22.7490   48.9660 C   0  0  0  0  0
   -9.9110   23.5890   49.2840 C   0  0  0  0  0
   -9.9620   24.8960   48.8150 C   0  0  0  0  0
   -8.9340   25.3410   47.9930 C   0  0  0  0  0
   -7.9060   24.4870   47.6200 C   0  0  0  0  0
   -7.8480   23.1890   48.1060 C   0  0  0  0  0
   -6.7190   22.2660   47.6970 C   0  0  0  0  0
   -5.4850   24.3410   46.9870 C   0  0  0  0  0
   -6.8230   25.0130   46.7100 C   0  0  0  0  0
   -4.5290   22.0840   46.8140 C   0  0  0  0  0
   -2.5010   21.5070   46.0550 C   0  0  0  0  0
   -1.1810   21.7890   45.4020 C   0  0  0  0  0
   -2.9890   20.2610   46.4750 C   0  0  0  0  0
   -2.2860   18.9190   46.4260 C   0  0  0  0  0
   -1.4500   18.6860   47.7000 C   0  0  0  0  0
   -0.4580   17.5570   47.5080 C   0  0  0  0  0
   -0.6560   15.1350   47.0610 C   0  0  0  0  0
   -1.4040   14.0040   46.7760 C   0  0  0  0  0
   -0.7610   12.8020   46.5040 C   0  0  0  0  0
    0.6260   12.7090   46.5250 C   0  0  0  0  0
    1.3850   13.8500   46.8080 C   0  0  0  0  0
    0.7370   15.0570   47.0870 C   0  0  0  0  0
    1.2830    9.3050   45.8950 C   0  0  0  0  0
    2.4800    9.9570   45.4540 C   0  0  0  0  0
    3.6370    9.4290   44.8960 C   0  0  0  0  0
    4.4780   11.5570   44.7720 C   0  0  0  0  0
    2.3690   11.3430   45.6580 C   0  0  0  0  0
    3.4070   12.1490   45.3010 N   0  0  0  0  0
    4.6420   10.2460   44.5600 N   0  0  0  0  0
  -10.3923   15.4274   50.0126 H   0  0  0  0  0
  -10.3793   21.7652   50.8266 H   0  0  0  0  0
   -1.9109   23.3208   44.7380 H   0  0  0  0  0
  -12.1334   14.3365   51.4162 H   0  0  0  0  0
  -13.5238   15.7316   52.9306 H   0  0  0  0  0
  -13.2218   18.1883   53.0174 H   0  0  0  0  0
  -10.7187   23.2149   49.9131 H   0  0  0  0  0
  -10.7871   25.5551   49.0850 H   0  0  0  0  0
   -8.9351   26.3714   47.6376 H   0  0  0  0  0
   -6.3777   21.7804   48.6113 H   0  0  0  0  0
   -7.1259   21.6122   46.9256 H   0  0  0  0  0
   -4.8369   24.5525   46.1365 H   0  0  0  0  0
   -5.1191   24.7324   47.9362 H   0  0  0  0  0
   -6.7144   26.0832   46.8858 H   0  0  0  0  0
   -7.1072   24.8037   45.6787 H   0  0  0  0  0
   -1.6199   18.9046   45.5633 H   0  0  0  0  0
   -3.0377   18.1331   46.3526 H   0  0  0  0  0
   -2.1245   18.4208   48.5142 H   0  0  0  0  0
   -0.8981   19.5986   47.9248 H   0  0  0  0  0
    0.1642   17.7373   46.6314 H   0  0  0  0  0
    0.2095   17.4821   48.3664 H   0  0  0  0  0
   -2.4927   14.0566   46.7651 H   0  0  0  0  0
   -1.3540   11.9178   46.2704 H   0  0  0  0  0
    2.4738   13.7981   46.8109 H   0  0  0  0  0
    1.3242   15.9435   47.3266 H   0  0  0  0  0
    1.0655    8.2372   45.8729 H   0  0  0  0  0
    3.7259    8.3550   44.7327 H   0  0  0  0  0
    5.3039   12.2069   44.4828 H   0  0  0  0  0
  4  1  4  0  0  0
  1  5  4  0  0  0
  1 17  4  0  0  0
  2 17  4  0  0  0
 19  2  4  0  0  0
 20  3  2  0  0  0
 19  4  4  0  0  0
  5  9  4  0  0  0
  6 19  1  0  0  0
 20  6  1  0  0  0
 32  7  1  0  0  0
  8 30  4  0  0  0
 33  8  4  0  0  0
  9 12  4  0  0  0
 10 27  1  0  0  0
 10 28  1  0  0  0
 30 10  1  0  0  0
 32 11  2  0  0  0
 15 12  4  0  0  0
 13 30  4  0  0  0
 31 13  4  0  0  0
 14 36  1  0  0  0
 37 14  1  0  0  0
 17 15  4  0  0  0
 16 18  4  0  0  0
 16 40  1  0  0  0
 47 16  4  0  0  0
 43 18  4  0  0  0
 21 20  1  0  0  0
 21 22  4  0  0  0
 26 21  4  0  0  0
 22 23  4  0  0  0
 24 23  4  0  0  0
 25 24  4  0  0  0
 26 25  4  0  0  0
 29 25  1  0  0  0
 27 26  1  0  0  0
 28 29  1  0  0  0
 31 32  1  0  0  0
 33 31  4  0  0  0
 34 33  1  0  0  0
 35 34  1  0  0  0
 36 35  1  0  0  0
 38 37  4  0  0  0
 42 37  4  0  0  0
 39 38  4  0  0  0
 40 39  4  0  0  0
 40 41  4  0  0  0
 41 42  4  0  0  0
 44 43  4  0  0  0
 45 44  4  0  0  0
 44 47  4  0  0  0
 49 45  4  0  0  0
 46 48  4  0  0  0
 46 49  4  0  0  0
 47 48  4  0  0  0
  5 50  1  0  0  0
  6 51  1  0  0  0
  7 52  1  0  0  0
  9 53  1  0  0  0
 12 54  1  0  0  0
 15 55  1  0  0  0
 22 56  1  0  0  0
 23 57  1  0  0  0
 24 58  1  0  0  0
 27 59  1  0  0  0
 27 60  1  0  0  0
 28 61  1  0  0  0
 28 62  1  0  0  0
 29 63  1  0  0  0
 29 64  1  0  0  0
 34 65  1  0  0  0
 34 66  1  0  0  0
 35 67  1  0  0  0
 35 68  1  0  0  0
 36 69  1  0  0  0
 36 70  1  0  0  0
 38 71  1  0  0  0
 39 72  1  0  0  0
 41 73  1  0  0  0
 42 74  1  0  0  0
 43 75  1  0  0  0
 45 76  1  0  0  0
 46 77  1  0  0  0
M  END
$$$$
