4or0_ligand
  -I-interpret- 

 31 32  0  0  0  0  0  0  0  0999 V2000
   10.2610   21.1540  123.3530 C   0  0  0  0  0
   10.2250   22.4390  123.8430 O   0  0  0  0  0
   11.3730   20.7610  122.5500 C   0  0  0  0  0
    9.3640   15.0470  121.4540 C   0  0  0  0  0
   11.4210   19.4830  122.0160 C   0  0  0  0  0
   10.3500   18.6070  122.2980 C   0  0  0  0  0
    9.2780   19.0120  123.0840 C   0  0  0  0  0
    9.1950   20.2980  123.6370 C   0  0  0  0  0
   10.3740   17.3120  121.7690 C   0  0  0  0  0
    9.3310   16.4380  122.0030 C   0  0  0  0  0
    8.0700   14.8320  120.7620 C   0  0  0  0  0
    8.2250   18.1130  123.3380 C   0  0  0  0  0
    8.2540   16.8400  122.8030 C   0  0  0  0  0
   11.1180   23.3290  123.2330 C   0  0  0  0  0
    9.1580   12.8290  122.3400 O   0  0  0  0  0
    9.5770   14.4420  123.7660 O   0  0  0  0  0
    9.3840   14.0520  122.5750 C   0  0  0  0  0
   12.1830   21.4644  122.3570 H   0  0  0  0  0
   10.2367   14.9270  120.8120 H   0  0  0  0  0
   12.2597   19.1639  121.3973 H   0  0  0  0  0
    8.3502   20.6102  124.2509 H   0  0  0  0  0
   11.2236   16.9902  121.1668 H   0  0  0  0  0
    7.2541   14.9490  121.4753 H   0  0  0  0  0
    7.9618   15.5634  119.9611 H   0  0  0  0  0
    8.0464   13.8261  120.3428 H   0  0  0  0  0
    7.3842   18.4225  123.9588 H   0  0  0  0  0
    7.4371   16.1469  123.0038 H   0  0  0  0  0
   12.1378   22.9696  123.3704 H   0  0  0  0  0
   10.8944   23.3933  122.1681 H   0  0  0  0  0
   11.0143   24.3143  123.6874 H   0  0  0  0  0
    9.7328   15.3893  123.7701 H   0  0  0  0  0
  1  2  1  0  0  0
  3  1  4  0  0  0
  8  1  4  0  0  0
  2 14  1  0  0  0
  5  3  4  0  0  0
 10  4  1  0  0  0
  4 11  1  0  0  0
  4 17  1  0  0  0
  6  5  4  0  0  0
  6  7  4  0  0  0
  9  6  4  0  0  0
  7  8  4  0  0  0
  7 12  4  0  0  0
  9 10  4  0  0  0
 10 13  4  0  0  0
 12 13  4  0  0  0
 17 15  2  0  0  0
 17 16  1  0  0  0
  3 18  1  0  0  0
  4 19  1  0  0  0
  5 20  1  0  0  0
  8 21  1  0  0  0
  9 22  1  0  0  0
 11 23  1  0  0  0
 11 24  1  0  0  0
 11 25  1  0  0  0
 12 26  1  0  0  0
 13 27  1  0  0  0
 14 28  1  0  0  0
 14 29  1  0  0  0
 14 30  1  0  0  0
 16 31  1  0  0  0
M  END
$$$$
