6t1i_ligand
  -I-interpret- 

 51 53  0  0  0  0  0  0  0  0999 V2000
    4.4010   14.6090   11.6620 C   0  0  0  0  0
    2.2410   14.8110   12.6710 C   0  0  0  0  0
    0.8000   14.3820   12.7840 C   0  0  0  0  0
   -1.1770   14.9500   14.0260 C   0  0  0  0  0
   -5.7570   15.7130   23.5080 O   0  0  0  0  0
    4.7610   15.7560   12.3330 C   0  0  0  0  0
    3.1190   14.1440   11.8470 C   0  0  0  0  0
   -1.8720   14.8790   13.0200 O   0  0  0  0  0
   -4.7870   16.3560   23.1170 C   0  0  0  0  0
   -4.0400   17.2450   24.0630 C   0  0  0  0  0
   -4.3870   16.3120   21.6780 C   0  0  0  0  0
   -3.4280   17.1850   21.1780 C   0  0  0  0  0
   -2.9800   17.0750   19.8770 C   0  0  0  0  0
   -4.8930   15.3250   20.8360 C   0  0  0  0  0
   -4.4260   15.1900   19.5400 C   0  0  0  0  0
   -3.4560   16.0620   19.0410 C   0  0  0  0  0
   -2.9720   15.9290   17.7460 N   0  0  0  0  0
   -1.6110   16.3750   17.4230 C   0  0  0  0  0
   -0.9290   15.4050   16.4670 C   0  0  0  0  0
   -3.4880   14.8970   16.8440 C   0  0  0  0  0
   -3.1640   15.2400   15.4180 C   0  0  0  0  0
   -1.7070   15.2760   15.2270 N   0  0  0  0  0
    0.1610   14.7420   14.0360 N   0  0  0  0  0
    2.7190   15.9370   13.3160 C   0  0  0  0  0
    3.9620   16.4210   13.1590 N   0  0  0  0  0
    6.0030   16.2110   12.0810 O   0  0  0  0  0
    6.4290   17.3820   12.7650 C   0  0  0  0  0
    5.1035   14.0898   11.0101 H   0  0  0  0  0
    0.7853   13.2940   12.7198 H   0  0  0  0  0
    0.2530   14.8894   11.9894 H   0  0  0  0  0
    2.7953   13.2376   11.3354 H   0  0  0  0  0
   -4.7159   18.0043   24.4564 H   0  0  0  0  0
   -3.6443   16.6481   24.8847 H   0  0  0  0  0
   -3.2181   17.7274   23.5339 H   0  0  0  0  0
   -3.0244   17.9667   21.8216 H   0  0  0  0  0
   -2.2466   17.7865   19.4977 H   0  0  0  0  0
   -5.6667   14.6501   21.2022 H   0  0  0  0  0
   -4.8185   14.3967   18.9038 H   0  0  0  0  0
   -1.0312   16.4221   18.3448 H   0  0  0  0  0
   -1.6684   17.3532   16.9455 H   0  0  0  0  0
   -0.8569   14.4277   16.9443 H   0  0  0  0  0
    0.0641   15.7838   16.2253 H   0  0  0  0  0
   -4.5703   14.8345   16.9575 H   0  0  0  0  0
   -3.0249   13.9425   17.0940 H   0  0  0  0  0
   -3.5805   16.2191   15.1816 H   0  0  0  0  0
   -3.5928   14.4831   14.7612 H   0  0  0  0  0
    0.7020   14.8353   14.8956 H   0  0  0  0  0
    2.0462   16.4637   13.9928 H   0  0  0  0  0
    5.7643   18.2091   12.5155 H   0  0  0  0  0
    6.4014   17.2036   13.8400 H   0  0  0  0  0
    7.4468   17.6281   12.4623 H   0  0  0  0  0
  1  6  4  0  0  0
  7  1  4  0  0  0
  3  2  1  0  0  0
  2  7  4  0  0  0
  2 24  4  0  0  0
 23  3  1  0  0  0
  4  8  2  0  0  0
 22  4  1  0  0  0
  4 23  1  0  0  0
  9  5  2  0  0  0
  6 25  4  0  0  0
  6 26  1  0  0  0
  9 10  1  0  0  0
 11  9  1  0  0  0
 12 11  4  0  0  0
 14 11  4  0  0  0
 13 12  4  0  0  0
 16 13  4  0  0  0
 15 14  4  0  0  0
 16 15  4  0  0  0
 17 16  1  0  0  0
 18 17  1  0  0  0
 17 20  1  0  0  0
 19 18  1  0  0  0
 19 22  1  0  0  0
 20 21  1  0  0  0
 21 22  1  0  0  0
 24 25  4  0  0  0
 26 27  1  0  0  0
  1 28  1  0  0  0
  3 29  1  0  0  0
  3 30  1  0  0  0
  7 31  1  0  0  0
 10 32  1  0  0  0
 10 33  1  0  0  0
 10 34  1  0  0  0
 12 35  1  0  0  0
 13 36  1  0  0  0
 14 37  1  0  0  0
 15 38  1  0  0  0
 18 39  1  0  0  0
 18 40  1  0  0  0
 19 41  1  0  0  0
 19 42  1  0  0  0
 20 43  1  0  0  0
 20 44  1  0  0  0
 21 45  1  0  0  0
 21 46  1  0  0  0
 23 47  1  0  0  0
 24 48  1  0  0  0
 27 49  1  0  0  0
 27 50  1  0  0  0
 27 51  1  0  0  0
M  END
$$$$
