5l15_ligand
  -I-interpret- 

 47 47  0  0  0  0  0  0  0  0999 V2000
   23.8480  -19.8630  -65.1160 C   0  0  0  0  0
   22.7380  -19.6920  -65.6980 O   0  0  0  0  0
   24.4020  -20.9970  -65.0940 O   0  0  0  0  0
   24.5240  -18.7370  -64.4020 C   0  0  0  0  0
   23.9500  -17.3980  -64.2650 C   0  0  0  0  0
   24.6170  -16.5960  -62.9930 C   0  0  0  0  0
   25.9160  -16.5150  -63.0350 C   0  0  0  0  0
   26.4450  -15.7690  -61.8420 N   0  0  0  0  0
   27.1720  -14.5690  -62.0080 C   0  0  0  0  0
   27.3460  -14.1170  -63.1170 O   0  0  0  0  0
   27.7000  -13.8540  -60.7910 C   0  0  0  0  0
   26.6790  -17.9710  -62.9430 C   0  0  0  0  0
   26.0320  -19.0530  -63.6750 C   0  0  0  0  0
   28.1000  -17.8810  -63.2240 O   0  0  0  0  0
   28.8970  -18.1020  -62.0380 C   0  0  0  0  0
   28.5290  -19.4190  -61.3390 C   0  0  0  0  0
   30.3880  -18.0430  -62.3990 C   0  0  0  0  0
   30.7790  -16.5730  -62.4790 C   0  0  0  0  0
   29.0590  -20.6090  -62.1410 C   0  0  0  0  0
   24.0180  -15.2060  -62.9450 N   0  3  0  0  0
   22.4716  -18.7736  -65.6131 H   0  0  0  0  0
   23.8264  -18.3313  -65.1348 H   0  0  0  0  0
   22.8778  -17.4937  -64.0939 H   0  0  0  0  0
   24.1527  -16.8363  -65.1769 H   0  0  0  0  0
   24.3887  -17.1683  -62.0939 H   0  0  0  0  0
   26.1133  -16.0275  -63.9897 H   0  0  0  0  0
   26.2775  -16.1326  -60.9038 H   0  0  0  0  0
   28.7840  -13.7664  -60.8644 H   0  0  0  0  0
   27.2568  -12.8598  -60.7345 H   0  0  0  0  0
   27.4397  -14.4205  -59.8969 H   0  0  0  0  0
   26.5789  -18.2555  -61.8956 H   0  0  0  0  0
   26.7062  -19.2887  -64.4984 H   0  0  0  0  0
   25.8388  -19.8285  -62.9338 H   0  0  0  0  0
   28.6821  -17.3081  -61.3228 H   0  0  0  0  0
   27.4440  -19.4930  -61.2658 H   0  0  0  0  0
   28.9752  -19.4319  -60.3446 H   0  0  0  0  0
   30.5704  -18.5394  -63.3521 H   0  0  0  0  0
   30.9844  -18.5566  -61.6450 H   0  0  0  0  0
   30.1803  -16.0803  -63.2451 H   0  0  0  0  0
   30.5999  -16.0977  -61.5146 H   0  0  0  0  0
   31.8356  -16.4928  -62.7344 H   0  0  0  0  0
   28.6188  -20.5985  -63.1381 H   0  0  0  0  0
   30.1437  -20.5377  -62.2206 H   0  0  0  0  0
   28.7908  -21.5357  -61.6337 H   0  0  0  0  0
   23.0010  -15.2763  -62.9123 H   0  0  0  0  0
   24.3535  -14.7211  -62.1127 H   0  0  0  0  0
   24.2975  -14.6877  -63.7778 H   0  0  0  0  0
  1  2  1  0  0  0
  1  3  2  0  0  0
  1  4  1  0  0  0
  4  5  1  0  0  0
  4 13  1  0  0  0
  5  6  1  0  0  0
  6  7  1  0  0  0
  6 20  1  0  0  0
  7  8  1  0  0  0
  7 12  1  0  0  0
  8  9  1  0  0  0
  9 10  2  0  0  0
  9 11  1  0  0  0
 12 13  1  0  0  0
 12 14  1  0  0  0
 14 15  1  0  0  0
 15 16  1  0  0  0
 15 17  1  0  0  0
 16 19  1  0  0  0
 17 18  1  0  0  0
  2 21  1  0  0  0
  4 22  1  0  0  0
  5 23  1  0  0  0
  5 24  1  0  0  0
  6 25  1  0  0  0
  7 26  1  0  0  0
  8 27  1  0  0  0
 11 28  1  0  0  0
 11 29  1  0  0  0
 11 30  1  0  0  0
 12 31  1  0  0  0
 13 32  1  0  0  0
 13 33  1  0  0  0
 15 34  1  0  0  0
 16 35  1  0  0  0
 16 36  1  0  0  0
 17 37  1  0  0  0
 17 38  1  0  0  0
 18 39  1  0  0  0
 18 40  1  0  0  0
 18 41  1  0  0  0
 19 42  1  0  0  0
 19 43  1  0  0  0
 19 44  1  0  0  0
 20 45  1  0  0  0
 20 46  1  0  0  0
 20 47  1  0  0  0
M  END
$$$$
