3qri_ligand
  -I-interpret- 

 69 73  0  0  0  0  0  0  0  0999 V2000
   26.5400    7.9350   28.7590 C   0  0  0  0  0
   26.9920    6.6310   28.5320 C   0  0  0  0  0
   27.1300    5.6850   29.5410 C   0  0  0  0  0
   26.8920    6.0360   30.8630 C   0  0  0  0  0
   26.3500    7.2820   31.1250 C   0  0  0  0  0
   26.2240    8.2250   30.0900 C   0  0  0  0  0
   26.5480    5.3600   33.0870 C   0  0  0  0  0
   26.9800    5.1040   31.8390 N   0  0  0  0  0
   26.0300    7.6110   32.4420 C   0  0  0  0  0
   26.2700    6.6790   33.4480 C   0  0  0  0  0
   29.0890   20.1520   30.3000 C   0  0  0  0  0
   28.6330   21.0580   31.1800 N   0  0  0  0  0
   28.3310   20.7220   32.4460 C   0  0  0  0  0
   28.5310   19.4100   32.8760 C   0  0  0  0  0
   29.0080   18.4590   31.9850 C   0  0  0  0  0
   29.2920   18.8320   30.6840 C   0  0  0  0  0
   27.6220   14.5020   30.4660 C   0  0  0  0  0
   27.8550   15.7500   31.0450 C   0  0  0  0  0
   28.9910   15.9850   31.8080 C   0  0  0  0  0
   29.9050   14.9540   31.9970 C   0  0  0  0  0
   29.6810   13.7170   31.4130 C   0  0  0  0  0
   28.5530   13.4710   30.6310 C   0  0  0  0  0
   25.5050    9.5670   25.9910 C   0  0  0  0  0
   26.0910   10.6450   26.6250 C   0  0  0  0  0
   26.7810   10.1020   27.6990 C   0  0  0  0  0
   26.4570    8.7880   27.7170 N   0  0  0  0  0
   25.6590    8.4110   26.6400 N   0  0  0  0  0
   27.5220   10.6070   28.7330 N   0  0  0  0  0
   27.6000   11.9190   29.0400 C   0  0  0  0  0
   28.3470   12.2220   30.1160 N   0  0  0  0  0
   27.0330   12.7870   28.3770 O   0  0  0  0  0
   29.2240   17.1830   32.4340 O   0  0  0  0  0
   30.5930   12.7680   31.6170 F   0  0  0  0  0
   27.8100   21.7820   33.3890 C   0  0  0  0  0
   27.4140   21.4530   34.4960 O   0  0  0  0  0
   27.8050   23.0510   32.9930 N   0  0  0  0  0
   27.5850   24.1310   33.9340 C   0  0  0  0  0
   24.4900    9.7050   24.8860 C   0  0  0  0  0
   25.2690    9.5690   23.5810 C   0  0  0  0  0
   23.7790   11.0620   24.9430 C   0  0  0  0  0
   23.4640    8.5790   24.9890 C   0  0  0  0  0
   27.2489    6.3422   27.5128 H   0  0  0  0  0
   27.4257    4.6654   29.2938 H   0  0  0  0  0
   25.8648    9.2244   30.3354 H   0  0  0  0  0
   26.4172    4.5502   33.8047 H   0  0  0  0  0
   25.5985    8.5832   32.6801 H   0  0  0  0  0
   26.2413    6.9738   34.4970 H   0  0  0  0  0
   29.3019   20.4548   29.2748 H   0  0  0  0  0
   28.3135   19.1330   33.9075 H   0  0  0  0  0
   29.6699   18.1007   29.9696 H   0  0  0  0  0
   26.7154   14.3306   29.8857 H   0  0  0  0  0
   27.1336   16.5534   30.8959 H   0  0  0  0  0
   30.7958   15.1183   32.6032 H   0  0  0  0  0
   26.0255   11.6957   26.3425 H   0  0  0  0  0
   28.0489    9.9499   29.3083 H   0  0  0  0  0
   28.8038   11.4452   30.5938 H   0  0  0  0  0
   27.9589   23.2686   32.0084 H   0  0  0  0  0
   26.6084   24.0096   34.4026 H   0  0  0  0  0
   28.3616   24.1089   34.6986 H   0  0  0  0  0
   27.6202   25.0840   33.4061 H   0  0  0  0  0
   26.0222   10.3549   23.5254 H   0  0  0  0  0
   25.7561    8.5944   23.5500 H   0  0  0  0  0
   24.5833    9.6609   22.7387 H   0  0  0  0  0
   23.2650   11.1616   25.8990 H   0  0  0  0  0
   24.5138   11.8604   24.8392 H   0  0  0  0  0
   23.0545   11.1255   24.1311 H   0  0  0  0  0
   23.9706    7.6182   24.8982 H   0  0  0  0  0
   22.9599    8.6357   25.9537 H   0  0  0  0  0
   22.7317    8.6821   24.1883 H   0  0  0  0  0
  1  2  4  0  0  0
  1  6  4  0  0  0
 26  1  1  0  0  0
  2  3  4  0  0  0
  3  4  4  0  0  0
  5  4  4  0  0  0
  4  8  4  0  0  0
  6  5  4  0  0  0
  5  9  4  0  0  0
  8  7  4  0  0  0
 10  7  4  0  0  0
  9 10  4  0  0  0
 11 12  4  0  0  0
 16 11  4  0  0  0
 13 12  4  0  0  0
 14 13  4  0  0  0
 13 34  1  0  0  0
 15 14  4  0  0  0
 15 16  4  0  0  0
 32 15  1  0  0  0
 17 18  4  0  0  0
 22 17  4  0  0  0
 18 19  4  0  0  0
 20 19  4  0  0  0
 19 32  1  0  0  0
 21 20  4  0  0  0
 22 21  4  0  0  0
 21 33  1  0  0  0
 30 22  1  0  0  0
 24 23  4  0  0  0
 27 23  4  0  0  0
 23 38  1  0  0  0
 25 24  4  0  0  0
 25 26  4  0  0  0
 28 25  1  0  0  0
 26 27  4  0  0  0
 29 28  1  0  0  0
 29 30  1  0  0  0
 29 31  2  0  0  0
 34 35  2  0  0  0
 34 36  1  0  0  0
 36 37  1  0  0  0
 38 39  1  0  0  0
 38 40  1  0  0  0
 38 41  1  0  0  0
  2 42  1  0  0  0
  3 43  1  0  0  0
  6 44  1  0  0  0
  7 45  1  0  0  0
  9 46  1  0  0  0
 10 47  1  0  0  0
 11 48  1  0  0  0
 14 49  1  0  0  0
 16 50  1  0  0  0
 17 51  1  0  0  0
 18 52  1  0  0  0
 20 53  1  0  0  0
 24 54  1  0  0  0
 28 55  1  0  0  0
 30 56  1  0  0  0
 36 57  1  0  0  0
 37 58  1  0  0  0
 37 59  1  0  0  0
 37 60  1  0  0  0
 39 61  1  0  0  0
 39 62  1  0  0  0
 39 63  1  0  0  0
 40 64  1  0  0  0
 40 65  1  0  0  0
 40 66  1  0  0  0
 41 67  1  0  0  0
 41 68  1  0  0  0
 41 69  1  0  0  0
M  END
$$$$
