5fho_ligand
  -I-interpret- 

 39 41  0  0  0  0  0  0  0  0999 V2000
   93.2970   16.9610   29.1280 C   0  0  0  0  0
   93.5990   16.6690   30.4050 C   0  0  0  0  0
   92.6670   17.1750   31.2800 O   0  0  0  0  0
   91.7160   17.8400   30.4640 N   0  0  0  0  0
   92.0800   17.7190   29.1610 C   0  0  0  0  0
   94.7450   15.8990   30.9270 C   0  0  0  0  0
   94.8430   15.6310   32.2580 N   0  0  0  0  0
   95.9320   14.9460   32.3790 N   0  0  0  0  0
   96.4520   14.8260   31.1330 N   0  0  0  0  0
   95.7190   15.4230   30.1630 N   0  0  0  0  0
   97.6940   14.1090   30.9020 C   0  0  0  0  0
  100.1700   14.2980   34.4680 C   0  0  0  0  0
   99.4270   13.1380   34.1900 C   0  0  0  0  0
   98.6230   13.0770   33.0340 C   0  0  0  0  0
   98.5680   14.1750   32.1490 C   0  0  0  0  0
   99.3130   15.3400   32.4360 C   0  0  0  0  0
  100.1140   15.4000   33.5920 C   0  0  0  0  0
   91.4770   18.1810   28.1720 O   0  0  0  0  0
   94.0280   16.6100   27.8360 C   0  0  0  0  0
   93.5370   15.3040   27.1570 C   0  0  0  0  0
   93.5530   15.4100   25.6170 C   0  0  0  0  0
   94.1010   14.4950   24.9680 O   0  0  0  0  0
   93.0280   16.3950   25.0590 O   0  0  0  0  0
   94.3290   14.1220   27.5340 N   0  3  0  0  0
   99.5060   11.7960   35.2730 Cl  0  0  0  0  0
   90.8889   18.3317   30.8025 H   0  0  0  0  0
   98.2237   14.5659   30.0661 H   0  0  0  0  0
   97.4712   13.0669   30.6728 H   0  0  0  0  0
  100.7906   14.3452   35.3628 H   0  0  0  0  0
   98.0420   12.1792   32.8229 H   0  0  0  0  0
   99.2676   16.1946   31.7609 H   0  0  0  0  0
  100.6908   16.2989   33.8094 H   0  0  0  0  0
   95.0773   16.4629   28.0917 H   0  0  0  0  0
   93.8459   17.4237   27.1340 H   0  0  0  0  0
   92.5156   15.1773   27.5159 H   0  0  0  0  0
   94.4416   13.8335   25.5747 H   0  0  0  0  0
   93.9585   13.2998   27.0573 H   0  0  0  0  0
   95.3015   14.2649   27.2617 H   0  0  0  0  0
   94.2738   13.9850   28.5433 H   0  0  0  0  0
  2  1  2  0  0  0
  1  5  1  0  0  0
  1 19  1  0  0  0
  2  3  1  0  0  0
  6  2  1  0  0  0
  3  4  1  0  0  0
  4  5  1  0  0  0
  5 18  2  0  0  0
  6  7  4  0  0  0
 10  6  4  0  0  0
  8  7  4  0  0  0
  9  8  4  0  0  0
  9 10  4  0  0  0
 11  9  1  0  0  0
 15 11  1  0  0  0
 13 12  4  0  0  0
 12 17  4  0  0  0
 14 13  4  0  0  0
 13 25  1  0  0  0
 14 15  4  0  0  0
 15 16  4  0  0  0
 16 17  4  0  0  0
 19 20  1  0  0  0
 20 21  1  0  0  0
 20 24  1  0  0  0
 21 22  1  0  0  0
 21 23  2  0  0  0
  4 26  1  0  0  0
 11 27  1  0  0  0
 11 28  1  0  0  0
 12 29  1  0  0  0
 14 30  1  0  0  0
 16 31  1  0  0  0
 17 32  1  0  0  0
 19 33  1  0  0  0
 19 34  1  0  0  0
 20 35  1  0  0  0
 22 36  1  0  0  0
 24 37  1  0  0  0
 24 38  1  0  0  0
 24 39  1  0  0  0
M  END
$$$$
