5jrs_ligand
  -I-interpret- 

 60 65  0  0  0  0  0  0  0  0999 V2000
   11.1070   10.9160    1.6330 C   0  0  0  0  0
   11.0070   14.1780   -0.3920 C   0  0  0  0  0
   11.4930   14.0810   -1.8270 C   0  0  0  0  0
   11.3820   15.5220    0.2080 C   0  0  0  0  0
   11.0540    7.8760    4.6870 C   0  0  0  0  0
    9.8590    7.1820    4.8040 C   0  0  0  0  0
    9.2340    6.6530    3.6870 C   0  0  0  0  0
    9.8150    6.8300    2.4290 C   0  0  0  0  0
   11.5290   13.0070    0.4450 C   0  0  0  0  0
   10.6660   11.9900    0.8690 C   0  0  0  0  0
    7.3880    4.4180   -1.9500 C   0  0  0  0  0
    8.6130    7.1610    0.3170 C   0  0  0  0  0
   14.5870   10.4180    2.7490 C   0  0  0  0  0
   13.2740    9.8880    2.7410 C   0  0  0  0  0
   13.0130    8.6740    3.4110 C   0  0  0  0  0
   14.0650    8.0330    4.0710 C   0  0  0  0  0
   15.3440    8.5690    4.0740 C   0  0  0  0  0
   15.6420    9.7610    3.4070 C   0  0  0  0  0
   14.6020   11.5900    2.0200 N   0  0  0  0  0
   13.3230   11.8520    1.5530 C   0  0  0  0  0
   12.4570   10.8260    1.9760 C   0  0  0  0  0
   12.8750   12.9360    0.7900 C   0  0  0  0  0
   16.9950   10.3950    3.4830 C   0  0  0  0  0
   17.1310   11.5590    3.1540 O   0  0  0  0  0
   18.0070    9.6930    3.9970 N   0  0  0  0  0
    9.5670   14.1250   -0.4960 O   0  0  0  0  0
   11.0540    7.5170    2.3200 C   0  0  0  0  0
   11.6650    8.0350    3.4470 C   0  0  0  0  0
   11.6290    7.6780    1.1160 F   0  0  0  0  0
    9.1700    6.2930    1.2560 N   0  0  0  0  0
    9.1070    4.9310    1.1040 C   0  0  0  0  0
    8.5850    4.2990    0.1190 N   0  0  0  0  0
    7.9820    5.0720   -0.8710 C   0  0  0  0  0
    7.9630    6.4710   -0.8160 C   0  0  0  0  0
    6.7940    5.1480   -2.9650 C   0  0  0  0  0
    6.7660    6.5300   -2.9080 C   0  0  0  0  0
    7.3480    7.2000   -1.8380 C   0  0  0  0  0
    8.6990    8.3660    0.4220 O   0  0  0  0  0
   10.4044   10.1502    1.9616 H   0  0  0  0  0
   12.5828   14.0984   -1.8421 H   0  0  0  0  0
   11.1370   13.1498   -2.2676 H   0  0  0  0  0
   11.1069   14.9255   -2.3979 H   0  0  0  0  0
   10.9569   15.6032    1.2084 H   0  0  0  0  0
   12.4675   15.6026    0.2655 H   0  0  0  0  0
   10.9898   16.3213   -0.4208 H   0  0  0  0  0
   11.5196    8.3015    5.5760 H   0  0  0  0  0
    9.4062    7.0513    5.7869 H   0  0  0  0  0
    8.2979    6.1039    3.7885 H   0  0  0  0  0
    9.6134   12.0420    0.5909 H   0  0  0  0  0
    7.3915    3.3289   -1.9942 H   0  0  0  0  0
   13.8768    7.0947    4.5929 H   0  0  0  0  0
   16.1371    8.0477    4.6100 H   0  0  0  0  0
   13.5698   13.7128    0.4708 H   0  0  0  0  0
   18.9198   10.1307    4.1218 H   0  0  0  0  0
   17.8676    8.7188    4.2650 H   0  0  0  0  0
    9.2579   14.8654   -1.0232 H   0  0  0  0  0
    9.5439    4.3271    1.8993 H   0  0  0  0  0
    6.3459    4.6313   -3.8137 H   0  0  0  0  0
    6.2853    7.0962   -3.7058 H   0  0  0  0  0
    7.3249    8.2889   -1.7961 H   0  0  0  0  0
  1 10  4  0  0  0
 21  1  4  0  0  0
  2  3  1  0  0  0
  2  4  1  0  0  0
  9  2  1  0  0  0
  2 26  1  0  0  0
  6  5  4  0  0  0
 28  5  4  0  0  0
  7  6  4  0  0  0
  8  7  4  0  0  0
  8 27  4  0  0  0
 30  8  1  0  0  0
 10  9  4  0  0  0
 22  9  4  0  0  0
 33 11  4  0  0  0
 11 35  4  0  0  0
 30 12  1  0  0  0
 12 34  1  0  0  0
 12 38  2  0  0  0
 14 13  4  0  0  0
 13 18  4  0  0  0
 13 19  4  0  0  0
 15 14  4  0  0  0
 14 21  4  0  0  0
 15 16  4  0  0  0
 28 15  1  0  0  0
 16 17  4  0  0  0
 17 18  4  0  0  0
 18 23  1  0  0  0
 20 19  4  0  0  0
 21 20  4  0  0  0
 20 22  4  0  0  0
 23 24  2  0  0  0
 23 25  1  0  0  0
 27 28  4  0  0  0
 27 29  1  0  0  0
 31 30  1  0  0  0
 32 31  2  0  0  0
 32 33  1  0  0  0
 33 34  4  0  0  0
 34 37  4  0  0  0
 35 36  4  0  0  0
 36 37  4  0  0  0
  1 39  1  0  0  0
  3 40  1  0  0  0
  3 41  1  0  0  0
  3 42  1  0  0  0
  4 43  1  0  0  0
  4 44  1  0  0  0
  4 45  1  0  0  0
  5 46  1  0  0  0
  6 47  1  0  0  0
  7 48  1  0  0  0
 10 49  1  0  0  0
 11 50  1  0  0  0
 16 51  1  0  0  0
 17 52  1  0  0  0
 22 53  1  0  0  0
 25 54  1  0  0  0
 25 55  1  0  0  0
 26 56  1  0  0  0
 31 57  1  0  0  0
 35 58  1  0  0  0
 36 59  1  0  0  0
 37 60  1  0  0  0
M  END
$$$$
