4bti_ligand
  -I-interpret- 

 75 78  0  0  0  0  0  0  0  0999 V2000
   31.6740  -24.1750  -41.4650 C   0  0  0  0  0
   30.5710  -23.4020  -41.5740 C   0  0  0  0  0
   30.7990  -22.0940  -41.4080 C   0  0  0  0  0
   29.6070  -20.8510  -41.4840 Cl  0  0  0  0  0
   32.4200  -21.8450  -41.1130 S   0  0  0  0  0
   32.7920  -23.4910  -41.1990 C   0  0  0  0  0
   34.1970  -24.0580  -41.0310 C   0  0  0  0  0
   35.1650  -23.3020  -41.0940 O   0  0  0  0  0
   34.3160  -25.3710  -40.8070 N   0  0  0  0  0
   35.6540  -25.9920  -40.6820 C   0  0  0  0  0
   36.1370  -26.1060  -39.2240 C   0  0  0  0  0
   36.0960  -24.7410  -38.5320 C   0  0  0  0  0
   35.0740  -24.3410  -37.9750 O   0  0  0  0  0
   37.1800  -23.9670  -38.5460 N   0  0  0  0  0
   38.4560  -24.3290  -39.1820 C   0  0  0  0  0
   37.2580  -22.6360  -37.9230 C   0  0  0  0  0
   38.6810  -22.1690  -38.2310 C   0  0  0  0  0
   39.4540  -23.4690  -38.4190 C   0  0  0  0  0
   40.6590  -23.2470  -39.2370 N   0  3  0  0  0
   41.4430  -22.1190  -38.7100 C   0  0  0  0  0
   41.5040  -24.4560  -39.2310 C   0  0  0  0  0
   35.2790  -27.0710  -38.5200 N   0  0  0  0  0
   36.1160  -28.0130  -37.4920 S   0  0  0  0  0
   35.1510  -28.9650  -36.8520 O   0  0  0  0  0
   37.1540  -28.7870  -38.2410 O   0  0  0  0  0
   36.9040  -27.0130  -36.2840 C   0  0  0  0  0
   36.1660  -26.3960  -35.2740 C   0  0  0  0  0
   34.8090  -26.5620  -35.2290 O   0  0  0  0  0
   34.3360  -27.4150  -34.1780 C   0  0  0  0  0
   33.0070  -27.3320  -34.1820 F   0  0  0  0  0
   34.5880  -28.7120  -34.4080 F   0  0  0  0  0
   38.2860  -26.8330  -36.3500 C   0  0  0  0  0
   38.9380  -26.0420  -35.4050 C   0  0  0  0  0
   38.2030  -25.4240  -34.3970 C   0  0  0  0  0
   36.8230  -25.5990  -34.3320 C   0  0  0  0  0
   36.1120  -24.9580  -33.3060 N   0  0  0  0  0
   35.3110  -23.7610  -33.6530 C   0  0  0  0  0
   35.1470  -22.8500  -32.4480 C   0  0  0  0  0
   34.5120  -23.6350  -31.3100 C   0  0  0  0  0
   35.4270  -24.7750  -30.8400 C   0  0  0  0  0
   36.1730  -25.4510  -31.9920 C   0  0  0  0  0
   36.8550  -26.4410  -31.7450 O   0  0  0  0  0
   31.6543  -25.2584  -41.5832 H   0  0  0  0  0
   29.5809  -23.8089  -41.7794 H   0  0  0  0  0
   33.4795  -25.9483  -40.7217 H   0  0  0  0  0
   36.3628  -25.3591  -41.2159 H   0  0  0  0  0
   35.5885  -27.0015  -41.0879 H   0  0  0  0  0
   37.1704  -26.4522  -39.2061 H   0  0  0  0  0
   38.4665  -24.1470  -40.2567 H   0  0  0  0  0
   38.6765  -25.3949  -39.1249 H   0  0  0  0  0
   37.0551  -22.6674  -36.8525 H   0  0  0  0  0
   36.5042  -21.9517  -38.3125 H   0  0  0  0  0
   39.0966  -21.5488  -37.4368 H   0  0  0  0  0
   38.7270  -21.5265  -39.1103 H   0  0  0  0  0
   39.7997  -23.9089  -37.4835 H   0  0  0  0  0
   40.3603  -23.0356  -40.1891 H   0  0  0  0  0
   40.8334  -21.2155  -38.7262 H   0  0  0  0  0
   41.7462  -22.3360  -37.6857 H   0  0  0  0  0
   42.3282  -21.9728  -39.3290 H   0  0  0  0  0
   41.8020  -24.6843  -38.2077 H   0  0  0  0  0
   40.9405  -25.2936  -39.6422 H   0  0  0  0  0
   42.3916  -24.2803  -39.8387 H   0  0  0  0  0
   34.2712  -27.1416  -38.6608 H   0  0  0  0  0
   34.8241  -27.1001  -33.2557 H   0  0  0  0  0
   38.8584  -27.3129  -37.1438 H   0  0  0  0  0
   40.0186  -25.9080  -35.4552 H   0  0  0  0  0
   38.7083  -24.8024  -33.6578 H   0  0  0  0  0
   34.3243  -24.0838  -33.9851 H   0  0  0  0  0
   35.8260  -23.2110  -34.4406 H   0  0  0  0  0
   34.5087  -22.0066  -32.7113 H   0  0  0  0  0
   36.1226  -22.4775  -32.1356 H   0  0  0  0  0
   33.5759  -24.0656  -31.6655 H   0  0  0  0  0
   34.3436  -22.9576  -30.4728 H   0  0  0  0  0
   34.8019  -25.5280  -30.3601 H   0  0  0  0  0
   36.1701  -24.3496  -30.1655 H   0  0  0  0  0
  1  2  4  0  0  0
  1  6  4  0  0  0
  2  3  4  0  0  0
  3  4  1  0  0  0
  3  5  4  0  0  0
  5  6  4  0  0  0
  6  7  1  0  0  0
  7  8  2  0  0  0
  7  9  1  0  0  0
  9 10  1  0  0  0
 10 11  1  0  0  0
 11 12  1  0  0  0
 11 22  1  0  0  0
 12 13  2  0  0  0
 12 14  1  0  0  0
 14 15  1  0  0  0
 14 16  1  0  0  0
 15 18  1  0  0  0
 16 17  1  0  0  0
 17 18  1  0  0  0
 18 19  1  0  0  0
 19 20  1  0  0  0
 19 21  1  0  0  0
 22 23  1  0  0  0
 23 24  2  0  0  0
 23 25  2  0  0  0
 23 26  1  0  0  0
 26 27  4  0  0  0
 26 32  4  0  0  0
 27 28  1  0  0  0
 27 35  4  0  0  0
 28 29  1  0  0  0
 29 30  1  0  0  0
 29 31  1  0  0  0
 32 33  4  0  0  0
 33 34  4  0  0  0
 34 35  4  0  0  0
 35 36  1  0  0  0
 36 37  1  0  0  0
 36 41  1  0  0  0
 37 38  1  0  0  0
 38 39  1  0  0  0
 39 40  1  0  0  0
 40 41  1  0  0  0
 41 42  2  0  0  0
  1 43  1  0  0  0
  2 44  1  0  0  0
  9 45  1  0  0  0
 10 46  1  0  0  0
 10 47  1  0  0  0
 11 48  1  0  0  0
 15 49  1  0  0  0
 15 50  1  0  0  0
 16 51  1  0  0  0
 16 52  1  0  0  0
 17 53  1  0  0  0
 17 54  1  0  0  0
 18 55  1  0  0  0
 19 56  1  0  0  0
 20 57  1  0  0  0
 20 58  1  0  0  0
 20 59  1  0  0  0
 21 60  1  0  0  0
 21 61  1  0  0  0
 21 62  1  0  0  0
 22 63  1  0  0  0
 29 64  1  0  0  0
 32 65  1  0  0  0
 33 66  1  0  0  0
 34 67  1  0  0  0
 37 68  1  0  0  0
 37 69  1  0  0  0
 38 70  1  0  0  0
 38 71  1  0  0  0
 39 72  1  0  0  0
 39 73  1  0  0  0
 40 74  1  0  0  0
 40 75  1  0  0  0
M  END
$$$$
