5wkm_ligand
  -I-interpret- 

 48 48  0  0  0  0  0  0  0  0999 V2000
  -21.5580   -5.6680    2.0060 C   0  0  0  0  0
  -20.9340   -3.2780    1.8550 C   0  0  0  0  0
  -20.9890   -2.1610    0.8090 C   0  0  0  0  0
  -20.4960   -2.5860   -0.5880 C   0  0  0  0  0
  -18.9700   -2.7080   -0.6300 C   0  0  0  0  0
  -20.9810   -1.6240   -1.6740 C   0  0  0  0  0
  -21.4250   -2.7710    3.2180 C   0  0  0  0  0
  -21.0290   -1.4830    5.3580 C   0  0  0  0  0
  -20.3900   -2.3040    6.4980 C   0  0  0  0  0
  -20.8520   -3.7590    6.5260 C   0  0  0  0  0
  -20.0990   -4.5090    7.7040 C   0  0  0  0  0
  -22.4800   -4.8640    7.7800 C   0  0  0  0  0
  -22.3430   -3.8380    6.8830 C   0  0  0  0  0
  -20.7000    0.0040    5.4430 C   0  0  0  0  0
  -22.2630   -7.9090    2.3170 C   0  0  0  0  0
  -21.8070   -4.3560    1.4590 N   0  0  0  0  0
  -20.5590   -1.9610    4.0710 N   0  0  0  0  0
  -21.0570   -5.1420    8.4420 N   0  0  0  0  0
  -20.7380   -5.8070    2.8670 O   0  0  0  0  0
  -18.9250   -4.4980    7.8910 O   0  0  0  0  0
  -21.1390    0.8760    6.4400 O   0  0  0  0  0
  -22.5130   -3.0420    3.5870 O   0  0  0  0  0
  -22.2920   -6.7540    1.5050 O   0  0  0  0  0
  -19.8999   -3.6143    1.9299 H   0  0  0  0  0
  -20.3329   -1.3620    1.1543 H   0  0  0  0  0
  -22.0329   -1.8643    0.7072 H   0  0  0  0  0
  -20.9240   -3.5681   -0.7893 H   0  0  0  0  0
  -18.6638   -3.0871   -1.6050 H   0  0  0  0  0
  -18.5237   -1.7276   -0.4634 H   0  0  0  0  0
  -18.6402   -3.3958    0.1486 H   0  0  0  0  0
  -20.5399   -0.6408   -1.5101 H   0  0  0  0  0
  -20.6800   -2.0003   -2.6517 H   0  0  0  0  0
  -22.0675   -1.5479   -1.6313 H   0  0  0  0  0
  -22.1064   -1.6112    5.4625 H   0  0  0  0  0
  -20.6874   -1.8455    7.4411 H   0  0  0  0  0
  -19.3115   -2.3036    6.3400 H   0  0  0  0  0
  -20.6536   -4.1973    5.5479 H   0  0  0  0  0
  -23.4034   -5.3985    8.0028 H   0  0  0  0  0
  -23.1388   -3.2008    6.4972 H   0  0  0  0  0
  -21.1991    0.3991    4.5582 H   0  0  0  0  0
  -19.6229   -0.0097    5.6098 H   0  0  0  0  0
  -21.2329   -8.2477    2.4280 H   0  0  0  0  0
  -22.6769   -7.6729    3.2973 H   0  0  0  0  0
  -22.8569   -8.6948    1.8502 H   0  0  0  0  0
  -22.5782   -4.1955    0.8110 H   0  0  0  0  0
  -19.6158   -1.7294    3.7593 H   0  0  0  0  0
  -20.8899   -5.7006    9.2789 H   0  0  0  0  0
  -20.7959    1.7559    6.2678 H   0  0  0  0  0
 16  1  1  0  0  0
  1 19  2  0  0  0
  1 23  1  0  0  0
  2  3  1  0  0  0
  7  2  1  0  0  0
  2 16  1  0  0  0
  3  4  1  0  0  0
  4  5  1  0  0  0
  4  6  1  0  0  0
 17  7  1  0  0  0
  7 22  2  0  0  0
  8  9  1  0  0  0
  8 14  1  0  0  0
  8 17  1  0  0  0
  9 10  1  0  0  0
 10 11  1  0  0  0
 10 13  1  0  0  0
 11 18  1  0  0  0
 11 20  2  0  0  0
 13 12  2  0  0  0
 12 18  1  0  0  0
 14 21  1  0  0  0
 23 15  1  0  0  0
  2 24  1  0  0  0
  3 25  1  0  0  0
  3 26  1  0  0  0
  4 27  1  0  0  0
  5 28  1  0  0  0
  5 29  1  0  0  0
  5 30  1  0  0  0
  6 31  1  0  0  0
  6 32  1  0  0  0
  6 33  1  0  0  0
  8 34  1  0  0  0
  9 35  1  0  0  0
  9 36  1  0  0  0
 10 37  1  0  0  0
 12 38  1  0  0  0
 13 39  1  0  0  0
 14 40  1  0  0  0
 14 41  1  0  0  0
 15 42  1  0  0  0
 15 43  1  0  0  0
 15 44  1  0  0  0
 16 45  1  0  0  0
 17 46  1  0  0  0
 18 47  1  0  0  0
 21 48  1  0  0  0
M  END
$$$$
