4jlh_ligand
  -I-interpret- 

 40 42  0  0  0  0  0  0  0  0999 V2000
  -32.2180   14.7870  -18.5140 Cl  0  0  0  0  0
  -30.5310   14.8500  -18.0540 C   0  0  0  0  0
  -29.5640   14.6030  -19.0320 C   0  0  0  0  0
  -28.2340   14.6940  -18.6320 C   0  0  0  0  0
  -30.2580   15.1240  -16.7320 C   0  0  0  0  0
  -28.9280   15.2020  -16.3520 C   0  0  0  0  0
  -27.9230   14.9840  -17.3120 C   0  0  0  0  0
  -26.4990   15.0230  -16.8690 C   0  0  0  0  0
  -25.7740   13.8300  -16.7240 C   0  0  0  0  0
  -26.4010   12.5300  -17.0910 C   0  0  0  0  0
  -26.2490   11.5800  -16.0260 O   0  0  0  0  0
  -27.3330   11.7290  -15.0730 C   0  0  0  0  0
  -25.8110   12.0410  -18.4120 C   0  0  0  0  0
  -25.5970   10.8160  -18.5660 O   0  0  0  0  0
  -25.5740   12.8720  -19.3450 O   0  0  0  0  0
  -25.8860   16.2280  -16.5190 C   0  0  0  0  0
  -26.5570   17.4570  -16.6180 C   0  0  0  0  0
  -25.8410   18.6080  -16.2640 C   0  0  0  0  0
  -26.7060   20.2660  -16.3770 Br  0  0  0  0  0
  -24.5290   18.6030  -15.8360 C   0  0  0  0  0
  -23.8610   17.3970  -15.7610 C   0  0  0  0  0
  -24.5630   16.2280  -16.1030 C   0  0  0  0  0
  -23.8800   15.0820  -15.9940 N   0  0  0  0  0
  -24.4290   13.8950  -16.2910 C   0  0  0  0  0
  -23.4760   12.7480  -16.1220 C   0  0  0  0  0
  -29.8376   14.3517  -20.0567 H   0  0  0  0  0
  -27.4356   14.5371  -19.3573 H   0  0  0  0  0
  -31.0605   15.2742  -16.0099 H   0  0  0  0  0
  -28.6629   15.4300  -15.3196 H   0  0  0  0  0
  -27.4737   12.6582  -17.2360 H   0  0  0  0  0
  -27.3166   12.7379  -14.6608 H   0  0  0  0  0
  -28.2841   11.5564  -15.5766 H   0  0  0  0  0
  -27.2097   11.0043  -14.2682 H   0  0  0  0  0
  -25.7971   13.7572  -19.0479 H   0  0  0  0  0
  -27.5917   17.5134  -16.9561 H   0  0  0  0  0
  -24.0300   19.5327  -15.5626 H   0  0  0  0  0
  -22.8186   17.3525  -15.4455 H   0  0  0  0  0
  -23.8790   12.0471  -15.3909 H   0  0  0  0  0
  -23.3451   12.2420  -17.0786 H   0  0  0  0  0
  -22.5141   13.1247  -15.7742 H   0  0  0  0  0
  1  2  1  0  0  0
  2  3  4  0  0  0
  2  5  4  0  0  0
  3  4  4  0  0  0
  4  7  4  0  0  0
  5  6  4  0  0  0
  6  7  4  0  0  0
  7  8  1  0  0  0
  8  9  4  0  0  0
  8 16  4  0  0  0
  9 10  1  0  0  0
  9 24  4  0  0  0
 10 11  1  0  0  0
 10 13  1  0  0  0
 11 12  1  0  0  0
 13 14  2  0  0  0
 13 15  1  0  0  0
 16 17  4  0  0  0
 16 22  4  0  0  0
 17 18  4  0  0  0
 18 19  1  0  0  0
 18 20  4  0  0  0
 20 21  4  0  0  0
 21 22  4  0  0  0
 22 23  4  0  0  0
 23 24  4  0  0  0
 24 25  1  0  0  0
  3 26  1  0  0  0
  4 27  1  0  0  0
  5 28  1  0  0  0
  6 29  1  0  0  0
 10 30  1  0  0  0
 12 31  1  0  0  0
 12 32  1  0  0  0
 12 33  1  0  0  0
 15 34  1  0  0  0
 17 35  1  0  0  0
 20 36  1  0  0  0
 21 37  1  0  0  0
 25 38  1  0  0  0
 25 39  1  0  0  0
 25 40  1  0  0  0
M  END
$$$$
