### 
### Created by X-TOOL on Mon Sep 10 21:13:30 2018
### 

@<TRIPOS>MOLECULE
5wle_ligand
  123   122     1     0     0
SMALL
GAST_HUCK


@<TRIPOS>ATOM
      1 N           3.7870   -9.6370   38.6330 N.4       1 ALA         0.2377
      2 CA          3.0950   -8.3560   38.7000 C.3       1 ALA         0.0621
      3 C           2.2830   -8.2260   39.9910 C.2       1 ALA         0.2264
      4 O           1.3060   -8.9430   40.1970 O.2       1 ALA        -0.3907
      5 CB          2.1960   -8.1810   37.4890 C.3       1 ALA        -0.0040
      6 N           2.7070   -7.3120   40.8600 N.am      1 ARG        -0.2610
      7 CA          1.9640   -7.0410   42.0770 C.3       1 ARG         0.1312
      8 C           0.5940   -6.4640   41.7340 C.2       1 ARG         0.2040
      9 O           0.3760   -5.9240   40.6430 O.2       1 ARG        -0.3944
     10 CB          2.7560   -6.0850   42.9720 C.3       1 ARG        -0.0092
     11 CG          4.1550   -6.6000   43.2870 C.3       1 ARG        -0.0156
     12 CD          4.9550   -5.6470   44.1670 C.3       1 ARG         0.0627
     13 NE          4.1570   -5.1100   45.2620 N.pl3     1 ARG        -0.2723
     14 CZ          4.2030   -3.8420   45.6600 C.cat     1 ARG         0.2882
     15 NH1         3.4400   -3.4320   46.6680 N.pl3     1 ARG        -0.2849
     16 NH2         5.0150   -2.9850   45.0520 N.pl3     1 ARG        -0.2849
     17 N          -0.3520   -6.6350   42.6560 N.am      1 THR        -0.2613
     18 CA         -1.6950   -6.0910   42.4760 C.3       1 THR         0.1565
     19 C          -2.1720   -5.3970   43.7370 C.2       1 THR         0.2065
     20 O          -1.7110   -5.6970   44.8290 O.2       1 THR        -0.3943
     21 CB         -2.7350   -7.1730   42.1200 C.3       1 THR         0.0924
     22 OG1        -2.8210   -8.1240   43.1900 O.3       1 THR        -0.3874
     23 CG2        -2.3840   -7.8810   40.8090 C.3       1 THR        -0.0346
     24 N          -3.1510   -4.5140   43.5850 N.am      1 M3L        -0.2637
     25 CA         -3.7530   -3.8440   44.7210 C.3       1 M3L         0.1310
     26 CB         -2.9810   -2.6040   45.1650 C.3       1 M3L        -0.0122
     27 CG         -3.0300   -1.4280   44.2040 C.3       1 M3L        -0.0440
     28 CD         -2.3500   -0.2280   44.8570 C.3       1 M3L        -0.0123
     29 CE         -1.8430    0.7610   43.8170 C.3       1 M3L        -0.0309
     30 NZ         -1.1600    1.9070   44.4330 N.4       1 M3L         0.2369
     31 C          -5.2130   -3.5860   44.4320 C.2       1 M3L         0.2039
     32 O          -5.5870   -3.3960   43.2610 O.2       1 M3L        -0.3944
     33 CM1        -1.9480    2.4710   45.5320 C.3       1 M3L        -0.0418
     34 CM2        -0.9810    2.9350   43.4020 C.3       1 M3L        -0.0418
     35 CM3         0.1470    1.5010   44.9550 C.3       1 M3L        -0.0418
     36 N          -6.0320   -3.6070   45.4810 N.am      1 GLN        -0.2636
     37 CA         -7.4810   -3.3750   45.4050 C.3       1 GLN         0.1330
     38 C          -8.1490   -4.4840   44.6000 C.2       1 GLN         0.2041
     39 O          -8.8300   -4.2240   43.6100 O.2       1 GLN        -0.3944
     40 CB         -7.8020   -2.0090   44.7890 C.3       1 GLN         0.0045
     41 CG         -7.3640   -0.8430   45.6400 C.3       1 GLN         0.0412
     42 CD         -7.6850   -1.0610   47.0860 C.2       1 GLN         0.1737
     43 OE1        -6.8120   -1.4100   47.8870 O.2       1 GLN        -0.3973
     44 NE2        -8.9500   -0.8760   47.4370 N.am      1 GLN        -0.3009
     45 N          -7.9600   -5.7260   45.0430 N.am      1 THR        -0.2613
     46 CA         -8.4350   -6.8900   44.3100 C.3       1 THR         0.1564
     47 C          -9.6600   -7.5340   44.9440 C.2       1 THR         0.2059
     48 O         -10.0900   -8.5970   44.4790 O.2       1 THR        -0.3943
     49 CB         -7.3110   -7.9260   44.1840 C.3       1 THR         0.0924
     50 OG1        -6.7180   -8.1540   45.4750 O.3       1 THR        -0.3874
     51 CG2        -6.2320   -7.4140   43.2300 C.3       1 THR        -0.0346
     52 N         -10.2240   -6.9290   45.9910 N.am      1 ALA        -0.2697
     53 CA        -11.3300   -7.5460   46.7290 C.3       1 ALA         0.0916
     54 C         -12.5570   -7.7450   45.8450 C.2       1 ALA         0.0598
     55 O         -12.9190   -6.8510   45.0710 O.co2     1 ALA        -0.5666
     56 CB        -11.6910   -6.7070   47.9520 C.3       1 ALA        -0.0300
     57 OXT       -13.1980   -8.8020   45.8970 O.co2     1 ALA        -0.5666
     58 H1          4.3110   -9.6912   37.7736 H         1 ALA         0.2015
     59 H2          3.1124  -10.3853   38.6629 H         1 ALA         0.2015
     60 H3          4.4162   -9.7204   39.4160 H         1 ALA         0.2015
     61 H4          3.8508   -7.5568   38.6890 H         1 ALA         0.1095
     62 H5          1.6804   -7.2114   37.5522 H         1 ALA         0.0310
     63 H6          1.4521   -8.9909   37.4645 H         1 ALA         0.0310
     64 H7          2.8042   -8.2139   36.5730 H         1 ALA         0.0310
     65 H8          3.5484   -6.8053   40.6722 H         1 ARG         0.1884
     66 H9          1.8184   -7.9867   42.6196 H         1 ARG         0.0800
     67 H10         2.2086   -5.9522   43.9168 H         1 ARG         0.0313
     68 H11         2.8446   -5.1154   42.4602 H         1 ARG         0.0313
     69 H12         4.6976   -6.7426   42.3408 H         1 ARG         0.0301
     70 H13         4.0647   -7.5651   43.8070 H         1 ARG         0.0301
     71 H14         5.3158   -4.8119   43.5486 H         1 ARG         0.0689
     72 H15         5.8143   -6.1898   44.5876 H         1 ARG         0.0689
     73 H16         3.5198   -5.7504   45.7568 H         1 ARG         0.2642
     74 H17         3.4767   -2.4496   46.9752 H         1 ARG         0.2615
     75 H18         2.8120   -4.0967   47.1420 H         1 ARG         0.2615
     76 H19         5.6067   -3.3019   44.2707 H         1 ARG         0.2615
     77 H20         5.0531   -2.0034   45.3617 H         1 ARG         0.2615
     78 H21        -0.1381   -7.1463   43.4883 H         1 THR         0.1884
     79 H22        -1.6567   -5.3580   41.6568 H         1 THR         0.0826
     80 H23        -3.7148   -6.6880   41.9991 H         1 THR         0.0639
     81 H24        -1.9722   -8.5304   43.3199 H         1 THR         0.2101
     82 H25        -3.1458   -8.6433   40.5886 H         1 THR         0.0257
     83 H26        -1.3999   -8.3631   40.9047 H         1 THR         0.0257
     84 H27        -2.3541   -7.1455   39.9916 H         1 THR         0.0257
     85 H28        -3.4815   -4.3057   42.6645 H         1 M3L         0.1883
     86 H29        -3.7145   -4.5465   45.5665 H         1 M3L         0.0800
     87 H30        -1.9272   -2.8898   45.2983 H         1 M3L         0.0312
     88 H31        -3.3958   -2.2727   46.1284 H         1 M3L         0.0312
     89 H32        -4.0773   -1.1803   43.9765 H         1 M3L         0.0269
     90 H33        -2.5045   -1.6891   43.2736 H         1 M3L         0.0269
     91 H34        -1.4993   -0.5825   45.4575 H         1 M3L         0.0317
     92 H35        -3.0737    0.2807   45.5108 H         1 M3L         0.0317
     93 H36        -2.6980    1.1301   43.2316 H         1 M3L         0.0815
     94 H37        -1.1376    0.2441   43.1498 H         1 M3L         0.0815
     95 H38        -1.4091    3.3244   45.9693 H         1 M3L         0.0778
     96 H39        -2.1046    1.7023   46.3031 H         1 M3L         0.0778
     97 H40        -2.9218    2.8098   45.1488 H         1 M3L         0.0778
     98 H41        -0.3901    2.5220   42.5712 H         1 M3L         0.0778
     99 H42        -0.4537    3.7988   43.8331 H         1 M3L         0.0778
    100 H43        -1.9649    3.2550   43.0285 H         1 M3L         0.0778
    101 H44         0.0098    0.7303   45.7277 H         1 M3L         0.0778
    102 H45         0.6539    2.3733   45.3932 H         1 M3L         0.0778
    103 H46         0.7587    1.0944   44.1362 H         1 M3L         0.0778
    104 H47        -5.6352   -3.7929   46.3799 H         1 GLN         0.1883
    105 H48        -7.8859   -3.3942   46.4276 H         1 GLN         0.0801
    106 H49        -8.8899   -1.9416   44.6408 H         1 GLN         0.0337
    107 H50        -7.2943   -1.9388   43.8157 H         1 GLN         0.0337
    108 H51        -7.8796    0.0648   45.2934 H         1 GLN         0.0504
    109 H52        -6.2773   -0.7113   45.5321 H         1 GLN         0.0504
    110 H53        -9.2290   -1.0059   48.3885 H         1 GLN         0.1814
    111 H54        -9.6252   -0.6066   46.7503 H         1 GLN         0.1814
    112 H55        -7.4760   -5.8629   45.9073 H         1 THR         0.1884
    113 H56        -8.7153   -6.5579   43.2995 H         1 THR         0.0826
    114 H57        -7.7259   -8.8684   43.7972 H         1 THR         0.0639
    115 H58        -6.0224   -8.7959   45.3938 H         1 THR         0.2101
    116 H59        -5.4310   -8.1633   43.1463 H         1 THR         0.0257
    117 H60        -5.8149   -6.4734   43.6190 H         1 THR         0.0257
    118 H61        -6.6735   -7.2369   42.2382 H         1 THR         0.0257
    119 H62        -9.8842   -6.0337   46.2790 H         1 ALA         0.1875
    120 H63       -10.9964   -8.5351   47.0759 H         1 ALA         0.0723
    121 H64       -12.5215   -7.1849   48.4923 H         1 ALA         0.0270
    122 H65       -11.9947   -5.7002   47.6293 H         1 ALA         0.0270
    123 H66       -10.8171   -6.6313   48.6157 H         1 ALA         0.0270
@<TRIPOS>BOND
     1    1    2 1  
     2    2    3 1  
     3    2    5 1  
     4    3    4 2  
     5    3    6 am 
     6    6    7 1  
     7    7    8 1  
     8    7   10 1  
     9    8    9 2  
    10    8   17 am 
    11   10   11 1  
    12   11   12 1  
    13   12   13 1  
    14   13   14 ar 
    15   14   15 ar 
    16   14   16 ar 
    17   17   18 1  
    18   18   19 1  
    19   18   21 1  
    20   19   20 2  
    21   19   24 am 
    22   21   22 1  
    23   21   23 1  
    24   24   25 1  
    25   25   26 1  
    26   25   31 1  
    27   26   27 1  
    28   27   28 1  
    29   28   29 1  
    30   29   30 1  
    31   30   33 1  
    32   30   34 1  
    33   30   35 1  
    34   31   32 2  
    35   31   36 am 
    36   36   37 1  
    37   37   38 1  
    38   37   40 1  
    39   38   39 2  
    40   38   45 am 
    41   40   41 1  
    42   41   42 1  
    43   42   43 2  
    44   42   44 am 
    45   45   46 1  
    46   46   47 1  
    47   46   49 1  
    48   47   48 2  
    49   47   52 am 
    50   49   50 1  
    51   49   51 1  
    52   52   53 1  
    53   53   54 1  
    54   53   56 1  
    55   54   55 ar 
    56   54   57 ar 
    57    1   58 1  
    58    1   59 1  
    59    1   60 1  
    60    2   61 1  
    61    5   62 1  
    62    5   63 1  
    63    5   64 1  
    64    6   65 1  
    65    7   66 1  
    66   10   67 1  
    67   10   68 1  
    68   11   69 1  
    69   11   70 1  
    70   12   71 1  
    71   12   72 1  
    72   13   73 1  
    73   15   74 1  
    74   15   75 1  
    75   16   76 1  
    76   16   77 1  
    77   17   78 1  
    78   18   79 1  
    79   21   80 1  
    80   22   81 1  
    81   23   82 1  
    82   23   83 1  
    83   23   84 1  
    84   24   85 1  
    85   25   86 1  
    86   26   87 1  
    87   26   88 1  
    88   27   89 1  
    89   27   90 1  
    90   28   91 1  
    91   28   92 1  
    92   29   93 1  
    93   29   94 1  
    94   33   95 1  
    95   33   96 1  
    96   33   97 1  
    97   34   98 1  
    98   34   99 1  
    99   34  100 1  
   100   35  101 1  
   101   35  102 1  
   102   35  103 1  
   103   36  104 1  
   104   37  105 1  
   105   40  106 1  
   106   40  107 1  
   107   41  108 1  
   108   41  109 1  
   109   44  110 1  
   110   44  111 1  
   111   45  112 1  
   112   46  113 1  
   113   49  114 1  
   114   50  115 1  
   115   51  116 1  
   116   51  117 1  
   117   51  118 1  
   118   52  119 1  
   119   53  120 1  
   120   56  121 1  
   121   56  122 1  
   122   56  123 1  
@<TRIPOS>SUBSTRUCTURE
     1 ALA         1

