5wle_ligand
  -I-interpret- 

123122  0  0  0  0  0  0  0  0999 V2000
    3.7870   -9.6370   38.6330 N   0  3  0  0  0
    3.0950   -8.3560   38.7000 C   0  0  0  0  0
    2.2830   -8.2260   39.9910 C   0  0  0  0  0
    1.3060   -8.9430   40.1970 O   0  0  0  0  0
    2.1960   -8.1810   37.4890 C   0  0  0  0  0
    2.7070   -7.3120   40.8600 N   0  0  0  0  0
    1.9640   -7.0410   42.0770 C   0  0  0  0  0
    0.5940   -6.4640   41.7340 C   0  0  0  0  0
    0.3760   -5.9240   40.6430 O   0  0  0  0  0
    2.7560   -6.0850   42.9720 C   0  0  0  0  0
    4.1550   -6.6000   43.2870 C   0  0  0  0  0
    4.9550   -5.6470   44.1670 C   0  0  0  0  0
    4.1570   -5.1100   45.2620 N   0  0  0  0  0
    4.2030   -3.8420   45.6600 C   0  0  0  0  0
    3.4400   -3.4320   46.6680 N   0  0  0  0  0
    5.0150   -2.9850   45.0520 N   0  0  0  0  0
   -0.3520   -6.6350   42.6560 N   0  0  0  0  0
   -1.6950   -6.0910   42.4760 C   0  0  0  0  0
   -2.1720   -5.3970   43.7370 C   0  0  0  0  0
   -1.7110   -5.6970   44.8290 O   0  0  0  0  0
   -2.7350   -7.1730   42.1200 C   0  0  0  0  0
   -2.8210   -8.1240   43.1900 O   0  0  0  0  0
   -2.3840   -7.8810   40.8090 C   0  0  0  0  0
   -3.1510   -4.5140   43.5850 N   0  0  0  0  0
   -3.7530   -3.8440   44.7210 C   0  0  0  0  0
   -2.9810   -2.6040   45.1650 C   0  0  0  0  0
   -3.0300   -1.4280   44.2040 C   0  0  0  0  0
   -2.3500   -0.2280   44.8570 C   0  0  0  0  0
   -1.8430    0.7610   43.8170 C   0  0  0  0  0
   -1.1600    1.9070   44.4330 N   0  3  0  0  0
   -5.2130   -3.5860   44.4320 C   0  0  0  0  0
   -5.5870   -3.3960   43.2610 O   0  0  0  0  0
   -1.9480    2.4710   45.5320 C   0  0  0  0  0
   -0.9810    2.9350   43.4020 C   0  0  0  0  0
    0.1470    1.5010   44.9550 C   0  0  0  0  0
   -6.0320   -3.6070   45.4810 N   0  0  0  0  0
   -7.4810   -3.3750   45.4050 C   0  0  0  0  0
   -8.1490   -4.4840   44.6000 C   0  0  0  0  0
   -8.8300   -4.2240   43.6100 O   0  0  0  0  0
   -7.8020   -2.0090   44.7890 C   0  0  0  0  0
   -7.3640   -0.8430   45.6400 C   0  0  0  0  0
   -7.6850   -1.0610   47.0860 C   0  0  0  0  0
   -6.8120   -1.4100   47.8870 O   0  0  0  0  0
   -8.9500   -0.8760   47.4370 N   0  0  0  0  0
   -7.9600   -5.7260   45.0430 N   0  0  0  0  0
   -8.4350   -6.8900   44.3100 C   0  0  0  0  0
   -9.6600   -7.5340   44.9440 C   0  0  0  0  0
  -10.0900   -8.5970   44.4790 O   0  0  0  0  0
   -7.3110   -7.9260   44.1840 C   0  0  0  0  0
   -6.7180   -8.1540   45.4750 O   0  0  0  0  0
   -6.2320   -7.4140   43.2300 C   0  0  0  0  0
  -10.2240   -6.9290   45.9910 N   0  0  0  0  0
  -11.3300   -7.5460   46.7290 C   0  0  0  0  0
  -12.5570   -7.7450   45.8450 C   0  0  0  0  0
  -12.9190   -6.8510   45.0710 O   0  0  0  0  0
  -11.6910   -6.7070   47.9520 C   0  0  0  0  0
  -13.1980   -8.8020   45.8970 O   0  0  0  0  0
    4.3866   -9.7414   39.4515 H   0  0  0  0  0
    3.1013  -10.3919   38.6139 H   0  0  0  0  0
    4.3556   -9.6711   37.7869 H   0  0  0  0  0
    3.8476   -7.5675   38.7001 H   0  0  0  0  0
    1.4207   -8.9470   37.4999 H   0  0  0  0  0
    1.7341   -7.1942   37.5206 H   0  0  0  0  0
    2.7901   -8.2765   36.5802 H   0  0  0  0  0
    3.5652   -6.7951   40.6685 H   0  0  0  0  0
    1.8140   -7.9724   42.6231 H   0  0  0  0  0
    2.2165   -5.9829   43.9136 H   0  0  0  0  0
    2.8588   -5.1378   42.4425 H   0  0  0  0  0
    4.6895   -6.7089   42.3433 H   0  0  0  0  0
    4.0491   -7.5411   43.8266 H   0  0  0  0  0
    5.2885   -4.8133   43.5491 H   0  0  0  0  0
    5.7905   -6.2007   44.5953 H   0  0  0  0  0
    3.5260   -5.7442   45.7520 H   0  0  0  0  0
    3.4784   -2.4598   46.9740 H   0  0  0  0  0
    2.8160   -4.0896   47.1356 H   0  0  0  0  0
    5.6030   -3.2995   44.2801 H   0  0  0  0  0
   -0.1338   -7.1565   43.5050 H   0  0  0  0  0
   -1.6160   -5.3863   41.6482 H   0  0  0  0  0
   -3.7010   -6.6873   41.9821 H   0  0  0  0  0
   -3.4685   -8.7969   42.9673 H   0  0  0  0  0
   -2.3547   -7.1511   40.0000 H   0  0  0  0  0
   -1.4087   -8.3582   40.9051 H   0  0  0  0  0
   -3.1395   -8.6360   40.5917 H   0  0  0  0  0
   -3.4881   -4.3016   42.6461 H   0  0  0  0  0
   -3.6952   -4.5034   45.5870 H   0  0  0  0  0
   -1.9347   -2.8996   45.2425 H   0  0  0  0  0
   -3.4409   -2.2667   46.0938 H   0  0  0  0  0
   -4.0668   -1.1836   43.9731 H   0  0  0  0  0
   -2.5140   -1.6859   43.2792 H   0  0  0  0  0
   -1.4989   -0.5866   45.4358 H   0  0  0  0  0
   -3.0785    0.2795   45.4893 H   0  0  0  0  0
   -2.6999    1.1359   43.2573 H   0  0  0  0  0
   -1.1296    0.2443   43.1750 H   0  0  0  0  0
   -2.9126    2.8063   45.1510 H   0  0  0  0  0
   -2.1025    1.7084   46.2953 H   0  0  0  0  0
   -1.4130    3.3165   45.9644 H   0  0  0  0  0
   -0.3796    2.5305   42.5879 H   0  0  0  0  0
   -1.9558    3.2378   43.0196 H   0  0  0  0  0
   -0.4751    3.7979   43.8351 H   0  0  0  0  0
    0.0111    0.7222   45.7054 H   0  0  0  0  0
    0.7597    1.1181   44.1389 H   0  0  0  0  0
    0.6393    2.3617   45.4078 H   0  0  0  0  0
   -5.6272   -3.7966   46.3978 H   0  0  0  0  0
   -7.8729   -3.3820   46.4221 H   0  0  0  0  0
   -8.8849   -1.9459   44.6816 H   0  0  0  0  0
   -7.2639   -1.9430   43.8434 H   0  0  0  0  0
   -7.8936    0.0474   45.3012 H   0  0  0  0  0
   -6.2842   -0.7322   45.5410 H   0  0  0  0  0
   -9.2374   -1.0223   48.4047 H   0  0  0  0  0
   -9.6358   -0.5873   46.7394 H   0  0  0  0  0
   -7.4663   -5.8657   45.9246 H   0  0  0  0  0
   -8.7348   -6.5382   43.3228 H   0  0  0  0  0
   -7.7308   -8.8544   43.7968 H   0  0  0  0  0
   -6.0151   -8.8027   45.3930 H   0  0  0  0  0
   -6.6707   -7.2389   42.2477 H   0  0  0  0  0
   -5.8196   -6.4820   43.6165 H   0  0  0  0  0
   -5.4390   -8.1573   43.1479 H   0  0  0  0  0
   -9.8774   -6.0158   46.2847 H   0  0  0  0  0
  -10.9948   -8.5293   47.0589 H   0  0  0  0  0
  -10.8243   -6.6328   48.6088 H   0  0  0  0  0
  -11.9917   -5.7097   47.6310 H   0  0  0  0  0
  -12.5139   -7.1815   48.4865 H   0  0  0  0  0
  -12.7934   -9.3890   46.5399 H   0  0  0  0  0
  1  2  1  0  0  0
  2  3  1  0  0  0
  2  5  1  0  0  0
  3  4  2  0  0  0
  3  6  1  0  0  0
  6  7  1  0  0  0
  7  8  1  0  0  0
  7 10  1  0  0  0
  8  9  2  0  0  0
  8 17  1  0  0  0
 10 11  1  0  0  0
 11 12  1  0  0  0
 12 13  1  0  0  0
 13 14  1  0  0  0
 14 15  1  0  0  0
 14 16  2  0  0  0
 17 18  1  0  0  0
 18 19  1  0  0  0
 18 21  1  0  0  0
 19 20  2  0  0  0
 19 24  1  0  0  0
 21 22  1  0  0  0
 21 23  1  0  0  0
 24 25  1  0  0  0
 25 26  1  0  0  0
 25 31  1  0  0  0
 26 27  1  0  0  0
 27 28  1  0  0  0
 28 29  1  0  0  0
 29 30  1  0  0  0
 30 33  1  0  0  0
 30 34  1  0  0  0
 30 35  1  0  0  0
 31 32  2  0  0  0
 31 36  1  0  0  0
 36 37  1  0  0  0
 37 38  1  0  0  0
 37 40  1  0  0  0
 38 39  2  0  0  0
 38 45  1  0  0  0
 40 41  1  0  0  0
 41 42  1  0  0  0
 42 43  2  0  0  0
 42 44  1  0  0  0
 45 46  1  0  0  0
 46 47  1  0  0  0
 46 49  1  0  0  0
 47 48  2  0  0  0
 47 52  1  0  0  0
 49 50  1  0  0  0
 49 51  1  0  0  0
 52 53  1  0  0  0
 53 54  1  0  0  0
 53 56  1  0  0  0
 54 55  2  0  0  0
 54 57  1  0  0  0
  1 58  1  0  0  0
  1 59  1  0  0  0
  1 60  1  0  0  0
  2 61  1  0  0  0
  5 62  1  0  0  0
  5 63  1  0  0  0
  5 64  1  0  0  0
  6 65  1  0  0  0
  7 66  1  0  0  0
 10 67  1  0  0  0
 10 68  1  0  0  0
 11 69  1  0  0  0
 11 70  1  0  0  0
 12 71  1  0  0  0
 12 72  1  0  0  0
 13 73  1  0  0  0
 15 74  1  0  0  0
 15 75  1  0  0  0
 16 76  1  0  0  0
 17 77  1  0  0  0
 18 78  1  0  0  0
 21 79  1  0  0  0
 22 80  1  0  0  0
 23 81  1  0  0  0
 23 82  1  0  0  0
 23 83  1  0  0  0
 24 84  1  0  0  0
 25 85  1  0  0  0
 26 86  1  0  0  0
 26 87  1  0  0  0
 27 88  1  0  0  0
 27 89  1  0  0  0
 28 90  1  0  0  0
 28 91  1  0  0  0
 29 92  1  0  0  0
 29 93  1  0  0  0
 33 94  1  0  0  0
 33 95  1  0  0  0
 33 96  1  0  0  0
 34 97  1  0  0  0
 34 98  1  0  0  0
 34 99  1  0  0  0
 35100  1  0  0  0
 35101  1  0  0  0
 35102  1  0  0  0
 36103  1  0  0  0
 37104  1  0  0  0
 40105  1  0  0  0
 40106  1  0  0  0
 41107  1  0  0  0
 41108  1  0  0  0
 44109  1  0  0  0
 44110  1  0  0  0
 45111  1  0  0  0
 46112  1  0  0  0
 49113  1  0  0  0
 50114  1  0  0  0
 51115  1  0  0  0
 51116  1  0  0  0
 51117  1  0  0  0
 52118  1  0  0  0
 53119  1  0  0  0
 56120  1  0  0  0
 56121  1  0  0  0
 56122  1  0  0  0
 57123  1  0  0  0
M  END
$$$$
