3l7d_ligand
  -I-interpret- 

 44 46  0  0  0  0  0  0  0  0999 V2000
   33.5220   23.1290   27.9090 C   0  0  0  0  0
   34.4410   23.7540   28.8990 N   0  0  0  0  0
   33.7940   23.4130   26.4090 C   0  0  0  0  0
   34.6430   24.8070   31.0200 N   0  0  0  0  0
   32.8590   22.5810   25.5040 C   0  0  0  0  0
   33.3790   22.4900   24.2340 F   0  0  0  0  0
   36.6350   25.5080   31.8950 N   0  0  0  0  0
   32.6010   21.1530   26.0200 C   0  0  0  0  0
   31.4590   20.6440   25.3200 O   0  0  0  0  0
   32.3620   21.0750   27.5480 C   0  0  0  0  0
   33.4750   21.7000   28.2340 O   0  0  0  0  0
   32.2950   19.6070   28.0180 C   0  0  0  0  0
   33.4630   18.9110   27.5450 O   0  0  0  0  0
   35.8420   23.8310   28.7150 C   0  0  0  0  0
   36.6220   24.4290   29.7170 C   0  0  0  0  0
   35.9780   24.9220   30.8750 C   0  0  0  0  0
   33.8640   24.2450   30.0790 C   0  0  0  0  0
   32.6380   24.1700   30.2400 O   0  0  0  0  0
   37.9040   25.9590   31.8300 C   0  0  0  0  0
   38.6270   25.8850   30.8320 O   0  0  0  0  0
   38.4370   26.6060   33.1230 C   0  0  0  0  0
   39.3810   27.6400   33.0380 C   0  0  0  0  0
   39.8790   28.2370   34.2010 C   0  0  0  0  0
   39.4280   27.8100   35.4520 C   0  0  0  0  0
   38.4810   26.7880   35.5340 C   0  0  0  0  0
   37.9890   26.1830   34.3730 C   0  0  0  0  0
   32.5470   23.6052   28.0122 H   0  0  0  0  0
   34.8259   23.1422   26.1854 H   0  0  0  0  0
   33.6132   24.4706   26.2170 H   0  0  0  0  0
   31.9069   23.1116   25.5068 H   0  0  0  0  0
   36.1373   25.6182   32.7785 H   0  0  0  0  0
   33.4951   20.5580   25.8339 H   0  0  0  0  0
   31.6154   20.6960   24.3743 H   0  0  0  0  0
   31.4211   21.5779   27.7714 H   0  0  0  0  0
   31.3978   19.1335   27.6193 H   0  0  0  0  0
   32.2605   19.5704   29.1068 H   0  0  0  0  0
   33.4279   17.9962   27.8340 H   0  0  0  0  0
   36.3064   23.4336   27.8125 H   0  0  0  0  0
   37.7030   24.5117   29.6045 H   0  0  0  0  0
   39.7279   27.9796   32.0621 H   0  0  0  0  0
   40.6184   29.0348   34.1309 H   0  0  0  0  0
   39.8139   28.2729   36.3603 H   0  0  0  0  0
   38.1225   26.4592   36.5094 H   0  0  0  0  0
   37.2550   25.3805   34.4459 H   0  0  0  0  0
  2  1  1  0  0  0
  1  3  1  0  0  0
  1 11  1  0  0  0
  2 14  1  0  0  0
 17  2  1  0  0  0
  3  5  1  0  0  0
  4 16  2  0  0  0
  4 17  1  0  0  0
  5  6  1  0  0  0
  5  8  1  0  0  0
 16  7  1  0  0  0
  7 19  1  0  0  0
  8  9  1  0  0  0
  8 10  1  0  0  0
 10 11  1  0  0  0
 10 12  1  0  0  0
 12 13  1  0  0  0
 14 15  2  0  0  0
 15 16  1  0  0  0
 17 18  2  0  0  0
 19 20  2  0  0  0
 19 21  1  0  0  0
 21 22  4  0  0  0
 21 26  4  0  0  0
 22 23  4  0  0  0
 23 24  4  0  0  0
 24 25  4  0  0  0
 25 26  4  0  0  0
  1 27  1  0  0  0
  3 28  1  0  0  0
  3 29  1  0  0  0
  5 30  1  0  0  0
  7 31  1  0  0  0
  8 32  1  0  0  0
  9 33  1  0  0  0
 10 34  1  0  0  0
 12 35  1  0  0  0
 12 36  1  0  0  0
 13 37  1  0  0  0
 14 38  1  0  0  0
 15 39  1  0  0  0
 22 40  1  0  0  0
 23 41  1  0  0  0
 24 42  1  0  0  0
 25 43  1  0  0  0
 26 44  1  0  0  0
M  END
$$$$
