1rnt_ligand
  -I-interpret- 

 38 40  0  0  0  0  0  0  0  0999 V2000
   19.6640   35.4300   19.2180 P   0  0  0  0  0
   20.7560   35.1860   18.0640 O   0  0  0  0  0
   20.1580   36.6050   20.0270 O   0  0  0  0  0
   18.4070   35.4500   18.5110 O   0  0  0  0  0
   17.7700   34.7750   23.9900 O   0  0  0  0  0
   18.7590   33.9350   24.5860 C   0  0  0  0  0
   19.4260   33.0730   23.5410 C   0  0  0  0  0
   18.3890   32.3120   22.8240 O   0  0  0  0  0
   20.2770   33.7640   22.4530 C   0  0  0  0  0
   21.2650   32.8320   22.0490 O   0  0  0  0  0
   19.2330   33.9200   21.3340 C   0  0  0  0  0
   19.9030   34.1540   20.1060 O   0  0  0  0  0
   18.5040   32.6080   21.4160 C   0  0  0  0  0
   17.1880   32.4230   20.8480 N   0  0  0  0  0
   16.7810   31.3610   20.1310 C   0  0  0  0  0
   15.4920   31.2710   20.0350 N   0  0  0  0  0
   14.9600   32.3310   20.7650 C   0  0  0  0  0
   13.6370   32.7550   21.0280 C   0  0  0  0  0
   12.5270   32.2980   20.6690 O   0  0  0  0  0
   13.5740   33.8900   21.8150 N   0  0  0  0  0
   14.7280   34.5260   22.2670 C   0  0  0  0  0
   14.4850   35.5960   23.0320 N   0  0  0  0  0
   15.9480   34.1530   22.0390 N   0  0  0  0  0
   16.0190   33.0400   21.2750 C   0  0  0  0  0
   21.6324   35.1590   18.4549 H   0  0  0  0  0
   21.0092   36.3896   20.4151 H   0  0  0  0  0
   17.3582   35.3141   24.6692 H   0  0  0  0  0
   18.2773   33.2896   25.3205 H   0  0  0  0  0
   19.5141   34.5615   25.0608 H   0  0  0  0  0
   20.1274   32.4817   24.1296 H   0  0  0  0  0
   20.7700   34.6934   22.7383 H   0  0  0  0  0
   21.8169   33.2267   21.3699 H   0  0  0  0  0
   18.5425   34.7589   21.4209 H   0  0  0  0  0
   19.1102   31.9604   20.7826 H   0  0  0  0  0
   17.4671   30.6468   19.6758 H   0  0  0  0  0
   12.6625   34.2700   22.0703 H   0  0  0  0  0
   15.2607   36.1200   23.4371 H   0  0  0  0  0
   13.5240   35.8879   23.2102 H   0  0  0  0  0
  1  2  1  0  0  0
  1  3  1  0  0  0
  1  4  2  0  0  0
 12  1  1  0  0  0
  6  5  1  0  0  0
  7  6  1  0  0  0
  7  8  1  0  0  0
  9  7  1  0  0  0
  8 13  1  0  0  0
  9 10  1  0  0  0
 11  9  1  0  0  0
 11 12  1  0  0  0
 11 13  1  0  0  0
 13 14  1  0  0  0
 14 15  4  0  0  0
 14 24  4  0  0  0
 15 16  4  0  0  0
 16 17  4  0  0  0
 17 18  1  0  0  0
 17 24  4  0  0  0
 18 19  2  0  0  0
 18 20  1  0  0  0
 20 21  1  0  0  0
 21 22  1  0  0  0
 21 23  2  0  0  0
 23 24  1  0  0  0
  2 25  1  0  0  0
  3 26  1  0  0  0
  5 27  1  0  0  0
  6 28  1  0  0  0
  6 29  1  0  0  0
  7 30  1  0  0  0
  9 31  1  0  0  0
 10 32  1  0  0  0
 11 33  1  0  0  0
 13 34  1  0  0  0
 15 35  1  0  0  0
 20 36  1  0  0  0
 22 37  1  0  0  0
 22 38  1  0  0  0
M  END
$$$$
