4lko_ligand
  -I-interpret- 

 45 47  0  0  0  0  0  0  0  0999 V2000
   49.9950   49.6810   34.5850 C   0  0  0  0  0
   48.6350   50.2440   34.3470 C   0  0  0  0  0
   45.3600   52.3630   36.4630 N   0  3  0  0  0
   45.0760   51.5240   35.3020 C   0  0  0  0  0
   47.4870   50.4390   35.1820 C   0  0  0  0  0
   46.4170   51.2180   34.6130 C   0  0  0  0  0
   45.5570   52.7440   32.8740 C   0  0  0  0  0
   46.6060   51.8080   33.3310 C   0  0  0  0  0
   47.7250   51.6300   32.5680 N   0  0  0  0  0
   48.7020   50.8470   33.0800 C   0  0  0  0  0
   50.0500   50.5510   32.4260 C   0  0  0  0  0
   50.7050   49.7760   33.4670 N   0  0  0  0  0
   51.9160   48.9820   33.2770 C   0  0  0  0  0
   51.3470   47.6430   32.8360 C   0  0  0  0  0
   52.3580   46.6720   32.8370 O   0  0  0  0  0
   52.7770   46.0650   31.6120 C   0  0  0  0  0
   47.4630   50.0220   36.6160 C   0  0  0  0  0
   48.0120   50.8170   37.6780 C   0  0  0  0  0
   48.7800   52.2410   37.4830 Cl  0  0  0  0  0
   47.9730   50.5450   39.0640 C   0  0  0  0  0
   47.3180   49.3600   39.3560 C   0  0  0  0  0
   47.2800   49.1330   40.9790 Cl  0  0  0  0  0
   46.7610   48.4770   38.3590 C   0  0  0  0  0
   46.8300   48.8050   36.9640 C   0  0  0  0  0
   50.5160   49.1950   35.5820 O   0  0  0  0  0
   44.4875   52.5840   36.9429 H   0  0  0  0  0
   45.9817   51.8629   37.0984 H   0  0  0  0  0
   45.8084   53.2261   36.1557 H   0  0  0  0  0
   44.4035   52.0384   34.6155 H   0  0  0  0  0
   44.5864   50.6002   35.6101 H   0  0  0  0  0
   44.6020   52.2210   32.8238 H   0  0  0  0  0
   45.4816   53.5742   33.5763 H   0  0  0  0  0
   45.8167   53.1245   31.8861 H   0  0  0  0  0
   50.6007   51.4443   32.1314 H   0  0  0  0  0
   49.9703   50.0275   31.4733 H   0  0  0  0  0
   52.5346   48.9155   34.1720 H   0  0  0  0  0
   52.6092   49.4159   32.5564 H   0  0  0  0  0
   50.9412   47.7387   31.8289 H   0  0  0  0  0
   50.5587   47.3423   33.5261 H   0  0  0  0  0
   51.9293   45.5587   31.1503 H   0  0  0  0  0
   53.1541   46.8337   30.9375 H   0  0  0  0  0
   53.5659   45.3415   31.8177 H   0  0  0  0  0
   48.4105   51.1964   39.8206 H   0  0  0  0  0
   46.2817   47.5488   38.6702 H   0  0  0  0  0
   46.4124   48.1446   36.2040 H   0  0  0  0  0
  2  1  1  0  0  0
  1 12  1  0  0  0
  1 25  2  0  0  0
  5  2  4  0  0  0
  2 10  4  0  0  0
  4  3  1  0  0  0
  6  4  1  0  0  0
  5  6  4  0  0  0
  5 17  1  0  0  0
  6  8  4  0  0  0
  8  7  1  0  0  0
  8  9  4  0  0  0
  9 10  4  0  0  0
 10 11  1  0  0  0
 11 12  1  0  0  0
 12 13  1  0  0  0
 13 14  1  0  0  0
 14 15  1  0  0  0
 15 16  1  0  0  0
 17 18  4  0  0  0
 17 24  4  0  0  0
 18 19  1  0  0  0
 18 20  4  0  0  0
 20 21  4  0  0  0
 21 22  1  0  0  0
 21 23  4  0  0  0
 23 24  4  0  0  0
  3 26  1  0  0  0
  3 27  1  0  0  0
  3 28  1  0  0  0
  4 29  1  0  0  0
  4 30  1  0  0  0
  7 31  1  0  0  0
  7 32  1  0  0  0
  7 33  1  0  0  0
 11 34  1  0  0  0
 11 35  1  0  0  0
 13 36  1  0  0  0
 13 37  1  0  0  0
 14 38  1  0  0  0
 14 39  1  0  0  0
 16 40  1  0  0  0
 16 41  1  0  0  0
 16 42  1  0  0  0
 20 43  1  0  0  0
 23 44  1  0  0  0
 24 45  1  0  0  0
M  END
$$$$
