4j22_ligand
  -I-interpret- 

 55 58  0  0  0  0  0  0  0  0999 V2000
    7.5700   10.4100  -14.1800 C   0  0  0  0  0
    6.8050   10.6410  -11.9270 C   0  0  0  0  0
    6.1350   10.8750   -9.6250 C   0  0  0  0  0
    5.1710   10.1590   -6.0360 C   0  0  0  0  0
    6.4300   10.0890   -3.8870 C   0  0  0  0  0
    3.6050   10.4920    1.0310 C   0  0  0  0  0
    3.6560   10.6270    2.5760 C   0  0  0  0  0
    6.0330   10.0200    2.2010 C   0  0  0  0  0
    7.5610   10.5260   -6.0920 C   0  0  0  0  0
    4.7110   13.0300  -14.2020 C   0  0  0  0  0
    5.7300   11.9680  -13.7830 C   0  0  0  0  0
    6.6150   11.3820  -14.6990 C   0  0  0  0  0
    8.3660    9.8520  -14.8700 O   0  0  0  0  0
    7.6400   10.0670  -12.8850 N   0  0  0  0  0
    6.9870   10.3200  -10.5850 C   0  0  0  0  0
    6.2590   10.6020   -8.1630 C   0  0  0  0  0
    5.1130   10.3130   -7.4100 C   0  0  0  0  0
    6.3890   10.2310   -5.3700 C   0  0  0  0  0
    7.3970   10.5400   -3.3020 O   0  0  0  0  0
    5.3860    9.6210   -3.1830 N   0  0  0  0  0
    5.3900    9.5590   -1.7000 C   0  0  0  0  0
    4.7540   10.8710   -1.1740 C   0  0  0  0  0
    4.7860   11.0820    0.3050 N   0  3  0  0  0
    4.9930   10.4630    3.1100 O   0  0  0  0  0
    6.1210   10.9710    0.9810 C   0  0  0  0  0
    7.5200   10.7030   -7.4670 C   0  0  0  0  0
    9.0280   11.0640   -8.2480 Cl  0  0  0  0  0
    5.1790   11.8410  -10.0140 C   0  0  0  0  0
    4.9900   12.2100  -11.3280 C   0  0  0  0  0
    5.8240   11.6100  -12.3400 C   0  0  0  0  0
    4.2555    9.9800   -5.4722 H   0  0  0  0  0
    2.7229   11.0370    0.6950 H   0  0  0  0  0
    3.5969    9.4253    0.8070 H   0  0  0  0  0
    3.0285    9.8433    3.0005 H   0  0  0  0  0
    3.3136   11.6289    2.8351 H   0  0  0  0  0
    5.7967    9.0146    1.8524 H   0  0  0  0  0
    6.9889   10.0234    2.7248 H   0  0  0  0  0
    8.5107   10.6163   -5.5648 H   0  0  0  0  0
    5.2351   13.8904  -14.6180 H   0  0  0  0  0
    4.0413   12.6125  -14.9539 H   0  0  0  0  0
    4.1333   13.3409  -13.3315 H   0  0  0  0  0
    6.5901   11.6427  -15.7571 H   0  0  0  0  0
    8.3225    9.3674  -12.5932 H   0  0  0  0  0
    7.7863    9.6423  -10.2851 H   0  0  0  0  0
    4.1544   10.2071   -7.9180 H   0  0  0  0  0
    4.5602    9.2963   -3.6860 H   0  0  0  0  0
    6.4087    9.4541   -1.3267 H   0  0  0  0  0
    4.8215    8.6957   -1.3541 H   0  0  0  0  0
    3.7003   10.8271   -1.4497 H   0  0  0  0  0
    5.3371   11.6837   -1.6073 H   0  0  0  0  0
    4.6461   12.0879    0.4001 H   0  0  0  0  0
    6.8454   10.5712    0.2715 H   0  0  0  0  0
    6.4282   11.9592    1.3233 H   0  0  0  0  0
    4.5676   12.3123   -9.2445 H   0  0  0  0  0
    4.2264   12.9399  -11.5969 H   0  0  0  0  0
  1 12  1  0  0  0
  1 13  2  0  0  0
 14  1  1  0  0  0
  2 14  1  0  0  0
 15  2  4  0  0  0
  2 30  4  0  0  0
  3 15  4  0  0  0
 16  3  1  0  0  0
  3 28  4  0  0  0
  4 17  4  0  0  0
 18  4  4  0  0  0
  5 18  1  0  0  0
  5 19  2  0  0  0
 20  5  1  0  0  0
  6  7  1  0  0  0
 23  6  1  0  0  0
  7 24  1  0  0  0
 24  8  1  0  0  0
  8 25  1  0  0  0
 18  9  4  0  0  0
  9 26  4  0  0  0
 11 10  1  0  0  0
 11 12  2  0  0  0
 30 11  1  0  0  0
 17 16  4  0  0  0
 26 16  4  0  0  0
 21 20  1  0  0  0
 22 21  1  0  0  0
 22 23  1  0  0  0
 23 25  1  0  0  0
 26 27  1  0  0  0
 28 29  4  0  0  0
 29 30  4  0  0  0
  4 31  1  0  0  0
  6 32  1  0  0  0
  6 33  1  0  0  0
  7 34  1  0  0  0
  7 35  1  0  0  0
  8 36  1  0  0  0
  8 37  1  0  0  0
  9 38  1  0  0  0
 10 39  1  0  0  0
 10 40  1  0  0  0
 10 41  1  0  0  0
 12 42  1  0  0  0
 14 43  1  0  0  0
 15 44  1  0  0  0
 17 45  1  0  0  0
 20 46  1  0  0  0
 21 47  1  0  0  0
 21 48  1  0  0  0
 22 49  1  0  0  0
 22 50  1  0  0  0
 23 51  1  0  0  0
 25 52  1  0  0  0
 25 53  1  0  0  0
 28 54  1  0  0  0
 29 55  1  0  0  0
M  END
$$$$
