4qlv_ligand
  -I-interpret- 

 87 89  0  0  0  0  0  0  0  0999 V2000
    7.7130 -136.2370   19.7840 C   0  0  0  0  0
    7.2110 -137.0930   19.0870 O   0  0  0  0  0
    6.9620 -134.9890   20.1430 C   0  0  0  0  0
    5.6670 -135.0080   19.4890 N   0  3  0  0  0
    3.0290 -134.6800   20.0390 O   0  0  0  0  0
    4.8700 -136.1200   20.0210 C   0  0  0  0  0
    5.1030 -133.6740   19.7090 C   0  0  0  0  0
    3.4320 -135.9720   19.6030 C   0  0  0  0  0
    3.6530 -133.6490   19.3140 C   0  0  0  0  0
    8.9260 -136.3190   20.2680 N   0  0  0  0  0
    9.7340 -137.4580   19.9830 C   0  0  0  0  0
   10.5760 -137.6530   21.2220 C   0  0  0  0  0
   10.5910 -137.0550   18.8340 C   0  0  0  0  0
   11.0770 -135.9490   18.8350 O   0  0  0  0  0
   10.7340 -137.9200   17.8550 N   0  0  0  0  0
   11.5690 -137.6360   16.7050 C   0  0  0  0  0
   12.6630 -138.6740   16.7190 C   0  0  0  0  0
   13.4810 -138.4890   17.8090 C   0  0  0  0  0
   13.1050 -138.8930   19.0590 C   0  0  0  0  0
   13.9410 -138.7050   20.1430 C   0  0  0  0  0
   15.1710 -138.1180   19.9710 C   0  0  0  0  0
   16.0240 -137.9010   20.9970 O   0  0  0  0  0
   16.2250 -139.0370   21.8200 C   0  0  0  0  0
   15.5420 -137.7200   18.7150 C   0  0  0  0  0
   14.7070 -137.9110   17.6460 C   0  0  0  0  0
   10.7530 -137.7020   15.4170 C   0  0  0  0  0
    9.6190 -138.1180   15.4440 O   0  0  0  0  0
   11.3370 -137.2750   14.2990 N   0  0  0  0  0
   10.6400 -137.1850   13.0100 C   0  0  0  0  0
   11.4060 -137.9120   11.8900 C   0  0  0  0  0
   12.6890 -137.4860   12.0190 O   0  0  0  0  0
   11.3570 -139.4360   11.9220 C   0  0  0  0  0
    9.9700 -139.8620   12.2760 C   0  0  0  0  0
   12.2720 -139.9600   13.0060 C   0  0  0  0  0
   13.4890 -139.1880   13.0300 O   0  0  0  0  0
   10.6230 -135.6920   12.6470 C   0  0  0  0  0
    9.6630 -134.8730   13.2260 C   0  0  0  0  0
    8.7200 -135.3150   14.1160 C   0  0  0  0  0
    7.8050 -134.4380   14.6570 C   0  0  0  0  0
    7.8100 -133.1150   14.3180 C   0  0  0  0  0
    8.7470 -132.6670   13.4310 C   0  0  0  0  0
    9.6610 -133.5410   12.8940 C   0  0  0  0  0
    7.5252 -134.1154   19.8147 H   0  0  0  0  0
    6.8260 -134.9415   21.2234 H   0  0  0  0  0
    5.7039 -135.1813   18.4845 H   0  0  0  0  0
    4.9286 -136.1135   21.1094 H   0  0  0  0  0
    5.2612 -137.0594   19.6304 H   0  0  0  0  0
    5.6496 -132.9521   19.1022 H   0  0  0  0  0
    5.1883 -133.4215   20.7659 H   0  0  0  0  0
    3.3214 -136.0771   18.5237 H   0  0  0  0  0
    2.8099 -136.7501   20.0453 H   0  0  0  0  0
    3.2018 -132.6826   19.5391 H   0  0  0  0  0
    3.5363 -133.7982   18.2406 H   0  0  0  0  0
    9.2939 -135.5666   20.8502 H   0  0  0  0  0
    9.1859 -138.3689   19.7424 H   0  0  0  0  0
   11.1793 -136.7616   21.3937 H   0  0  0  0  0
    9.9247 -137.8232   22.0793 H   0  0  0  0  0
   11.2294 -138.5144   21.0838 H   0  0  0  0  0
   10.2450 -138.8137   17.9058 H   0  0  0  0  0
   11.9869 -136.6303   16.7496 H   0  0  0  0  0
   13.2554 -138.5797   15.8089 H   0  0  0  0  0
   12.2130 -139.6652   16.7754 H   0  0  0  0  0
   12.1349 -139.3688   19.2026 H   0  0  0  0  0
   13.6240 -139.0230   21.1362 H   0  0  0  0  0
   15.2720 -139.3464   22.2491 H   0  0  0  0  0
   16.6363 -139.8497   21.2212 H   0  0  0  0  0
   16.9208 -138.7856   22.6205 H   0  0  0  0  0
   16.5119 -137.2462   18.5639 H   0  0  0  0  0
   15.0257 -137.5973   16.6520 H   0  0  0  0  0
   12.3174 -136.9966   14.3403 H   0  0  0  0  0
    9.6514 -137.6355   13.0983 H   0  0  0  0  0
   10.9367 -137.6708   10.9362 H   0  0  0  0  0
   13.2324 -137.9022   11.3459 H   0  0  0  0  0
   11.6613 -139.8197   10.9482 H   0  0  0  0  0
    9.7070 -139.4615   13.2550 H   0  0  0  0  0
    9.2731 -139.4838   11.5281 H   0  0  0  0  0
    9.9212 -140.9506   12.3023 H   0  0  0  0  0
   12.5105 -141.0042   12.8038 H   0  0  0  0  0
   11.7727 -139.8773   13.9714 H   0  0  0  0  0
   14.0664 -139.5242   13.7194 H   0  0  0  0  0
   10.4105 -135.6639   11.5783 H   0  0  0  0  0
   11.5771 -135.3040   13.0036 H   0  0  0  0  0
    8.6932 -136.3675   14.3981 H   0  0  0  0  0
    7.0649 -134.8064   15.3674 H   0  0  0  0  0
    7.0796 -132.4293   14.7474 H   0  0  0  0  0
    8.7697 -131.6144   13.1487 H   0  0  0  0  0
   10.4023 -133.1678   12.1874 H   0  0  0  0  0
  1  2  2  0  0  0
  3  1  1  0  0  0
  1 10  1  0  0  0
  4  3  1  0  0  0
  6  4  1  0  0  0
  4  7  1  0  0  0
  8  5  1  0  0  0
  5  9  1  0  0  0
  6  8  1  0  0  0
  7  9  1  0  0  0
 10 11  1  0  0  0
 11 12  1  0  0  0
 11 13  1  0  0  0
 13 14  2  0  0  0
 13 15  1  0  0  0
 15 16  1  0  0  0
 16 17  1  0  0  0
 16 26  1  0  0  0
 17 18  1  0  0  0
 18 19  4  0  0  0
 18 25  4  0  0  0
 19 20  4  0  0  0
 20 21  4  0  0  0
 21 22  1  0  0  0
 21 24  4  0  0  0
 22 23  1  0  0  0
 24 25  4  0  0  0
 26 27  2  0  0  0
 26 28  1  0  0  0
 28 29  1  0  0  0
 29 30  1  0  0  0
 29 36  1  0  0  0
 30 31  1  0  0  0
 30 32  1  0  0  0
 32 33  1  0  0  0
 32 34  1  0  0  0
 34 35  1  0  0  0
 36 37  1  0  0  0
 37 38  4  0  0  0
 37 42  4  0  0  0
 38 39  4  0  0  0
 39 40  4  0  0  0
 40 41  4  0  0  0
 41 42  4  0  0  0
  3 43  1  0  0  0
  3 44  1  0  0  0
  4 45  1  0  0  0
  6 46  1  0  0  0
  6 47  1  0  0  0
  7 48  1  0  0  0
  7 49  1  0  0  0
  8 50  1  0  0  0
  8 51  1  0  0  0
  9 52  1  0  0  0
  9 53  1  0  0  0
 10 54  1  0  0  0
 11 55  1  0  0  0
 12 56  1  0  0  0
 12 57  1  0  0  0
 12 58  1  0  0  0
 15 59  1  0  0  0
 16 60  1  0  0  0
 17 61  1  0  0  0
 17 62  1  0  0  0
 19 63  1  0  0  0
 20 64  1  0  0  0
 23 65  1  0  0  0
 23 66  1  0  0  0
 23 67  1  0  0  0
 24 68  1  0  0  0
 25 69  1  0  0  0
 28 70  1  0  0  0
 29 71  1  0  0  0
 30 72  1  0  0  0
 31 73  1  0  0  0
 32 74  1  0  0  0
 33 75  1  0  0  0
 33 76  1  0  0  0
 33 77  1  0  0  0
 34 78  1  0  0  0
 34 79  1  0  0  0
 35 80  1  0  0  0
 36 81  1  0  0  0
 36 82  1  0  0  0
 38 83  1  0  0  0
 39 84  1  0  0  0
 40 85  1  0  0  0
 41 86  1  0  0  0
 42 87  1  0  0  0
M  END
$$$$
