5TG4_LIGAND
  -I-interpret- 

 33 33  0  0  0  0  0  0  0  0999 V2000
    3.7490   31.3970  -14.7440 C   0  0  0  0  0
    3.5360   31.2620  -13.4180 C   0  0  0  0  0
    2.3780   30.7460  -12.8750 C   0  0  0  0  0
    1.4050   30.2320  -13.7360 C   0  0  0  0  0
    1.7050   30.3730  -15.1130 C   0  0  0  0  0
    2.8600   30.8840  -15.6540 C   0  0  0  0  0
    0.0310   29.6650  -13.1660 B   0  0  0  0  0
   -0.3490   30.4430  -11.9190 O   0  0  0  0  0
   -1.0630   29.7610  -14.1880 O   0  0  0  0  0
    2.9940   30.8780  -17.0500 N   0  0  0  0  0
    4.1380   30.9710  -17.6700 C   0  0  0  0  0
    3.9530   30.8940  -19.0470 O   0  0  0  0  0
    4.9990   31.1150  -19.9990 C   0  0  0  0  0
    5.5980   32.5160  -19.8120 C   0  0  0  0  0
    4.2130   30.9770  -21.2930 C   0  0  0  0  0
    6.1080   30.0590  -19.8410 C   0  0  0  0  0
    5.2270   31.1930  -17.1690 O   0  0  0  0  0
    4.6382   31.9200  -15.0960 H   0  0  0  0  0
    4.3253   31.5793  -12.7365 H   0  0  0  0  0
    2.2249   30.7393  -11.7958 H   0  0  0  0  0
    0.9407   30.0420  -15.8161 H   0  0  0  0  0
    0.3576   30.3745  -11.2728 H   0  0  0  0  0
   -0.8120   29.2659  -14.9713 H   0  0  0  0  0
    2.1477   30.7962  -17.6134 H   0  0  0  0  0
    4.8192   33.2649  -19.9561 H   0  0  0  0  0
    6.0064   32.6037  -18.8052 H   0  0  0  0  0
    6.3922   32.6706  -20.5424 H   0  0  0  0  0
    3.7707   29.9820  -21.3436 H   0  0  0  0  0
    3.4239   31.7285  -21.3192 H   0  0  0  0  0
    4.8828   31.1218  -22.1407 H   0  0  0  0  0
    6.5257   30.1202  -18.8361 H   0  0  0  0  0
    5.6879   29.0661  -20.0013 H   0  0  0  0  0
    6.8928   30.2456  -20.5741 H   0  0  0  0  0
  1  2  4  0  0  0
  1  6  4  0  0  0
  2  3  4  0  0  0
  3  4  4  0  0  0
  4  5  4  0  0  0
  4  7  1  0  0  0
  5  6  4  0  0  0
  6 10  1  0  0  0
  7  8  1  0  0  0
  7  9  1  0  0  0
 10 11  1  0  0  0
 11 12  1  0  0  0
 11 17  2  0  0  0
 12 13  1  0  0  0
 13 14  1  0  0  0
 13 15  1  0  0  0
 13 16  1  0  0  0
  1 18  1  0  0  0
  2 19  1  0  0  0
  3 20  1  0  0  0
  5 21  1  0  0  0
  8 22  1  0  0  0
  9 23  1  0  0  0
 10 24  1  0  0  0
 14 25  1  0  0  0
 14 26  1  0  0  0
 14 27  1  0  0  0
 15 28  1  0  0  0
 15 29  1  0  0  0
 15 30  1  0  0  0
 16 31  1  0  0  0
 16 32  1  0  0  0
 16 33  1  0  0  0
M  END
$$$$
