### 
### Created by X-TOOL on Mon Sep 10 21:13:30 2018
### 

@<TRIPOS>MOLECULE
5TG4_LIGAND
   33    33     1     0     0
SMALL
GAST_HUCK


@<TRIPOS>ATOM
      1 C1          3.7490   31.3970  -14.7440 C.ar      1 JW1        -0.1571
      2 C2          3.5360   31.2620  -13.4180 C.ar      1 JW1        -0.1900
      3 C3          2.3780   30.7460  -12.8750 C.ar      1 JW1        -0.1792
      4 C4          1.4050   30.2320  -13.7360 C.ar      1 JW1        -0.2011
      5 C5          1.7050   30.3730  -15.1130 C.ar      1 JW1        -0.1595
      6 C6          2.8600   30.8840  -15.6540 C.ar      1 JW1        -0.0295
      7 B7          0.0310   29.6650  -13.1660 B         1 JW1         3.0000
      8 O8         -0.3490   30.4430  -11.9190 O.3       1 JW1        -0.8710
      9 O9         -1.0630   29.7610  -14.1880 O.3       1 JW1        -0.8710
     10 N10         2.9940   30.8780  -17.0500 N.am      1 JW1        -0.2280
     11 C11         4.1380   30.9710  -17.6700 C.2       1 JW1         0.3492
     12 O12         3.9530   30.8940  -19.0470 O.3       1 JW1        -0.2532
     13 C13         4.9990   31.1150  -19.9990 C.3       1 JW1         0.0910
     14 C14         5.5980   32.5160  -19.8120 C.3       1 JW1        -0.0320
     15 C15         4.2130   30.9770  -21.2930 C.3       1 JW1        -0.0320
     16 C16         6.1080   30.0590  -19.8410 C.3       1 JW1        -0.0320
     17 O17         5.2270   31.1930  -17.1690 O.2       1 JW1        -0.3669
     18 H           4.6382   31.9200  -15.0960 H         1 JW1        -0.0244
     19 H           4.3253   31.5793  -12.7365 H         1 JW1        -0.0168
     20 H           2.2249   30.7393  -11.7958 H         1 JW1         0.0259
     21 H           0.9407   30.0420  -15.8161 H         1 JW1        -0.0246
     22 H           0.3576   30.3746  -11.2728 H         1 JW1        -0.1290
     23 H          -1.2018   30.6819  -14.4210 H         1 JW1        -0.1290
     24 H           2.1477   30.7962  -17.6134 H         1 JW1         0.2257
     25 H           4.8192   33.2649  -19.9561 H         1 JW1         0.0260
     26 H           6.0064   32.6037  -18.8052 H         1 JW1         0.0260
     27 H           6.3922   32.6706  -20.5424 H         1 JW1         0.0260
     28 H           3.7707   29.9820  -21.3436 H         1 JW1         0.0260
     29 H           3.4239   31.7285  -21.3192 H         1 JW1         0.0260
     30 H           4.8828   31.1218  -22.1407 H         1 JW1         0.0260
     31 H           6.5257   30.1202  -18.8361 H         1 JW1         0.0260
     32 H           5.6879   29.0661  -20.0013 H         1 JW1         0.0260
     33 H           6.8928   30.2456  -20.5741 H         1 JW1         0.0260
@<TRIPOS>BOND
     1    1    2 ar 
     2    1    6 ar 
     3    2    3 ar 
     4    3    4 ar 
     5    4    5 ar 
     6    4    7 1  
     7    5    6 ar 
     8    6   10 1  
     9    7    8 1  
    10    7    9 1  
    11   10   11 am 
    12   11   12 1  
    13   11   17 2  
    14   12   13 1  
    15   13   14 1  
    16   13   15 1  
    17   13   16 1  
    18    1   18 1  
    19    2   19 1  
    20    3   20 1  
    21    5   21 1  
    22    8   22 1  
    23    9   23 1  
    24   10   24 1  
    25   14   25 1  
    26   14   26 1  
    27   14   27 1  
    28   15   28 1  
    29   15   29 1  
    30   15   30 1  
    31   16   31 1  
    32   16   32 1  
    33   16   33 1  
@<TRIPOS>SUBSTRUCTURE
     1 JW1         1

