1mai_ligand
  -I-interpret- 

 39 39  0  0  0  0  0  0  0  0999 V2000
   33.7280   18.0400    3.9670 C   0  0  0  0  0
   34.2380   18.5040    5.3380 C   0  0  0  0  0
   33.2000   18.2340    6.4080 C   0  0  0  0  0
   32.8800   16.7410    6.4420 C   0  0  0  0  0
   32.3710   16.2780    5.0670 C   0  0  0  0  0
   33.4170   16.5470    3.9940 C   0  0  0  0  0
   34.6770   18.2020    2.8400 O   0  0  0  0  0
   35.4470   17.8420    5.6740 O   0  0  0  0  0
   33.7120   18.6410    7.6590 O   0  0  0  0  0
   31.9210   16.4820    7.5520 O   0  0  0  0  0
   32.1700   14.8320    5.0980 O   0  0  0  0  0
   32.9650   16.1200    2.7150 O   0  0  0  0  0
   35.0110   19.6120    2.1900 P   0  0  0  0  0
   36.2810   19.4270    1.4430 O   0  0  0  0  0
   35.1080   20.5220    3.3630 O   0  0  0  0  0
   33.7950   19.8250    1.4150 O   0  0  0  0  0
   32.2600   15.7940    8.9670 P   0  0  0  0  0
   33.2000   14.7450    8.4870 O   0  0  0  0  0
   32.9150   16.8820    9.7050 O   0  0  0  0  0
   31.0040   15.3330    9.6140 O   0  0  0  0  0
   30.9400   14.0400    4.4450 P   0  0  0  0  0
   31.2210   12.6660    4.9280 O   0  0  0  0  0
   29.7500   14.7350    5.0200 O   0  0  0  0  0
   31.1870   14.2760    3.0180 O   0  0  0  0  0
   32.8616   18.6793    3.7971 H   0  0  0  0  0
   34.4252   19.5763    5.2817 H   0  0  0  0  0
   32.2884   18.7897    6.1881 H   0  0  0  0  0
   33.7756   16.1529    6.6425 H   0  0  0  0  0
   31.4485   16.8149    4.8462 H   0  0  0  0  0
   34.3182   15.9823    4.2328 H   0  0  0  0  0
   36.1039   18.0138    4.9953 H   0  0  0  0  0
   33.9113   19.5797    7.6319 H   0  0  0  0  0
   33.6431   16.3016    2.0602 H   0  0  0  0  0
   37.0007   19.2970    2.0649 H   0  0  0  0  0
   35.9224   20.3432    3.8388 H   0  0  0  0  0
   32.7088   14.0682    8.0156 H   0  0  0  0  0
   30.6185   14.6246    9.0933 H   0  0  0  0  0
   31.0297   12.6128    5.8672 H   0  0  0  0  0
   29.6741   14.5189    5.9523 H   0  0  0  0  0
  1  7  1  0  0  0
  1  6  1  0  0  0
  1  2  1  0  0  0
  2  8  1  0  0  0
  2  3  1  0  0  0
  3  9  1  0  0  0
  3  4  1  0  0  0
  4 10  1  0  0  0
  4  5  1  0  0  0
  5 11  1  0  0  0
  5  6  1  0  0  0
  6 12  1  0  0  0
 11 21  1  0  0  0
 21 24  2  0  0  0
 21 23  1  0  0  0
 21 22  1  0  0  0
 10 17  1  0  0  0
 17 20  1  0  0  0
 17 19  2  0  0  0
 17 18  1  0  0  0
  7 13  1  0  0  0
 13 16  2  0  0  0
 13 15  1  0  0  0
 13 14  1  0  0  0
  1 25  1  0  0  0
  2 26  1  0  0  0
  3 27  1  0  0  0
  4 28  1  0  0  0
  5 29  1  0  0  0
  6 30  1  0  0  0
  8 31  1  0  0  0
  9 32  1  0  0  0
 12 33  1  0  0  0
 14 34  1  0  0  0
 15 35  1  0  0  0
 18 36  1  0  0  0
 20 37  1  0  0  0
 22 38  1  0  0  0
 23 39  1  0  0  0
M  END
$$$$
