1bn4_ligand
  -I-interpret- 

 36 37  0  0  0  0  0  0  0  0999 V2000
   -5.3340    1.9280   15.8380 C   0  0  0  0  0
   -2.6420    6.0360   14.1840 C   0  0  0  0  0
   -2.0580    7.4270   14.2930 C   0  0  0  0  0
   -1.5690    8.0980   13.1690 C   0  0  0  0  0
   -1.0250    9.3690   13.3220 C   0  0  0  0  0
   -0.9660    9.9790   14.5860 C   0  0  0  0  0
   -1.4620    9.2940   15.6900 C   0  0  0  0  0
   -2.0050    8.0260   15.5480 C   0  0  0  0  0
   -7.3330    0.8630   16.8700 O   0  0  0  0  0
   -5.4060    0.9380   18.1940 O   0  0  0  0  0
   -5.4190   -0.6910   16.2970 N   0  0  0  0  0
   -5.9230    0.6810   16.8990 S   0  0  0  0  0
   -4.0780    1.8800   15.2730 C   0  0  0  0  0
   -3.8100    3.0110   14.5290 C   0  0  0  0  0
   -4.8720    3.8920   14.5410 C   0  0  0  0  0
   -6.2230    3.3680   15.4530 S   0  0  0  0  0
   -4.9970    5.4380   13.7870 S   0  0  0  0  0
   -5.9560    5.3350   12.7320 O   0  0  0  0  0
   -5.5240    6.3620   14.7360 O   0  0  0  0  0
   -3.7200    5.9420   13.2030 N   0  0  0  0  0
   -0.4480   11.1690   14.7670 O   0  0  0  0  0
    0.0540   11.7940   13.5620 C   0  0  0  0  0
   -1.8439    5.3660   13.8641 H   0  0  0  0  0
   -3.0564    5.7737   15.1574 H   0  0  0  0  0
   -1.6133    7.6314   12.1849 H   0  0  0  0  0
   -0.6398    9.8982   12.4504 H   0  0  0  0  0
   -1.4236    9.7579   16.6756 H   0  0  0  0  0
   -2.3906    7.4980   16.4201 H   0  0  0  0  0
   -6.0911   -1.3634   15.9275 H   0  0  0  0  0
   -4.4217   -0.9039   16.2781 H   0  0  0  0  0
   -3.3818    1.0507   15.3983 H   0  0  0  0  0
   -2.8748    3.1867   13.9974 H   0  0  0  0  0
   -3.6111    6.1947   12.2208 H   0  0  0  0  0
    0.8355   11.1697   13.1289 H   0  0  0  0  0
   -0.7605   11.9073   12.8466 H   0  0  0  0  0
    0.4638   12.7741   13.8062 H   0  0  0  0  0
  1 16  4  0  0  0
  1 13  4  0  0  0
  1 12  1  0  0  0
 12  9  2  0  0  0
 12 10  2  0  0  0
 12 11  1  0  0  0
 13 14  4  0  0  0
 14 15  4  0  0  0
 15 17  1  0  0  0
 15 16  4  0  0  0
 17 20  1  0  0  0
 17 19  2  0  0  0
 17 18  2  0  0  0
 20  2  1  0  0  0
  2  3  1  0  0  0
  3  8  4  0  0  0
  3  4  4  0  0  0
  4  5  4  0  0  0
  5  6  4  0  0  0
  6 21  1  0  0  0
  6  7  4  0  0  0
  7  8  4  0  0  0
 21 22  1  0  0  0
  2 23  1  0  0  0
  2 24  1  0  0  0
  4 25  1  0  0  0
  5 26  1  0  0  0
  7 27  1  0  0  0
  8 28  1  0  0  0
 11 29  1  0  0  0
 11 30  1  0  0  0
 13 31  1  0  0  0
 14 32  1  0  0  0
 20 33  1  0  0  0
 22 34  1  0  0  0
 22 35  1  0  0  0
 22 36  1  0  0  0
M  END
$$$$
