4cpq_ligand
  -I-interpret- 

114116  0  0  0  0  0  0  0  0999 V2000
    4.9520   25.0590    0.3430 C   0  0  0  0  0
    6.0240   25.6380    0.8980 C   0  0  0  0  0
    6.3070   25.3920    2.3790 C   0  0  0  0  0
    7.6340   25.0100    2.5460 C   0  0  0  0  0
    7.9310   23.7720    3.1020 C   0  0  0  0  0
    9.2550   23.3870    3.2770 C   0  0  0  0  0
    8.6600   25.8920    2.2280 C   0  0  0  0  0
    9.9850   25.5150    2.4230 C   0  0  0  0  0
   10.2790   24.2810    2.9900 C   0  0  0  0  0
   11.5990   23.9140    3.1980 C   0  0  0  0  0
   10.9100   24.3920    5.5670 C   0  0  0  0  0
   10.5200   23.3340    6.0570 O   0  0  0  0  0
   10.3500   25.5840    5.8370 N   0  0  0  0  0
    9.1280   25.6690    6.6600 C   0  0  0  0  0
    9.4580   26.1080    8.0960 C   0  0  0  0  0
    9.2500   27.6150    8.2500 C   0  0  0  0  0
   10.9080   25.7580    8.4400 C   0  0  0  0  0
    8.1340   26.6500    6.0250 C   0  0  0  0  0
    8.4980   27.7500    5.6130 O   0  0  0  0  0
    6.8910   26.1720    5.8730 N   0  0  0  0  0
    5.8220   26.9550    5.2360 C   0  0  0  0  0
    5.2150   27.9080    6.2630 C   0  0  0  0  0
    4.6170   27.3950    7.3470 C   0  0  0  0  0
   12.5730   25.7430    4.4500 O   0  0  0  0  0
   13.1930   23.4880    5.0430 C   0  0  0  0  0
   13.7750   24.0000    6.3600 C   0  0  0  0  0
   15.2680   23.6790    6.3890 C   0  0  0  0  0
   15.5030   22.3140    6.8850 N   0  3  0  0  0
   16.0400   21.6860    6.0490 N   0  0  0  0  0
   15.3860   20.6370    5.5190 C   0  0  0  0  0
   12.0720   24.4120    4.5670 C   0  0  0  0  0
   14.2860   20.2440    5.9100 O   0  0  0  0  0
   16.2510   19.7730    4.5890 C   0  0  0  0  0
   15.4110   19.1040    3.4920 C   0  0  0  0  0
   16.3480   18.3790    2.5240 C   0  0  0  0  0
   14.6170   20.1630    2.7240 C   0  0  0  0  0
   14.4460   18.0900    4.1110 C   0  0  0  0  0
   16.9250   18.7400    5.3880 N   0  0  0  0  0
   18.2390   18.8070    5.6430 C   0  0  0  0  0
   18.9290   19.6790    5.1130 O   0  0  0  0  0
   18.8020   17.9240    6.5150 O   0  0  0  0  0
   20.2150   18.1310    6.5910 C   0  0  0  0  0
   16.3900   22.4150    8.0540 C   0  0  0  0  0
   16.4660   21.2050    8.7300 C   0  0  0  0  0
   17.6770   20.5270    8.8110 C   0  0  0  0  0
   17.7540   19.3240    9.5040 C   0  0  0  0  0
   15.3360   20.6910    9.3560 C   0  0  0  0  0
   15.4120   19.4840   10.0400 C   0  0  0  0  0
   16.6160   18.7930   10.1030 C   0  0  0  0  0
   17.8580   17.2520   11.4800 C   0  0  0  0  0
   16.6890   17.5960   10.8070 C   0  0  0  0  0
   15.5610   16.7900   10.9180 C   0  0  0  0  0
   15.6160   15.6120   11.6710 N   0  0  0  0  0
   16.8070   15.2530   12.3170 C   0  0  0  0  0
   17.9200   16.0790   12.2230 C   0  0  0  0  0
    4.3008   24.4263    0.9461 H   0  0  0  0  0
    4.7304   25.2203   -0.7120 H   0  0  0  0  0
    6.6822   26.2727    0.3046 H   0  0  0  0  0
    5.6542   24.5993    2.7446 H   0  0  0  0  0
    6.1218   26.3085    2.9392 H   0  0  0  0  0
    7.1250   23.1020    3.4013 H   0  0  0  0  0
    9.4894   22.3858    3.6386 H   0  0  0  0  0
    8.4268   26.8781    1.8262 H   0  0  0  0  0
   10.7919   26.1872    2.1312 H   0  0  0  0  0
   12.2212   24.3575    2.4206 H   0  0  0  0  0
   11.6785   22.8274    3.1647 H   0  0  0  0  0
   10.7731   26.4365    5.4701 H   0  0  0  0  0
    8.6768   24.6777    6.7029 H   0  0  0  0  0
    8.7903   25.5804    8.7771 H   0  0  0  0  0
    9.9037   28.1435    7.5561 H   0  0  0  0  0
    8.2109   27.8613    8.0314 H   0  0  0  0  0
    9.4876   27.9107    9.2719 H   0  0  0  0  0
   11.0502   24.6806    8.3556 H   0  0  0  0  0
   11.5777   26.2695    7.7486 H   0  0  0  0  0
   11.1249   26.0756    9.4599 H   0  0  0  0  0
    6.6795   25.2331    6.2108 H   0  0  0  0  0
    5.0505   26.2824    4.8613 H   0  0  0  0  0
    6.2343   27.5278    4.4053 H   0  0  0  0  0
    5.2672   28.9869    6.1170 H   0  0  0  0  0
    4.5702   26.3146    7.4836 H   0  0  0  0  0
    4.1774   28.0581    8.0921 H   0  0  0  0  0
   12.8678   26.0496    5.3107 H   0  0  0  0  0
   12.7896   22.4871    5.1962 H   0  0  0  0  0
   13.9806   23.4649    4.2898 H   0  0  0  0  0
   13.2748   23.5175    7.1997 H   0  0  0  0  0
   13.6248   25.0767    6.4389 H   0  0  0  0  0
   15.7649   24.3841    7.0554 H   0  0  0  0  0
   15.6625   23.7561    5.3758 H   0  0  0  0  0
   14.6228   21.8621    7.1330 H   0  0  0  0  0
   16.9786   21.9305    5.7333 H   0  0  0  0  0
   16.9815   20.4189    4.1019 H   0  0  0  0  0
   17.0339   19.0985    2.0768 H   0  0  0  0  0
   16.9155   17.6233    3.0671 H   0  0  0  0  0
   15.7599   17.9005    1.7409 H   0  0  0  0  0
   13.9561   20.6898    3.4123 H   0  0  0  0  0
   15.3072   20.8720    2.2667 H   0  0  0  0  0
   14.0242   19.6789    1.9479 H   0  0  0  0  0
   15.0146   17.3265    4.6419 H   0  0  0  0  0
   13.7821   18.6010    4.8083 H   0  0  0  0  0
   13.8565   17.6230    3.3221 H   0  0  0  0  0
   16.3829   17.9579    5.7551 H   0  0  0  0  0
   20.6556   17.9867    5.6045 H   0  0  0  0  0
   20.4143   19.1461    6.9344 H   0  0  0  0  0
   20.6483   17.4174    7.2918 H   0  0  0  0  0
   15.9890   23.1685    8.7319 H   0  0  0  0  0
   17.3886   22.6864    7.7116 H   0  0  0  0  0
   18.5654   20.9381    8.3316 H   0  0  0  0  0
   18.7054   18.7972    9.5779 H   0  0  0  0  0
   14.3920   21.2340    9.3103 H   0  0  0  0  0
   14.5257   19.0784   10.5280 H   0  0  0  0  0
   18.7286   17.9055   11.4240 H   0  0  0  0  0
   14.6351   17.0757   10.4189 H   0  0  0  0  0
   16.8597   14.3282   12.8916 H   0  0  0  0  0
   18.8440   15.8066   12.7331 H   0  0  0  0  0
  2  1  2  0  0  0
  3  2  1  0  0  0
  4  3  1  0  0  0
  5  4  4  0  0  0
  7  4  4  0  0  0
  6  5  4  0  0  0
  9  6  4  0  0  0
  8  7  4  0  0  0
  9  8  4  0  0  0
 10  9  1  0  0  0
 31 10  1  0  0  0
 11 12  2  0  0  0
 11 13  1  0  0  0
 31 11  1  0  0  0
 13 14  1  0  0  0
 14 15  1  0  0  0
 14 18  1  0  0  0
 15 16  1  0  0  0
 15 17  1  0  0  0
 18 19  2  0  0  0
 18 20  1  0  0  0
 20 21  1  0  0  0
 21 22  1  0  0  0
 22 23  2  0  0  0
 31 24  1  0  0  0
 25 26  1  0  0  0
 25 31  1  0  0  0
 26 27  1  0  0  0
 27 28  1  0  0  0
 28 29  1  0  0  0
 28 43  1  0  0  0
 29 30  1  0  0  0
 30 32  2  0  0  0
 30 33  1  0  0  0
 33 34  1  0  0  0
 33 38  1  0  0  0
 34 35  1  0  0  0
 34 36  1  0  0  0
 34 37  1  0  0  0
 38 39  1  0  0  0
 39 40  2  0  0  0
 39 41  1  0  0  0
 41 42  1  0  0  0
 43 44  1  0  0  0
 44 45  4  0  0  0
 44 47  4  0  0  0
 45 46  4  0  0  0
 46 49  4  0  0  0
 47 48  4  0  0  0
 48 49  4  0  0  0
 49 51  1  0  0  0
 51 50  4  0  0  0
 50 55  4  0  0  0
 51 52  4  0  0  0
 52 53  4  0  0  0
 53 54  4  0  0  0
 54 55  4  0  0  0
  1 56  1  0  0  0
  1 57  1  0  0  0
  2 58  1  0  0  0
  3 59  1  0  0  0
  3 60  1  0  0  0
  5 61  1  0  0  0
  6 62  1  0  0  0
  7 63  1  0  0  0
  8 64  1  0  0  0
 10 65  1  0  0  0
 10 66  1  0  0  0
 13 67  1  0  0  0
 14 68  1  0  0  0
 15 69  1  0  0  0
 16 70  1  0  0  0
 16 71  1  0  0  0
 16 72  1  0  0  0
 17 73  1  0  0  0
 17 74  1  0  0  0
 17 75  1  0  0  0
 20 76  1  0  0  0
 21 77  1  0  0  0
 21 78  1  0  0  0
 22 79  1  0  0  0
 23 80  1  0  0  0
 23 81  1  0  0  0
 24 82  1  0  0  0
 25 83  1  0  0  0
 25 84  1  0  0  0
 26 85  1  0  0  0
 26 86  1  0  0  0
 27 87  1  0  0  0
 27 88  1  0  0  0
 28 89  1  0  0  0
 29 90  1  0  0  0
 33 91  1  0  0  0
 35 92  1  0  0  0
 35 93  1  0  0  0
 35 94  1  0  0  0
 36 95  1  0  0  0
 36 96  1  0  0  0
 36 97  1  0  0  0
 37 98  1  0  0  0
 37 99  1  0  0  0
 37100  1  0  0  0
 38101  1  0  0  0
 42102  1  0  0  0
 42103  1  0  0  0
 42104  1  0  0  0
 43105  1  0  0  0
 43106  1  0  0  0
 45107  1  0  0  0
 46108  1  0  0  0
 47109  1  0  0  0
 48110  1  0  0  0
 50111  1  0  0  0
 52112  1  0  0  0
 54113  1  0  0  0
 55114  1  0  0  0
M  END
$$$$
