### 
### Created by X-TOOL on Mon Sep 10 21:13:20 2018
### 

@<TRIPOS>MOLECULE
4cpq_ligand
  114   116     1     0     0
SMALL
GAST_HUCK


@<TRIPOS>ATOM
      1 CAB         4.9520   25.0590    0.3430 C.2       1 9MW        -0.1154
      2 CAO         6.0240   25.6380    0.8980 C.2       1 9MW        -0.0792
      3 CBD         6.3070   25.3920    2.3790 C.3       1 9MW         0.0049
      4 CBS         7.6340   25.0100    2.5460 C.ar      1 9MW        -0.0377
      5 CAT         7.9310   23.7720    3.1020 C.ar      1 9MW        -0.0645
      6 CAV         9.2550   23.3870    3.2770 C.ar      1 9MW        -0.0664
      7 CAU         8.6600   25.8920    2.2280 C.ar      1 9MW        -0.0645
      8 CAW         9.9850   25.5150    2.4230 C.ar      1 9MW        -0.0664
      9 CBU        10.2790   24.2810    2.9900 C.ar      1 9MW        -0.0476
     10 CBH        11.5990   23.9140    3.1980 C.3       1 9MW         0.0141
     11 CBR        10.9100   24.3920    5.5670 C.2       1 9MW         0.2318
     12 OAL        10.5200   23.3340    6.0570 O.2       1 9MW        -0.3414
     13 N          10.3500   25.5840    5.8370 N.am      1 9MW        -0.2622
     14 CA          9.1280   25.6690    6.6600 C.3       1 9MW         0.1334
     15 CB          9.4580   26.1080    8.0960 C.3       1 9MW        -0.0061
     16 CG1         9.2500   27.6150    8.2500 C.3       1 9MW        -0.0584
     17 CG2        10.9080   25.7580    8.4400 C.3       1 9MW        -0.0584
     18 C           8.1340   26.6500    6.0250 C.2       1 9MW         0.2042
     19 O           8.4980   27.7500    5.6130 O.2       1 9MW        -0.3943
     20 NBJ         6.8910   26.1720    5.8730 N.am      1 9MW        -0.2728
     21 CBB         5.8220   26.9550    5.2360 C.3       1 9MW         0.0589
     22 CAN         5.2150   27.9080    6.2630 C.2       1 9MW        -0.0674
     23 CAA         4.6170   27.3950    7.3470 C.2       1 9MW        -0.1156
     24 OAM        12.5730   25.7430    4.4500 O.3       1 9MW        -0.3819
     25 CBF        13.1930   23.4880    5.0430 C.3       1 9MW        -0.0103
     26 CBC        13.7750   24.0000    6.3600 C.3       1 9MW        -0.0098
     27 CBE        15.2680   23.6790    6.3890 C.3       1 9MW        -0.0058
     28 NCA        15.5030   22.3140    6.8850 N.4       1 9MW         0.3801
     29 NBM        16.0400   21.6860    6.0490 N.am      1 9MW        -0.2494
     30 CBQ        15.3860   20.6370    5.5190 C.2       1 9MW         0.2392
     31 CCC        12.0720   24.4120    4.5670 C.3       1 9MW         0.1539
     32 OAK        14.2860   20.2440    5.9100 O.2       1 9MW        -0.3898
     33 CBZ        16.2510   19.7730    4.5890 C.3       1 9MW         0.1419
     34 CCB        15.4110   19.1040    3.4920 C.3       1 9MW         0.0027
     35 CAG        16.3480   18.3790    2.5240 C.3       1 9MW        -0.0558
     36 CAH        14.6170   20.1630    2.7240 C.3       1 9MW        -0.0558
     37 CAF        14.4460   18.0900    4.1110 C.3       1 9MW        -0.0558
     38 NBK        16.9250   18.7400    5.3880 N.am      1 9MW        -0.2405
     39 CBO        18.2390   18.8070    5.6430 C.2       1 9MW         0.3216
     40 OAI        18.9290   19.6790    5.1130 O.2       1 9MW        -0.3774
     41 OBN        18.8020   17.9240    6.5150 O.3       1 9MW        -0.2672
     42 CAC        20.2150   18.1310    6.5910 C.3       1 9MW         0.0663
     43 CBG        16.3900   22.4150    8.0540 C.3       1 9MW         0.0275
     44 CBT        16.4660   21.2050    8.7300 C.ar      1 9MW         0.0040
     45 CAX        17.6770   20.5270    8.8110 C.ar      1 9MW        -0.0530
     46 CAZ        17.7540   19.3240    9.5040 C.ar      1 9MW        -0.0582
     47 CAY        15.3360   20.6910    9.3560 C.ar      1 9MW        -0.0530
     48 CBA        15.4120   19.4840   10.0400 C.ar      1 9MW        -0.0582
     49 CBW        16.6160   18.7930   10.1030 C.ar      1 9MW        -0.0170
     50 CBV        17.8580   17.2520   11.4800 C.ar      1 9MW        -0.0366
     51 CAR        16.6890   17.5960   10.8070 C.ar      1 9MW         0.0053
     52 CAP        15.5610   16.7900   10.9180 C.ar      1 9MW         0.0170
     53 NBI        15.6160   15.6120   11.6710 N.ar      1 9MW        -0.2976
     54 CAQ        16.8070   15.2530   12.3170 C.ar      1 9MW         0.0098
     55 CAS        17.9200   16.0790   12.2230 C.ar      1 9MW        -0.0349
     56 H           4.7306   25.2202   -0.7110 H         1 9MW         0.0298
     57 H           4.3014   24.4269    0.9456 H         1 9MW         0.0298
     58 H           6.6816   26.2721    0.3052 H         1 9MW         0.0686
     59 H           5.6474   24.5935    2.7495 H         1 9MW         0.0586
     60 H           6.1185   26.3158    2.9456 H         1 9MW         0.0586
     61 H           7.1294   23.1057    3.3996 H         1 9MW         0.0545
     62 H           9.4881   22.3913    3.6366 H         1 9MW         0.0541
     63 H           8.4281   26.8726    1.8285 H         1 9MW         0.0545
     64 H          10.7874   26.1835    2.1328 H         1 9MW         0.0541
     65 H          12.2284   24.3569    2.4120 H         1 9MW         0.0429
     66 H          11.6825   22.8178    3.1605 H         1 9MW         0.0429
     67 H          10.7648   26.4198    5.4773 H         1 9MW         0.1889
     68 H           8.6636   24.6726    6.6983 H         1 9MW         0.0804
     69 H           8.7879   25.5808    8.7910 H         1 9MW         0.0343
     70 H           9.4895   27.9147    9.2809 H         1 9MW         0.0235
     71 H           8.2017   27.8649    8.0297 H         1 9MW         0.0235
     72 H           9.9092   28.1496    7.5503 H         1 9MW         0.0235
     73 H          11.0596   24.6741    8.3298 H         1 9MW         0.0235
     74 H          11.1204   26.0542    9.4778 H         1 9MW         0.0235
     75 H          11.5860   26.2941    7.7596 H         1 9MW         0.0235
     76 H           6.6837   25.2515    6.2041 H         1 9MW         0.1882
     77 H           5.0431   26.2756    4.8596 H         1 9MW         0.0700
     78 H           6.2393   27.5340    4.3990 H         1 9MW         0.0700
     79 H           5.2671   28.9859    6.1171 H         1 9MW         0.0692
     80 H           4.1778   28.0575    8.0914 H         1 9MW         0.0290
     81 H           4.5702   26.3156    7.4835 H         1 9MW         0.0290
     82 H          13.2930   25.7558    3.8304 H         1 9MW         0.2082
     83 H          12.7902   22.4754    5.1929 H         1 9MW         0.0283
     84 H          13.9868   23.4580    4.2822 H         1 9MW         0.0283
     85 H          13.2729   23.5053    7.2045 H         1 9MW         0.0316
     86 H          13.6282   25.0877    6.4323 H         1 9MW         0.0316
     87 H          15.7774   24.3950    7.0507 H         1 9MW         0.0822
     88 H          15.6750   23.7670    5.3709 H         1 9MW         0.0822
     89 H          14.6312   21.8774    7.1407 H         1 9MW         0.2321
     90 H          16.9602   21.9257    5.7395 H         1 9MW         0.2384
     91 H          17.0076   20.4135    4.1123 H         1 9MW         0.0806
     92 H          15.7556   17.8956    1.7331 H         1 9MW         0.0237
     93 H          16.9213   17.6160    3.0709 H         1 9MW         0.0237
     94 H          17.0407   19.1041    2.0719 H         1 9MW         0.0237
     95 H          13.9413   20.6877    3.4155 H         1 9MW         0.0237
     96 H          14.0270   19.6769    1.9331 H         1 9MW         0.0237
     97 H          15.3119   20.8857    2.2715 H         1 9MW         0.0237
     98 H          15.0177   17.3293    4.6628 H         1 9MW         0.0237
     99 H          13.8635   17.6044    3.3142 H         1 9MW         0.0237
    100 H          13.7633   18.6075    4.8010 H         1 9MW         0.0237
    101 H          16.3935   17.9732    5.7479 H         1 9MW         0.1899
    102 H          20.6535   17.4113    7.2980 H         1 9MW         0.0575
    103 H          20.4175   19.1552    6.9375 H         1 9MW         0.0575
    104 H          20.6609   17.9856    5.5960 H         1 9MW         0.0575
    105 H          15.9986   23.1837    8.7365 H         1 9MW         0.0993
    106 H          17.3970   22.7021    7.7171 H         1 9MW         0.0993
    107 H          18.5605   20.9359    8.3343 H         1 9MW         0.0564
    108 H          18.7002   18.8001    9.5775 H         1 9MW         0.0617
    109 H          14.3972   21.2310    9.3105 H         1 9MW         0.0564
    110 H          14.5306   19.0807   10.5253 H         1 9MW         0.0617
    111 H          18.7238   17.9019   11.4243 H         1 9MW         0.0731
    112 H          14.6402   17.0742   10.4216 H         1 9MW         0.0822
    113 H          16.8595   14.3333   12.8884 H         1 9MW         0.0812
    114 H          18.8389   15.8081   12.7303 H         1 9MW         0.0706
@<TRIPOS>BOND
     1    2    1 2  
     2    3    2 1  
     3    4    3 1  
     4    5    4 ar 
     5    7    4 ar 
     6    6    5 ar 
     7    9    6 ar 
     8    8    7 ar 
     9    9    8 ar 
    10   10    9 1  
    11   31   10 1  
    12   11   12 2  
    13   11   13 am 
    14   31   11 1  
    15   13   14 1  
    16   14   15 1  
    17   14   18 1  
    18   15   16 1  
    19   15   17 1  
    20   18   19 2  
    21   18   20 am 
    22   20   21 1  
    23   21   22 1  
    24   22   23 2  
    25   31   24 1  
    26   25   26 1  
    27   25   31 1  
    28   26   27 1  
    29   27   28 1  
    30   28   29 1  
    31   28   43 1  
    32   29   30 am 
    33   30   32 2  
    34   30   33 1  
    35   33   34 1  
    36   33   38 1  
    37   34   35 1  
    38   34   36 1  
    39   34   37 1  
    40   38   39 am 
    41   39   40 2  
    42   39   41 1  
    43   41   42 1  
    44   43   44 1  
    45   44   45 ar 
    46   44   47 ar 
    47   45   46 ar 
    48   46   49 ar 
    49   47   48 ar 
    50   48   49 ar 
    51   49   51 1  
    52   51   50 ar 
    53   50   55 ar 
    54   51   52 ar 
    55   52   53 ar 
    56   53   54 ar 
    57   54   55 ar 
    58    1   56 1  
    59    1   57 1  
    60    2   58 1  
    61    3   59 1  
    62    3   60 1  
    63    5   61 1  
    64    6   62 1  
    65    7   63 1  
    66    8   64 1  
    67   10   65 1  
    68   10   66 1  
    69   13   67 1  
    70   14   68 1  
    71   15   69 1  
    72   16   70 1  
    73   16   71 1  
    74   16   72 1  
    75   17   73 1  
    76   17   74 1  
    77   17   75 1  
    78   20   76 1  
    79   21   77 1  
    80   21   78 1  
    81   22   79 1  
    82   23   80 1  
    83   23   81 1  
    84   24   82 1  
    85   25   83 1  
    86   25   84 1  
    87   26   85 1  
    88   26   86 1  
    89   27   87 1  
    90   27   88 1  
    91   28   89 1  
    92   29   90 1  
    93   33   91 1  
    94   35   92 1  
    95   35   93 1  
    96   35   94 1  
    97   36   95 1  
    98   36   96 1  
    99   36   97 1  
   100   37   98 1  
   101   37   99 1  
   102   37  100 1  
   103   38  101 1  
   104   42  102 1  
   105   42  103 1  
   106   42  104 1  
   107   43  105 1  
   108   43  106 1  
   109   45  107 1  
   110   46  108 1  
   111   47  109 1  
   112   48  110 1  
   113   50  111 1  
   114   52  112 1  
   115   54  113 1  
   116   55  114 1  
@<TRIPOS>SUBSTRUCTURE
     1 9MW         1

