4n7m_ligand
  -I-interpret- 

 31 33  0  0  0  0  0  0  0  0999 V2000
  -23.9910  -28.5270    4.6640 O   0  0  0  0  0
  -25.1840  -28.6020    4.9780 C   0  0  0  0  0
  -25.6720  -28.8740    6.3460 C   0  0  0  0  0
  -24.7650  -29.1230    7.3850 C   0  0  0  0  0
  -25.2130  -29.3180    8.6840 C   0  0  0  0  0
  -26.1640  -28.3780    4.0370 N   0  0  0  0  0
  -27.4890  -28.3940    4.3530 C   0  0  0  0  0
  -27.9910  -28.6210    5.5790 C   0  0  0  0  0
  -27.0600  -28.8600    6.6390 C   0  0  0  0  0
  -27.4870  -29.0600    7.9630 C   0  0  0  0  0
  -26.5670  -29.2840    8.9700 C   0  0  0  0  0
  -28.3080  -28.1870    3.3860 N   0  3  0  0  0
  -29.7580  -28.1950    3.5030 C   0  0  0  0  0
  -30.2240  -28.0640    2.0830 C   0  0  0  0  0
  -29.1130  -28.5600    1.3490 C   0  0  0  0  0
  -27.9210  -28.0150    2.0260 C   0  0  0  0  0
  -23.6971  -29.1639    7.1707 H   0  0  0  0  0
  -24.4946  -29.4989    9.4836 H   0  0  0  0  0
  -25.8889  -28.1941    3.0721 H   0  0  0  0  0
  -28.5777  -29.5354    5.4915 H   0  0  0  0  0
  -28.5205  -27.7086    5.8532 H   0  0  0  0  0
  -28.5513  -29.0383    8.1974 H   0  0  0  0  0
  -26.9092  -29.4345    9.9939 H   0  0  0  0  0
  -30.1303  -27.3933    4.1408 H   0  0  0  0  0
  -30.1335  -29.0979    3.9846 H   0  0  0  0  0
  -30.4926  -27.0425    1.8137 H   0  0  0  0  0
  -31.1462  -28.6098    1.8836 H   0  0  0  0  0
  -29.1548  -28.2534    0.3038 H   0  0  0  0  0
  -29.0997  -29.6498    1.3309 H   0  0  0  0  0
  -26.9864  -28.5079    1.7581 H   0  0  0  0  0
  -27.6787  -26.9878    1.7534 H   0  0  0  0  0
  1  2  2  0  0  0
  2  3  1  0  0  0
  2  6  1  0  0  0
  3  4  4  0  0  0
  3  9  4  0  0  0
  4  5  4  0  0  0
  5 11  4  0  0  0
  6  7  1  0  0  0
  7  8  1  0  0  0
  7 12  2  0  0  0
  8  9  1  0  0  0
  9 10  4  0  0  0
 10 11  4  0  0  0
 12 13  1  0  0  0
 12 16  1  0  0  0
 13 14  1  0  0  0
 14 15  1  0  0  0
 15 16  1  0  0  0
  4 17  1  0  0  0
  5 18  1  0  0  0
  6 19  1  0  0  0
  8 20  1  0  0  0
  8 21  1  0  0  0
 10 22  1  0  0  0
 11 23  1  0  0  0
 13 24  1  0  0  0
 13 25  1  0  0  0
 14 26  1  0  0  0
 14 27  1  0  0  0
 15 28  1  0  0  0
 15 29  1  0  0  0
 16 30  1  0  0  0
 16 31  1  0  0  0
M  END
$$$$
