4v1f_ligand
  -I-interpret- 

 21 22  0  0  0  0  0  0  0  0999 V2000
 -161.8920   64.2870   29.8880 Br  0  0  0  0  0
 -154.4350   66.5190   27.0670 O   0  0  0  0  0
 -156.6250   65.4960   27.1080 N   0  0  0  0  0
 -155.8940   66.7530   29.0130 C   0  0  0  0  0
 -157.0840   66.4830   29.6480 C   0  0  0  0  0
 -155.6620   66.2500   27.7310 C   0  0  0  0  0
 -158.0360   65.7260   29.0250 C   0  0  0  0  0
 -157.8040   65.2340   27.7450 C   0  0  0  0  0
 -159.2370   65.4550   29.6630 C   0  0  0  0  0
 -158.7960   64.4550   27.0950 C   0  0  0  0  0
 -160.2280   64.6730   29.0110 C   0  0  0  0  0
 -159.9990   64.1810   27.7410 C   0  0  0  0  0
 -154.2100   65.6770   25.9130 C   0  0  0  0  0
 -155.1346   67.3576   29.5088 H   0  0  0  0  0
 -157.2678   66.8732   30.6490 H   0  0  0  0  0
 -159.4209   65.8421   30.6652 H   0  0  0  0  0
 -158.6166   64.0713   26.0907 H   0  0  0  0  0
 -160.7596   63.5784   27.2444 H   0  0  0  0  0
 -154.1922   64.6327   26.2247 H   0  0  0  0  0
 -155.0133   65.8287   25.1920 H   0  0  0  0  0
 -153.2555   65.9372   25.4555 H   0  0  0  0  0
 11  1  1  0  0  0
  6  2  1  0  0  0
  2 13  1  0  0  0
  3  6  4  0  0  0
  8  3  4  0  0  0
  5  4  4  0  0  0
  4  6  4  0  0  0
  7  5  4  0  0  0
  7  8  4  0  0  0
  9  7  4  0  0  0
  8 10  4  0  0  0
  9 11  4  0  0  0
 10 12  4  0  0  0
 11 12  4  0  0  0
  4 14  1  0  0  0
  5 15  1  0  0  0
  9 16  1  0  0  0
 10 17  1  0  0  0
 12 18  1  0  0  0
 13 19  1  0  0  0
 13 20  1  0  0  0
 13 21  1  0  0  0
M  END
$$$$
