3oy1_ligand
  -I-interpret- 

 66 71  0  0  0  0  0  0  0  0999 V2000
  -17.3960   11.9000  -36.4350 C   0  0  0  0  0
  -18.3760   11.6940  -35.5180 C   0  0  0  0  0
  -18.3450   12.3980  -34.2390 C   0  0  0  0  0
  -17.3080   13.2680  -33.9990 C   0  0  0  0  0
  -16.3320   13.4410  -34.9370 C   0  0  0  0  0
  -16.3880   12.7750  -36.1330 C   0  0  0  0  0
  -19.3440   12.1770  -33.3190 C   0  0  0  0  0
  -20.3880   11.3190  -33.5110 C   0  0  0  0  0
  -20.3640   10.6910  -34.7470 C   0  0  0  0  0
  -19.4020   10.8450  -35.7290 C   0  0  0  0  0
  -21.3340   11.1230  -32.6040 N   0  0  0  0  0
  -21.7130    9.9670  -32.0810 C   0  0  0  0  0
  -22.7020   10.2500  -31.2490 N   0  0  0  0  0
  -22.8720   11.5740  -31.2630 N   0  0  0  0  0
  -22.0140   12.0740  -32.0940 C   0  0  0  0  0
  -21.8700   13.2810  -32.3970 O   0  0  0  0  0
  -23.9180   11.9890  -30.3460 C   0  0  0  0  0
  -25.1120   12.5780  -30.9870 C   0  0  0  0  0
  -26.1970   12.5140  -29.9740 C   0  0  0  0  0
  -25.8880   13.3920  -28.9400 O   0  0  0  0  0
  -24.6230   13.2110  -28.3240 C   0  0  0  0  0
  -23.4830   12.9380  -29.2810 C   0  0  0  0  0
  -21.2980    8.5610  -32.2970 C   0  0  0  0  0
  -20.0340    8.2450  -32.6630 C   0  0  0  0  0
  -19.6930    6.9450  -32.8320 C   0  0  0  0  0
  -20.5390    5.9800  -32.6720 N   0  0  0  0  0
  -21.7910    6.2200  -32.3010 C   0  0  0  0  0
  -22.1760    7.5250  -32.1070 C   0  0  0  0  0
  -22.6050    5.1780  -32.1550 N   0  0  0  0  0
  -23.8990    5.2040  -31.5690 C   0  0  0  0  0
  -24.6320    3.9500  -31.9480 C   0  0  0  0  0
  -25.9780    3.8970  -31.2740 C   0  0  0  0  0
  -25.8950    3.9370  -29.7770 C   0  0  0  0  0
  -25.1140    5.1560  -29.3770 C   0  0  0  0  0
  -23.7730    5.2590  -30.0680 C   0  0  0  0  0
  -17.4118   11.3790  -37.3923 H   0  0  0  0  0
  -17.2653   13.8195  -33.0598 H   0  0  0  0  0
  -15.5002   14.1152  -34.7328 H   0  0  0  0  0
  -15.6029   12.9480  -36.8691 H   0  0  0  0  0
  -19.2987   12.7222  -32.3762 H   0  0  0  0  0
  -21.1847   10.0081  -34.9666 H   0  0  0  0  0
  -19.4726   10.2866  -36.6624 H   0  0  0  0  0
  -24.1792   11.0309  -29.8966 H   0  0  0  0  0
  -25.3838   12.0321  -31.8904 H   0  0  0  0  0
  -24.9250   13.6053  -31.2996 H   0  0  0  0  0
  -26.2848   11.4990  -29.5865 H   0  0  0  0  0
  -27.1473   12.7942  -30.4285 H   0  0  0  0  0
  -24.7085   12.3379  -27.6771 H   0  0  0  0  0
  -24.3866   14.1417  -27.8082 H   0  0  0  0  0
  -23.1744   13.8754  -29.7438 H   0  0  0  0  0
  -22.6526   12.4976  -28.7292 H   0  0  0  0  0
  -19.2955    9.0311  -32.8207 H   0  0  0  0  0
  -18.6680    6.7034  -33.1132 H   0  0  0  0  0
  -23.1983    7.7405  -31.7963 H   0  0  0  0  0
  -22.2690    4.2770  -32.4952 H   0  0  0  0  0
  -24.4417    6.0802  -31.9238 H   0  0  0  0  0
  -24.0445    3.0884  -31.6308 H   0  0  0  0  0
  -24.7777    3.9394  -33.0282 H   0  0  0  0  0
  -26.4485    2.9540  -31.5524 H   0  0  0  0  0
  -26.5418    4.7726  -31.5958 H   0  0  0  0  0
  -25.3998    3.0392  -29.4071 H   0  0  0  0  0
  -26.8967    3.9792  -29.3492 H   0  0  0  0  0
  -24.9285    5.0918  -28.3048 H   0  0  0  0  0
  -25.6994    6.0306  -29.6608 H   0  0  0  0  0
  -23.3267    6.2168  -29.8004 H   0  0  0  0  0
  -23.1615    4.4153  -29.7483 H   0  0  0  0  0
  1  2  4  0  0  0
  1  6  4  0  0  0
  2  3  4  0  0  0
  2 10  4  0  0  0
  3  4  4  0  0  0
  3  7  4  0  0  0
  4  5  4  0  0  0
  5  6  4  0  0  0
  7  8  4  0  0  0
  8  9  4  0  0  0
  8 11  1  0  0  0
  9 10  4  0  0  0
 11 12  1  0  0  0
 11 15  1  0  0  0
 12 13  2  0  0  0
 12 23  1  0  0  0
 13 14  1  0  0  0
 14 15  1  0  0  0
 14 17  1  0  0  0
 15 16  2  0  0  0
 17 18  1  0  0  0
 17 22  1  0  0  0
 18 19  1  0  0  0
 19 20  1  0  0  0
 20 21  1  0  0  0
 21 22  1  0  0  0
 23 24  4  0  0  0
 23 28  4  0  0  0
 24 25  4  0  0  0
 25 26  4  0  0  0
 26 27  4  0  0  0
 27 28  4  0  0  0
 27 29  1  0  0  0
 29 30  1  0  0  0
 30 31  1  0  0  0
 30 35  1  0  0  0
 31 32  1  0  0  0
 32 33  1  0  0  0
 33 34  1  0  0  0
 34 35  1  0  0  0
  1 36  1  0  0  0
  4 37  1  0  0  0
  5 38  1  0  0  0
  6 39  1  0  0  0
  7 40  1  0  0  0
  9 41  1  0  0  0
 10 42  1  0  0  0
 17 43  1  0  0  0
 18 44  1  0  0  0
 18 45  1  0  0  0
 19 46  1  0  0  0
 19 47  1  0  0  0
 21 48  1  0  0  0
 21 49  1  0  0  0
 22 50  1  0  0  0
 22 51  1  0  0  0
 24 52  1  0  0  0
 25 53  1  0  0  0
 28 54  1  0  0  0
 29 55  1  0  0  0
 30 56  1  0  0  0
 31 57  1  0  0  0
 31 58  1  0  0  0
 32 59  1  0  0  0
 32 60  1  0  0  0
 33 61  1  0  0  0
 33 62  1  0  0  0
 34 63  1  0  0  0
 34 64  1  0  0  0
 35 65  1  0  0  0
 35 66  1  0  0  0
M  END
$$$$
