1jk7_ligand
  -I-interpret- 

125131  0  0  0  0  0  0  0  0999 V2000
   84.7320   52.5870   22.0760 C   0  0  0  0  0
   84.5130   51.9650   23.4460 C   0  0  0  0  0
   85.8020   51.8750   24.2370 C   0  0  0  0  0
   86.4660   53.2300   24.6430 C   0  0  0  0  0
   87.7070   53.1020   25.3890 C   0  0  0  0  0
   88.2490   54.4690   25.7830 C   0  0  0  0  0
   87.1240   55.1760   26.6000 C   0  0  0  0  0
   85.8480   55.3270   25.8470 C   0  0  0  0  0
   84.7100   55.9060   26.5380 C   0  0  0  0  0
   83.9760   56.9360   26.0960 C   0  0  0  0  0
   84.2890   57.5720   24.7500 C   0  0  0  0  0
   85.1530   56.6200   23.8730 C   0  0  0  0  0
   85.7790   57.3160   22.6710 C   0  0  0  0  0
   86.6190   56.3490   21.9220 C   0  0  0  0  0
   87.8380   56.4730   21.6450 C   0  0  0  0  0
   88.7790   55.5180   20.9260 C   0  0  0  0  0
   89.7590   56.0190   19.8730 C   0  0  0  0  0
   91.0150   55.1000   19.9920 C   0  0  0  0  0
   90.6000   54.1200   21.1830 C   0  0  0  0  0
   91.7550   53.7910   22.0410 C   0  0  0  0  0
   91.2910   52.8040   23.1970 C   0  0  0  0  0
   90.6520   51.5760   22.5060 C   0  0  0  0  0
   89.5400   52.0470   21.6190 C   0  0  0  0  0
   88.9160   50.7760   20.9570 C   0  0  0  0  0
   88.4170   49.7690   22.0900 C   0  0  0  0  0
   89.5190   49.4740   23.0350 C   0  0  0  0  0
   90.6590   48.4960   22.6060 C   0  0  0  0  0
   90.0630   47.1120   22.2130 C   0  0  0  0  0
   91.1050   46.0580   21.7310 C   0  0  0  0  0
   90.3560   44.7100   21.4850 C   0  0  0  0  0
   89.6430   44.1410   22.7260 C   0  0  0  0  0
   89.0400   42.7970   22.3110 C   0  0  0  0  0
   90.1090   41.8280   21.7220 C   0  0  0  0  0
   90.9130   42.4630   20.6410 C   0  0  0  0  0
   92.1630   41.7070   20.2210 C   0  0  0  0  0
   92.7310   42.2150   18.8650 C   0  0  0  0  0
   91.7240   42.3660   17.7510 C   0  0  0  0  0
   90.4870   43.1060   18.2570 C   0  0  0  0  0
   90.5510   43.9420   23.9750 C   0  0  0  0  0
   91.7570   46.5190   20.4420 C   0  0  0  0  0
   87.2320   49.3660   22.1030 C   0  0  0  0  0
   84.7660   57.9430   21.7610 C   0  0  0  0  0
   82.8040   57.5150   26.8540 C   0  0  0  0  0
   83.9360   50.5520   23.1170 C   0  0  0  0  0
   83.9670   53.6800   21.8290 O   0  0  0  0  0
   85.5070   52.2140   21.2070 O   0  0  0  0  0
   83.4800   52.6130   24.1090 O   0  0  0  0  0
   85.4130   53.9720   25.3830 O   0  0  0  0  0
   87.5860   56.4910   27.0330 O   0  0  0  0  0
   86.1770   56.0460   24.6410 O   0  0  0  0  0
   89.5730   54.8660   21.8870 O   0  0  0  0  0
   89.9890   52.9340   20.5950 O   0  0  0  0  0
   90.1980   50.7020   23.5310 O   0  0  0  0  0
   87.8760   51.1260   20.0650 O   0  0  0  0  0
   91.5940   48.3140   23.5810 O   0  0  0  0  0
   91.3600   43.7670   20.9990 O   0  0  0  0  0
   89.9870   42.5370   19.5200 O   0  0  0  0  0
   86.5188   51.3692   23.5901 H   0  0  0  0  0
   85.5494   51.3709   25.1698 H   0  0  0  0  0
   86.7969   53.7685   23.7550 H   0  0  0  0  0
   88.4433   52.6014   24.7603 H   0  0  0  0  0
   87.5132   52.5279   26.2950 H   0  0  0  0  0
   88.5142   55.0516   24.9008 H   0  0  0  0  0
   89.1581   54.3710   26.3764 H   0  0  0  0  0
   86.9126   54.5347   27.4557 H   0  0  0  0  0
   84.4297   55.4665   27.4953 H   0  0  0  0  0
   84.8453   58.4940   24.9190 H   0  0  0  0  0
   83.3518   57.7725   24.2308 H   0  0  0  0  0
   84.4731   55.8545   23.4991 H   0  0  0  0  0
   86.3938   58.1313   23.0523 H   0  0  0  0  0
   86.1286   55.4387   21.5771 H   0  0  0  0  0
   88.2915   57.4094   21.9700 H   0  0  0  0  0
   88.0636   54.9193   20.3622 H   0  0  0  0  0
   90.0160   57.0657   20.0357 H   0  0  0  0  0
   89.3262   55.9726   18.8737 H   0  0  0  0  0
   91.9351   55.6507   20.1876 H   0  0  0  0  0
   91.2552   54.5763   19.0667 H   0  0  0  0  0
   92.1529   54.7052   22.4814 H   0  0  0  0  0
   92.5283   53.3107   21.4414 H   0  0  0  0  0
   90.5759   53.2918   23.8595 H   0  0  0  0  0
   92.1380   52.5044   23.8142 H   0  0  0  0  0
   91.3606   51.0371   21.8770 H   0  0  0  0  0
   88.8196   52.6014   22.2205 H   0  0  0  0  0
   89.6794   50.2705   20.3656 H   0  0  0  0  0
   88.9387   48.9514   23.7954 H   0  0  0  0  0
   91.1538   48.9556   21.7504 H   0  0  0  0  0
   89.3843   47.2876   21.3783 H   0  0  0  0  0
   89.5958   46.7049   23.1097 H   0  0  0  0  0
   91.8812   45.9315   22.4857 H   0  0  0  0  0
   89.5543   44.8829   20.7670 H   0  0  0  0  0
   88.8962   44.8700   23.0406 H   0  0  0  0  0
   88.2918   42.9846   21.5409 H   0  0  0  0  0
   88.6110   42.3299   23.1975 H   0  0  0  0  0
   89.5894   40.9692   21.2970 H   0  0  0  0  0
   90.7879   41.5443   22.5262 H   0  0  0  0  0
   91.8999   40.6556   20.1053 H   0  0  0  0  0
   92.9244   41.8603   20.9858 H   0  0  0  0  0
   93.4510   41.4676   18.5318 H   0  0  0  0  0
   93.1363   43.2093   19.0525 H   0  0  0  0  0
   91.4298   41.3773   17.3987 H   0  0  0  0  0
   92.1735   42.9357   16.9377 H   0  0  0  0  0
   89.7023   43.0146   17.5060 H   0  0  0  0  0
   90.7591   44.1465   18.4343 H   0  0  0  0  0
   91.3551   43.2477   23.7311 H   0  0  0  0  0
   90.9750   44.9016   24.2710 H   0  0  0  0  0
   89.9563   43.5379   24.7942 H   0  0  0  0  0
   90.9932   46.6439   19.6744 H   0  0  0  0  0
   92.2622   47.4698   20.6117 H   0  0  0  0  0
   92.4826   45.7736   20.1165 H   0  0  0  0  0
   86.5334   49.7028   21.3371 H   0  0  0  0  0
   86.8987   48.6782   22.8802 H   0  0  0  0  0
   84.0926   57.1733   21.3839 H   0  0  0  0  0
   84.1945   58.6883   22.3142 H   0  0  0  0  0
   85.2769   58.4216   20.9256 H   0  0  0  0  0
   82.0485   56.7425   26.9977 H   0  0  0  0  0
   83.1438   57.8777   27.8241 H   0  0  0  0  0
   82.3773   58.3410   26.2850 H   0  0  0  0  0
   83.6655   50.0465   24.0441 H   0  0  0  0  0
   83.0517   50.6593   22.4888 H   0  0  0  0  0
   84.6894   49.9672   22.5893 H   0  0  0  0  0
   83.4101   53.8581   22.5904 H   0  0  0  0  0
   83.7607   53.4995   24.3475 H   0  0  0  0  0
   88.4086   56.3960   27.5187 H   0  0  0  0  0
   87.5106   50.3295   19.6729 H   0  0  0  0  0
   92.2684   47.7072   23.2668 H   0  0  0  0  0
  1  2  1  0  0  0
  1 45  1  0  0  0
  1 46  2  0  0  0
  2  3  1  0  0  0
  2 44  1  0  0  0
  2 47  1  0  0  0
  3  4  1  0  0  0
  4  5  1  0  0  0
  4 48  1  0  0  0
  5  6  1  0  0  0
  6  7  1  0  0  0
  7  8  1  0  0  0
  7 49  1  0  0  0
  8  9  1  0  0  0
  8 48  1  0  0  0
  8 50  1  0  0  0
  9 10  2  0  0  0
 10 11  1  0  0  0
 10 43  1  0  0  0
 11 12  1  0  0  0
 12 13  1  0  0  0
 12 50  1  0  0  0
 13 14  1  0  0  0
 13 42  1  0  0  0
 14 15  2  0  0  0
 15 16  1  0  0  0
 16 17  1  0  0  0
 16 51  1  0  0  0
 17 18  1  0  0  0
 18 19  1  0  0  0
 19 20  1  0  0  0
 19 51  1  0  0  0
 19 52  1  0  0  0
 20 21  1  0  0  0
 21 22  1  0  0  0
 22 23  1  0  0  0
 22 53  1  0  0  0
 23 24  1  0  0  0
 23 52  1  0  0  0
 24 25  1  0  0  0
 24 54  1  0  0  0
 25 26  1  0  0  0
 25 41  2  0  0  0
 26 27  1  0  0  0
 26 53  1  0  0  0
 27 28  1  0  0  0
 27 55  1  0  0  0
 28 29  1  0  0  0
 29 30  1  0  0  0
 29 40  1  0  0  0
 30 31  1  0  0  0
 30 56  1  0  0  0
 31 32  1  0  0  0
 31 39  1  0  0  0
 32 33  1  0  0  0
 33 34  1  0  0  0
 34 35  1  0  0  0
 34 56  1  0  0  0
 34 57  1  0  0  0
 35 36  1  0  0  0
 36 37  1  0  0  0
 37 38  1  0  0  0
 38 57  1  0  0  0
  3 58  1  0  0  0
  3 59  1  0  0  0
  4 60  1  0  0  0
  5 61  1  0  0  0
  5 62  1  0  0  0
  6 63  1  0  0  0
  6 64  1  0  0  0
  7 65  1  0  0  0
  9 66  1  0  0  0
 11 67  1  0  0  0
 11 68  1  0  0  0
 12 69  1  0  0  0
 13 70  1  0  0  0
 14 71  1  0  0  0
 15 72  1  0  0  0
 16 73  1  0  0  0
 17 74  1  0  0  0
 17 75  1  0  0  0
 18 76  1  0  0  0
 18 77  1  0  0  0
 20 78  1  0  0  0
 20 79  1  0  0  0
 21 80  1  0  0  0
 21 81  1  0  0  0
 22 82  1  0  0  0
 23 83  1  0  0  0
 24 84  1  0  0  0
 26 85  1  0  0  0
 27 86  1  0  0  0
 28 87  1  0  0  0
 28 88  1  0  0  0
 29 89  1  0  0  0
 30 90  1  0  0  0
 31 91  1  0  0  0
 32 92  1  0  0  0
 32 93  1  0  0  0
 33 94  1  0  0  0
 33 95  1  0  0  0
 35 96  1  0  0  0
 35 97  1  0  0  0
 36 98  1  0  0  0
 36 99  1  0  0  0
 37100  1  0  0  0
 37101  1  0  0  0
 38102  1  0  0  0
 38103  1  0  0  0
 39104  1  0  0  0
 39105  1  0  0  0
 39106  1  0  0  0
 40107  1  0  0  0
 40108  1  0  0  0
 40109  1  0  0  0
 41110  1  0  0  0
 41111  1  0  0  0
 42112  1  0  0  0
 42113  1  0  0  0
 42114  1  0  0  0
 43115  1  0  0  0
 43116  1  0  0  0
 43117  1  0  0  0
 44118  1  0  0  0
 44119  1  0  0  0
 44120  1  0  0  0
 45121  1  0  0  0
 47122  1  0  0  0
 49123  1  0  0  0
 54124  1  0  0  0
 55125  1  0  0  0
M  END
$$$$
