2gg0_ligand
  -I-interpret- 

 48 48  0  0  0  0  0  0  0  0999 V2000
   17.9570    1.0670   14.5680 F   0  0  0  0  0
   17.3680   -0.0520   15.0030 C   0  0  0  0  0
   17.8250   -0.3020   16.2160 F   0  0  0  0  0
   17.7040   -1.0660   14.2040 F   0  0  0  0  0
   15.8930    0.2680   15.0750 C   0  0  0  0  0
   15.0860    0.1570   13.9510 C   0  0  0  0  0
   13.7290    0.5010   14.0140 C   0  0  0  0  0
   15.3490    0.7200   16.2690 C   0  0  0  0  0
   13.9980    1.0450   16.3330 C   0  0  0  0  0
   13.1680    0.9600   15.2090 C   0  0  0  0  0
   11.7080    1.3130   15.2860 C   0  0  0  0  0
   11.2610    2.2340   14.2430 N   0  3  0  0  0
   10.8500    0.0480   15.4090 C   0  0  0  0  0
    9.4540    0.3710   15.3780 O   0  0  0  0  0
   11.1520   -0.5240   16.7680 C   0  0  0  0  0
   10.6750    0.0200   17.7670 O   0  0  0  0  0
   11.9500   -1.5850   16.7860 N   0  0  0  0  0
   12.3690   -2.1890   18.0300 C   0  0  0  0  0
   11.2750   -3.1070   18.5300 C   0  0  0  0  0
   13.5940   -3.0050   17.7800 C   0  0  0  0  0
   13.7950   -3.5910   16.7350 O   0  0  0  0  0
   14.4790   -3.0930   18.7750 N   0  0  0  0  0
   15.7100   -3.8630   18.7810 C   0  0  0  0  0
   15.2470   -5.2310   19.2350 C   0  0  0  0  0
   14.1250   -5.4080   19.7050 O   0  0  0  0  0
   16.1250   -6.3820   19.1110 O   0  0  0  0  0
   16.0620   -7.4270   20.0890 C   0  0  0  0  0
   15.5108   -0.2002   13.0129 H   0  0  0  0  0
   13.1062    0.4099   13.1241 H   0  0  0  0  0
   15.9781    0.8200   17.1535 H   0  0  0  0  0
   13.5751    1.3741   17.2822 H   0  0  0  0  0
   11.5671    1.8873   16.2016 H   0  0  0  0  0
   10.2659    2.4237   14.3622 H   0  0  0  0  0
   11.7854    3.1060   14.3135 H   0  0  0  0  0
   11.4208    1.8128   13.3279 H   0  0  0  0  0
   11.0686   -0.6372   14.5900 H   0  0  0  0  0
    8.9384   -0.4350   15.4564 H   0  0  0  0  0
   12.2738   -1.9817   15.9039 H   0  0  0  0  0
   12.5723   -1.4123   18.7673 H   0  0  0  0  0
   10.3640   -2.5305   18.6909 H   0  0  0  0  0
   11.0883   -3.8847   17.7894 H   0  0  0  0  0
   11.5873   -3.5648   19.4686 H   0  0  0  0  0
   14.2684   -2.5633   19.6208 H   0  0  0  0  0
   16.4744   -3.4364   19.4305 H   0  0  0  0  0
   16.2031   -3.8827   17.8091 H   0  0  0  0  0
   16.2934   -7.0172   21.0722 H   0  0  0  0  0
   15.0591   -7.8538   20.0987 H   0  0  0  0  0
   16.7858   -8.2023   19.8376 H   0  0  0  0  0
  1  2  1  0  0  0
  2  3  1  0  0  0
  2  4  1  0  0  0
  2  5  1  0  0  0
  5  6  4  0  0  0
  5  8  4  0  0  0
  6  7  4  0  0  0
  7 10  4  0  0  0
  8  9  4  0  0  0
  9 10  4  0  0  0
 10 11  1  0  0  0
 11 12  1  0  0  0
 11 13  1  0  0  0
 13 14  1  0  0  0
 13 15  1  0  0  0
 15 16  2  0  0  0
 15 17  1  0  0  0
 17 18  1  0  0  0
 18 19  1  0  0  0
 18 20  1  0  0  0
 20 21  2  0  0  0
 20 22  1  0  0  0
 22 23  1  0  0  0
 23 24  1  0  0  0
 24 25  2  0  0  0
 24 26  1  0  0  0
 26 27  1  0  0  0
  6 28  1  0  0  0
  7 29  1  0  0  0
  8 30  1  0  0  0
  9 31  1  0  0  0
 11 32  1  0  0  0
 12 33  1  0  0  0
 12 34  1  0  0  0
 12 35  1  0  0  0
 13 36  1  0  0  0
 14 37  1  0  0  0
 17 38  1  0  0  0
 18 39  1  0  0  0
 19 40  1  0  0  0
 19 41  1  0  0  0
 19 42  1  0  0  0
 22 43  1  0  0  0
 23 44  1  0  0  0
 23 45  1  0  0  0
 27 46  1  0  0  0
 27 47  1  0  0  0
 27 48  1  0  0  0
M  END
$$$$
