6nzm_ligand
  -I-interpret- 

 73 78  0  0  0  0  0  0  0  0999 V2000
   -0.6650  -22.3790  -17.5140 C   0  0  0  0  0
  -11.3350  -20.9520  -14.5210 N   0  0  0  0  0
   -2.9750  -22.0030  -17.8620 C   0  0  0  0  0
   -4.4410  -23.9660  -18.6430 C   0  0  0  0  0
  -13.5290  -22.0160  -18.1130 C   0  0  0  0  0
  -14.1070  -21.9190  -16.8520 C   0  0  0  0  0
  -12.1800  -21.7770  -18.0980 C   0  0  0  0  0
  -11.4060  -21.5010  -16.9590 C   0  0  0  0  0
   -9.1590  -22.2160  -17.5880 C   0  0  0  0  0
   -5.6890  -24.5330  -18.8520 C   0  0  0  0  0
   -6.7310  -22.5660  -18.0220 C   0  0  0  0  0
   -0.9470  -25.6370  -16.2550 O   0  0  0  0  0
   -2.2640  -25.1620  -16.4200 C   0  0  0  0  0
   -2.2660  -23.6500  -16.2910 C   0  0  0  0  0
   -1.9830  -23.0140  -17.5540 N   0  3  0  0  0
   -0.2900  -21.9270  -18.9060 C   0  0  0  0  0
   -4.3060  -22.6880  -18.1140 C   0  0  0  0  0
   -6.8440  -23.8360  -18.5630 C   0  0  0  0  0
   -7.8540  -21.7660  -17.6970 N   0  0  0  0  0
  -10.0070  -21.2360  -17.1280 N   0  0  0  0  0
  -11.5970  -21.8840  -19.2830 F   0  0  0  0  0
  -13.3680  -21.5800  -15.7120 C   0  0  0  0  0
  -12.0160  -21.3480  -15.7290 C   0  0  0  0  0
  -12.1610  -21.0630  -13.3060 C   0  0  0  0  0
  -11.1980  -20.8530  -12.1790 C   0  0  0  0  0
   -9.9220  -21.4740  -12.7920 C   0  0  0  0  0
  -10.1170  -21.6690  -14.2900 C   0  0  0  0  0
   -9.5570  -23.3280  -17.9390 O   0  0  0  0  0
   -5.4850  -22.0080  -17.8240 C   0  0  0  0  0
   -2.7210  -21.5020  -19.2340 C   0  0  0  0  0
   -1.3680  -21.0080  -19.2930 N   0  0  0  0  0
   -1.0020  -19.8380  -19.9320 C   0  0  0  0  0
    0.3140  -19.7160  -20.2910 N   0  0  0  0  0
    0.6690  -18.6050  -20.8840 C   0  0  0  0  0
   -0.0950  -17.5710  -21.2670 N   0  0  0  0  0
   -1.3470  -17.7160  -20.8720 C   0  0  0  0  0
   -1.8970  -18.8170  -20.2420 C   0  0  0  0  0
   -3.2950  -18.5130  -20.0410 C   0  0  0  0  0
   -3.5510  -17.2650  -20.6330 C   0  0  0  0  0
   -2.3390  -16.7920  -21.0940 N   0  0  0  0  0
    0.0741  -23.0922  -17.1490 H   0  0  0  0  0
   -0.6931  -21.5190  -16.8449 H   0  0  0  0  0
   -2.9558  -21.2641  -17.0609 H   0  0  0  0  0
   -3.5470  -24.5346  -18.8990 H   0  0  0  0  0
  -14.0892  -22.2564  -19.0166 H   0  0  0  0  0
  -15.1743  -22.1140  -16.7471 H   0  0  0  0  0
   -5.7586  -25.5450  -19.2508 H   0  0  0  0  0
   -0.9406  -26.5936  -16.3358 H   0  0  0  0  0
   -2.9089  -25.5962  -15.6560 H   0  0  0  0  0
   -2.6360  -25.4466  -17.4042 H   0  0  0  0  0
   -1.4936  -23.3623  -15.5777 H   0  0  0  0  0
   -3.2537  -23.3323  -15.9570 H   0  0  0  0  0
   -2.0038  -23.7350  -18.2752 H   0  0  0  0  0
   -0.1970  -22.7642  -19.5977 H   0  0  0  0  0
    0.6877  -21.4458  -18.9313 H   0  0  0  0  0
   -7.8230  -24.2747  -18.7560 H   0  0  0  0  0
   -7.6871  -20.7739  -17.5289 H   0  0  0  0  0
   -9.6373  -20.3119  -16.9049 H   0  0  0  0  0
  -13.8945  -21.4960  -14.7613 H   0  0  0  0  0
  -12.6637  -22.0279  -13.2400 H   0  0  0  0  0
  -12.9705  -20.3331  -13.2937 H   0  0  0  0  0
  -11.5069  -21.3018  -11.2349 H   0  0  0  0  0
  -11.0878  -19.8134  -11.8704 H   0  0  0  0  0
   -9.7280  -22.4389  -12.3236 H   0  0  0  0  0
   -9.0767  -20.8074  -12.6207 H   0  0  0  0  0
   -9.2802  -21.3071  -14.8875 H   0  0  0  0  0
  -10.1663  -22.7161  -14.5887 H   0  0  0  0  0
   -5.4215  -20.9956  -17.4251 H   0  0  0  0  0
   -3.4215  -20.7026  -19.4755 H   0  0  0  0  0
   -2.8568  -22.3066  -19.9567 H   0  0  0  0  0
    1.7335  -18.5059  -21.0963 H   0  0  0  0  0
   -4.0210  -19.1396  -19.5229 H   0  0  0  0  0
   -4.5176  -16.7675  -20.7127 H   0  0  0  0  0
 15  1  1  0  0  0
  1 16  1  0  0  0
 23  2  1  0  0  0
  2 24  1  0  0  0
  2 27  1  0  0  0
 15  3  1  0  0  0
  3 17  1  0  0  0
  3 30  1  0  0  0
  4 10  4  0  0  0
 17  4  4  0  0  0
  5  6  4  0  0  0
  7  5  4  0  0  0
  6 22  4  0  0  0
  8  7  4  0  0  0
  7 21  1  0  0  0
 20  8  1  0  0  0
  8 23  4  0  0  0
 19  9  1  0  0  0
  9 20  1  0  0  0
  9 28  2  0  0  0
 10 18  4  0  0  0
 18 11  4  0  0  0
 11 19  1  0  0  0
 11 29  4  0  0  0
 13 12  1  0  0  0
 14 13  1  0  0  0
 14 15  1  0  0  0
 16 31  1  0  0  0
 17 29  4  0  0  0
 22 23  4  0  0  0
 24 25  1  0  0  0
 25 26  1  0  0  0
 26 27  1  0  0  0
 30 31  1  0  0  0
 31 32  1  0  0  0
 32 33  4  0  0  0
 32 37  4  0  0  0
 33 34  4  0  0  0
 34 35  4  0  0  0
 35 36  4  0  0  0
 36 37  4  0  0  0
 36 40  4  0  0  0
 37 38  4  0  0  0
 38 39  4  0  0  0
 39 40  4  0  0  0
  1 41  1  0  0  0
  1 42  1  0  0  0
  3 43  1  0  0  0
  4 44  1  0  0  0
  5 45  1  0  0  0
  6 46  1  0  0  0
 10 47  1  0  0  0
 12 48  1  0  0  0
 13 49  1  0  0  0
 13 50  1  0  0  0
 14 51  1  0  0  0
 14 52  1  0  0  0
 15 53  1  0  0  0
 16 54  1  0  0  0
 16 55  1  0  0  0
 18 56  1  0  0  0
 19 57  1  0  0  0
 20 58  1  0  0  0
 22 59  1  0  0  0
 24 60  1  0  0  0
 24 61  1  0  0  0
 25 62  1  0  0  0
 25 63  1  0  0  0
 26 64  1  0  0  0
 26 65  1  0  0  0
 27 66  1  0  0  0
 27 67  1  0  0  0
 29 68  1  0  0  0
 30 69  1  0  0  0
 30 70  1  0  0  0
 34 71  1  0  0  0
 38 72  1  0  0  0
 39 73  1  0  0  0
M  END
$$$$
