### 
### Created by X-TOOL on Mon Sep 10 21:13:34 2018
### 

@<TRIPOS>MOLECULE
5ly2_ligand
  259   267     1     0     0
SMALL
GAST_HUCK


@<TRIPOS>ATOM
      1 O10       -37.9450    0.7100  -40.9930 O.2       1 48V        -0.3960
      2 N01       -34.8780   -3.3290  -41.7240 N.am      1 48V        -0.1023
      3 C02       -34.9200   -3.7590  -40.4280 C.3       1 48V         0.2968
      4 C03       -36.1750   -4.5830  -40.2450 C.2       1 48V         0.2556
      5 O04       -36.2200   -5.6330  -40.9720 O.2       1 48V        -0.3393
      6 N05       -37.1890   -4.2790  -39.3900 N.am      1 48V        -0.2958
      7 C06       -34.9920   -2.5340  -39.4790 C.3       1 48V         0.0595
      8 S07       -36.4480   -1.6000  -39.6990 S.3       1 48V        -0.1350
      9 C08       -35.8390   -0.5180  -40.9360 C.3       1 48V         0.0834
     10 C09       -36.9270    0.4000  -41.5960 C.2       1 48V         0.1883
     11 N         -36.5790    0.8450  -43.0380 N.am      1 DTY        -0.2634
     12 CA        -37.3570    2.0690  -43.1070 C.3       1 DTY         0.1390
     13 C         -36.6630    3.1010  -43.9930 C.2       1 DTY         0.2057
     14 O         -35.9480    2.7030  -44.9280 O.2       1 DTY        -0.3942
     15 CB        -38.7120    1.6150  -43.6290 C.3       1 DTY         0.0163
     16 CG        -39.5920    2.7440  -44.0410 C.ar      1 DTY        -0.0493
     17 CD1       -40.4200    3.3360  -43.1390 C.ar      1 DTY        -0.0685
     18 CD2       -39.5940    3.1670  -45.3430 C.ar      1 DTY        -0.0685
     19 CE1       -41.2190    4.3810  -43.5510 C.ar      1 DTY        -0.0398
     20 CE2       -40.3930    4.2040  -45.7600 C.ar      1 DTY        -0.0398
     21 CZ        -41.2050    4.8020  -44.8510 C.ar      1 DTY         0.0805
     22 OH        -41.9910    5.7950  -45.2300 O.3       1 DTY        -0.3376
     23 N         -36.8110    4.4030  -43.7440 N.am      1 VAL        -0.2633
     24 CA        -36.1110    5.3710  -44.5650 C.3       1 VAL         0.1333
     25 C         -35.4450    6.4190  -43.7190 C.2       1 VAL         0.2043
     26 O         -35.9680    6.8080  -42.7370 O.2       1 VAL        -0.3944
     27 CB        -37.0250    5.9980  -45.6250 C.3       1 VAL        -0.0063
     28 CG1       -37.9370    7.0450  -45.0310 C.3       1 VAL        -0.0584
     29 CG2       -36.2010    6.6000  -46.7290 C.3       1 VAL        -0.0584
     30 N         -34.2670    6.8560  -44.1020 N.am      1 TYR        -0.2621
     31 CA        -33.5060    7.8480  -43.3720 C.3       1 TYR         0.1390
     32 C         -33.1020    8.9260  -44.3620 C.2       1 TYR         0.2059
     33 O         -32.4450    8.6230  -45.3300 O.2       1 TYR        -0.3942
     34 CB        -32.2890    7.1170  -42.8480 C.3       1 TYR         0.0163
     35 CG        -31.3580    7.8360  -41.9240 C.ar      1 TYR        -0.0493
     36 CD1       -30.3400    8.5980  -42.4110 C.ar      1 TYR        -0.0685
     37 CD2       -31.4610    7.6850  -40.5700 C.ar      1 TYR        -0.0685
     38 CE1       -29.4720    9.2310  -41.5740 C.ar      1 TYR        -0.0398
     39 CE2       -30.5930    8.3130  -39.7190 C.ar      1 TYR        -0.0398
     40 CZ        -29.5970    9.0780  -40.2310 C.ar      1 TYR         0.0805
     41 OH        -28.7310    9.7040  -39.4010 O.3       1 TYR        -0.3376
     42 N         -33.4480   10.1890  -44.1190 N.am      1 ASN        -0.2615
     43 CA        -33.0940   11.2260  -45.0930 C.3       1 ASN         0.1476
     44 C         -31.8110   12.0300  -44.9210 C.2       1 ASN         0.2063
     45 O         -31.7890   13.0540  -44.2860 O.2       1 ASN        -0.3942
     46 CB        -34.3080   12.0940  -45.5250 C.3       1 ASN         0.0773
     47 CG        -34.7270   13.1390  -44.5270 C.2       1 ASN         0.1780
     48 OD1       -34.2490   13.1570  -43.4250 O.2       1 ASN        -0.3970
     49 ND2       -35.6410   14.0040  -44.9210 N.am      1 ASN        -0.3007
     50 N         -30.7760   11.5320  -45.6030 N.am      1 THR        -0.2612
     51 CA        -29.4340   12.1140  -45.6920 C.3       1 THR         0.1565
     52 C         -29.3330   13.2000  -46.7800 C.2       1 THR         0.2065
     53 O         -30.2510   13.3720  -47.5830 O.2       1 THR        -0.3943
     54 CB        -28.3680   11.0350  -45.9590 C.3       1 THR         0.0924
     55 OG1       -28.6510   10.3760  -47.2000 O.3       1 THR        -0.3874
     56 CG2       -28.3560   10.0090  -44.8360 C.3       1 THR        -0.0346
     57 N         -28.2140   13.9230  -46.7930 N.am      1 M3L        -0.2637
     58 CA        -27.9610   15.0130  -47.7410 C.3       1 M3L         0.1310
     59 CB        -26.6420   15.7090  -47.4490 C.3       1 M3L        -0.0122
     60 CG        -26.7690   17.2100  -47.6320 C.3       1 M3L        -0.0440
     61 CD        -25.4630   17.9570  -47.8680 C.3       1 M3L        -0.0123
     62 CE        -25.0200   17.8620  -49.3030 C.3       1 M3L        -0.0309
     63 NZ        -23.7130   18.4370  -49.6300 N.4       1 M3L         0.2369
     64 C         -27.9320   14.6270  -49.1850 C.2       1 M3L         0.2040
     65 O         -27.9890   15.5180  -50.0600 O.2       1 M3L        -0.3944
     66 CM1       -23.6860   19.8820  -49.5240 C.3       1 M3L        -0.0418
     67 CM2       -23.4100   18.0430  -50.9960 C.3       1 M3L        -0.0418
     68 CM3       -22.7080   17.9090  -48.7440 C.3       1 M3L        -0.0418
     69 N         -27.8270   13.3250  -49.4310 N.am      1 SER        -0.2616
     70 CA        -27.8270   12.6660  -50.7230 C.3       1 SER         0.1539
     71 C         -29.1970   12.0710  -50.9930 C.2       1 SER         0.2060
     72 O         -29.3740   11.3680  -51.9650 O.2       1 SER        -0.3943
     73 CB        -26.8120   11.5520  -50.7820 C.3       1 SER         0.0843
     74 OG        -25.5160   12.0580  -50.7390 O.3       1 SER        -0.3903
     75 N         -30.1390   12.2770  -50.0830 N.am      1 GLY        -0.2663
     76 CA        -31.4820   11.8210  -50.2770 C.3       1 GLY         0.1201
     77 C         -31.9660   10.7540  -49.3750 C.2       1 GLY         0.2008
     78 O         -31.3890   10.4470  -48.3810 O.2       1 GLY        -0.3947
     79 N         -33.0920   10.2180  -49.7460 N.am      1 TRP        -0.2629
     80 CA        -33.6860    9.1840  -48.9910 C.3       1 TRP         0.1352
     81 C         -32.8170    7.9700  -49.1010 C.2       1 TRP         0.2052
     82 O         -32.4900    7.5500  -50.1830 O.2       1 TRP        -0.3942
     83 CB        -35.0860    8.9680  -49.5270 C.3       1 TRP         0.0042
     84 CG        -35.9740   10.0350  -49.0330 C.2       1 TRP        -0.0418
     85 CD1       -35.5900   11.1900  -48.5110 C.2       1 TRP         0.0167
     86 CD2       -37.3960   10.0620  -49.0420 C.ar      1 TRP        -0.0214
     87 NE1       -36.6460   11.9350  -48.1530 N.pl3     1 TRP        -0.2890
     88 CE2       -37.7800   11.2610  -48.4670 C.ar      1 TRP         0.0603
     89 CE3       -38.3710    9.1850  -49.4740 C.ar      1 TRP        -0.0747
     90 CZ2       -39.0820   11.6160  -48.3340 C.ar      1 TRP        -0.0443
     91 CZ3       -39.6630    9.5280  -49.3210 C.ar      1 TRP        -0.0792
     92 CH2       -40.0150   10.7260  -48.7590 C.ar      1 TRP        -0.0768
     93 N         -32.4610    7.4080  -47.9490 N.am      1 ARG        -0.2636
     94 CA        -31.6260    6.2140  -47.8700 C.3       1 ARG         0.1311
     95 C         -32.5050    5.1500  -47.3230 C.2       1 ARG         0.2040
     96 O         -33.1340    5.3570  -46.3320 O.2       1 ARG        -0.3944
     97 CB        -30.4250    6.3880  -46.9620 C.3       1 ARG        -0.0092
     98 CG        -29.5250    5.1630  -46.9570 C.3       1 ARG        -0.0156
     99 CD        -28.5820    5.0990  -45.7910 C.3       1 ARG         0.0627
    100 NE        -27.4450    5.9580  -45.9450 N.pl3     1 ARG        -0.2723
    101 CZ        -26.8410    6.5770  -44.9480 C.cat     1 ARG         0.2882
    102 NH1       -25.8050    7.3350  -45.1820 N.pl3     1 ARG        -0.2849
    103 NH2       -27.2680    6.4200  -43.7250 N.pl3     1 ARG        -0.2849
    104 N         -32.5540    4.0060  -47.9730 N.am      1 TRP        -0.2627
    105 CA        -33.4240    2.9500  -47.5150 C.3       1 TRP         0.1352
    106 C         -32.6230    1.8610  -46.8530 C.2       1 TRP         0.2053
    107 O         -31.7400    1.2790  -47.4240 O.2       1 TRP        -0.3942
    108 CB        -34.2930    2.3860  -48.6430 C.3       1 TRP         0.0042
    109 CG        -34.9580    3.3990  -49.5310 C.2       1 TRP        -0.0418
    110 CD1       -34.3900    4.0850  -50.5340 C.2       1 TRP         0.0167
    111 CD2       -36.3230    3.7950  -49.5130 C.ar      1 TRP        -0.0214
    112 NE1       -35.2840    4.8870  -51.1320 N.pl3     1 TRP        -0.2890
    113 CE2       -36.4910    4.7320  -50.5300 C.ar      1 TRP         0.0603
    114 CE3       -37.4170    3.4550  -48.7340 C.ar      1 TRP        -0.0747
    115 CZ2       -37.7050    5.3310  -50.7820 C.ar      1 TRP        -0.0443
    116 CZ3       -38.6060    4.0460  -48.9920 C.ar      1 TRP        -0.0792
    117 CH2       -38.7500    4.9670  -50.0040 C.ar      1 TRP        -0.0768
    118 N         -32.9800    1.6040  -45.6200 N.am      1 TYR        -0.2620
    119 CA        -32.3560    0.6050  -44.8180 C.3       1 TYR         0.1390
    120 C         -33.3850   -0.3740  -44.3810 C.2       1 TYR         0.2058
    121 O         -34.4970   -0.0680  -44.1620 O.2       1 TYR        -0.3942
    122 CB        -31.6660    1.2260  -43.6330 C.3       1 TYR         0.0163
    123 CG        -32.5430    1.8850  -42.6520 C.ar      1 TYR        -0.0493
    124 CD1       -32.9810    3.1500  -42.8580 C.ar      1 TYR        -0.0685
    125 CD2       -32.9090    1.2480  -41.5070 C.ar      1 TYR        -0.0685
    126 CE1       -33.7720    3.7740  -41.9400 C.ar      1 TYR        -0.0398
    127 CE2       -33.7040    1.8530  -40.5800 C.ar      1 TYR        -0.0398
    128 CZ        -34.1280    3.1210  -40.8000 C.ar      1 TYR         0.0805
    129 OH        -34.9250    3.7380  -39.8870 O.3       1 TYR        -0.3376
    130 N         -32.9880   -1.5970  -44.2990 N.am      1 THR        -0.2612
    131 CA        -33.8650   -2.7010  -43.9060 C.3       1 THR         0.1582
    132 C         -33.6930   -3.1290  -42.4440 C.2       1 THR         0.2315
    133 O         -32.6050   -3.4160  -41.9970 O.2       1 THR        -0.3942
    134 CB        -33.6350   -3.9360  -44.8000 C.3       1 THR         0.0924
    135 OG1       -32.2630   -4.3430  -44.7120 O.3       1 THR        -0.3874
    136 CG2       -33.9730   -3.6200  -46.2490 C.3       1 THR        -0.0346
    137 OXT       -34.6400   -3.1930  -41.6920 O.3       1 THR        -0.2113
    138 H1        -37.9874   -4.8780  -39.3281 H         1 48V         0.1822
    139 H2        -37.1358   -3.4566  -38.8236 H         1 48V         0.1822
    140 H3        -34.1249   -1.8858  -39.6739 H         1 48V         0.0417
    141 H4        -34.9564   -2.8912  -38.4392 H         1 48V         0.0417
    142 H5        -35.3782   -1.1270  -41.7277 H         1 48V         0.0616
    143 H6        -35.0753    0.1291  -40.4798 H         1 48V         0.0616
    144 H7        -35.9901    0.4147  -43.7222 H         1 DTY         0.1884
    145 H8        -37.4757    2.5015  -42.1026 H         1 DTY         0.0821
    146 H9        -39.2201    1.0479  -42.8351 H         1 DTY         0.0453
    147 H10       -38.5502    0.9625  -44.4997 H         1 DTY         0.0453
    148 H11       -40.4512    2.9913  -42.1117 H         1 DTY         0.0530
    149 H12       -38.9504    2.6724  -46.0615 H         1 DTY         0.0530
    150 H13       -41.8662    4.8747  -42.8352 H         1 DTY         0.0525
    151 H14       -40.3755    4.5372  -46.7914 H         1 DTY         0.0525
    152 H15       -42.4921    6.1032  -44.4840 H         1 DTY         0.2458
    153 H16       -37.4005    4.7091  -42.9965 H         1 VAL         0.1883
    154 H17       -35.3173    4.8299  -45.1009 H         1 VAL         0.0802
    155 H18       -37.6509    5.2007  -46.0521 H         1 VAL         0.0343
    156 H19       -38.5735    7.4682  -45.8220 H         1 VAL         0.0234
    157 H20       -37.3318    7.8452  -44.5801 H         1 VAL         0.0234
    158 H21       -38.5700    6.5842  -44.2583 H         1 VAL         0.0234
    159 H22       -35.5405    5.8304  -47.1550 H         1 VAL         0.0234
    160 H23       -35.5926    7.4228  -46.3256 H         1 VAL         0.0234
    161 H24       -36.8669    6.9872  -47.5143 H         1 VAL         0.0234
    162 H25       -33.8747    6.4835  -44.9430 H         1 TYR         0.1885
    163 H26       -34.0901    8.2808  -42.5465 H         1 TYR         0.0821
    164 H27       -31.6989    6.8039  -43.7219 H         1 TYR         0.0453
    165 H28       -32.6521    6.2272  -42.3128 H         1 TYR         0.0453
    166 H29       -30.2184    8.7025  -43.4831 H         1 TYR         0.0530
    167 H30       -32.2445    7.0563  -40.1626 H         1 TYR         0.0530
    168 H31       -28.6837    9.8551  -41.9790 H         1 TYR         0.0525
    169 H32       -30.7003    8.2002  -38.6462 H         1 TYR         0.0525
    170 H33       -28.1001   10.1944  -39.9148 H         1 TYR         0.2458
    171 H34       -33.9428   10.4268  -43.2831 H         1 ASN         0.1885
    172 H35       -32.8731   10.6314  -45.9917 H         1 ASN         0.0826
    173 H36       -35.1631   11.4239  -45.6973 H         1 ASN         0.0551
    174 H37       -34.0466   12.6038  -46.4640 H         1 ASN         0.0551
    175 H38       -35.9548   14.7191  -44.2964 H         1 ASN         0.1814
    176 H39       -36.0203   13.9449  -45.8444 H         1 ASN         0.1814
    177 H40       -30.9321   10.6791  -46.1013 H         1 THR         0.1884
    178 H41       -29.2120   12.5833  -44.7222 H         1 THR         0.0826
    179 H42       -27.3797   11.5141  -46.0193 H         1 THR         0.0639
    180 H43       -29.5080    9.9689  -47.1528 H         1 THR         0.2101
    181 H44       -27.5898    9.2474  -45.0434 H         1 THR         0.0257
    182 H45       -29.3427    9.5275  -44.7686 H         1 THR         0.0257
    183 H46       -28.1267   10.5100  -43.8840 H         1 THR         0.0257
    184 H47       -27.5070   13.7105  -46.1185 H         1 M3L         0.1883
    185 H48       -28.7751   15.7407  -47.6086 H         1 M3L         0.0800
    186 H49       -25.8731   15.3263  -48.1363 H         1 M3L         0.0312
    187 H50       -26.3448   15.4967  -46.4114 H         1 M3L         0.0312
    188 H51       -27.2361   17.6231  -46.7258 H         1 M3L         0.0269
    189 H52       -27.4236   17.3913  -48.4972 H         1 M3L         0.0269
    190 H53       -24.6830   17.5238  -47.2246 H         1 M3L         0.0317
    191 H54       -25.6060   19.0163  -47.6083 H         1 M3L         0.0317
    192 H55       -25.7730   18.3759  -49.9185 H         1 M3L         0.0815
    193 H56       -24.9914   16.7960  -49.5726 H         1 M3L         0.0815
    194 H57       -22.6817   20.2498  -49.7811 H         1 M3L         0.0778
    195 H58       -23.9325   20.1788  -48.4939 H         1 M3L         0.0778
    196 H59       -24.4232   20.3143  -50.2166 H         1 M3L         0.0778
    197 H60       -23.4310   16.9460  -51.0744 H         1 M3L         0.0778
    198 H61       -22.4105   18.4111  -51.2707 H         1 M3L         0.0778
    199 H62       -24.1592   18.4736  -51.6766 H         1 M3L         0.0778
    200 H63       -22.9373   18.2072  -47.7103 H         1 M3L         0.0778
    201 H64       -21.7224   18.3052  -49.0298 H         1 M3L         0.0778
    202 H65       -22.6966   16.8114  -48.8150 H         1 M3L         0.0778
    203 H66       -27.7376   12.7304  -48.6320 H         1 SER         0.1884
    204 H67       -27.5904   13.4089  -51.4989 H         1 SER         0.0823
    205 H68       -26.9482   10.9898  -51.7176 H         1 SER         0.0606
    206 H69       -26.9647   10.8798  -49.9248 H         1 SER         0.0606
    207 H70       -25.3927   12.5417  -49.9307 H         1 SER         0.2097
    208 H71       -29.9056   12.7627  -49.2406 H         1 GLY         0.1881
    209 H72       -31.5588   11.4443  -51.3076 H         1 GLY         0.0763
    210 H73       -32.1479   12.6877  -50.1528 H         1 GLY         0.0763
    211 H74       -33.5427   10.5431  -50.5774 H         1 TRP         0.1884
    212 H75       -33.7506    9.4803  -47.9336 H         1 TRP         0.0815
    213 H76       -35.4619    7.9919  -49.1865 H         1 TRP         0.0397
    214 H77       -35.0645    8.9894  -50.6266 H         1 TRP         0.0397
    215 H78       -34.5518   11.4950  -48.3884 H         1 TRP         0.0795
    216 H79       -36.6029   12.8651  -47.7125 H         1 TRP         0.2216
    217 H80       -38.1008    8.2383  -49.9277 H         1 TRP         0.0540
    218 H81       -39.3660   12.5706  -47.9062 H         1 TRP         0.0541
    219 H82       -40.4382    8.8445  -49.6481 H         1 TRP         0.0510
    220 H83       -41.0656   10.9701  -48.6506 H         1 TRP         0.0530
    221 H84       -32.7806    7.8233  -47.0973 H         1 ARG         0.1883
    222 H85       -31.2749    5.9415  -48.8762 H         1 ARG         0.0800
    223 H86       -30.7797    6.5708  -45.9369 H         1 ARG         0.0313
    224 H87       -29.8420    7.2541  -47.3082 H         1 ARG         0.0313
    225 H88       -28.9301    5.1678  -47.8822 H         1 ARG         0.0301
    226 H89       -30.1621    4.2666  -46.9353 H         1 ARG         0.0301
    227 H90       -28.2273    4.0634  -45.6830 H         1 ARG         0.0689
    228 H91       -29.1263    5.3968  -44.8827 H         1 ARG         0.0689
    229 H92       -27.0752    6.1016  -46.8956 H         1 ARG         0.2642
    230 H93       -25.3339    7.8179  -44.4037 H         1 ARG         0.2615
    231 H94       -25.4583    7.4504  -46.1450 H         1 ARG         0.2615
    232 H95       -28.0856    5.8222  -43.5377 H         1 ARG         0.2615
    233 H96       -26.7875    6.8939  -42.9469 H         1 ARG         0.2615
    234 H97       -31.9873    3.8688  -48.7854 H         1 TRP         0.1884
    235 H98       -34.0994    3.3786  -46.7599 H         1 TRP         0.0815
    236 H99       -35.0815    1.7708  -48.1850 H         1 TRP         0.0397
    237 H100      -33.6541    1.7520  -49.2753 H         1 TRP         0.0397
    238 H101      -33.3436    4.0021  -50.8240 H         1 TRP         0.0795
    239 H102      -35.0864    5.5188  -51.9211 H         1 TRP         0.2216
    240 H103      -37.3220    2.7299  -47.9338 H         1 TRP         0.0540
    241 H104      -37.8187    6.0646  -51.5719 H         1 TRP         0.0541
    242 H105      -39.4670    3.7875  -48.3863 H         1 TRP         0.0510
    243 H106      -39.7228    5.4109  -50.1819 H         1 TRP         0.0530
    244 H107      -33.7276    2.1350  -45.2212 H         1 TYR         0.1885
    245 H108      -31.6026    0.0812  -45.4246 H         1 TYR         0.0821
    246 H109      -30.9580    1.9782  -44.0111 H         1 TYR         0.0453
    247 H110      -31.1128    0.4317  -43.1105 H         1 TYR         0.0453
    248 H111      -32.6988    3.6729  -43.7647 H         1 TYR         0.0530
    249 H112      -32.5607    0.2372  -41.3281 H         1 TYR         0.0530
    250 H113      -34.1163    4.7865  -42.1171 H         1 TYR         0.0525
    251 H114      -33.9935    1.3263  -39.6779 H         1 TYR         0.0525
    252 H115      -35.1311    4.6147  -40.1894 H         1 TYR         0.2458
    253 H116      -32.0333   -1.8021  -44.5146 H         1 THR         0.1884
    254 H117      -34.9026   -2.3615  -44.0406 H         1 THR         0.0826
    255 H118      -34.2802   -4.7558  -44.4513 H         1 THR         0.0639
    256 H119      -32.0558   -4.5613  -43.8109 H         1 THR         0.2101
    257 H120      -33.8022   -4.5128  -46.8684 H         1 THR         0.0257
    258 H121      -33.3326   -2.7993  -46.6044 H         1 THR         0.0257
    259 H122      -35.0286   -3.3194  -46.3222 H         1 THR         0.0257
@<TRIPOS>BOND
     1   10    1 2  
     2    3    2 1  
     3    2  132 am 
     4  137    2 1  
     5    3    4 1  
     6    7    3 1  
     7    3  137 1  
     8    4    5 2  
     9    4    6 am 
    10    8    7 1  
    11    9    8 1  
    12    9   10 1  
    13   10   11 am 
    14   11   12 1  
    15   12   13 1  
    16   12   15 1  
    17   13   14 2  
    18   13   23 am 
    19   15   16 1  
    20   16   17 ar 
    21   16   18 ar 
    22   17   19 ar 
    23   18   20 ar 
    24   19   21 ar 
    25   20   21 ar 
    26   21   22 1  
    27   23   24 1  
    28   24   25 1  
    29   24   27 1  
    30   25   26 2  
    31   25   30 am 
    32   27   28 1  
    33   27   29 1  
    34   30   31 1  
    35   31   32 1  
    36   31   34 1  
    37   32   33 2  
    38   32   42 am 
    39   34   35 1  
    40   35   36 ar 
    41   35   37 ar 
    42   36   38 ar 
    43   37   39 ar 
    44   38   40 ar 
    45   39   40 ar 
    46   40   41 1  
    47   42   43 1  
    48   43   44 1  
    49   43   46 1  
    50   44   45 2  
    51   44   50 am 
    52   46   47 1  
    53   47   48 2  
    54   47   49 am 
    55   50   51 1  
    56   51   52 1  
    57   51   54 1  
    58   52   53 2  
    59   52   57 am 
    60   54   55 1  
    61   54   56 1  
    62   57   58 1  
    63   58   59 1  
    64   58   64 1  
    65   59   60 1  
    66   60   61 1  
    67   61   62 1  
    68   62   63 1  
    69   63   66 1  
    70   63   67 1  
    71   63   68 1  
    72   64   65 2  
    73   64   69 am 
    74   69   70 1  
    75   70   71 1  
    76   70   73 1  
    77   71   72 2  
    78   71   75 am 
    79   73   74 1  
    80   75   76 1  
    81   76   77 1  
    82   77   78 2  
    83   77   79 am 
    84   79   80 1  
    85   80   81 1  
    86   80   83 1  
    87   81   82 2  
    88   81   93 am 
    89   83   84 1  
    90   84   85 2  
    91   84   86 1  
    92   85   87 1  
    93   86   88 ar 
    94   86   89 ar 
    95   87   88 1  
    96   88   90 ar 
    97   89   91 ar 
    98   90   92 ar 
    99   91   92 ar 
   100   93   94 1  
   101   94   95 1  
   102   94   97 1  
   103   95   96 2  
   104   95  104 am 
   105   97   98 1  
   106   98   99 1  
   107   99  100 1  
   108  100  101 ar 
   109  101  102 ar 
   110  101  103 ar 
   111  104  105 1  
   112  105  106 1  
   113  105  108 1  
   114  106  107 2  
   115  106  118 am 
   116  108  109 1  
   117  109  110 2  
   118  109  111 1  
   119  110  112 1  
   120  111  113 ar 
   121  111  114 ar 
   122  112  113 1  
   123  113  115 ar 
   124  114  116 ar 
   125  115  117 ar 
   126  116  117 ar 
   127  118  119 1  
   128  119  120 1  
   129  119  122 1  
   130  120  121 2  
   131  120  130 am 
   132  122  123 1  
   133  123  124 ar 
   134  123  125 ar 
   135  124  126 ar 
   136  125  127 ar 
   137  126  128 ar 
   138  127  128 ar 
   139  128  129 1  
   140  130  131 1  
   141  131  132 1  
   142  131  134 1  
   143  132  133 2  
   144  134  135 1  
   145  134  136 1  
   146    6  138 1  
   147    6  139 1  
   148    7  140 1  
   149    7  141 1  
   150    9  142 1  
   151    9  143 1  
   152   11  144 1  
   153   12  145 1  
   154   15  146 1  
   155   15  147 1  
   156   17  148 1  
   157   18  149 1  
   158   19  150 1  
   159   20  151 1  
   160   22  152 1  
   161   23  153 1  
   162   24  154 1  
   163   27  155 1  
   164   28  156 1  
   165   28  157 1  
   166   28  158 1  
   167   29  159 1  
   168   29  160 1  
   169   29  161 1  
   170   30  162 1  
   171   31  163 1  
   172   34  164 1  
   173   34  165 1  
   174   36  166 1  
   175   37  167 1  
   176   38  168 1  
   177   39  169 1  
   178   41  170 1  
   179   42  171 1  
   180   43  172 1  
   181   46  173 1  
   182   46  174 1  
   183   49  175 1  
   184   49  176 1  
   185   50  177 1  
   186   51  178 1  
   187   54  179 1  
   188   55  180 1  
   189   56  181 1  
   190   56  182 1  
   191   56  183 1  
   192   57  184 1  
   193   58  185 1  
   194   59  186 1  
   195   59  187 1  
   196   60  188 1  
   197   60  189 1  
   198   61  190 1  
   199   61  191 1  
   200   62  192 1  
   201   62  193 1  
   202   66  194 1  
   203   66  195 1  
   204   66  196 1  
   205   67  197 1  
   206   67  198 1  
   207   67  199 1  
   208   68  200 1  
   209   68  201 1  
   210   68  202 1  
   211   69  203 1  
   212   70  204 1  
   213   73  205 1  
   214   73  206 1  
   215   74  207 1  
   216   75  208 1  
   217   76  209 1  
   218   76  210 1  
   219   79  211 1  
   220   80  212 1  
   221   83  213 1  
   222   83  214 1  
   223   85  215 1  
   224   87  216 1  
   225   89  217 1  
   226   90  218 1  
   227   91  219 1  
   228   92  220 1  
   229   93  221 1  
   230   94  222 1  
   231   97  223 1  
   232   97  224 1  
   233   98  225 1  
   234   98  226 1  
   235   99  227 1  
   236   99  228 1  
   237  100  229 1  
   238  102  230 1  
   239  102  231 1  
   240  103  232 1  
   241  103  233 1  
   242  104  234 1  
   243  105  235 1  
   244  108  236 1  
   245  108  237 1  
   246  110  238 1  
   247  112  239 1  
   248  114  240 1  
   249  115  241 1  
   250  116  242 1  
   251  117  243 1  
   252  118  244 1  
   253  119  245 1  
   254  122  246 1  
   255  122  247 1  
   256  124  248 1  
   257  125  249 1  
   258  126  250 1  
   259  127  251 1  
   260  129  252 1  
   261  130  253 1  
   262  131  254 1  
   263  134  255 1  
   264  135  256 1  
   265  136  257 1  
   266  136  258 1  
   267  136  259 1  
@<TRIPOS>SUBSTRUCTURE
     1 48V         1

