5ly2_ligand
  -I-interpret- 

256264  0  0  0  0  0  0  0  0999 V2000
  -37.9450    0.7100  -40.9930 O   0  0  0  0  0
  -34.8780   -3.3290  -41.7240 N   0  0  0  0  0
  -34.9200   -3.7590  -40.4280 C   0  0  0  0  0
  -36.1750   -4.5830  -40.2450 C   0  0  0  0  0
  -36.2200   -5.6330  -40.9720 O   0  0  0  0  0
  -37.1890   -4.2790  -39.3900 N   0  0  0  0  0
  -34.9920   -2.5340  -39.4790 C   0  0  0  0  0
  -36.4480   -1.6000  -39.6990 S   0  0  0  0  0
  -35.8390   -0.5180  -40.9360 C   0  0  0  0  0
  -36.9270    0.4000  -41.5960 C   0  0  0  0  0
  -36.5790    0.8450  -43.0380 N   0  0  0  0  0
  -37.3570    2.0690  -43.1070 C   0  0  0  0  0
  -36.6630    3.1010  -43.9930 C   0  0  0  0  0
  -35.9480    2.7030  -44.9280 O   0  0  0  0  0
  -38.7120    1.6150  -43.6290 C   0  0  0  0  0
  -39.5920    2.7440  -44.0410 C   0  0  0  0  0
  -40.4200    3.3360  -43.1390 C   0  0  0  0  0
  -39.5940    3.1670  -45.3430 C   0  0  0  0  0
  -41.2190    4.3810  -43.5510 C   0  0  0  0  0
  -40.3930    4.2040  -45.7600 C   0  0  0  0  0
  -41.2050    4.8020  -44.8510 C   0  0  0  0  0
  -41.9910    5.7950  -45.2300 O   0  0  0  0  0
  -36.8110    4.4030  -43.7440 N   0  0  0  0  0
  -36.1110    5.3710  -44.5650 C   0  0  0  0  0
  -35.4450    6.4190  -43.7190 C   0  0  0  0  0
  -35.9680    6.8080  -42.7370 O   0  0  0  0  0
  -37.0250    5.9980  -45.6250 C   0  0  0  0  0
  -37.9370    7.0450  -45.0310 C   0  0  0  0  0
  -36.2010    6.6000  -46.7290 C   0  0  0  0  0
  -34.2670    6.8560  -44.1020 N   0  0  0  0  0
  -33.5060    7.8480  -43.3720 C   0  0  0  0  0
  -33.1020    8.9260  -44.3620 C   0  0  0  0  0
  -32.4450    8.6230  -45.3300 O   0  0  0  0  0
  -32.2890    7.1170  -42.8480 C   0  0  0  0  0
  -31.3580    7.8360  -41.9240 C   0  0  0  0  0
  -30.3400    8.5980  -42.4110 C   0  0  0  0  0
  -31.4610    7.6850  -40.5700 C   0  0  0  0  0
  -29.4720    9.2310  -41.5740 C   0  0  0  0  0
  -30.5930    8.3130  -39.7190 C   0  0  0  0  0
  -29.5970    9.0780  -40.2310 C   0  0  0  0  0
  -28.7310    9.7040  -39.4010 O   0  0  0  0  0
  -33.4480   10.1890  -44.1190 N   0  0  0  0  0
  -33.0940   11.2260  -45.0930 C   0  0  0  0  0
  -31.8110   12.0300  -44.9210 C   0  0  0  0  0
  -31.7890   13.0540  -44.2860 O   0  0  0  0  0
  -34.3080   12.0940  -45.5250 C   0  0  0  0  0
  -34.7270   13.1390  -44.5270 C   0  0  0  0  0
  -34.2490   13.1570  -43.4250 O   0  0  0  0  0
  -35.6410   14.0040  -44.9210 N   0  0  0  0  0
  -30.7760   11.5320  -45.6030 N   0  0  0  0  0
  -29.4340   12.1140  -45.6920 C   0  0  0  0  0
  -29.3330   13.2000  -46.7800 C   0  0  0  0  0
  -30.2510   13.3720  -47.5830 O   0  0  0  0  0
  -28.3680   11.0350  -45.9590 C   0  0  0  0  0
  -28.6510   10.3760  -47.2000 O   0  0  0  0  0
  -28.3560   10.0090  -44.8360 C   0  0  0  0  0
  -28.2140   13.9230  -46.7930 N   0  0  0  0  0
  -27.9610   15.0130  -47.7410 C   0  0  0  0  0
  -26.6420   15.7090  -47.4490 C   0  0  0  0  0
  -26.7690   17.2100  -47.6320 C   0  0  0  0  0
  -25.4630   17.9570  -47.8680 C   0  0  0  0  0
  -25.0200   17.8620  -49.3030 C   0  0  0  0  0
  -23.7130   18.4370  -49.6300 N   0  3  0  0  0
  -27.9320   14.6270  -49.1850 C   0  0  0  0  0
  -27.9890   15.5180  -50.0600 O   0  0  0  0  0
  -23.6860   19.8820  -49.5240 C   0  0  0  0  0
  -23.4100   18.0430  -50.9960 C   0  0  0  0  0
  -22.7080   17.9090  -48.7440 C   0  0  0  0  0
  -27.8270   13.3250  -49.4310 N   0  0  0  0  0
  -27.8270   12.6660  -50.7230 C   0  0  0  0  0
  -29.1970   12.0710  -50.9930 C   0  0  0  0  0
  -29.3740   11.3680  -51.9650 O   0  0  0  0  0
  -26.8120   11.5520  -50.7820 C   0  0  0  0  0
  -25.5160   12.0580  -50.7390 O   0  0  0  0  0
  -30.1390   12.2770  -50.0830 N   0  0  0  0  0
  -31.4820   11.8210  -50.2770 C   0  0  0  0  0
  -31.9660   10.7540  -49.3750 C   0  0  0  0  0
  -31.3890   10.4470  -48.3810 O   0  0  0  0  0
  -33.0920   10.2180  -49.7460 N   0  0  0  0  0
  -33.6860    9.1840  -48.9910 C   0  0  0  0  0
  -32.8170    7.9700  -49.1010 C   0  0  0  0  0
  -32.4900    7.5500  -50.1830 O   0  0  0  0  0
  -35.0860    8.9680  -49.5270 C   0  0  0  0  0
  -35.9740   10.0350  -49.0330 C   0  0  0  0  0
  -35.5900   11.1900  -48.5110 C   0  0  0  0  0
  -37.3960   10.0620  -49.0420 C   0  0  0  0  0
  -36.6460   11.9350  -48.1530 N   0  0  0  0  0
  -37.7800   11.2610  -48.4670 C   0  0  0  0  0
  -38.3710    9.1850  -49.4740 C   0  0  0  0  0
  -39.0820   11.6160  -48.3340 C   0  0  0  0  0
  -39.6630    9.5280  -49.3210 C   0  0  0  0  0
  -40.0150   10.7260  -48.7590 C   0  0  0  0  0
  -32.4610    7.4080  -47.9490 N   0  0  0  0  0
  -31.6260    6.2140  -47.8700 C   0  0  0  0  0
  -32.5050    5.1500  -47.3230 C   0  0  0  0  0
  -33.1340    5.3570  -46.3320 O   0  0  0  0  0
  -30.4250    6.3880  -46.9620 C   0  0  0  0  0
  -29.5250    5.1630  -46.9570 C   0  0  0  0  0
  -28.5820    5.0990  -45.7910 C   0  0  0  0  0
  -27.4450    5.9580  -45.9450 N   0  0  0  0  0
  -26.8410    6.5770  -44.9480 C   0  0  0  0  0
  -25.8050    7.3350  -45.1820 N   0  0  0  0  0
  -27.2680    6.4200  -43.7250 N   0  0  0  0  0
  -32.5540    4.0060  -47.9730 N   0  0  0  0  0
  -33.4240    2.9500  -47.5150 C   0  0  0  0  0
  -32.6230    1.8610  -46.8530 C   0  0  0  0  0
  -31.7400    1.2790  -47.4240 O   0  0  0  0  0
  -34.2930    2.3860  -48.6430 C   0  0  0  0  0
  -34.9580    3.3990  -49.5310 C   0  0  0  0  0
  -34.3900    4.0850  -50.5340 C   0  0  0  0  0
  -36.3230    3.7950  -49.5130 C   0  0  0  0  0
  -35.2840    4.8870  -51.1320 N   0  0  0  0  0
  -36.4910    4.7320  -50.5300 C   0  0  0  0  0
  -37.4170    3.4550  -48.7340 C   0  0  0  0  0
  -37.7050    5.3310  -50.7820 C   0  0  0  0  0
  -38.6060    4.0460  -48.9920 C   0  0  0  0  0
  -38.7500    4.9670  -50.0040 C   0  0  0  0  0
  -32.9800    1.6040  -45.6200 N   0  0  0  0  0
  -32.3560    0.6050  -44.8180 C   0  0  0  0  0
  -33.3850   -0.3740  -44.3810 C   0  0  0  0  0
  -34.4970   -0.0680  -44.1620 O   0  0  0  0  0
  -31.6660    1.2260  -43.6330 C   0  0  0  0  0
  -32.5430    1.8850  -42.6520 C   0  0  0  0  0
  -32.9810    3.1500  -42.8580 C   0  0  0  0  0
  -32.9090    1.2480  -41.5070 C   0  0  0  0  0
  -33.7720    3.7740  -41.9400 C   0  0  0  0  0
  -33.7040    1.8530  -40.5800 C   0  0  0  0  0
  -34.1280    3.1210  -40.8000 C   0  0  0  0  0
  -34.9250    3.7380  -39.8870 O   0  0  0  0  0
  -32.9880   -1.5970  -44.2990 N   0  0  0  0  0
  -33.8650   -2.7010  -43.9060 C   0  0  0  0  0
  -33.6930   -3.1290  -42.4440 C   0  0  0  0  0
  -32.6050   -3.4160  -41.9970 O   0  0  0  0  0
  -33.6350   -3.9360  -44.8000 C   0  0  0  0  0
  -32.2630   -4.3430  -44.7120 O   0  0  0  0  0
  -33.9730   -3.6200  -46.2490 C   0  0  0  0  0
  -34.6400   -3.1930  -41.6920 O   0  0  0  0  0
  -38.0006   -4.8932  -39.3224 H   0  0  0  0  0
  -37.1375   -3.4370  -38.8167 H   0  0  0  0  0
  -34.1424   -1.8879  -39.7002 H   0  0  0  0  0
  -34.9820   -2.9031  -38.4535 H   0  0  0  0  0
  -35.4264   -1.1420  -41.7288 H   0  0  0  0  0
  -35.1170    0.1412  -40.4540 H   0  0  0  0  0
  -35.9783    0.4061  -43.7359 H   0  0  0  0  0
  -37.4660    2.5781  -42.1494 H   0  0  0  0  0
  -39.2149    1.0825  -42.8217 H   0  0  0  0  0
  -38.5360    0.9960  -44.5088 H   0  0  0  0  0
  -40.4513    2.9894  -42.1060 H   0  0  0  0  0
  -38.9468    2.6697  -46.0654 H   0  0  0  0  0
  -41.8698    4.8775  -42.8312 H   0  0  0  0  0
  -40.3754    4.5390  -46.7971 H   0  0  0  0  0
  -41.8607    5.9655  -46.1657 H   0  0  0  0  0
  -37.4123    4.7152  -42.9815 H   0  0  0  0  0
  -35.3307    4.8327  -45.1030 H   0  0  0  0  0
  -37.6514    5.2038  -46.0310 H   0  0  0  0  0
  -38.5636    6.5872  -44.2656 H   0  0  0  0  0
  -37.3362    7.8373  -44.5845 H   0  0  0  0  0
  -38.5672    7.4635  -45.8157 H   0  0  0  0  0
  -35.5505    7.3710  -46.3161 H   0  0  0  0  0
  -35.5950    5.8223  -47.1938 H   0  0  0  0  0
  -36.8621    7.0416  -47.4747 H   0  0  0  0  0
  -33.8669    6.4760  -44.9599 H   0  0  0  0  0
  -34.0566    8.3112  -42.5532 H   0  0  0  0  0
  -31.6920    6.8930  -43.7320 H   0  0  0  0  0
  -32.6878    6.2905  -42.2598 H   0  0  0  0  0
  -30.2178    8.7031  -43.4890 H   0  0  0  0  0
  -32.2489    7.0529  -40.1604 H   0  0  0  0  0
  -28.6793    9.8586  -41.9813 H   0  0  0  0  0
  -30.7009    8.1996  -38.6403 H   0  0  0  0  0
  -28.9538    9.4948  -38.4909 H   0  0  0  0  0
  -33.9527   10.4316  -43.2664 H   0  0  0  0  0
  -32.7917   10.5928  -45.9271 H   0  0  0  0  0
  -35.1532   11.4164  -45.6458 H   0  0  0  0  0
  -34.0110   12.6235  -46.4303 H   0  0  0  0  0
  -35.9698   14.7261  -44.2800 H   0  0  0  0  0
  -36.0192   13.9510  -45.8668 H   0  0  0  0  0
  -30.9352   10.6621  -46.1112 H   0  0  0  0  0
  -29.2472   12.5785  -44.7238 H   0  0  0  0  0
  -27.3910   11.5155  -46.0098 H   0  0  0  0  0
  -27.9849    9.7042  -47.3635 H   0  0  0  0  0
  -28.1287   10.5067  -43.8933 H   0  0  0  0  0
  -29.3342    9.5327  -44.7703 H   0  0  0  0  0
  -27.5965    9.2550  -45.0426 H   0  0  0  0  0
  -27.4928   13.7063  -46.1050 H   0  0  0  0  0
  -28.8201   15.6661  -47.5880 H   0  0  0  0  0
  -25.8875   15.3343  -48.1408 H   0  0  0  0  0
  -26.3592   15.5047  -46.4164 H   0  0  0  0  0
  -27.1857   17.6008  -46.7037 H   0  0  0  0  0
  -27.3783   17.3627  -48.5228 H   0  0  0  0  0
  -24.6926   17.5094  -47.2401 H   0  0  0  0  0
  -25.6195   19.0081  -47.6254 H   0  0  0  0  0
  -25.7498   18.4302  -49.8798 H   0  0  0  0  0
  -24.9419   16.7971  -49.5223 H   0  0  0  0  0
  -24.4169   20.3091  -50.2107 H   0  0  0  0  0
  -23.9305   20.1748  -48.5029 H   0  0  0  0  0
  -22.6904   20.2452  -49.7790 H   0  0  0  0  0
  -23.3819   16.9553  -51.0613 H   0  0  0  0  0
  -24.1807   18.4286  -51.6634 H   0  0  0  0  0
  -22.4410   18.4507  -51.2839 H   0  0  0  0  0
  -22.9642   18.1607  -47.7149 H   0  0  0  0  0
  -22.6618   16.8255  -48.8537 H   0  0  0  0  0
  -21.7400   18.3425  -48.9952 H   0  0  0  0  0
  -27.7358   12.7185  -48.6160 H   0  0  0  0  0
  -27.5721   13.4167  -51.4710 H   0  0  0  0  0
  -26.9444   11.0063  -51.7162 H   0  0  0  0  0
  -26.9609   10.8963  -49.9241 H   0  0  0  0  0
  -24.8889   11.3322  -50.7778 H   0  0  0  0  0
  -29.9010   12.7725  -49.2238 H   0  0  0  0  0
  -31.5101   11.3973  -51.2809 H   0  0  0  0  0
  -32.1197   12.6841  -50.0858 H   0  0  0  0  0
  -33.5517   10.5496  -50.5940 H   0  0  0  0  0
  -33.7707    9.4272  -47.9319 H   0  0  0  0  0
  -35.4584    8.0011  -49.1886 H   0  0  0  0  0
  -35.0643    8.9902  -50.6166 H   0  0  0  0  0
  -34.5509   11.4953  -48.3883 H   0  0  0  0  0
  -38.0993    8.2331  -49.9302 H   0  0  0  0  0
  -39.3676   12.5759  -47.9038 H   0  0  0  0  0
  -40.4425    8.8407  -49.6499 H   0  0  0  0  0
  -41.0714   10.9714  -48.6500 H   0  0  0  0  0
  -32.7870    7.8316  -47.0803 H   0  0  0  0  0
  -31.2245    5.9804  -48.8561 H   0  0  0  0  0
  -30.7882    6.5455  -45.9464 H   0  0  0  0  0
  -29.8434    7.2340  -47.3281 H   0  0  0  0  0
  -28.9173    5.2060  -47.8608 H   0  0  0  0  0
  -30.1722    4.2880  -46.8963 H   0  0  0  0  0
  -28.2172    4.0747  -45.7138 H   0  0  0  0  0
  -29.1266    5.4235  -44.9043 H   0  0  0  0  0
  -27.0788    6.1002  -46.8863 H   0  0  0  0  0
  -25.4617    7.4493  -46.1357 H   0  0  0  0  0
  -26.7921    6.8893  -42.9545 H   0  0  0  0  0
  -28.0776    5.8280  -43.5395 H   0  0  0  0  0
  -31.9760    3.8661  -48.8017 H   0  0  0  0  0
  -34.1037    3.3808  -46.7798 H   0  0  0  0  0
  -35.0955    1.8274  -48.1612 H   0  0  0  0  0
  -33.6265    1.8082  -49.2833 H   0  0  0  0  0
  -33.3426    4.0020  -50.8243 H   0  0  0  0  0
  -37.3215    2.7259  -47.9294 H   0  0  0  0  0
  -37.8193    6.0687  -51.5763 H   0  0  0  0  0
  -39.4718    3.7861  -48.3829 H   0  0  0  0  0
  -39.7282    5.4134  -50.1828 H   0  0  0  0  0
  -33.7426    2.1457  -45.2132 H   0  0  0  0  0
  -31.5953    0.0902  -45.4049 H   0  0  0  0  0
  -31.0118    2.0021  -44.0304 H   0  0  0  0  0
  -31.1710    0.4115  -43.1042 H   0  0  0  0  0
  -32.6973    3.6758  -43.7697 H   0  0  0  0  0
  -32.5588    0.2316  -41.3271 H   0  0  0  0  0
  -34.1182    4.7921  -42.1181 H   0  0  0  0  0
  -33.9951    1.3234  -39.6729 H   0  0  0  0  0
  -35.0803    3.1459  -39.1475 H   0  0  0  0  0
  -32.0142   -1.8062  -44.5189 H   0  0  0  0  0
  -34.8777   -2.3175  -44.0300 H   0  0  0  0  0
  -34.2846   -4.7402  -44.4545 H   0  0  0  0  0
  -32.1221   -5.1119  -45.2693 H   0  0  0  0  0
  -35.0191   -3.3223  -46.3201 H   0  0  0  0  0
  -33.3378   -2.8067  -46.5999 H   0  0  0  0  0
  -33.8034   -4.5054  -46.8617 H   0  0  0  0  0
 10  1  2  0  0  0
  3  2  1  0  0  0
  2132  1  0  0  0
137  2  1  0  0  0
  3  4  1  0  0  0
  7  3  1  0  0  0
  3137  1  0  0  0
  4  5  2  0  0  0
  4  6  1  0  0  0
  8  7  1  0  0  0
  9  8  1  0  0  0
  9 10  1  0  0  0
 10 11  1  0  0  0
 11 12  1  0  0  0
 12 13  1  0  0  0
 12 15  1  0  0  0
 13 14  2  0  0  0
 13 23  1  0  0  0
 15 16  1  0  0  0
 16 17  4  0  0  0
 16 18  4  0  0  0
 17 19  4  0  0  0
 18 20  4  0  0  0
 19 21  4  0  0  0
 20 21  4  0  0  0
 21 22  1  0  0  0
 23 24  1  0  0  0
 24 25  1  0  0  0
 24 27  1  0  0  0
 25 26  2  0  0  0
 25 30  1  0  0  0
 27 28  1  0  0  0
 27 29  1  0  0  0
 30 31  1  0  0  0
 31 32  1  0  0  0
 31 34  1  0  0  0
 32 33  2  0  0  0
 32 42  1  0  0  0
 34 35  1  0  0  0
 35 36  4  0  0  0
 35 37  4  0  0  0
 36 38  4  0  0  0
 37 39  4  0  0  0
 38 40  4  0  0  0
 39 40  4  0  0  0
 40 41  1  0  0  0
 42 43  1  0  0  0
 43 44  1  0  0  0
 43 46  1  0  0  0
 44 45  2  0  0  0
 44 50  1  0  0  0
 46 47  1  0  0  0
 47 48  2  0  0  0
 47 49  1  0  0  0
 50 51  1  0  0  0
 51 52  1  0  0  0
 51 54  1  0  0  0
 52 53  2  0  0  0
 52 57  1  0  0  0
 54 55  1  0  0  0
 54 56  1  0  0  0
 57 58  1  0  0  0
 58 59  1  0  0  0
 58 64  1  0  0  0
 59 60  1  0  0  0
 60 61  1  0  0  0
 61 62  1  0  0  0
 62 63  1  0  0  0
 63 66  1  0  0  0
 63 67  1  0  0  0
 63 68  1  0  0  0
 64 65  2  0  0  0
 64 69  1  0  0  0
 69 70  1  0  0  0
 70 71  1  0  0  0
 70 73  1  0  0  0
 71 72  2  0  0  0
 71 75  1  0  0  0
 73 74  1  0  0  0
 75 76  1  0  0  0
 76 77  1  0  0  0
 77 78  2  0  0  0
 77 79  1  0  0  0
 79 80  1  0  0  0
 80 81  1  0  0  0
 80 83  1  0  0  0
 81 82  2  0  0  0
 81 93  1  0  0  0
 83 84  1  0  0  0
 84 85  4  0  0  0
 84 86  4  0  0  0
 85 87  4  0  0  0
 86 88  4  0  0  0
 86 89  4  0  0  0
 87 88  4  0  0  0
 88 90  4  0  0  0
 89 91  4  0  0  0
 90 92  4  0  0  0
 91 92  4  0  0  0
 93 94  1  0  0  0
 94 95  1  0  0  0
 94 97  1  0  0  0
 95 96  2  0  0  0
 95104  1  0  0  0
 97 98  1  0  0  0
 98 99  1  0  0  0
 99100  1  0  0  0
100101  1  0  0  0
101102  2  0  0  0
101103  1  0  0  0
104105  1  0  0  0
105106  1  0  0  0
105108  1  0  0  0
106107  2  0  0  0
106118  1  0  0  0
108109  1  0  0  0
109110  4  0  0  0
109111  4  0  0  0
110112  4  0  0  0
111113  4  0  0  0
111114  4  0  0  0
112113  4  0  0  0
113115  4  0  0  0
114116  4  0  0  0
115117  4  0  0  0
116117  4  0  0  0
118119  1  0  0  0
119120  1  0  0  0
119122  1  0  0  0
120121  2  0  0  0
120130  1  0  0  0
122123  1  0  0  0
123124  4  0  0  0
123125  4  0  0  0
124126  4  0  0  0
125127  4  0  0  0
126128  4  0  0  0
127128  4  0  0  0
128129  1  0  0  0
130131  1  0  0  0
131132  1  0  0  0
131134  1  0  0  0
132133  2  0  0  0
134135  1  0  0  0
134136  1  0  0  0
  6138  1  0  0  0
  6139  1  0  0  0
  7140  1  0  0  0
  7141  1  0  0  0
  9142  1  0  0  0
  9143  1  0  0  0
 11144  1  0  0  0
 12145  1  0  0  0
 15146  1  0  0  0
 15147  1  0  0  0
 17148  1  0  0  0
 18149  1  0  0  0
 19150  1  0  0  0
 20151  1  0  0  0
 22152  1  0  0  0
 23153  1  0  0  0
 24154  1  0  0  0
 27155  1  0  0  0
 28156  1  0  0  0
 28157  1  0  0  0
 28158  1  0  0  0
 29159  1  0  0  0
 29160  1  0  0  0
 29161  1  0  0  0
 30162  1  0  0  0
 31163  1  0  0  0
 34164  1  0  0  0
 34165  1  0  0  0
 36166  1  0  0  0
 37167  1  0  0  0
 38168  1  0  0  0
 39169  1  0  0  0
 41170  1  0  0  0
 42171  1  0  0  0
 43172  1  0  0  0
 46173  1  0  0  0
 46174  1  0  0  0
 49175  1  0  0  0
 49176  1  0  0  0
 50177  1  0  0  0
 51178  1  0  0  0
 54179  1  0  0  0
 55180  1  0  0  0
 56181  1  0  0  0
 56182  1  0  0  0
 56183  1  0  0  0
 57184  1  0  0  0
 58185  1  0  0  0
 59186  1  0  0  0
 59187  1  0  0  0
 60188  1  0  0  0
 60189  1  0  0  0
 61190  1  0  0  0
 61191  1  0  0  0
 62192  1  0  0  0
 62193  1  0  0  0
 66194  1  0  0  0
 66195  1  0  0  0
 66196  1  0  0  0
 67197  1  0  0  0
 67198  1  0  0  0
 67199  1  0  0  0
 68200  1  0  0  0
 68201  1  0  0  0
 68202  1  0  0  0
 69203  1  0  0  0
 70204  1  0  0  0
 73205  1  0  0  0
 73206  1  0  0  0
 74207  1  0  0  0
 75208  1  0  0  0
 76209  1  0  0  0
 76210  1  0  0  0
 79211  1  0  0  0
 80212  1  0  0  0
 83213  1  0  0  0
 83214  1  0  0  0
 85215  1  0  0  0
 89216  1  0  0  0
 90217  1  0  0  0
 91218  1  0  0  0
 92219  1  0  0  0
 93220  1  0  0  0
 94221  1  0  0  0
 97222  1  0  0  0
 97223  1  0  0  0
 98224  1  0  0  0
 98225  1  0  0  0
 99226  1  0  0  0
 99227  1  0  0  0
100228  1  0  0  0
102229  1  0  0  0
103230  1  0  0  0
103231  1  0  0  0
104232  1  0  0  0
105233  1  0  0  0
108234  1  0  0  0
108235  1  0  0  0
110236  1  0  0  0
114237  1  0  0  0
115238  1  0  0  0
116239  1  0  0  0
117240  1  0  0  0
118241  1  0  0  0
119242  1  0  0  0
122243  1  0  0  0
122244  1  0  0  0
124245  1  0  0  0
125246  1  0  0  0
126247  1  0  0  0
127248  1  0  0  0
129249  1  0  0  0
130250  1  0  0  0
131251  1  0  0  0
134252  1  0  0  0
135253  1  0  0  0
136254  1  0  0  0
136255  1  0  0  0
136256  1  0  0  0
M  END
$$$$
