5cyi_ligand
  -I-interpret- 

 53 56  0  0  0  0  0  0  0  0999 V2000
    5.9130   41.7830   47.7410 C   0  0  0  0  0
    1.6370   46.1440   53.9050 C   0  0  0  0  0
    6.3110   42.3450   48.9570 C   0  0  0  0  0
    7.8590   44.0730   49.9210 C   0  0  0  0  0
    4.8560   46.1260   51.7890 C   0  0  0  0  0
    9.4660   45.2760   50.9330 C   0  0  0  0  0
   10.4420   46.7330   52.1720 C   0  0  0  0  0
    8.5330   45.9960   51.6580 C   0  0  0  0  0
    7.1990   45.6690   51.4470 C   0  0  0  0  0
    3.9810   46.4140   52.9730 C   0  0  0  0  0
    2.5510   45.9350   52.6960 C   0  0  0  0  0
    9.1760   44.2910   50.0760 N   0  0  0  0  0
   10.6670   45.7460   51.2890 N   0  0  0  0  0
    4.7270   41.0750   47.6590 C   0  0  0  0  0
    9.1590   46.8890   52.4300 N   0  0  0  0  0
    2.3240   39.1970   49.8850 O   0  0  0  0  0
    2.4270   39.9970   48.6930 S   0  0  0  0  0
    2.3800   39.3340   47.4160 O   0  0  0  0  0
    1.1510   41.2390   48.7380 C   0  0  0  0  0
   -0.0290   40.9730   49.6310 C   0  0  0  0  0
    3.9310   40.9280   48.7840 C   0  0  0  0  0
    4.3180   41.4790   49.9950 C   0  0  0  0  0
    5.4990   42.1850   50.0860 C   0  0  0  0  0
    7.5410   43.0990   49.0590 N   0  0  0  0  0
    6.8770   44.7260   50.5720 N   0  0  0  0  0
    6.2350   46.3860   52.1350 O   0  0  0  0  0
    4.5320   45.7720   54.2440 C   0  0  0  0  0
    3.6120   46.0000   55.4340 C   0  0  0  0  0
    2.2080   45.4880   55.1440 C   0  0  0  0  0
    6.5377   41.9026   46.8558 H   0  0  0  0  0
    0.6674   45.6950   53.6895 H   0  0  0  0  0
    1.5443   47.2142   54.0897 H   0  0  0  0  0
    4.5633   46.7658   50.9565 H   0  0  0  0  0
    4.7445   45.0809   51.5003 H   0  0  0  0  0
   11.2301   47.3357   52.6233 H   0  0  0  0  0
    3.9675   47.4921   53.1332 H   0  0  0  0  0
    2.1523   46.5119   51.8615 H   0  0  0  0  0
    2.5844   44.8687   52.4722 H   0  0  0  0  0
    4.4192   40.6336   46.7111 H   0  0  0  0  0
    0.7517   41.2924   47.7252 H   0  0  0  0  0
    1.6249   42.1385   49.1310 H   0  0  0  0  0
   -0.5236   40.0550   49.3135 H   0  0  0  0  0
    0.3129   40.8657   50.6604 H   0  0  0  0  0
   -0.7287   41.8061   49.5642 H   0  0  0  0  0
    3.6886   41.3543   50.8761 H   0  0  0  0  0
    5.8009   42.6194   51.0390 H   0  0  0  0  0
    8.2645   42.8557   48.3824 H   0  0  0  0  0
    5.4987   46.2240   54.4658 H   0  0  0  0  0
    4.6178   44.6983   54.0770 H   0  0  0  0  0
    3.5594   47.0699   55.6354 H   0  0  0  0  0
    4.0107   45.4600   56.2928 H   0  0  0  0  0
    2.2552   44.4115   54.9797 H   0  0  0  0  0
    1.5667   45.7256   55.9928 H   0  0  0  0  0
  1  3  4  0  0  0
 14  1  4  0  0  0
 11  2  1  0  0  0
  2 29  1  0  0  0
  3 23  4  0  0  0
  3 24  1  0  0  0
  4 12  4  0  0  0
 24  4  1  0  0  0
  4 25  4  0  0  0
  5 10  1  0  0  0
 26  5  1  0  0  0
  6  8  4  0  0  0
 12  6  4  0  0  0
  6 13  4  0  0  0
 13  7  4  0  0  0
 15  7  4  0  0  0
  9  8  4  0  0  0
  8 15  4  0  0  0
 25  9  4  0  0  0
  9 26  1  0  0  0
 10 11  1  0  0  0
 10 27  1  0  0  0
 21 14  4  0  0  0
 17 16  2  0  0  0
 17 18  2  0  0  0
 17 19  1  0  0  0
 17 21  1  0  0  0
 19 20  1  0  0  0
 21 22  4  0  0  0
 22 23  4  0  0  0
 27 28  1  0  0  0
 28 29  1  0  0  0
  1 30  1  0  0  0
  2 31  1  0  0  0
  2 32  1  0  0  0
  5 33  1  0  0  0
  5 34  1  0  0  0
  7 35  1  0  0  0
 10 36  1  0  0  0
 11 37  1  0  0  0
 11 38  1  0  0  0
 14 39  1  0  0  0
 19 40  1  0  0  0
 19 41  1  0  0  0
 20 42  1  0  0  0
 20 43  1  0  0  0
 20 44  1  0  0  0
 22 45  1  0  0  0
 23 46  1  0  0  0
 24 47  1  0  0  0
 27 48  1  0  0  0
 27 49  1  0  0  0
 28 50  1  0  0  0
 28 51  1  0  0  0
 29 52  1  0  0  0
 29 53  1  0  0  0
M  END
$$$$
