3lpt_ligand
  -I-interpret- 

 34 36  0  0  0  0  0  0  0  0999 V2000
   37.1750   33.5370    5.4660 N   0  0  0  0  0
   39.7850   28.2510    6.1940 Cl  0  0  0  0  0
   35.0010   32.6980    6.2910 C   0  0  0  0  0
   35.4360   34.9370    5.5720 O   0  0  0  0  0
   33.5550   32.9650    6.6450 C   0  0  0  0  0
   34.4760   33.2870    8.8510 O   0  0  0  0  0
   35.5800   31.3570    6.5180 C   0  0  0  0  0
   32.6040   34.2850    8.3780 O   0  0  0  0  0
   34.7660   30.2200    7.0090 C   0  0  0  0  0
   37.0080   31.1720    6.1580 C   0  0  0  0  0
   37.7680   32.3420    5.6280 C   0  0  0  0  0
   35.8850   33.7810    5.7600 C   0  0  0  0  0
   34.6520   29.8890    8.3530 C   0  0  0  0  0
   33.8600   28.7960    8.7060 C   0  0  0  0  0
   33.1980   28.0410    7.7360 C   0  0  0  0  0
   33.3170   28.3760    6.3910 C   0  0  0  0  0
   34.1060   29.4670    6.0320 C   0  0  0  0  0
   37.6430   29.9510    6.3190 C   0  0  0  0  0
   38.9880   29.8370    5.9750 C   0  0  0  0  0
   39.7110   30.9250    5.4750 C   0  0  0  0  0
   39.1160   32.1760    5.3030 C   0  0  0  0  0
   33.5440   33.5450    8.0500 C   0  0  0  0  0
   37.7365   34.3050    5.0981 H   0  0  0  0  0
   32.9703   32.0461    6.6015 H   0  0  0  0  0
   33.1055   33.6604    5.9361 H   0  0  0  0  0
   35.1087   32.7029    8.4266 H   0  0  0  0  0
   35.1701   30.4706    9.1155 H   0  0  0  0  0
   33.7563   28.5269    9.7572 H   0  0  0  0  0
   32.5874   27.1883    8.0328 H   0  0  0  0  0
   32.8002   27.7931    5.6286 H   0  0  0  0  0
   34.2099   29.7361    4.9808 H   0  0  0  0  0
   37.0977   29.0917    6.7094 H   0  0  0  0  0
   40.7611   30.7932    5.2142 H   0  0  0  0  0
   39.6973   33.0143    4.9191 H   0  0  0  0  0
 11  1  1  0  0  0
  1 12  1  0  0  0
 19  2  1  0  0  0
  3  5  1  0  0  0
  7  3  2  0  0  0
  3 12  1  0  0  0
 12  4  2  0  0  0
  5 22  1  0  0  0
 22  6  1  0  0  0
  7  9  1  0  0  0
 10  7  1  0  0  0
 22  8  2  0  0  0
  9 13  4  0  0  0
  9 17  4  0  0  0
 10 11  4  0  0  0
 18 10  4  0  0  0
 11 21  4  0  0  0
 13 14  4  0  0  0
 14 15  4  0  0  0
 16 15  4  0  0  0
 17 16  4  0  0  0
 18 19  4  0  0  0
 19 20  4  0  0  0
 20 21  4  0  0  0
  1 23  1  0  0  0
  5 24  1  0  0  0
  5 25  1  0  0  0
  6 26  1  0  0  0
 13 27  1  0  0  0
 14 28  1  0  0  0
 15 29  1  0  0  0
 16 30  1  0  0  0
 17 31  1  0  0  0
 18 32  1  0  0  0
 20 33  1  0  0  0
 21 34  1  0  0  0
M  END
$$$$
