4n6g_ligand
  -I-interpret- 

 20 21  0  0  0  0  0  0  0  0999 V2000
   28.9930   29.2580   -5.5090 O   0  0  0  0  0
   28.8210   28.8080   -4.3820 C   0  0  0  0  0
   28.6110   27.3760   -4.0900 C   0  0  0  0  0
   28.6870   26.4280   -5.1130 C   0  0  0  0  0
   28.5160   25.0800   -4.8340 C   0  0  0  0  0
   28.7820   29.6420   -3.2890 N   0  0  0  0  0
   28.5580   29.2680   -1.9990 C   0  0  0  0  0
   28.3420   27.9340   -1.7020 C   0  0  0  0  0
   28.3640   26.9500   -2.7610 C   0  0  0  0  0
   28.1770   25.5820   -2.5140 C   0  0  0  0  0
   28.2550   24.6610   -3.5460 C   0  0  0  0  0
   28.5500   30.2420   -1.0730 N   0  0  0  0  0
   28.8818   26.7492   -6.1362 H   0  0  0  0  0
   28.5883   24.3472   -5.6377 H   0  0  0  0  0
   28.9355   30.6356   -3.4612 H   0  0  0  0  0
   27.3228   27.9002   -1.3172 H   0  0  0  0  0
   29.1745   27.6588   -1.0544 H   0  0  0  0  0
   27.9683   25.2402   -1.5002 H   0  0  0  0  0
   28.1095   23.6007   -3.3393 H   0  0  0  0  0
   28.3784   30.0134   -0.0939 H   0  0  0  0  0
  1  2  2  0  0  0
  2  3  1  0  0  0
  2  6  1  0  0  0
  3  4  4  0  0  0
  3  9  4  0  0  0
  4  5  4  0  0  0
  5 11  4  0  0  0
  6  7  1  0  0  0
  7  8  1  0  0  0
  7 12  2  0  0  0
  8  9  1  0  0  0
  9 10  4  0  0  0
 10 11  4  0  0  0
  4 13  1  0  0  0
  5 14  1  0  0  0
  6 15  1  0  0  0
  8 16  1  0  0  0
  8 17  1  0  0  0
 10 18  1  0  0  0
 11 19  1  0  0  0
 12 20  1  0  0  0
M  END
$$$$
