1g32_ligand
  -I-interpret- 

 57 61  0  0  0  0  0  0  0  0999 V2000
   10.1660  -12.6970   23.8340 N   0  0  0  0  0
   10.8230  -10.7090   24.4120 N   0  0  0  0  0
   11.0710  -11.7560   23.6370 C   0  0  0  0  0
   12.0760  -11.8060   22.6420 C   0  0  0  0  0
   12.2170  -12.9390   21.7620 C   0  0  0  0  0
   13.2200  -12.9870   20.7710 C   0  0  0  0  0
   14.1190  -11.9080   20.6180 C   0  0  0  0  0
   14.0130  -10.7820   21.4600 C   0  0  0  0  0
   13.0130  -10.7280   22.4530 C   0  0  0  0  0
   15.1590  -11.9140   19.6150 N   0  0  0  0  0
   16.6070  -11.5930   19.7590 C   0  0  0  0  0
   16.7710  -13.3400   21.5380 N   0  0  0  0  0
   17.4550  -12.5180   20.6530 C   0  0  0  0  0
   18.8740  -12.5480   20.5970 N   0  0  0  0  0
   19.0790  -13.5130   21.5770 C   0  0  0  0  0
   17.8250  -13.9740   22.1300 C   0  0  0  0  0
   20.3100  -14.0490   22.0620 C   0  0  0  0  0
   20.2710  -15.0180   23.0730 C   0  0  0  0  0
   19.0360  -15.4790   23.6240 C   0  0  0  0  0
   17.8040  -14.9660   23.1580 C   0  0  0  0  0
   19.8590  -11.7950   19.7590 C   0  0  0  0  0
   19.0640  -16.5290   24.7460 C   0  0  0  0  0
   20.3380  -16.4640   25.5410 N   0  0  0  0  0
   21.3530  -17.4090   25.8040 C   0  0  0  0  0
   22.4750  -17.0940   26.5840 N   0  0  0  0  0
   22.1430  -15.7810   26.8580 C   0  0  0  0  0
   20.8880  -15.4060   26.2450 C   0  0  0  0  0
   22.8680  -14.8260   27.6370 C   0  0  0  0  0
   22.3250  -13.5250   27.7860 C   0  0  0  0  0
   21.1070  -13.1530   27.1880 C   0  0  0  0  0
   20.3730  -14.0790   26.4250 C   0  0  0  0  0
   21.2740  -18.8190   25.2420 C   0  0  0  0  0
    9.4160  -12.5499   24.5095 H   0  0  0  0  0
   10.0208  -10.7193   25.0418 H   0  0  0  0  0
   11.4345   -9.8933   24.3783 H   0  0  0  0  0
   11.5313  -13.7800   21.8649 H   0  0  0  0  0
   13.3015  -13.8588   20.1218 H   0  0  0  0  0
   14.7070   -9.9496   21.3429 H   0  0  0  0  0
   12.9474   -9.8486   23.0936 H   0  0  0  0  0
   14.8597  -12.1749   18.6755 H   0  0  0  0  0
   16.6444  -10.6120   20.2327 H   0  0  0  0  0
   17.0289  -11.6848   18.7581 H   0  0  0  0  0
   21.2622  -13.7107   21.6534 H   0  0  0  0  0
   21.2071  -15.4309   23.4490 H   0  0  0  0  0
   16.8600  -15.3190   23.5732 H   0  0  0  0  0
   19.6730  -12.0044   18.7056 H   0  0  0  0  0
   19.7489  -10.7263   19.9432 H   0  0  0  0  0
   20.8701  -12.1077   20.0199 H   0  0  0  0  0
   18.9941  -17.5173   24.2917 H   0  0  0  0  0
   18.2299  -16.3325   25.4196 H   0  0  0  0  0
   23.8157  -15.0920   28.1052 H   0  0  0  0  0
   22.8674  -12.7908   28.3817 H   0  0  0  0  0
   20.7291  -12.1388   27.3171 H   0  0  0  0  0
   19.4227  -13.7914   25.9751 H   0  0  0  0  0
   20.3714  -19.3059   25.6112 H   0  0  0  0  0
   21.2446  -18.7737   24.1533 H   0  0  0  0  0
   22.1496  -19.3850   25.5598 H   0  0  0  0  0
  1  3  2  0  0  0
  3  4  1  0  0  0
  4  5  4  0  0  0
  4  9  4  0  0  0
  5  6  4  0  0  0
  6  7  4  0  0  0
  7  8  4  0  0  0
  7 10  1  0  0  0
  8  9  4  0  0  0
 10 11  1  0  0  0
 11 13  1  0  0  0
 13 14  4  0  0  0
 14 15  4  0  0  0
 14 21  1  0  0  0
 15 16  4  0  0  0
 15 17  4  0  0  0
 16 20  4  0  0  0
 17 18  4  0  0  0
 18 19  4  0  0  0
 19 20  4  0  0  0
 19 22  1  0  0  0
 22 23  1  0  0  0
 23 24  4  0  0  0
 23 27  4  0  0  0
 24 25  4  0  0  0
 24 32  1  0  0  0
 25 26  4  0  0  0
 26 27  4  0  0  0
 26 28  4  0  0  0
 27 31  4  0  0  0
 28 29  4  0  0  0
 29 30  4  0  0  0
 30 31  4  0  0  0
 16 12  4  0  0  0
 13 12  4  0  0  0
  3  2  1  0  0  0
  1 33  1  0  0  0
  2 34  1  0  0  0
  2 35  1  0  0  0
  5 36  1  0  0  0
  6 37  1  0  0  0
  8 38  1  0  0  0
  9 39  1  0  0  0
 10 40  1  0  0  0
 11 41  1  0  0  0
 11 42  1  0  0  0
 17 43  1  0  0  0
 18 44  1  0  0  0
 20 45  1  0  0  0
 21 46  1  0  0  0
 21 47  1  0  0  0
 21 48  1  0  0  0
 22 49  1  0  0  0
 22 50  1  0  0  0
 28 51  1  0  0  0
 29 52  1  0  0  0
 30 53  1  0  0  0
 31 54  1  0  0  0
 32 55  1  0  0  0
 32 56  1  0  0  0
 32 57  1  0  0  0
M  END
$$$$
