3c3r_ligand
  -I-interpret- 

203204  0  0  0  0  0  0  0  0999 V2000
   37.7030   41.6800    0.6880 N   0  3  0  0  0
   37.7600   42.6090    1.8540 C   0  0  0  0  0
   36.3450   43.0230    2.2940 C   0  0  0  0  0
   35.5340   42.1650    2.6590 O   0  0  0  0  0
   38.6470   43.8270    1.5340 C   0  0  0  0  0
   39.3810   44.4240    2.7360 C   0  0  0  0  0
   40.3450   43.4410    3.3970 C   0  0  0  0  0
   41.4740   43.2550    2.8790 O   0  0  0  0  0
   39.9740   42.8580    4.4470 O   0  0  0  0  0
   36.0520   44.3250    2.2590 N   0  0  0  0  0
   34.7150   44.8440    2.5800 C   0  0  0  0  0
   33.5980   44.1790    1.7650 C   0  0  0  0  0
   32.5170   43.9300    2.3010 O   0  0  0  0  0
   34.6610   46.3740    2.3990 C   0  0  0  0  0
   33.4270   47.0080    3.0460 C   0  0  0  0  0
   32.6790   46.3040    3.7610 O   0  0  0  0  0
   33.1280   48.2140    2.8990 O   0  0  0  0  0
   33.8650   43.8870    0.4880 N   0  0  0  0  0
   32.8520   43.3230   -0.4160 C   0  0  0  0  0
   32.8210   41.7920   -0.4280 C   0  0  0  0  0
   31.9010   41.1800   -0.9810 O   0  0  0  0  0
   33.0190   43.8710   -1.8410 C   0  0  0  0  0
   31.7020   43.9260   -2.6030 C   0  0  0  0  0
   31.1490   45.0450   -2.7280 O   0  0  0  0  0
   31.1400   42.9110   -3.0950 O   0  0  0  0  0
   33.8300   41.1760    0.1780 N   0  0  0  0  0
   33.8360   39.7250    0.3490 C   0  0  0  0  0
   33.1110   39.2990    1.6320 C   0  0  0  0  0
   32.5540   38.2050    1.6880 O   0  0  0  0  0
   35.2560   39.1640    0.2630 C   0  0  0  0  0
   35.7300   39.0260   -1.1720 C   0  0  0  0  0
   36.2030   40.0300   -1.7580 O   0  0  0  0  0
   35.6580   37.9450   -1.7990 O   0  0  0  0  0
   33.1250   40.1790    2.6380 N   0  0  0  0  0
   32.2340   40.1050    3.8020 C   0  0  0  0  0
   30.7750   40.2590    3.3730 C   0  0  0  0  0
   29.9130   39.5010    3.8120 O   0  0  0  0  0
   32.5880   41.2010    4.8440 C   0  0  0  0  0
   33.5720   40.6660    5.8810 C   0  0  0  0  0
   31.3350   41.7080    5.5680 C   0  0  0  0  0
   33.8430   41.6560    7.0260 C   0  0  0  0  0
   30.5110   41.2520    2.5230 N   0  0  0  0  0
   29.1690   41.5010    1.9900 C   0  0  0  0  0
   28.5210   40.2590    1.3690 C   0  0  0  0  0
   27.3400   40.0090    1.5890 O   0  0  0  0  0
   29.2030   42.6470    0.9780 C   0  0  0  0  0
   29.4190   44.0250    1.6020 C   0  0  0  0  0
   29.3510   45.1170    0.5500 C   0  0  0  0  0
   29.1860   46.5010    1.1790 C   0  0  0  0  0
   28.5470   47.4370    0.2120 N   0  3  0  0  0
   29.3000   39.4880    0.6140 N   0  0  0  0  0
   28.7850   38.3080   -0.0850 C   0  0  0  0  0
   28.6490   37.0860    0.8150 C   0  0  0  0  0
   27.7640   36.2480    0.6030 O   0  0  0  0  0
   29.6380   37.9570   -1.3090 C   0  0  0  0  0
   29.7940   39.0830   -2.3570 C   0  0  0  0  0
   28.4790   39.7580   -2.7920 C   0  0  0  0  0
   27.4380   39.1010   -2.9670 O   0  0  0  0  0
   28.5420   41.0720   -2.9900 N   0  0  0  0  0
   29.5470   36.9620    1.7900 N   0  0  0  0  0
   29.3800   35.9960    2.8790 C   0  0  0  0  0
   28.0890   36.2570    3.6370 C   0  0  0  0  0
   27.3150   35.3380    3.8800 O   0  0  0  0  0
   30.5360   36.0980    3.8740 C   0  0  0  0  0
   31.6390   35.0510    3.9090 C   0  0  0  0  0
   32.5590   35.3640    5.0960 C   0  0  0  0  0
   31.0600   33.6510    3.9930 C   0  0  0  0  0
   27.8870   37.5160    4.0200 N   0  0  0  0  0
   26.7280   37.9400    4.7750 C   0  0  0  0  0
   25.4320   37.6700    4.0160 C   0  0  0  0  0
   24.4290   37.2470    4.6060 O   0  0  0  0  0
   26.8400   39.4350    5.1170 C   0  0  0  0  0
   25.4570   37.9180    2.7090 N   0  0  0  0  0
   24.2700   37.7620    1.8810 C   0  0  0  0  0
   24.0160   36.2900    1.5390 C   0  0  0  0  0
   22.8710   35.9050    1.3140 O   0  0  0  0  0
   24.3500   38.6420    0.6280 C   0  0  0  0  0
   25.0680   35.4650    1.5440 N   0  0  0  0  0
   24.9100   34.0020    1.4260 C   0  0  0  0  0
   24.0940   33.4140    2.5760 C   0  0  0  0  0
   23.4910   32.3500    2.4330 O   0  0  0  0  0
   26.2810   33.3280    1.3780 C   0  0  0  0  0
   26.3430   31.8300    1.6510 C   0  0  0  0  0
   26.2530   30.8250    0.7300 C   0  0  0  0  0
   26.6010   31.1860    2.9130 C   0  0  0  0  0
   26.4060   29.5980    1.3370 N   0  0  0  0  0
   26.6170   29.7910    2.6800 C   0  0  0  0  0
   26.7920   31.6470    4.2290 C   0  0  0  0  0
   26.8260   28.8580    3.7070 C   0  0  0  0  0
   26.9960   30.7220    5.2470 C   0  0  0  0  0
   27.0160   29.3420    4.9780 C   0  0  0  0  0
   24.0900   34.1060    3.7140 N   0  0  0  0  0
   23.4960   33.5840    4.9420 C   0  0  0  0  0
   21.9950   33.7620    4.9570 C   0  0  0  0  0
   21.3040   33.0550    5.6910 O   0  0  0  0  0
   24.1130   34.2540    6.1580 C   0  0  0  0  0
   21.5100   34.7280    4.1680 N   0  0  0  0  0
   20.0780   34.9160    3.8920 C   0  0  0  0  0
   19.4530   33.6830    3.1980 C   0  0  0  0  0
   18.5380   33.0460    3.7290 O   0  0  0  0  0
   19.8720   36.1870    3.0280 C   0  0  0  0  0
   20.5380   37.3000    3.6430 O   0  0  0  0  0
   18.3980   36.6140    3.0080 C   0  0  0  0  0
   19.8390   33.2710    2.0980 O   0  0  0  0  0
   37.1120   40.8816    0.9195 H   0  0  0  0  0
   37.3138   42.1704   -0.1172 H   0  0  0  0  0
   38.6444   41.3551    0.4673 H   0  0  0  0  0
   38.2166   42.0865    2.6946 H   0  0  0  0  0
   37.9874   44.6049    1.1493 H   0  0  0  0  0
   39.4112   43.4856    0.8358 H   0  0  0  0  0
   38.6318   44.7026    3.4770 H   0  0  0  0  0
   39.9653   45.2724    2.3797 H   0  0  0  0  0
   39.0840   43.1398    4.6707 H   0  0  0  0  0
   36.7847   44.9854    1.9993 H   0  0  0  0  0
   34.5380   44.5955    3.6264 H   0  0  0  0  0
   34.6194   46.5812    1.3297 H   0  0  0  0  0
   35.5431   46.7972    2.8796 H   0  0  0  0  0
   33.0185   45.4065    3.7906 H   0  0  0  0  0
   34.8035   44.0615    0.1286 H   0  0  0  0  0
   31.8891   43.6442   -0.0187 H   0  0  0  0  0
   33.6920   43.2047   -2.3807 H   0  0  0  0  0
   33.4073   44.8868   -1.7672 H   0  0  0  0  0
   31.6764   42.1340   -2.9215 H   0  0  0  0  0
   34.6140   41.7254    0.5300 H   0  0  0  0  0
   33.2730   39.2907   -0.4772 H   0  0  0  0  0
   35.2582   38.1736    0.7183 H   0  0  0  0  0
   35.9255   39.8536    0.7771 H   0  0  0  0  0
   36.1965   40.7808   -1.1598 H   0  0  0  0  0
   33.7944   40.9473    2.5942 H   0  0  0  0  0
   32.3705   39.1263    4.2621 H   0  0  0  0  0
   33.0436   42.0265    4.2971 H   0  0  0  0  0
   34.5187   40.4808    5.3734 H   0  0  0  0  0
   33.1359   39.7674    6.3175 H   0  0  0  0  0
   30.6428   42.1316    4.8403 H   0  0  0  0  0
   30.8557   40.8778    6.0867 H   0  0  0  0  0
   31.6189   42.4738    6.2898 H   0  0  0  0  0
   34.2616   42.5759    6.6178 H   0  0  0  0  0
   32.9086   41.8779    7.5415 H   0  0  0  0  0
   34.5502   41.2135    7.7275 H   0  0  0  0  0
   31.2742   41.8630    2.2321 H   0  0  0  0  0
   28.5463   41.7803    2.8399 H   0  0  0  0  0
   28.2332   42.6668    0.4809 H   0  0  0  0  0
   30.0430   42.4611    0.3087 H   0  0  0  0  0
   30.4053   44.0477    2.0655 H   0  0  0  0  0
   28.6356   44.2011    2.3391 H   0  0  0  0  0
   28.4882   44.9253   -0.0880 H   0  0  0  0  0
   30.2825   45.1064   -0.0159 H   0  0  0  0  0
   30.1683   46.8871    1.4511 H   0  0  0  0  0
   28.5536   46.4166    2.0627 H   0  0  0  0  0
   28.4441   48.3543    0.6460 H   0  0  0  0  0
   29.1322   47.5167   -0.6196 H   0  0  0  0  0
   27.6287   47.0786   -0.0501 H   0  0  0  0  0
   30.2872   39.7263    0.5190 H   0  0  0  0  0
   27.7832   38.5839   -0.4143 H   0  0  0  0  0
   29.1336   37.1322   -1.8125 H   0  0  0  0  0
   30.6390   37.7383   -0.9372 H   0  0  0  0  0
   30.2213   38.6246   -3.2488 H   0  0  0  0  0
   30.4069   39.8577   -1.8963 H   0  0  0  0  0
   27.7139   41.5816   -3.2982 H   0  0  0  0  0
   29.4184   41.5699   -2.8336 H   0  0  0  0  0
   30.3755   37.5569    1.7786 H   0  0  0  0  0
   29.3571   35.0033    2.4295 H   0  0  0  0  0
   30.0542   36.0052    4.8473 H   0  0  0  0  0
   31.0517   37.0138    3.5851 H   0  0  0  0  0
   32.2190   35.0857    2.9868 H   0  0  0  0  0
   32.9886   36.3577    4.9689 H   0  0  0  0  0
   31.9816   35.3319    6.0199 H   0  0  0  0  0
   33.3582   34.6241    5.1396 H   0  0  0  0  0
   30.4629   33.5600    4.9003 H   0  0  0  0  0
   30.4307   33.4666    3.1223 H   0  0  0  0  0
   31.8720   32.9242    4.0165 H   0  0  0  0  0
   28.5843   38.2167    3.7685 H   0  0  0  0  0
   26.6995   37.3590    5.6968 H   0  0  0  0  0
   27.7375   39.6040    5.7121 H   0  0  0  0  0
   26.8993   40.0138    4.1953 H   0  0  0  0  0
   25.9624   39.7432    5.6852 H   0  0  0  0  0
   26.3286   38.2247    2.2770 H   0  0  0  0  0
   23.4110   38.1040    2.4582 H   0  0  0  0  0
   24.4334   39.6875    0.9246 H   0  0  0  0  0
   25.2240   38.3585    0.0416 H   0  0  0  0  0
   23.4492   38.5034    0.0301 H   0  0  0  0  0
   26.0055   35.8572    1.6318 H   0  0  0  0  0
   24.3671   33.8111    0.5003 H   0  0  0  0  0
   26.8634   33.7940    2.1729 H   0  0  0  0  0
   26.6320   33.4528    0.3536 H   0  0  0  0  0
   26.0837   30.9734   -0.3365 H   0  0  0  0  0
   26.7802   32.7149    4.4473 H   0  0  0  0  0
   26.8371   27.7873    3.5032 H   0  0  0  0  0
   27.1426   31.0719    6.2688 H   0  0  0  0  0
   27.1859   28.6415    5.7957 H   0  0  0  0  0
   24.5165   35.0325    3.7284 H   0  0  0  0  0
   23.7062   32.5151    4.9775 H   0  0  0  0  0
   25.1856   34.0606    6.1727 H   0  0  0  0  0
   23.9369   35.3285    6.1077 H   0  0  0  0  0
   23.6576   33.8519    7.0630 H   0  0  0  0  0
   22.1718   35.3709    3.7331 H   0  0  0  0  0
   19.5678   35.0390    4.8473 H   0  0  0  0  0
   20.2444   35.9475    2.0320 H   0  0  0  0  0
   20.4088   38.0853    3.1061 H   0  0  0  0  0
   17.7934   35.8086    2.5912 H   0  0  0  0  0
   18.0692   36.8279    4.0250 H   0  0  0  0  0
   18.2883   37.5077    2.3937 H   0  0  0  0  0
   20.5472   33.8341    1.7772 H   0  0  0  0  0
  1  2  1  0  0  0
  2  3  1  0  0  0
  2  5  1  0  0  0
  3  4  2  0  0  0
  3 10  1  0  0  0
  5  6  1  0  0  0
  6  7  1  0  0  0
  7  8  2  0  0  0
  7  9  1  0  0  0
 10 11  1  0  0  0
 11 12  1  0  0  0
 11 14  1  0  0  0
 12 13  2  0  0  0
 12 18  1  0  0  0
 14 15  1  0  0  0
 15 16  1  0  0  0
 15 17  2  0  0  0
 18 19  1  0  0  0
 19 20  1  0  0  0
 19 22  1  0  0  0
 20 21  2  0  0  0
 20 26  1  0  0  0
 22 23  1  0  0  0
 23 24  2  0  0  0
 23 25  1  0  0  0
 26 27  1  0  0  0
 27 28  1  0  0  0
 27 30  1  0  0  0
 28 29  2  0  0  0
 28 34  1  0  0  0
 30 31  1  0  0  0
 31 32  1  0  0  0
 31 33  2  0  0  0
 34 35  1  0  0  0
 35 36  1  0  0  0
 35 38  1  0  0  0
 36 37  2  0  0  0
 36 42  1  0  0  0
 38 39  1  0  0  0
 38 40  1  0  0  0
 39 41  1  0  0  0
 42 43  1  0  0  0
 43 44  1  0  0  0
 43 46  1  0  0  0
 44 45  2  0  0  0
 44 51  1  0  0  0
 46 47  1  0  0  0
 47 48  1  0  0  0
 48 49  1  0  0  0
 49 50  1  0  0  0
 51 52  1  0  0  0
 52 53  1  0  0  0
 52 55  1  0  0  0
 53 54  2  0  0  0
 53 60  1  0  0  0
 55 56  1  0  0  0
 56 57  1  0  0  0
 57 58  2  0  0  0
 57 59  1  0  0  0
 60 61  1  0  0  0
 61 62  1  0  0  0
 61 64  1  0  0  0
 62 63  2  0  0  0
 62 68  1  0  0  0
 64 65  1  0  0  0
 65 66  1  0  0  0
 65 67  1  0  0  0
 68 69  1  0  0  0
 69 70  1  0  0  0
 69 72  1  0  0  0
 70 71  2  0  0  0
 70 73  1  0  0  0
 73 74  1  0  0  0
 74 75  1  0  0  0
 74 77  1  0  0  0
 75 76  2  0  0  0
 75 78  1  0  0  0
 78 79  1  0  0  0
 79 80  1  0  0  0
 79 82  1  0  0  0
 80 81  2  0  0  0
 80 92  1  0  0  0
 82 83  1  0  0  0
 83 84  4  0  0  0
 83 85  4  0  0  0
 84 86  4  0  0  0
 85 87  4  0  0  0
 85 88  4  0  0  0
 86 87  4  0  0  0
 87 89  4  0  0  0
 88 90  4  0  0  0
 89 91  4  0  0  0
 90 91  4  0  0  0
 92 93  1  0  0  0
 93 94  1  0  0  0
 93 96  1  0  0  0
 94 95  2  0  0  0
 94 97  1  0  0  0
 97 98  1  0  0  0
 98 99  1  0  0  0
 98101  1  0  0  0
 99100  2  0  0  0
 99104  1  0  0  0
101102  1  0  0  0
101103  1  0  0  0
  1105  1  0  0  0
  1106  1  0  0  0
  1107  1  0  0  0
  2108  1  0  0  0
  5109  1  0  0  0
  5110  1  0  0  0
  6111  1  0  0  0
  6112  1  0  0  0
  9113  1  0  0  0
 10114  1  0  0  0
 11115  1  0  0  0
 14116  1  0  0  0
 14117  1  0  0  0
 16118  1  0  0  0
 18119  1  0  0  0
 19120  1  0  0  0
 22121  1  0  0  0
 22122  1  0  0  0
 25123  1  0  0  0
 26124  1  0  0  0
 27125  1  0  0  0
 30126  1  0  0  0
 30127  1  0  0  0
 32128  1  0  0  0
 34129  1  0  0  0
 35130  1  0  0  0
 38131  1  0  0  0
 39132  1  0  0  0
 39133  1  0  0  0
 40134  1  0  0  0
 40135  1  0  0  0
 40136  1  0  0  0
 41137  1  0  0  0
 41138  1  0  0  0
 41139  1  0  0  0
 42140  1  0  0  0
 43141  1  0  0  0
 46142  1  0  0  0
 46143  1  0  0  0
 47144  1  0  0  0
 47145  1  0  0  0
 48146  1  0  0  0
 48147  1  0  0  0
 49148  1  0  0  0
 49149  1  0  0  0
 50150  1  0  0  0
 50151  1  0  0  0
 50152  1  0  0  0
 51153  1  0  0  0
 52154  1  0  0  0
 55155  1  0  0  0
 55156  1  0  0  0
 56157  1  0  0  0
 56158  1  0  0  0
 59159  1  0  0  0
 59160  1  0  0  0
 60161  1  0  0  0
 61162  1  0  0  0
 64163  1  0  0  0
 64164  1  0  0  0
 65165  1  0  0  0
 66166  1  0  0  0
 66167  1  0  0  0
 66168  1  0  0  0
 67169  1  0  0  0
 67170  1  0  0  0
 67171  1  0  0  0
 68172  1  0  0  0
 69173  1  0  0  0
 72174  1  0  0  0
 72175  1  0  0  0
 72176  1  0  0  0
 73177  1  0  0  0
 74178  1  0  0  0
 77179  1  0  0  0
 77180  1  0  0  0
 77181  1  0  0  0
 78182  1  0  0  0
 79183  1  0  0  0
 82184  1  0  0  0
 82185  1  0  0  0
 84186  1  0  0  0
 88187  1  0  0  0
 89188  1  0  0  0
 90189  1  0  0  0
 91190  1  0  0  0
 92191  1  0  0  0
 93192  1  0  0  0
 96193  1  0  0  0
 96194  1  0  0  0
 96195  1  0  0  0
 97196  1  0  0  0
 98197  1  0  0  0
101198  1  0  0  0
102199  1  0  0  0
103200  1  0  0  0
103201  1  0  0  0
103202  1  0  0  0
104203  1  0  0  0
M  END
$$$$
