### 
### Created by X-TOOL on Mon Sep 10 21:12:59 2018
### 

@<TRIPOS>MOLECULE
3c3r_ligand
  199   200     1     0     0
SMALL
GAST_HUCK


@<TRIPOS>ATOM
      1 N          37.7030   41.6800    0.6880 N.4       1 GLU         0.2380
      2 CA         37.7600   42.6090    1.8540 C.3       1 GLU         0.0665
      3 C          36.3450   43.0230    2.2940 C.2       1 GLU         0.2269
      4 O          35.5340   42.1650    2.6590 O.2       1 GLU        -0.3907
      5 CB         38.6470   43.8270    1.5340 C.3       1 GLU         0.0194
      6 CG         39.3810   44.4240    2.7360 C.3       1 GLU         0.0075
      7 CD         40.3450   43.4410    3.3970 C.2       1 GLU         0.0351
      8 OE1        41.4740   43.2550    2.8790 O.co2     1 GLU        -0.5690
      9 OE2        39.9740   42.8580    4.4470 O.co2     1 GLU        -0.5690
     10 N          36.0520   44.3250    2.2590 N.am      1 ASP        -0.2595
     11 CA         34.7150   44.8440    2.5800 C.3       1 ASP         0.1424
     12 C          33.5980   44.1790    1.7650 C.2       1 ASP         0.2057
     13 O          32.5170   43.9300    2.3010 O.2       1 ASP        -0.3943
     14 CB         34.6610   46.3740    2.3990 C.3       1 ASP         0.0406
     15 CG         33.4270   47.0080    3.0460 C.2       1 ASP         0.0393
     16 OD1        32.6790   46.3040    3.7610 O.co2     1 ASP        -0.5688
     17 OD2        33.1280   48.2140    2.8990 O.co2     1 ASP        -0.5688
     18 N          33.8650   43.8870    0.4880 N.am      1 ASP        -0.2621
     19 CA         32.8520   43.3230   -0.4160 C.3       1 ASP         0.1423
     20 C          32.8210   41.7920   -0.4280 C.2       1 ASP         0.2057
     21 O          31.9010   41.1800   -0.9810 O.2       1 ASP        -0.3943
     22 CB         33.0190   43.8710   -1.8410 C.3       1 ASP         0.0406
     23 CG         31.7020   43.9260   -2.6030 C.2       1 ASP         0.0393
     24 OD1        31.1490   45.0450   -2.7280 O.co2     1 ASP        -0.5688
     25 OD2        31.1400   42.9110   -3.0950 O.co2     1 ASP        -0.5688
     26 N          33.8300   41.1760    0.1780 N.am      1 ASP        -0.2621
     27 CA         33.8360   39.7250    0.3490 C.3       1 ASP         0.1423
     28 C          33.1110   39.2990    1.6320 C.2       1 ASP         0.2056
     29 O          32.5540   38.2050    1.6880 O.2       1 ASP        -0.3943
     30 CB         35.2560   39.1640    0.2630 C.3       1 ASP         0.0406
     31 CG         35.7300   39.0260   -1.1720 C.2       1 ASP         0.0393
     32 OD1        36.2030   40.0300   -1.7580 O.co2     1 ASP        -0.5688
     33 OD2        35.6580   37.9450   -1.7990 O.co2     1 ASP        -0.5688
     34 N          33.1250   40.1790    2.6380 N.am      1 ILE        -0.2634
     35 CA         32.2340   40.1050    3.8020 C.3       1 ILE         0.1335
     36 C          30.7750   40.2590    3.3730 C.2       1 ILE         0.2042
     37 O          29.9130   39.5010    3.8120 O.2       1 ILE        -0.3944
     38 CB         32.5880   41.2010    4.8440 C.3       1 ILE        -0.0037
     39 CG1        33.5720   40.6660    5.8810 C.3       1 ILE        -0.0491
     40 CG2        31.3350   41.7080    5.5680 C.3       1 ILE        -0.0582
     41 CD1        33.8430   41.6560    7.0260 C.3       1 ILE        -0.0648
     42 N          30.5110   41.2520    2.5230 N.am      1 LYS        -0.2637
     43 CA         29.1690   41.5010    1.9900 C.3       1 LYS         0.1310
     44 C          28.5210   40.2590    1.3690 C.2       1 LYS         0.2039
     45 O          27.3400   40.0090    1.5890 O.2       1 LYS        -0.3944
     46 CB         29.2030   42.6470    0.9780 C.3       1 LYS        -0.0122
     47 CG         29.4190   44.0250    1.6020 C.3       1 LYS        -0.0440
     48 CD         29.3510   45.1170    0.5500 C.3       1 LYS        -0.0124
     49 CE         29.1860   46.5010    1.1790 C.3       1 LYS        -0.0354
     50 NZ         28.5470   47.4370    0.2120 N.4       1 LYS         0.2185
     51 N          29.3000   39.4880    0.6140 N.am      1 GLN        -0.2636
     52 CA         28.7850   38.3080   -0.0850 C.3       1 GLN         0.1330
     53 C          28.6490   37.0860    0.8150 C.2       1 GLN         0.2040
     54 O          27.7640   36.2480    0.6030 O.2       1 GLN        -0.3944
     55 CB         29.6380   37.9570   -1.3090 C.3       1 GLN         0.0045
     56 CG         29.7940   39.0830   -2.3570 C.3       1 GLN         0.0412
     57 CD         28.4790   39.7580   -2.7920 C.2       1 GLN         0.1737
     58 OE1        27.4380   39.1010   -2.9670 O.2       1 GLN        -0.3973
     59 NE2        28.5420   41.0720   -2.9900 N.am      1 GLN        -0.3009
     60 N          29.5470   36.9620    1.7900 N.am      1 LEU        -0.2637
     61 CA         29.3800   35.9960    2.8790 C.3       1 LEU         0.1312
     62 C          28.0890   36.2570    3.6370 C.2       1 LEU         0.2039
     63 O          27.3150   35.3380    3.8800 O.2       1 LEU        -0.3944
     64 CB         30.5360   36.0980    3.8740 C.3       1 LEU        -0.0101
     65 CG         31.6390   35.0510    3.9090 C.3       1 LEU        -0.0425
     66 CD1        32.5590   35.3640    5.0960 C.3       1 LEU        -0.0625
     67 CD2        31.0600   33.6510    3.9930 C.3       1 LEU        -0.0625
     68 N          27.8870   37.5160    4.0200 N.am      1 ALA        -0.2640
     69 CA         26.7280   37.9400    4.7750 C.3       1 ALA         0.1282
     70 C          25.4320   37.6700    4.0160 C.2       1 ALA         0.2036
     71 O          24.4290   37.2470    4.6060 O.2       1 ALA        -0.3944
     72 CB         26.8400   39.4350    5.1170 C.3       1 ALA        -0.0244
     73 N          25.4570   37.9180    2.7090 N.am      1 ALA        -0.2640
     74 CA         24.2700   37.7620    1.8810 C.3       1 ALA         0.1282
     75 C          24.0160   36.2900    1.5390 C.2       1 ALA         0.2037
     76 O          22.8710   35.9050    1.3140 O.2       1 ALA        -0.3944
     77 CB         24.3500   38.6420    0.6280 C.3       1 ALA        -0.0244
     78 N          25.0680   35.4650    1.5440 N.am      1 TRP        -0.2627
     79 CA         24.9100   34.0020    1.4260 C.3       1 TRP         0.1352
     80 C          24.0940   33.4140    2.5760 C.2       1 TRP         0.2052
     81 O          23.4910   32.3500    2.4330 O.2       1 TRP        -0.3942
     82 CB         26.2810   33.3280    1.3780 C.3       1 TRP         0.0042
     83 CG         26.3430   31.8300    1.6510 C.2       1 TRP        -0.0418
     84 CD1        26.2530   30.8250    0.7300 C.2       1 TRP         0.0167
     85 CD2        26.6010   31.1860    2.9130 C.ar      1 TRP        -0.0214
     86 NE1        26.4060   29.5980    1.3370 N.pl3     1 TRP        -0.2890
     87 CE2        26.6170   29.7910    2.6800 C.ar      1 TRP         0.0603
     88 CE3        26.7920   31.6470    4.2290 C.ar      1 TRP        -0.0747
     89 CZ2        26.8260   28.8580    3.7070 C.ar      1 TRP        -0.0443
     90 CZ3        26.9960   30.7220    5.2470 C.ar      1 TRP        -0.0792
     91 CH2        27.0160   29.3420    4.9780 C.ar      1 TRP        -0.0768
     92 N          24.0900   34.1060    3.7140 N.am      1 ALA        -0.2639
     93 CA         23.4960   33.5840    4.9420 C.3       1 ALA         0.1282
     94 C          21.9950   33.7620    4.9570 C.2       1 ALA         0.2031
     95 O          21.3040   33.0550    5.6910 O.2       1 ALA        -0.3944
     96 CB         24.1130   34.2540    6.1580 C.3       1 ALA        -0.0244
     97 N          21.5100   34.7280    4.1680 N.am      1 THR        -0.2670
     98 CA         20.0780   34.9160    3.8920 C.3       1 THR         0.1198
     99 C          19.4530   33.6830    3.1980 C.2       1 THR         0.0626
    100 O          18.5380   33.0460    3.7290 O.co2     1 THR        -0.5665
    101 CB         19.8720   36.1870    3.0280 C.3       1 THR         0.0869
    102 OG1        20.5380   37.3000    3.6430 O.3       1 THR        -0.3880
    103 CG2        18.3980   36.6140    3.0080 C.3       1 THR        -0.0352
    104 OXT        19.8390   33.2710    2.0980 O.co2     1 THR        -0.5665
    105 H1         38.6393   41.4225    0.4175 H         1 GLU         0.2015
    106 H2         37.2440   42.1375   -0.0841 H         1 GLU         0.2015
    107 H3         37.1873   40.8522    0.9428 H         1 GLU         0.2015
    108 H4         38.2244   42.0700    2.6929 H         1 GLU         0.1099
    109 H5         38.0080   44.6104    1.1006 H         1 GLU         0.0363
    110 H6         39.3995   43.5166    0.7941 H         1 GLU         0.0363
    111 H7         38.6353   44.7379    3.4812 H         1 GLU         0.0434
    112 H8         39.9525   45.3007    2.3973 H         1 GLU         0.0434
    113 H9         36.7703   44.9724    2.0044 H         1 ASP         0.1886
    114 H10        34.5252   44.6227    3.6407 H         1 ASP         0.0819
    115 H11        34.6477   46.5997    1.3225 H         1 ASP         0.0478
    116 H12        35.5607   46.8132    2.8547 H         1 ASP         0.0478
    117 H13        34.7851   44.0580    0.1357 H         1 ASP         0.1884
    118 H14        31.8724   43.6598   -0.0461 H         1 ASP         0.0819
    119 H15        33.7168   43.2211   -2.3893 H         1 ASP         0.0478
    120 H16        33.4347   44.8877   -1.7815 H         1 ASP         0.0478
    121 H17        34.5986   41.7147    0.5231 H         1 ASP         0.1884
    122 H18        33.2711   39.2979   -0.4927 H         1 ASP         0.0819
    123 H19        35.2751   38.1728    0.7396 H         1 ASP         0.0478
    124 H20        35.9379   39.8413    0.7980 H         1 ASP         0.0478
    125 H21        33.7813   40.9323    2.5950 H         1 ILE         0.1883
    126 H22        32.3602   39.1192    4.2734 H         1 ILE         0.0803
    127 H23        33.0547   42.0442    4.3138 H         1 ILE         0.0345
    128 H24        34.5246   40.4446    5.3775 H         1 ILE         0.0267
    129 H25        33.1598   39.7405    6.3093 H         1 ILE         0.0267
    130 H26        30.6174   42.0966    4.8304 H         1 ILE         0.0235
    131 H27        31.6144   42.5110    6.2659 H         1 ILE         0.0235
    132 H28        30.8743   40.8802    6.1269 H         1 ILE         0.0235
    133 H29        34.5567   41.2105    7.7347 H         1 ILE         0.0230
    134 H30        32.9007   41.8808    7.5471 H         1 ILE         0.0230
    135 H31        34.2655   42.5849    6.6153 H         1 ILE         0.0230
    136 H32        31.2592   41.8510    2.2378 H         1 LYS         0.1883
    137 H33        28.5351   41.8134    2.8329 H         1 LYS         0.0800
    138 H34        28.2450   42.6590    0.4376 H         1 LYS         0.0312
    139 H35        30.0219   42.4570    0.2685 H         1 LYS         0.0312
    140 H36        30.4078   44.0507    2.0832 H         1 LYS         0.0269
    141 H37        28.6391   44.2040    2.3568 H         1 LYS         0.0269
    142 H38        28.4938   44.9218   -0.1112 H         1 LYS         0.0317
    143 H39        30.2796   45.1021   -0.0394 H         1 LYS         0.0317
    144 H40        30.1749   46.8911    1.4617 H         1 LYS         0.0813
    145 H41        28.5541   46.4189    2.0756 H         1 LYS         0.0813
    146 H42        28.4448   48.3440    0.6398 H         1 LYS         0.1994
    147 H43        27.6393   47.0838   -0.0477 H         1 LYS         0.1994
    148 H44        29.1245   47.5166   -0.6103 H         1 LYS         0.1994
    149 H45        30.2679   39.7216    0.5209 H         1 GLN         0.1883
    150 H46        27.7771   38.5634   -0.4441 H         1 GLN         0.0801
    151 H47        29.1759   37.0920   -1.8073 H         1 GLN         0.0337
    152 H48        30.6425   37.6825   -0.9546 H         1 GLN         0.0337
    153 H49        30.2682   38.6527   -3.2514 H         1 GLN         0.0504
    154 H50        30.4494   39.8568   -1.9308 H         1 GLN         0.0504
    155 H51        27.7254   41.5746   -3.2737 H         1 GLN         0.1814
    156 H52        29.4060   41.5571   -2.8551 H         1 GLN         0.1814
    157 H53        30.3593   37.5452    1.7788 H         1 LEU         0.1883
    158 H54        29.3540   34.9823    2.4527 H         1 LEU         0.0800
    159 H55        30.0844   36.1089    4.8769 H         1 LEU         0.0315
    160 H56        31.0280   37.0631    3.6828 H         1 LEU         0.0315
    161 H57        32.2256   35.1224    2.9812 H         1 LEU         0.0298
    162 H58        33.3660   34.6179    5.1411 H         1 LEU         0.0232
    163 H59        31.9774   35.3319    6.0291 H         1 LEU         0.0232
    164 H60        32.9933   36.3666    4.9689 H         1 LEU         0.0232
    165 H61        30.4091   33.4707    3.1248 H         1 LEU         0.0232
    166 H62        30.4731   33.5518    4.9180 H         1 LEU         0.0232
    167 H63        31.8779   32.9155    3.9970 H         1 LEU         0.0232
    168 H64        28.5706   38.2030    3.7735 H         1 ALA         0.1883
    169 H65        26.7014   37.3680    5.7142 H         1 ALA         0.0797
    170 H66        25.9548   39.7472    5.6905 H         1 ALA         0.0277
    171 H67        26.8999   40.0203    4.1876 H         1 ALA         0.0277
    172 H68        27.7454   39.6069    5.7176 H         1 ALA         0.0277
    173 H69        26.3115   38.2187    2.2855 H         1 ALA         0.1883
    174 H70        23.4097   38.1118    2.4705 H         1 ALA         0.0797
    175 H71        23.4414   38.5030    0.0237 H         1 ALA         0.0277
    176 H72        25.2317   38.3568    0.0353 H         1 ALA         0.0277
    177 H73        24.4342   39.6975    0.9260 H         1 ALA         0.0277
    178 H74        25.9871   35.8495    1.6300 H         1 TRP         0.1884
    179 H75        24.3808   33.7902    0.4852 H         1 TRP         0.0815
    180 H76        26.9178   33.8248    2.1248 H         1 TRP         0.0397
    181 H77        26.6950   33.4963    0.3729 H         1 TRP         0.0397
    182 H78        26.0839   30.9733   -0.3355 H         1 TRP         0.0795
    183 H79        26.3683   28.6852    0.8613 H         1 TRP         0.2216
    184 H80        26.7802   32.7090    4.4461 H         1 TRP         0.0540
    185 H81        26.8371   27.7932    3.5043 H         1 TRP         0.0541
    186 H82        27.1418   31.0700    6.2632 H         1 TRP         0.0510
    187 H83        27.1850   28.6454    5.7912 H         1 TRP         0.0530
    188 H84        24.5081   35.0143    3.7282 H         1 ALA         0.1883
    189 H85        23.7127   32.5068    4.9934 H         1 ALA         0.0797
    190 H86        23.6542   33.8490    7.0720 H         1 ALA         0.0277
    191 H87        23.9360   35.3385    6.1084 H         1 ALA         0.0277
    192 H88        25.1955   34.0595    6.1740 H         1 ALA         0.0277
    193 H89        22.1588   35.3583    3.7416 H         1 THR         0.1876
    194 H90        19.5618   35.0620    4.8523 H         1 THR         0.0752
    195 H91        20.2452   36.0100    2.0085 H         1 THR         0.0632
    196 H92        20.4101   38.0771    3.1117 H         1 THR         0.2100
    197 H93        18.2859   37.5159    2.3883 H         1 THR         0.0256
    198 H94        18.0649   36.8303    4.0338 H         1 THR         0.0256
    199 H95        17.7867   35.8020    2.5875 H         1 THR         0.0256
@<TRIPOS>BOND
     1    1    2 1  
     2    2    3 1  
     3    2    5 1  
     4    3    4 2  
     5    3   10 am 
     6    5    6 1  
     7    6    7 1  
     8    7    8 ar 
     9    7    9 ar 
    10   10   11 1  
    11   11   12 1  
    12   11   14 1  
    13   12   13 2  
    14   12   18 am 
    15   14   15 1  
    16   15   16 ar 
    17   15   17 ar 
    18   18   19 1  
    19   19   20 1  
    20   19   22 1  
    21   20   21 2  
    22   20   26 am 
    23   22   23 1  
    24   23   24 ar 
    25   23   25 ar 
    26   26   27 1  
    27   27   28 1  
    28   27   30 1  
    29   28   29 2  
    30   28   34 am 
    31   30   31 1  
    32   31   32 ar 
    33   31   33 ar 
    34   34   35 1  
    35   35   36 1  
    36   35   38 1  
    37   36   37 2  
    38   36   42 am 
    39   38   39 1  
    40   38   40 1  
    41   39   41 1  
    42   42   43 1  
    43   43   44 1  
    44   43   46 1  
    45   44   45 2  
    46   44   51 am 
    47   46   47 1  
    48   47   48 1  
    49   48   49 1  
    50   49   50 1  
    51   51   52 1  
    52   52   53 1  
    53   52   55 1  
    54   53   54 2  
    55   53   60 am 
    56   55   56 1  
    57   56   57 1  
    58   57   58 2  
    59   57   59 am 
    60   60   61 1  
    61   61   62 1  
    62   61   64 1  
    63   62   63 2  
    64   62   68 am 
    65   64   65 1  
    66   65   66 1  
    67   65   67 1  
    68   68   69 1  
    69   69   70 1  
    70   69   72 1  
    71   70   71 2  
    72   70   73 am 
    73   73   74 1  
    74   74   75 1  
    75   74   77 1  
    76   75   76 2  
    77   75   78 am 
    78   78   79 1  
    79   79   80 1  
    80   79   82 1  
    81   80   81 2  
    82   80   92 am 
    83   82   83 1  
    84   83   84 2  
    85   83   85 1  
    86   84   86 1  
    87   85   87 ar 
    88   85   88 ar 
    89   86   87 1  
    90   87   89 ar 
    91   88   90 ar 
    92   89   91 ar 
    93   90   91 ar 
    94   92   93 1  
    95   93   94 1  
    96   93   96 1  
    97   94   95 2  
    98   94   97 am 
    99   97   98 1  
   100   98   99 1  
   101   98  101 1  
   102   99  100 ar 
   103   99  104 ar 
   104  101  102 1  
   105  101  103 1  
   106    1  105 1  
   107    1  106 1  
   108    1  107 1  
   109    2  108 1  
   110    5  109 1  
   111    5  110 1  
   112    6  111 1  
   113    6  112 1  
   114   10  113 1  
   115   11  114 1  
   116   14  115 1  
   117   14  116 1  
   118   18  117 1  
   119   19  118 1  
   120   22  119 1  
   121   22  120 1  
   122   26  121 1  
   123   27  122 1  
   124   30  123 1  
   125   30  124 1  
   126   34  125 1  
   127   35  126 1  
   128   38  127 1  
   129   39  128 1  
   130   39  129 1  
   131   40  130 1  
   132   40  131 1  
   133   40  132 1  
   134   41  133 1  
   135   41  134 1  
   136   41  135 1  
   137   42  136 1  
   138   43  137 1  
   139   46  138 1  
   140   46  139 1  
   141   47  140 1  
   142   47  141 1  
   143   48  142 1  
   144   48  143 1  
   145   49  144 1  
   146   49  145 1  
   147   50  146 1  
   148   50  147 1  
   149   50  148 1  
   150   51  149 1  
   151   52  150 1  
   152   55  151 1  
   153   55  152 1  
   154   56  153 1  
   155   56  154 1  
   156   59  155 1  
   157   59  156 1  
   158   60  157 1  
   159   61  158 1  
   160   64  159 1  
   161   64  160 1  
   162   65  161 1  
   163   66  162 1  
   164   66  163 1  
   165   66  164 1  
   166   67  165 1  
   167   67  166 1  
   168   67  167 1  
   169   68  168 1  
   170   69  169 1  
   171   72  170 1  
   172   72  171 1  
   173   72  172 1  
   174   73  173 1  
   175   74  174 1  
   176   77  175 1  
   177   77  176 1  
   178   77  177 1  
   179   78  178 1  
   180   79  179 1  
   181   82  180 1  
   182   82  181 1  
   183   84  182 1  
   184   86  183 1  
   185   88  184 1  
   186   89  185 1  
   187   90  186 1  
   188   91  187 1  
   189   92  188 1  
   190   93  189 1  
   191   96  190 1  
   192   96  191 1  
   193   96  192 1  
   194   97  193 1  
   195   98  194 1  
   196  101  195 1  
   197  102  196 1  
   198  103  197 1  
   199  103  198 1  
   200  103  199 1  
@<TRIPOS>SUBSTRUCTURE
     1 GLU         1

