4pnq_ligand
  -I-interpret- 

 20 21  0  0  0  0  0  0  0  0999 V2000
   24.4930   46.0110   -1.0790 C   0  0  0  0  0
   25.3840   46.8000   -0.4030 C   0  0  0  0  0
   25.1910   48.2550   -0.3160 C   0  0  0  0  0
   27.2860   48.5740    0.9940 N   0  0  0  0  0
   26.1070   49.1110    0.4190 C   0  0  0  0  0
   25.8010   50.5020    0.5660 C   0  0  0  0  0
   24.5430   51.0410    0.0040 C   0  0  0  0  0
   23.6960   50.2150   -0.7900 C   0  0  0  0  0
   24.0130   48.8330   -0.9090 C   0  0  0  0  0
   23.1000   47.9650   -1.7040 C   0  0  0  0  0
   22.0990   48.3310   -2.3090 O   0  0  0  0  0
   23.3850   46.5920   -1.7310 N   0  0  0  0  0
   24.6398   44.9315   -1.1137 H   0  0  0  0  0
   26.2490   46.3431    0.0777 H   0  0  0  0  0
   27.4960   47.5809    0.8932 H   0  0  0  0  0
   27.9245   49.1806    1.5086 H   0  0  0  0  0
   26.4925   51.1616    1.0902 H   0  0  0  0  0
   24.2625   52.0762    0.1985 H   0  0  0  0  0
   22.8248   50.6324   -1.2949 H   0  0  0  0  0
   22.7564   45.9796   -2.2508 H   0  0  0  0  0
  1  2  2  0  0  0
  1 12  1  0  0  0
  2  3  1  0  0  0
  3  5  4  0  0  0
  3  9  4  0  0  0
  5  4  1  0  0  0
  5  6  4  0  0  0
  6  7  4  0  0  0
  7  8  4  0  0  0
  8  9  4  0  0  0
  9 10  1  0  0  0
 10 11  2  0  0  0
 10 12  1  0  0  0
  1 13  1  0  0  0
  2 14  1  0  0  0
  4 15  1  0  0  0
  4 16  1  0  0  0
  6 17  1  0  0  0
  7 18  1  0  0  0
  8 19  1  0  0  0
 12 20  1  0  0  0
M  END
$$$$
