5zhl_ligand
  -I-interpret- 

 61 63  0  0  0  0  0  0  0  0999 V2000
   -1.6120  -16.0540  -22.3070 C   0  0  0  0  0
   -0.3640  -15.8950  -21.4250 C   0  0  0  0  0
    0.3710  -17.2350  -21.2980 C   0  0  0  0  0
    0.0180  -17.9020  -19.9630 C   0  0  0  0  0
    0.7650  -19.2290  -19.8200 C   0  0  0  0  0
    0.7180  -19.6720  -18.3530 C   0  0  0  0  0
    1.2660  -21.1010  -18.2350 C   0  0  0  0  0
    1.9080  -21.3060  -16.8580 C   0  0  0  0  0
    3.2930  -20.8120  -16.8170 N   0  3  0  0  0
    4.0080  -21.1900  -15.5880 C   0  0  0  0  0
    4.0520  -20.1880  -14.5960 C   0  0  0  0  0
    5.2570  -19.5270  -14.2900 C   0  0  0  0  0
    5.3150  -18.5840  -13.2500 C   0  0  0  0  0
    2.9160  -19.9280  -13.8180 C   0  0  0  0  0
    2.9710  -18.9750  -12.7960 C   0  0  0  0  0
    4.1610  -18.2950  -12.5060 C   0  0  0  0  0
    4.1920  -17.3680  -11.4530 C   0  0  0  0  0
    4.1220  -18.0510  -10.1250 N   0  0  0  0  0
    4.9360  -17.7770   -9.0770 C   0  0  0  0  0
    5.8430  -16.9520   -9.2180 O   0  0  0  0  0
    4.8340  -18.4910   -7.8910 C   0  0  0  0  0
    3.9340  -19.4610   -7.4700 C   0  0  0  0  0
    2.8040  -20.0210   -8.0220 C   0  0  0  0  0
    2.3280  -19.7310   -9.1280 O   0  0  0  0  0
    2.0920  -21.0260   -7.3510 N   0  0  0  0  0
    2.3910  -21.4300   -6.1430 C   0  0  0  0  0
    3.5020  -20.8460   -5.5640 N   0  0  0  0  0
    4.2490  -19.9390   -6.2160 C   0  0  0  0  0
    5.5870  -19.2240   -5.5960 S   0  0  0  0  0
    5.7960  -18.2560   -6.9700 C   0  0  0  0  0
   -1.3134  -16.3926  -23.2991 H   0  0  0  0  0
   -2.2818  -16.7872  -21.8577 H   0  0  0  0  0
   -2.1230  -15.0946  -22.3877 H   0  0  0  0  0
   -0.6689  -15.5606  -20.4334 H   0  0  0  0  0
    0.3038  -15.1642  -21.8812 H   0  0  0  0  0
    1.4461  -17.0597  -21.3382 H   0  0  0  0  0
    0.0692  -17.8886  -22.1164 H   0  0  0  0  0
   -1.0549  -18.0920  -19.9324 H   0  0  0  0  0
    0.3076  -17.2404  -19.1466 H   0  0  0  0  0
    1.8014  -19.1032  -20.1332 H   0  0  0  0  0
    0.2943  -19.9855  -20.4479 H   0  0  0  0  0
   -0.3121  -19.6464  -17.9976 H   0  0  0  0  0
    1.3256  -18.9979  -17.7493 H   0  0  0  0  0
    2.0177  -21.2612  -19.0079 H   0  0  0  0  0
    0.4470  -21.8098  -18.3573 H   0  0  0  0  0
    1.9207  -22.3746  -16.6434 H   0  0  0  0  0
    1.3255  -20.7492  -16.1240 H   0  0  0  0  0
    3.2587  -19.7932  -16.8533 H   0  0  0  0  0
    3.7920  -21.2262  -17.6043 H   0  0  0  0  0
    5.0393  -21.3976  -15.8735 H   0  0  0  0  0
    3.4725  -22.0367  -15.1585 H   0  0  0  0  0
    6.1550  -19.7494  -14.8664 H   0  0  0  0  0
    6.2534  -18.0786  -13.0219 H   0  0  0  0  0
    1.9891  -20.4687  -14.0094 H   0  0  0  0  0
    2.0740  -18.7579  -12.2160 H   0  0  0  0  0
    3.3313  -16.7061  -11.5483 H   0  0  0  0  0
    5.1278  -16.8119  -11.5080 H   0  0  0  0  0
    3.4126  -18.7730   -9.9992 H   0  0  0  0  0
    1.7986  -22.1832   -5.6235 H   0  0  0  0  0
    3.7624  -21.1112   -4.6141 H   0  0  0  0  0
    6.6036  -17.5349   -7.0960 H   0  0  0  0  0
  1  2  1  0  0  0
  2  3  1  0  0  0
  3  4  1  0  0  0
  4  5  1  0  0  0
  5  6  1  0  0  0
  6  7  1  0  0  0
  7  8  1  0  0  0
  8  9  1  0  0  0
  9 10  1  0  0  0
 10 11  1  0  0  0
 11 12  4  0  0  0
 11 14  4  0  0  0
 12 13  4  0  0  0
 13 16  4  0  0  0
 14 15  4  0  0  0
 15 16  4  0  0  0
 16 17  1  0  0  0
 17 18  1  0  0  0
 18 19  1  0  0  0
 19 20  2  0  0  0
 19 21  1  0  0  0
 21 22  4  0  0  0
 21 30  4  0  0  0
 22 23  1  0  0  0
 22 28  4  0  0  0
 23 24  2  0  0  0
 23 25  1  0  0  0
 25 26  2  0  0  0
 26 27  1  0  0  0
 27 28  1  0  0  0
 28 29  4  0  0  0
 29 30  4  0  0  0
  1 31  1  0  0  0
  1 32  1  0  0  0
  1 33  1  0  0  0
  2 34  1  0  0  0
  2 35  1  0  0  0
  3 36  1  0  0  0
  3 37  1  0  0  0
  4 38  1  0  0  0
  4 39  1  0  0  0
  5 40  1  0  0  0
  5 41  1  0  0  0
  6 42  1  0  0  0
  6 43  1  0  0  0
  7 44  1  0  0  0
  7 45  1  0  0  0
  8 46  1  0  0  0
  8 47  1  0  0  0
  9 48  1  0  0  0
  9 49  1  0  0  0
 10 50  1  0  0  0
 10 51  1  0  0  0
 12 52  1  0  0  0
 13 53  1  0  0  0
 14 54  1  0  0  0
 15 55  1  0  0  0
 17 56  1  0  0  0
 17 57  1  0  0  0
 18 58  1  0  0  0
 26 59  1  0  0  0
 27 60  1  0  0  0
 30 61  1  0  0  0
M  END
$$$$
