### 
### Created by X-TOOL on Mon Sep 10 21:13:34 2018
### 

@<TRIPOS>MOLECULE
5knr_ligand
   49    50     1     0     0
SMALL
GAST_HUCK


@<TRIPOS>ATOM
      1 OAE       -13.5670   29.5630  -42.9240 O.co2     1 3L5        -0.5622
      2 PBB       -12.3350   29.7300  -42.0800 P.3       1 3L5         0.0600
      3 OAF       -12.5190   29.0020  -40.7700 O.co2     1 3L5        -0.5622
      4 OAC       -12.1040   31.2060  -41.8100 O.co2     1 3L5        -0.5622
      5 CAP       -10.9000   29.0390  -42.9570 C.3       1 3L5         0.0430
      6 CAK        -9.6610   28.9440  -42.0330 C.3       1 3L5         0.0626
      7 OAU        -8.6090   29.7330  -42.6000 O.3       1 3L5        -0.3771
      8 CAJ        -7.8060   30.3970  -41.6300 C.3       1 3L5         0.0604
      9 CAL        -6.4470   29.6600  -41.5150 C.3       1 3L5         0.0225
     10 NAZ        -6.0330   29.1340  -42.8130 N.3       1 3L5        -0.2962
     11 CAN        -5.0080   30.0070  -43.3860 C.3       1 3L5         0.0140
     12 CAQ        -5.4980   31.4500  -43.4730 C.3       1 3L5         0.0323
     13 PBC        -4.1910   32.6060  -43.0360 P.3       1 3L5         0.0591
     14 OAG        -3.1370   32.5800  -44.1030 O.co2     1 3L5        -0.5622
     15 OAH        -4.7620   34.0010  -42.9280 O.co2     1 3L5        -0.5622
     16 OAD        -3.5730   32.2090  -41.7060 O.co2     1 3L5        -0.5622
     17 CAM        -5.4510   27.7500  -42.6300 C.3       1 3L5         0.0267
     18 CAO        -6.5260   26.7640  -42.0470 C.3       1 3L5         0.0711
     19 N9         -6.1240   26.2840  -40.7280 N.pl3     1 3L5        -0.2379
     20 C4         -6.8410   25.4250  -39.9380 C.2       1 3L5         0.1135
     21 N3         -8.0310   24.7940  -40.0830 N.2       1 3L5        -0.2765
     22 C2         -8.5030   23.9990  -39.1400 C.2       1 3L5         0.2340
     23 N2         -9.7190   23.3850  -39.3450 N.pl3     1 3L5        -0.2807
     24 N1         -7.8370   23.7790  -38.0020 N.am      1 3L5        -0.1839
     25 C6         -6.6500   24.3650  -37.7730 C.2       1 3L5         0.2135
     26 O6         -5.9720   24.1230  -36.5820 O.2       1 3L5        -0.4091
     27 C5         -6.0900   25.2350  -38.7600 C.2       1 3L5         0.0925
     28 N7         -4.9580   25.9840  -38.8920 N.2       1 3L5        -0.3236
     29 C8         -5.0050   26.6050  -40.0840 C.2       1 3L5         0.0933
     30 H1        -10.6586   29.6864  -43.8129 H         1 3L5         0.0474
     31 H2        -11.1536   28.0318  -43.3192 H         1 3L5         0.0474
     32 H3         -9.3369   27.8958  -41.9536 H         1 3L5         0.0574
     33 H4         -9.9138   29.3264  -41.0331 H         1 3L5         0.0574
     34 H5         -8.3169   30.3839  -40.6559 H         1 3L5         0.0572
     35 H6         -7.6363   31.4383  -41.9411 H         1 3L5         0.0572
     36 H7         -6.5470   28.8272  -40.8033 H         1 3L5         0.0449
     37 H8         -5.6842   30.3640  -41.1509 H         1 3L5         0.0449
     38 H9         -4.7578   29.6515  -44.3964 H         1 3L5         0.0440
     39 H10        -4.1101   29.9706  -42.7516 H         1 3L5         0.0440
     40 H11        -6.3427   31.5848  -42.7814 H         1 3L5         0.0464
     41 H12        -5.8298   31.6552  -44.5015 H         1 3L5         0.0464
     42 H13        -4.5994   27.8060  -41.9360 H         1 3L5         0.0454
     43 H14        -5.1062   27.3723  -43.6039 H         1 3L5         0.0454
     44 H15        -6.6346   25.9055  -42.7261 H         1 3L5         0.0628
     45 H16        -7.4891   27.2887  -41.9623 H         1 3L5         0.0628
     46 H17       -10.2381   23.5496  -40.2193 H         1 3L5         0.1897
     47 H18       -10.1091   22.7614  -38.6240 H         1 3L5         0.1897
     48 H19        -8.2277   23.1699  -37.3118 H         1 3L5         0.2515
     49 H20        -4.2368   27.2749  -40.4673 H         1 3L5         0.1178
@<TRIPOS>BOND
     1    1    2 ar 
     2    2    3 ar 
     3    2    4 ar 
     4    2    5 1  
     5    5    6 1  
     6    6    7 1  
     7    7    8 1  
     8    8    9 1  
     9    9   10 1  
    10   10   11 1  
    11   10   17 1  
    12   11   12 1  
    13   12   13 1  
    14   13   14 ar 
    15   13   15 ar 
    16   13   16 ar 
    17   17   18 1  
    18   18   19 1  
    19   19   20 1  
    20   19   29 1  
    21   20   21 1  
    22   20   27 2  
    23   21   22 2  
    24   22   23 1  
    25   22   24 am 
    26   24   25 am 
    27   25   26 2  
    28   25   27 1  
    29   27   28 1  
    30   28   29 2  
    31    5   30 1  
    32    5   31 1  
    33    6   32 1  
    34    6   33 1  
    35    8   34 1  
    36    8   35 1  
    37    9   36 1  
    38    9   37 1  
    39   11   38 1  
    40   11   39 1  
    41   12   40 1  
    42   12   41 1  
    43   17   42 1  
    44   17   43 1  
    45   18   44 1  
    46   18   45 1  
    47   23   46 1  
    48   23   47 1  
    49   24   48 1  
    50   29   49 1  
@<TRIPOS>SUBSTRUCTURE
     1 3L5         1

