5knr_ligand
  -I-interpret- 

 53 54  0  0  0  0  0  0  0  0999 V2000
  -13.5670   29.5630  -42.9240 O   0  0  0  0  0
  -12.3350   29.7300  -42.0800 P   0  0  0  0  0
  -12.5190   29.0020  -40.7700 O   0  0  0  0  0
  -12.1040   31.2060  -41.8100 O   0  0  0  0  0
  -10.9000   29.0390  -42.9570 C   0  0  0  0  0
   -9.6610   28.9440  -42.0330 C   0  0  0  0  0
   -8.6090   29.7330  -42.6000 O   0  0  0  0  0
   -7.8060   30.3970  -41.6300 C   0  0  0  0  0
   -6.4470   29.6600  -41.5150 C   0  0  0  0  0
   -6.0330   29.1340  -42.8130 N   0  0  0  0  0
   -5.0080   30.0070  -43.3860 C   0  0  0  0  0
   -5.4980   31.4500  -43.4730 C   0  0  0  0  0
   -4.1910   32.6060  -43.0360 P   0  0  0  0  0
   -3.1370   32.5800  -44.1030 O   0  0  0  0  0
   -4.7620   34.0010  -42.9280 O   0  0  0  0  0
   -3.5730   32.2090  -41.7060 O   0  0  0  0  0
   -5.4510   27.7500  -42.6300 C   0  0  0  0  0
   -6.5260   26.7640  -42.0470 C   0  0  0  0  0
   -6.1240   26.2840  -40.7280 N   0  0  0  0  0
   -6.8410   25.4250  -39.9380 C   0  0  0  0  0
   -8.0310   24.7940  -40.0830 N   0  0  0  0  0
   -8.5030   23.9990  -39.1400 C   0  0  0  0  0
   -9.7190   23.3850  -39.3450 N   0  0  0  0  0
   -7.8370   23.7790  -38.0020 N   0  0  0  0  0
   -6.6500   24.3650  -37.7730 C   0  0  0  0  0
   -5.9720   24.1230  -36.5820 O   0  0  0  0  0
   -6.0900   25.2350  -38.7600 C   0  0  0  0  0
   -4.9580   25.9840  -38.8920 N   0  0  0  0  0
   -5.0050   26.6050  -40.0840 C   0  0  0  0  0
  -11.7312   29.1096  -40.2320 H   0  0  0  0  0
  -11.3169   31.3122  -41.2708 H   0  0  0  0  0
  -10.6576   29.6954  -43.7927 H   0  0  0  0  0
  -11.1543   28.0352  -43.2974 H   0  0  0  0  0
   -9.3412   27.9057  -41.9454 H   0  0  0  0  0
   -9.9094   29.3149  -41.0386 H   0  0  0  0  0
   -8.3123   30.3899  -40.6647 H   0  0  0  0  0
   -7.6404   31.4307  -41.9334 H   0  0  0  0  0
   -6.5545   28.8300  -40.8167 H   0  0  0  0  0
   -5.6930   30.3644  -41.1637 H   0  0  0  0  0
   -4.7755   29.6572  -44.3918 H   0  0  0  0  0
   -4.1270   29.9767  -42.7449 H   0  0  0  0  0
   -6.3256   31.5797  -42.7756 H   0  0  0  0  0
   -5.8123   31.6502  -44.4973 H   0  0  0  0  0
   -5.4365   34.0175  -42.2451 H   0  0  0  0  0
   -4.2477   32.2257  -41.0233 H   0  0  0  0  0
   -4.6151   27.8100  -41.9330 H   0  0  0  0  0
   -5.1215   27.3767  -43.5996 H   0  0  0  0  0
   -6.6225   25.9107  -42.7183 H   0  0  0  0  0
   -7.4755   27.2915  -41.9559 H   0  0  0  0  0
  -10.2337   23.5489  -40.2102 H   0  0  0  0  0
  -10.1047   22.7664  -38.6315 H   0  0  0  0  0
   -8.2355   23.1578  -37.2980 H   0  0  0  0  0
   -4.2361   27.2756  -40.4677 H   0  0  0  0  0
  1  2  2  0  0  0
  2  3  1  0  0  0
  2  4  1  0  0  0
  2  5  1  0  0  0
  5  6  1  0  0  0
  6  7  1  0  0  0
  7  8  1  0  0  0
  8  9  1  0  0  0
  9 10  1  0  0  0
 10 11  1  0  0  0
 10 17  1  0  0  0
 11 12  1  0  0  0
 12 13  1  0  0  0
 13 14  2  0  0  0
 13 15  1  0  0  0
 13 16  1  0  0  0
 17 18  1  0  0  0
 18 19  1  0  0  0
 19 20  4  0  0  0
 19 29  4  0  0  0
 20 21  1  0  0  0
 20 27  4  0  0  0
 21 22  2  0  0  0
 22 23  1  0  0  0
 22 24  1  0  0  0
 24 25  1  0  0  0
 25 26  2  0  0  0
 25 27  1  0  0  0
 27 28  4  0  0  0
 28 29  4  0  0  0
  3 30  1  0  0  0
  4 31  1  0  0  0
  5 32  1  0  0  0
  5 33  1  0  0  0
  6 34  1  0  0  0
  6 35  1  0  0  0
  8 36  1  0  0  0
  8 37  1  0  0  0
  9 38  1  0  0  0
  9 39  1  0  0  0
 11 40  1  0  0  0
 11 41  1  0  0  0
 12 42  1  0  0  0
 12 43  1  0  0  0
 15 44  1  0  0  0
 16 45  1  0  0  0
 17 46  1  0  0  0
 17 47  1  0  0  0
 18 48  1  0  0  0
 18 49  1  0  0  0
 23 50  1  0  0  0
 23 51  1  0  0  0
 24 52  1  0  0  0
 29 53  1  0  0  0
M  END
$$$$
