4dkq_ligand
  -I-interpret- 

 44 46  0  0  0  0  0  0  0  0999 V2000
   -3.8260  -15.8600   13.8350 C   0  0  0  0  0
   -4.0550  -15.7730   16.2360 C   0  0  0  0  0
   -5.4280  -15.2510   18.7170 C   0  0  0  0  0
   -6.1430  -15.3690   17.5400 C   0  0  0  0  0
   -5.4860  -15.6230   16.2930 C   0  0  0  0  0
   -4.7840  -15.0910    7.1930 C   0  0  0  0  0
   -4.1900  -15.8270    8.2640 C   0  0  0  0  0
   -3.2570  -15.2320    9.0490 C   0  0  0  0  0
   -2.9020  -13.9170    8.7840 C   0  0  0  0  0
   -3.4830  -13.1850    7.7370 C   0  0  0  0  0
   -4.4260  -13.7940    6.9490 C   0  0  0  0  0
   -2.5120  -15.7850   10.1840 C   0  0  0  0  0
   -1.3640  -14.6510   10.4150 C   0  0  0  0  0
   -1.8660  -13.4420    9.7450 C   0  0  0  0  0
   -0.0380  -15.0850    9.7750 N   0  0  0  0  0
   -3.3590  -15.9780   11.4590 N   0  0  0  0  0
   -2.8950  -16.1300   12.6930 C   0  0  0  0  0
   -3.3810  -15.9950   15.0670 N   0  0  0  0  0
   -5.0640  -15.5020   13.5190 O   0  0  0  0  0
   -1.7190  -16.4870   12.9070 O   0  0  0  0  0
   -3.3560  -15.6370   17.4170 C   0  0  0  0  0
   -4.0600  -15.3740   18.6870 C   0  0  0  0  0
   -6.2800  -14.9340   20.2090 Cl  0  0  0  0  0
   -7.4520  -15.2540   17.5610 F   0  0  0  0  0
    0.5970  -16.1340   10.0420 C   0  0  0  0  0
    0.1800  -17.0470   10.9990 N   0  0  0  0  0
    1.7930  -16.4120    9.3670 N   0  0  0  0  0
   -6.0744  -15.7035   15.3790 H   0  0  0  0  0
   -5.5327  -15.5699    6.5619 H   0  0  0  0  0
   -4.4846  -16.8600    8.4492 H   0  0  0  0  0
   -3.1901  -12.1513    7.5534 H   0  0  0  0  0
   -4.8894  -13.2449    6.1294 H   0  0  0  0  0
   -2.1384  -16.7882    9.9788 H   0  0  0  0  0
   -1.1739  -14.4876   11.4758 H   0  0  0  0  0
   -2.2819  -12.7332   10.4611 H   0  0  0  0  0
   -1.0647  -12.9073    9.2349 H   0  0  0  0  0
    0.3625  -14.4659    9.0702 H   0  0  0  0  0
   -4.3722  -15.9899   11.3424 H   0  0  0  0  0
   -2.4133  -16.3035   15.1610 H   0  0  0  0  0
   -2.2696  -15.7249   17.4123 H   0  0  0  0  0
   -3.4890  -15.2764   19.6103 H   0  0  0  0  0
   -0.6791  -16.8801   11.5230 H   0  0  0  0  0
    2.3184  -17.2580    9.5877 H   0  0  0  0  0
    2.1382  -15.7684    8.6549 H   0  0  0  0  0
 17  1  1  0  0  0
  1 18  1  0  0  0
  1 19  2  0  0  0
  2  5  4  0  0  0
 18  2  1  0  0  0
  2 21  4  0  0  0
  4  3  4  0  0  0
  3 22  4  0  0  0
  3 23  1  0  0  0
  5  4  4  0  0  0
  4 24  1  0  0  0
  7  6  4  0  0  0
  6 11  4  0  0  0
  8  7  4  0  0  0
  8  9  4  0  0  0
 12  8  1  0  0  0
  9 10  4  0  0  0
 14  9  1  0  0  0
 10 11  4  0  0  0
 12 13  1  0  0  0
 16 12  1  0  0  0
 13 14  1  0  0  0
 13 15  1  0  0  0
 15 25  1  0  0  0
 16 17  1  0  0  0
 17 20  2  0  0  0
 21 22  4  0  0  0
 25 26  2  0  0  0
 25 27  1  0  0  0
  5 28  1  0  0  0
  6 29  1  0  0  0
  7 30  1  0  0  0
 10 31  1  0  0  0
 11 32  1  0  0  0
 12 33  1  0  0  0
 13 34  1  0  0  0
 14 35  1  0  0  0
 14 36  1  0  0  0
 15 37  1  0  0  0
 16 38  1  0  0  0
 18 39  1  0  0  0
 21 40  1  0  0  0
 22 41  1  0  0  0
 26 42  1  0  0  0
 27 43  1  0  0  0
 27 44  1  0  0  0
M  END
$$$$
