3bgp_ligand
  -I-interpret- 

 34 37  0  0  0  0  0  0  0  0999 V2000
   20.1800   30.8870   -1.0710 N   0  0  0  0  0
   20.7840   31.5580   -0.0210 C   0  0  0  0  0
   20.9980   30.9140    1.1410 N   0  0  0  0  0
   21.5830   31.5320    2.1850 C   0  0  0  0  0
   21.9800   32.8730    2.0710 C   0  0  0  0  0
   21.7410   33.5360    0.8290 C   0  0  0  0  0
   21.1440   32.8410   -0.1750 N   0  0  0  0  0
   22.1290   34.9740    0.6120 C   0  0  0  0  0
   22.3240   35.8590    1.7310 C   0  0  0  0  0
   22.6790   37.1840    1.5580 C   0  0  0  0  0
   22.8630   37.7150    0.2330 C   0  0  0  0  0
   23.1850   38.8750   -0.2820 N   0  0  0  0  0
   23.2210   38.8600   -1.4880 O   0  0  0  0  0
   22.9240   37.6680   -2.0420 C   0  0  0  0  0
   22.8980   37.3920   -3.5140 C   0  0  0  0  0
   22.6760   36.0790   -4.0550 C   0  0  0  0  0
   22.6630   35.8870   -5.4520 C   0  0  0  0  0
   22.8700   36.9850   -6.3200 C   0  0  0  0  0
   22.8530   36.7450   -8.0380 Cl  0  0  0  0  0
   23.0880   38.2740   -5.7990 C   0  0  0  0  0
   23.1040   38.4840   -4.4140 C   0  0  0  0  0
   22.6630   36.8070   -0.9450 C   0  0  0  0  0
   22.2970   35.4470   -0.7110 C   0  0  0  0  0
   19.9011   29.9122   -0.9602 H   0  0  0  0  0
   20.0140   31.3676   -1.9552 H   0  0  0  0  0
   21.7478   30.9913    3.1170 H   0  0  0  0  0
   22.4554   33.3918    2.9034 H   0  0  0  0  0
   22.1881   35.4740    2.7416 H   0  0  0  0  0
   22.8197   37.8275    2.4265 H   0  0  0  0  0
   22.5179   35.2328   -3.3864 H   0  0  0  0  0
   22.4934   34.8920   -5.8634 H   0  0  0  0  0
   23.2452   39.1133   -6.4765 H   0  0  0  0  0
   23.2745   39.4859   -4.0200 H   0  0  0  0  0
   22.1467   34.7716   -1.5532 H   0  0  0  0  0
  1  2  1  0  0  0
  2  3  4  0  0  0
  2  7  4  0  0  0
  3  4  4  0  0  0
  4  5  4  0  0  0
  5  6  4  0  0  0
  6  7  4  0  0  0
  6  8  1  0  0  0
  8  9  4  0  0  0
  8 23  4  0  0  0
  9 10  4  0  0  0
 10 11  4  0  0  0
 11 12  4  0  0  0
 11 22  4  0  0  0
 12 13  4  0  0  0
 13 14  4  0  0  0
 14 15  1  0  0  0
 14 22  4  0  0  0
 15 16  4  0  0  0
 15 21  4  0  0  0
 16 17  4  0  0  0
 17 18  4  0  0  0
 18 19  1  0  0  0
 18 20  4  0  0  0
 20 21  4  0  0  0
 22 23  4  0  0  0
  1 24  1  0  0  0
  1 25  1  0  0  0
  4 26  1  0  0  0
  5 27  1  0  0  0
  9 28  1  0  0  0
 10 29  1  0  0  0
 16 30  1  0  0  0
 17 31  1  0  0  0
 20 32  1  0  0  0
 21 33  1  0  0  0
 23 34  1  0  0  0
M  END
$$$$
