6aqs_ligand
  -I-interpret- 

 36 38  0  0  0  0  0  0  0  0999 V2000
   -5.5450   33.6540   10.6530 N   0  0  0  0  0
   -5.3220   33.5130   11.9900 C   0  0  0  0  0
   -5.1340   34.6430   12.7380 N   0  0  0  0  0
   -5.2910   32.2880   12.5990 N   0  0  0  0  0
   -5.4650   31.1720   11.8380 C   0  0  0  0  0
   -5.7100   31.2410   10.3910 C   0  0  0  0  0
   -5.7380   32.6080    9.8240 C   0  0  0  0  0
   -5.9390   32.7850    8.6100 O   0  0  0  0  0
   -5.8520   29.9820    9.9290 N   0  0  0  0  0
   -5.7300   29.0820   10.9440 C   0  0  0  0  0
   -5.5070   29.7280   12.1670 C   0  0  0  0  0
   -6.3570   28.8340   14.4680 N   0  3  0  0  0
   -5.2850   29.0190   13.4740 C   0  0  0  0  0
   -6.5490   30.0230   15.3230 C   0  0  0  0  0
   -7.9890   29.9020   15.8240 C   0  0  0  0  0
   -8.0530   29.2220   17.0850 O   0  0  0  0  0
   -8.7260   29.1390   14.7330 C   0  0  0  0  0
   -9.5430   30.0540   13.8320 C   0  0  0  0  0
  -10.0670   29.2970   12.7270 O   0  0  0  0  0
   -7.6610   28.4040   13.9150 C   0  0  0  0  0
   -5.1628   35.5601   12.2925 H   0  0  0  0  0
   -5.1403   32.2120   13.6049 H   0  0  0  0  0
   -5.7971   28.0010   10.8209 H   0  0  0  0  0
   -6.0139   28.0593   15.0360 H   0  0  0  0  0
   -4.5710   29.6607   13.9903 H   0  0  0  0  0
   -5.0451   28.0001   13.1700 H   0  0  0  0  0
   -6.3819   30.9515   14.7770 H   0  0  0  0  0
   -5.8316   30.0582   16.1429 H   0  0  0  0  0
   -8.4384   30.8786   16.0040 H   0  0  0  0  0
   -8.9680   29.1635   17.3696 H   0  0  0  0  0
   -9.4383   28.4497   15.1863 H   0  0  0  0  0
   -8.9065   30.8543   13.4544 H   0  0  0  0  0
  -10.3674   30.4827   14.4018 H   0  0  0  0  0
  -10.5820   29.8755   12.1598 H   0  0  0  0  0
   -7.7838   27.3232   13.9855 H   0  0  0  0  0
   -7.7401   28.6448   12.8549 H   0  0  0  0  0
  1  2  4  0  0  0
  1  7  1  0  0  0
  2  3  2  0  0  0
  2  4  1  0  0  0
  4  5  1  0  0  0
  5  6  4  0  0  0
  5 11  4  0  0  0
  6  7  1  0  0  0
  6  9  4  0  0  0
  7  8  2  0  0  0
  9 10  4  0  0  0
 10 11  4  0  0  0
 11 13  1  0  0  0
 13 12  1  0  0  0
 12 14  1  0  0  0
 12 20  1  0  0  0
 14 15  1  0  0  0
 15 16  1  0  0  0
 15 17  1  0  0  0
 17 18  1  0  0  0
 17 20  1  0  0  0
 18 19  1  0  0  0
  3 21  1  0  0  0
  4 22  1  0  0  0
 10 23  1  0  0  0
 12 24  1  0  0  0
 13 25  1  0  0  0
 13 26  1  0  0  0
 14 27  1  0  0  0
 14 28  1  0  0  0
 15 29  1  0  0  0
 16 30  1  0  0  0
 17 31  1  0  0  0
 18 32  1  0  0  0
 18 33  1  0  0  0
 19 34  1  0  0  0
 20 35  1  0  0  0
 20 36  1  0  0  0
M  END
$$$$
