1c83_ligand
  -I-interpret- 

 25 26  0  0  0  0  0  0  0  0999 V2000
   45.2730   11.8160    2.0900 C   0  0  0  0  0
   45.4060   12.8930    2.9080 C   0  0  0  0  0
   44.7280   14.0900    2.6170 C   0  0  0  0  0
   43.9300   14.1620    1.4510 C   0  0  0  0  0
   43.7760   13.0250    0.6270 C   0  0  0  0  0
   44.4320   11.8720    0.9520 C   0  0  0  0  0
   44.5060   10.6040    0.3000 C   0  0  0  0  0
   45.4200    9.8590    1.0550 C   0  0  0  0  0
   45.8610   10.5730    2.1030 N   0  0  0  0  0
   44.8250   15.1820    3.4280 N   0  0  0  0  0
   45.4730   15.3880    4.6380 C   0  0  0  0  0
   45.1660   16.7690    5.2480 C   0  0  0  0  0
   45.8860   17.4310    5.9040 O   0  0  0  0  0
   43.8630   17.1050    5.1330 O   0  0  0  0  0
   46.0400   14.4980    5.2770 O   0  0  0  0  0
   43.3010   15.4190    1.0660 C   0  0  0  0  0
   43.0980   16.2930    1.8560 O   0  0  0  0  0
   42.9630   15.4370   -0.2200 O   0  0  0  0  0
   46.0401   12.8288    3.7923 H   0  0  0  0  0
   43.1410   13.0674   -0.2579 H   0  0  0  0  0
   43.9675   10.2850   -0.5924 H   0  0  0  0  0
   45.7306    8.8401    0.8239 H   0  0  0  0  0
   44.3277   16.0017    3.0799 H   0  0  0  0  0
   43.4182   16.4684    4.5686 H   0  0  0  0  0
   43.2381   14.6155   -0.6335 H   0  0  0  0  0
  1  9  4  0  0  0
  1  6  4  0  0  0
  1  2  4  0  0  0
  2  3  4  0  0  0
  3 10  1  0  0  0
  3  4  4  0  0  0
  4 16  1  0  0  0
  4  5  4  0  0  0
  5  6  4  0  0  0
  6  7  4  0  0  0
  7  8  4  0  0  0
  8  9  4  0  0  0
 16 18  1  0  0  0
 16 17  2  0  0  0
 10 11  1  0  0  0
 11 15  2  0  0  0
 11 12  1  0  0  0
 12 14  1  0  0  0
 12 13  2  0  0  0
  2 19  1  0  0  0
  5 20  1  0  0  0
  7 21  1  0  0  0
  8 22  1  0  0  0
 10 23  1  0  0  0
 14 24  1  0  0  0
 18 25  1  0  0  0
M  END
$$$$
