2uy4_ligand
  -I-interpret- 

 19 19  0  0  0  0  0  0  0  0999 V2000
   38.1430   20.2690   22.3930 C   0  0  0  0  0
   38.2450   20.9340   24.6690 C   0  0  0  0  0
   38.7520   22.7650   26.0550 C   0  0  0  0  0
   38.8830   23.1260   27.5120 C   0  0  0  0  0
   36.5850   20.1440   20.2020 N   0  0  0  0  0
   37.9070   19.6430   24.4510 N   0  0  0  0  0
   37.8560   19.2870   23.2430 N   0  0  0  0  0
   38.3900   21.5060   25.8640 N   0  0  0  0  0
   38.7910   18.8180   20.2920 O   0  0  0  0  0
   38.8970   21.2590   20.0970 O   0  0  0  0  0
   38.9690   23.6020   25.1840 O   0  0  0  0  0
   38.1430   20.1190   20.6910 S   0  0  0  0  0
   38.5130   21.7020   23.2090 S   0  0  0  0  0
   39.9034   23.4517   27.7140 H   0  0  0  0  0
   38.1892   23.9326   27.7490 H   0  0  0  0  0
   38.6509   22.2540   28.1234 H   0  0  0  0  0
   36.1941   19.3447   19.7033 H   0  0  0  0  0
   36.0028   20.9589   20.3953 H   0  0  0  0  0
   38.2095   20.9339   26.6889 H   0  0  0  0  0
  1  7  4  0  0  0
  1 12  1  0  0  0
 13  1  4  0  0  0
  2  6  4  0  0  0
  8  2  1  0  0  0
  2 13  4  0  0  0
  3  4  1  0  0  0
  3  8  1  0  0  0
  3 11  2  0  0  0
 12  5  1  0  0  0
  6  7  4  0  0  0
 12  9  2  0  0  0
 12 10  2  0  0  0
  4 14  1  0  0  0
  4 15  1  0  0  0
  4 16  1  0  0  0
  5 17  1  0  0  0
  5 18  1  0  0  0
  8 19  1  0  0  0
M  END
$$$$
