2ypp_ligand
  -I-interpret- 

 25 25  0  0  0  0  0  0  0  0999 V2000
   92.9520  -38.7030  -18.4690 N   0  3  0  0  0
   93.3150  -40.0780  -18.9820 C   0  0  0  0  0
   93.6010  -41.0200  -17.7660 C   0  0  0  0  0
   93.8150  -40.5520  -16.6500 O   0  0  0  0  0
   94.5600  -39.9780  -19.8060 C   0  0  0  0  0
   95.8200  -39.4520  -19.0930 C   0  0  0  0  0
   95.9870  -38.1090  -18.8050 C   0  0  0  0  0
   96.8920  -40.2570  -18.9320 C   0  0  0  0  0
   97.1520  -37.6190  -18.2350 C   0  0  0  0  0
   98.0590  -39.7960  -18.3680 C   0  0  0  0  0
   98.1850  -38.4840  -18.0220 C   0  0  0  0  0
   99.4000  -38.0930  -17.5320 O   0  0  0  0  0
   93.5430  -42.2440  -17.9420 O   0  0  0  0  0
   92.1036  -38.7645  -17.9062 H   0  0  0  0  0
   93.7156  -38.3423  -17.8969 H   0  0  0  0  0
   92.7928  -38.0778  -19.2590 H   0  0  0  0  0
   92.4950  -40.4741  -19.5810 H   0  0  0  0  0
   94.3404  -39.2604  -20.5965 H   0  0  0  0  0
   94.7949  -40.9949  -20.1202 H   0  0  0  0  0
   95.1780  -37.4151  -19.0332 H   0  0  0  0  0
   96.8314  -41.2959  -19.2563 H   0  0  0  0  0
   97.2404  -36.5671  -17.9634 H   0  0  0  0  0
   98.8872  -40.4838  -18.1970 H   0  0  0  0  0
   99.9763  -38.8575  -17.4611 H   0  0  0  0  0
   93.3697  -42.4250  -18.8687 H   0  0  0  0  0
  1  2  1  0  0  0
  2  3  1  0  0  0
  2  5  1  0  0  0
  3  4  2  0  0  0
  3 13  1  0  0  0
  5  6  1  0  0  0
  6  7  4  0  0  0
  6  8  4  0  0  0
  7  9  4  0  0  0
  8 10  4  0  0  0
  9 11  4  0  0  0
 10 11  4  0  0  0
 11 12  1  0  0  0
  1 14  1  0  0  0
  1 15  1  0  0  0
  1 16  1  0  0  0
  2 17  1  0  0  0
  5 18  1  0  0  0
  5 19  1  0  0  0
  7 20  1  0  0  0
  8 21  1  0  0  0
  9 22  1  0  0  0
 10 23  1  0  0  0
 12 24  1  0  0  0
 13 25  1  0  0  0
M  END
$$$$
