### 
### Created by X-TOOL on Mon Sep 10 21:12:55 2018
### 

@<TRIPOS>MOLECULE
2hr6_ligand
   35    36     1     0     0
SMALL
GAST_HUCK


@<TRIPOS>ATOM
      1 N1         -7.5800   31.4320    4.6140 N.am      1 DUD        -0.1618
      2 C2         -6.5680   30.6590    4.1380 C.2       1 DUD         0.3327
      3 N3         -5.5670   31.2790    3.4090 N.am      1 DUD        -0.1865
      4 C4         -5.5250   32.6300    3.1130 C.2       1 DUD         0.1822
      5 C5         -6.5490   33.4520    3.6180 C.2       1 DUD         0.0062
      6 C6         -7.5660   32.8260    4.3430 C.2       1 DUD         0.0590
      7 O2         -6.5240   29.4420    4.3270 O.2       1 DUD        -0.3815
      8 O4         -4.5580   33.0550    2.4610 O.2       1 DUD        -0.4124
      9 C1'        -8.6640   30.8650    5.4150 C.3       1 DUD         0.1800
     10 C2'        -8.5210   31.3080    6.8780 C.3       1 DUD         0.0316
     11 C3'        -9.6060   32.3650    7.0550 C.3       1 DUD         0.0890
     12 C4'       -10.6370   31.9570    6.0000 C.3       1 DUD         0.1163
     13 O4'        -9.8770   31.3790    4.9170 O.3       1 DUD        -0.3387
     14 O3'       -10.0790   32.3560    8.3890 O.3       1 DUD        -0.3890
     15 C5'       -11.4910   33.1070    5.4880 C.3       1 DUD         0.1131
     16 O5'       -10.6700   34.1550    4.9760 O.3       1 DUD        -0.2436
     17 PA        -11.3590   35.5570    4.5440 P.3       1 DUD         0.3276
     18 O1A       -12.3900   35.9570    5.5870 O.co2     1 DUD        -0.5556
     19 O2A       -10.2420   36.5740    4.2780 O.co2     1 DUD        -0.5556
     20 O3A       -12.0240   35.3080    3.1290 O.3       1 DUD        -0.1548
     21 PB        -13.4800   35.4960    2.5250 P.3       1 DUD         0.2069
     22 O1B       -14.4910   36.2720    3.3350 O.co2     1 DUD        -0.5891
     23 O2B       -13.4400   35.6020    1.0390 O.co2     1 DUD        -0.5891
     24 O3B       -13.9690   33.9680    2.6350 O.co2     1 DUD        -0.5891
     25 H1         -4.8188   30.7078    3.0714 H         1 DUD         0.2259
     26 H2         -6.5489   34.5282    3.4512 H         1 DUD         0.0258
     27 H3         -8.3867   33.4357    4.7180 H         1 DUD         0.1178
     28 H4         -8.6524   29.7671    5.3487 H         1 DUD         0.0970
     29 H5         -7.5247   31.7370    7.0604 H         1 DUD         0.0345
     30 H6         -8.6861   30.4611    7.5603 H         1 DUD         0.0345
     31 H7         -9.2174   33.3693    6.8304 H         1 DUD         0.0622
     32 H8        -11.3079   31.1987    6.4300 H         1 DUD         0.0650
     33 H9        -10.8063   32.9618    8.4700 H         1 DUD         0.2099
     34 H10       -12.1027   33.4984    6.3142 H         1 DUD         0.0648
     35 H11       -12.1489   32.7395    4.6867 H         1 DUD         0.0648
@<TRIPOS>BOND
     1    1    2 am 
     2    1    6 1  
     3    1    9 1  
     4    2    3 am 
     5    2    7 2  
     6    3    4 am 
     7    4    5 1  
     8    4    8 2  
     9    5    6 2  
    10    9   10 1  
    11    9   13 1  
    12   10   11 1  
    13   11   12 1  
    14   11   14 1  
    15   12   13 1  
    16   12   15 1  
    17   15   16 1  
    18   16   17 1  
    19   17   18 ar 
    20   17   19 ar 
    21   17   20 1  
    22   20   21 1  
    23   21   22 ar 
    24   21   23 ar 
    25   21   24 ar 
    26    3   25 1  
    27    5   26 1  
    28    6   27 1  
    29    9   28 1  
    30   10   29 1  
    31   10   30 1  
    32   11   31 1  
    33   12   32 1  
    34   14   33 1  
    35   15   34 1  
    36   15   35 1  
@<TRIPOS>SUBSTRUCTURE
     1 DUD         1

