2hr6_ligand
  -I-interpret- 

 38 39  0  0  0  0  0  0  0  0999 V2000
   -7.5800   31.4320    4.6140 N   0  0  0  0  0
   -6.5680   30.6590    4.1380 C   0  0  0  0  0
   -5.5670   31.2790    3.4090 N   0  0  0  0  0
   -5.5250   32.6300    3.1130 C   0  0  0  0  0
   -6.5490   33.4520    3.6180 C   0  0  0  0  0
   -7.5660   32.8260    4.3430 C   0  0  0  0  0
   -6.5240   29.4420    4.3270 O   0  0  0  0  0
   -4.5580   33.0550    2.4610 O   0  0  0  0  0
   -8.6640   30.8650    5.4150 C   0  0  0  0  0
   -8.5210   31.3080    6.8780 C   0  0  0  0  0
   -9.6060   32.3650    7.0550 C   0  0  0  0  0
  -10.6370   31.9570    6.0000 C   0  0  0  0  0
   -9.8770   31.3790    4.9170 O   0  0  0  0  0
  -10.0790   32.3560    8.3890 O   0  0  0  0  0
  -11.4910   33.1070    5.4880 C   0  0  0  0  0
  -10.6700   34.1550    4.9760 O   0  0  0  0  0
  -11.3590   35.5570    4.5440 P   0  0  0  0  0
  -12.3900   35.9570    5.5870 O   0  0  0  0  0
  -10.2420   36.5740    4.2780 O   0  0  0  0  0
  -12.0240   35.3080    3.1290 O   0  0  0  0  0
  -13.4800   35.4960    2.5250 P   0  0  0  0  0
  -14.4910   36.2720    3.3350 O   0  0  0  0  0
  -13.4400   35.6020    1.0390 O   0  0  0  0  0
  -13.9690   33.9680    2.6350 O   0  0  0  0  0
   -4.8039   30.6964    3.0646 H   0  0  0  0  0
   -6.5489   34.5291    3.4511 H   0  0  0  0  0
   -8.3874   33.4363    4.7183 H   0  0  0  0  0
   -8.6360   29.7767    5.3611 H   0  0  0  0  0
   -7.5266   31.6982    7.0948 H   0  0  0  0  0
   -8.6384   30.4768    7.5733 H   0  0  0  0  0
   -9.2892   33.3976    6.9084 H   0  0  0  0  0
  -11.3501   31.2622    6.4437 H   0  0  0  0  0
  -10.7609   33.0241    8.4901 H   0  0  0  0  0
  -12.0876   33.4974    6.3125 H   0  0  0  0  0
  -12.1337   32.7398    4.6879 H   0  0  0  0  0
   -9.6481   36.2275    3.6080 H   0  0  0  0  0
  -14.3674   36.0802    4.2675 H   0  0  0  0  0
  -14.0505   33.7251    3.5602 H   0  0  0  0  0
  1  2  1  0  0  0
  1  6  1  0  0  0
  1  9  1  0  0  0
  2  3  1  0  0  0
  2  7  2  0  0  0
  3  4  1  0  0  0
  4  5  1  0  0  0
  4  8  2  0  0  0
  5  6  2  0  0  0
  9 10  1  0  0  0
  9 13  1  0  0  0
 10 11  1  0  0  0
 11 12  1  0  0  0
 11 14  1  0  0  0
 12 13  1  0  0  0
 12 15  1  0  0  0
 15 16  1  0  0  0
 16 17  1  0  0  0
 17 18  2  0  0  0
 17 19  1  0  0  0
 17 20  1  0  0  0
 20 21  1  0  0  0
 21 22  1  0  0  0
 21 23  2  0  0  0
 21 24  1  0  0  0
  3 25  1  0  0  0
  5 26  1  0  0  0
  6 27  1  0  0  0
  9 28  1  0  0  0
 10 29  1  0  0  0
 10 30  1  0  0  0
 11 31  1  0  0  0
 12 32  1  0  0  0
 14 33  1  0  0  0
 15 34  1  0  0  0
 15 35  1  0  0  0
 19 36  1  0  0  0
 22 37  1  0  0  0
 24 38  1  0  0  0
M  END
$$$$
