6dsp_ligand
  -I-interpret- 

 20 20  0  0  0  0  0  0  0  0999 V2000
   29.1620   67.4290   99.8080 O   0  0  0  0  0
   28.9840   66.8510   98.4990 C   0  0  0  0  0
   29.8360   65.5790   98.2880 C   0  0  0  0  0
   29.6560   67.8640   97.5630 O   0  0  0  0  0
   29.0850   67.7110   96.3370 C   0  0  0  0  0
   27.8760   66.7710   96.4970 C   0  0  0  0  0
   26.7500   67.2810   95.7900 O   0  0  0  0  0
   27.7100   66.7370   98.0200 C   0  0  0  0  0
   27.1430   65.5210   98.4250 O   0  0  0  0  0
   26.9350   67.8340   98.4490 O   0  0  0  0  0
   30.0975   67.4506  100.0225 H   0  0  0  0  0
   29.3668   64.7397   98.8013 H   0  0  0  0  0
   29.9049   65.3621   97.2220 H   0  0  0  0  0
   30.8351   65.7413   98.6924 H   0  0  0  0  0
   29.8033   67.2886   95.6343 H   0  0  0  0  0
   28.7653   68.6763   95.9446 H   0  0  0  0  0
   27.9963   65.7707   96.0811 H   0  0  0  0  0
   26.9330   67.2691   94.8477 H   0  0  0  0  0
   27.6920   64.7955   98.1188 H   0  0  0  0  0
   27.3481   68.6499   98.1571 H   0  0  0  0  0
  1  2  1  0  0  0
  2  3  1  0  0  0
  2  4  1  0  0  0
  2  8  1  0  0  0
  4  5  1  0  0  0
  5  6  1  0  0  0
  6  7  1  0  0  0
  6  8  1  0  0  0
  8  9  1  0  0  0
  8 10  1  0  0  0
  1 11  1  0  0  0
  3 12  1  0  0  0
  3 13  1  0  0  0
  3 14  1  0  0  0
  5 15  1  0  0  0
  5 16  1  0  0  0
  6 17  1  0  0  0
  7 18  1  0  0  0
  9 19  1  0  0  0
 10 20  1  0  0  0
M  END
$$$$
