2nwn_ligand
  -I-interpret- 

193196  0  0  0  0  0  0  0  0999 V2000
   83.5090   50.1260  -17.5760 N   0  3  0  0  0
   83.0820   48.9530  -16.7590 C   0  0  0  0  0
   84.2520   48.0630  -16.3690 C   0  0  0  0  0
   84.1130   47.1820  -15.5240 O   0  0  0  0  0
   82.0540   48.1170  -17.5230 C   0  0  0  0  0
   80.4130   48.8850  -17.6580 S   0  0  0  0  0
   85.4010   48.2950  -16.9930 N   0  0  0  0  0
   86.5960   47.5120  -16.7110 C   0  0  0  0  0
   87.5140   48.1880  -15.6950 C   0  0  0  0  0
   88.4270   47.5560  -15.1660 O   0  0  0  0  0
   87.3790   47.2630  -18.0020 C   0  0  0  0  0
   86.6350   46.4660  -18.9020 O   0  0  0  0  0
   87.2640   49.4620  -15.4130 N   0  0  0  0  0
   88.1060   50.2120  -14.4860 C   0  0  0  0  0
   87.5030   50.4060  -13.0970 C   0  0  0  0  0
   86.3340   50.1020  -12.8690 O   0  0  0  0  0
   88.4260   51.5870  -15.0780 C   0  0  0  0  0
   88.8090   51.5630  -16.5290 C   0  0  0  0  0
   89.4370   50.5510  -17.2000 C   0  0  0  0  0
   88.6350   52.6230  -17.4760 C   0  0  0  0  0
   89.6640   50.9160  -18.5030 N   0  0  0  0  0
   89.1830   52.1840  -18.7010 C   0  0  0  0  0
   88.0700   53.9050  -17.4080 C   0  0  0  0  0
   89.1830   52.9810  -19.8520 C   0  0  0  0  0
   88.0700   54.6970  -18.5520 C   0  0  0  0  0
   88.6240   54.2290  -19.7580 C   0  0  0  0  0
   88.3130   50.9090  -12.1680 N   0  0  0  0  0
   87.8260   51.1740  -10.8190 C   0  0  0  0  0
   86.8150   52.3000  -10.9720 C   0  0  0  0  0
   87.0280   53.2270  -11.7540 O   0  0  0  0  0
   88.9440   51.6530   -9.8850 C   0  0  0  0  0
   90.1340   50.7330   -9.7500 C   0  0  0  0  0
   91.2180   51.1440  -10.7100 C   0  0  0  0  0
   92.4530   51.4810  -10.0210 N   0  0  0  0  0
   93.5580   51.8920  -10.6310 C   0  0  0  0  0
   93.5840   52.0230  -11.9500 N   0  0  0  0  0
   94.6410   52.1640   -9.9170 N   0  0  0  0  0
   85.7240   52.2210  -10.2230 N   0  0  0  0  0
   84.7020   53.2420  -10.3070 C   0  0  0  0  0
   83.3810   52.6950  -10.8110 C   0  0  0  0  0
   82.3270   53.2700  -10.5390 O   0  0  0  0  0
   83.4250   51.5790  -11.5340 N   0  0  0  0  0
   82.1990   50.9970  -12.0750 C   0  0  0  0  0
   81.8490   49.5820  -11.6210 C   0  0  0  0  0
   80.9980   48.9300  -12.2330 O   0  0  0  0  0
   82.2250   51.0420  -13.6100 C   0  0  0  0  0
   82.0510   52.4220  -14.2530 C   0  0  0  0  0
   82.1570   52.3000  -15.7670 C   0  0  0  0  0
   80.7030   53.0040  -13.8610 C   0  0  0  0  0
   82.4880   49.0980  -10.5620 N   0  0  0  0  0
   82.1620   47.7620  -10.0840 C   0  0  0  0  0
   80.7700   47.7830   -9.4550 C   0  0  0  0  0
   80.3490   48.7890   -8.8810 O   0  0  0  0  0
   83.2080   47.2550   -9.0750 C   0  0  0  0  0
   83.8790   48.3190   -8.2200 C   0  0  0  0  0
   85.0750   48.9770   -8.9040 C   0  0  0  0  0
   86.1780   48.3920   -8.9290 O   0  0  0  0  0
   84.9090   50.0900   -9.4220 O   0  0  0  0  0
   80.0470   46.6780   -9.5920 N   0  0  0  0  0
   78.7000   46.5590   -9.0440 C   0  0  0  0  0
   77.7760   47.6700   -9.5510 C   0  0  0  0  0
   76.9660   48.2130   -8.8000 O   0  0  0  0  0
   78.7560   46.5620   -7.5110 C   0  0  0  0  0
   77.4200   46.2200   -6.8740 C   0  0  0  0  0
   76.7630   45.2510   -7.2610 O   0  0  0  0  0
   77.0170   47.0100   -5.8810 N   0  0  0  0  0
   77.9080   48.0040  -10.8310 N   0  0  0  0  0
   77.0770   49.0290  -11.4530 C   0  0  0  0  0
   76.1050   48.3880  -12.4390 C   0  0  0  0  0
   76.5090   47.6430  -13.3330 O   0  0  0  0  0
   77.9460   50.0640  -12.1730 C   0  0  0  0  0
   78.4400   51.1620  -11.2810 C   0  0  0  0  0
   78.0210   52.4690  -11.4090 N   0  0  0  0  0
   79.2930   51.1420  -10.2300 C   0  0  0  0  0
   78.5930   53.2060  -10.4740 C   0  0  0  0  0
   79.3700   52.4250   -9.7450 N   0  0  0  0  0
   74.8220   48.6860  -12.2590 N   0  0  0  0  0
   73.7580   48.1490  -13.1000 C   0  0  0  0  0
   74.0190   48.2110  -14.6030 C   0  0  0  0  0
   73.8420   47.2160  -15.3010 O   0  0  0  0  0
   72.4370   48.8570  -12.7720 C   0  0  0  0  0
   71.3420   48.6770  -13.8150 C   0  0  0  0  0
   69.9790   49.0310  -13.2480 C   0  0  0  0  0
   69.4900   47.9880  -12.3520 N   0  0  0  0  0
   68.4280   48.1110  -11.5620 C   0  0  0  0  0
   67.7350   49.2430  -11.5490 N   0  0  0  0  0
   68.0560   47.0990  -10.7890 N   0  0  0  0  0
   74.4370   49.3690  -15.1040 N   0  0  0  0  0
   74.6970   49.5150  -16.5320 C   0  0  0  0  0
   75.6380   48.4310  -17.0440 C   0  0  0  0  0
   75.4630   47.9160  -18.1480 O   0  0  0  0  0
   75.3020   50.8860  -16.8400 C   0  0  0  0  0
   76.7250   51.0720  -16.3380 C   0  0  0  0  0
   77.5000   52.5460  -17.0280 S   0  0  0  0  0
   78.3050   51.8570  -18.4790 C   0  0  0  0  0
   76.6370   48.0890  -16.2360 N   0  0  0  0  0
   77.6110   47.0720  -16.6120 C   0  0  0  0  0
   77.0190   45.6720  -16.5100 C   0  0  0  0  0
   76.9790   44.9740  -17.5450 O   0  0  0  0  0
   78.8500   47.1720  -15.7190 C   0  0  0  0  0
   79.6880   48.7890  -15.7680 S   0  0  0  0  0
   76.6020   45.2900  -15.3960 O   0  0  0  0  0
   84.1935   50.6721  -17.0529 H   0  0  0  0  0
   83.9274   49.7982  -18.4466 H   0  0  0  0  0
   82.6970   50.7068  -17.7852 H   0  0  0  0  0
   82.6394   49.3519  -15.8462 H   0  0  0  0  0
   81.9267   47.1851  -16.9722 H   0  0  0  0  0
   82.4332   47.9924  -18.5373 H   0  0  0  0  0
   85.4477   49.0406  -17.6875 H   0  0  0  0  0
   86.2588   46.5685  -16.2818 H   0  0  0  0  0
   88.3029   46.7403  -17.7546 H   0  0  0  0  0
   87.5864   48.2228  -18.4751 H   0  0  0  0  0
   87.1473   46.3250  -19.7015 H   0  0  0  0  0
   86.4685   49.9249  -15.8527 H   0  0  0  0  0
   89.0047   49.6094  -14.3542 H   0  0  0  0  0
   89.2805   51.9812  -14.5280 H   0  0  0  0  0
   87.5212   52.1892  -14.9958 H   0  0  0  0  0
   89.7170   49.5925  -16.7630 H   0  0  0  0  0
   87.6393   54.2737  -16.4770 H   0  0  0  0  0
   89.6115   52.6225  -20.7879 H   0  0  0  0  0
   87.6342   55.6953  -18.5135 H   0  0  0  0  0
   88.6082   54.8733  -20.6370 H   0  0  0  0  0
   89.2849   51.1113  -12.4022 H   0  0  0  0  0
   87.4103   50.2649  -10.3843 H   0  0  0  0  0
   88.5015   51.7286   -8.8917 H   0  0  0  0  0
   89.3223   52.5819  -10.3118 H   0  0  0  0  0
   89.8244   49.7126   -9.9760 H   0  0  0  0  0
   90.5175   50.7917   -8.7314 H   0  0  0  0  0
   90.8777   52.0260  -11.2526 H   0  0  0  0  0
   91.4174   50.3070  -11.3792 H   0  0  0  0  0
   92.4716   51.3963   -9.0047 H   0  0  0  0  0
   94.4373   52.3330  -12.4150 H   0  0  0  0  0
   92.7507   51.8138  -12.4998 H   0  0  0  0  0
   94.6233   52.0572   -8.9028 H   0  0  0  0  0
   85.6042   51.4355   -9.5834 H   0  0  0  0  0
   85.0421   54.0035  -11.0088 H   0  0  0  0  0
   84.5418   53.6428   -9.3061 H   0  0  0  0  0
   84.3215   51.1263  -11.7119 H   0  0  0  0  0
   81.4112   51.6244  -11.6580 H   0  0  0  0  0
   81.3786   50.4425  -13.9452 H   0  0  0  0  0
   83.2136   50.6918  -13.9068 H   0  0  0  0  0
   82.8369   53.0894  -13.8993 H   0  0  0  0  0
   83.1357   51.8989  -16.0303 H   0  0  0  0  0
   81.3783   51.6301  -16.1316 H   0  0  0  0  0
   82.0326   53.2840  -16.2191 H   0  0  0  0  0
   79.9087   52.3417  -14.2054 H   0  0  0  0  0
   80.6521   53.1012  -12.7765 H   0  0  0  0  0
   80.5847   53.9851  -14.3209 H   0  0  0  0  0
   83.1990   49.6559  -10.0890 H   0  0  0  0  0
   82.1708   47.0736  -10.9290 H   0  0  0  0  0
   83.9997   46.7896   -9.6622 H   0  0  0  0  0
   82.6762   46.5988   -8.3860 H   0  0  0  0  0
   84.2432   47.8331   -7.3148 H   0  0  0  0  0
   83.1418   49.0977   -8.0241 H   0  0  0  0  0
   86.1018   47.5484   -8.4772 H   0  0  0  0  0
   80.4461   45.8866  -10.0967 H   0  0  0  0  0
   78.2829   45.6120   -9.3866 H   0  0  0  0  0
   79.0330   47.5657   -7.1885 H   0  0  0  0  0
   79.4774   45.8059   -7.2013 H   0  0  0  0  0
   76.1326   46.8239   -5.4081 H   0  0  0  0  0
   77.5926   47.8013   -5.5932 H   0  0  0  0  0
   78.6121   47.5289  -11.3957 H   0  0  0  0  0
   76.5105   49.5352  -10.6713 H   0  0  0  0  0
   77.3309   50.5244  -12.9461 H   0  0  0  0  0
   78.8203   49.5416  -12.5612 H   0  0  0  0  0
   79.8202   50.2708   -9.8412 H   0  0  0  0  0
   78.4485   54.2766  -10.3286 H   0  0  0  0  0
   74.5705   49.3182  -11.4991 H   0  0  0  0  0
   73.7099   47.0862  -12.8629 H   0  0  0  0  0
   72.6534   49.9240  -12.7203 H   0  0  0  0  0
   72.0658   48.4218  -11.8442 H   0  0  0  0  0
   71.3279   47.6329  -14.1276 H   0  0  0  0  0
   71.5510   49.3381  -14.6560 H   0  0  0  0  0
   69.2761   49.1360  -14.0744 H   0  0  0  0  0
   70.0685   49.9592  -12.6837 H   0  0  0  0  0
   69.9981   47.1038  -12.3305 H   0  0  0  0  0
   66.9179   49.3338  -10.9453 H   0  0  0  0  0
   68.0196   50.0221  -12.1427 H   0  0  0  0  0
   68.5848   46.2269  -10.8010 H   0  0  0  0  0
   74.5777   50.1653  -14.4824 H   0  0  0  0  0
   73.7374   49.4175  -17.0397 H   0  0  0  0  0
   74.6849   51.6287  -16.3344 H   0  0  0  0  0
   75.3299   50.9867  -17.9250 H   0  0  0  0  0
   77.3099   50.2049  -16.6449 H   0  0  0  0  0
   76.6916   51.1811  -15.2540 H   0  0  0  0  0
   79.0181   51.0931  -18.1690 H   0  0  0  0  0
   77.5546   51.4117  -19.1322 H   0  0  0  0  0
   78.8290   52.6497  -19.0130 H   0  0  0  0  0
   76.7239   48.5499  -15.3303 H   0  0  0  0  0
   77.8935   47.2500  -17.6496 H   0  0  0  0  0
   79.5639   46.4316  -16.0799 H   0  0  0  0  0
   78.5171   47.0162  -14.6929 H   0  0  0  0  0
   76.7334   45.9878  -14.7499 H   0  0  0  0  0
  1  2  1  0  0  0
  2  3  1  0  0  0
  2  5  1  0  0  0
  3  4  2  0  0  0
  3  7  1  0  0  0
  5  6  1  0  0  0
  6101  1  0  0  0
  7  8  1  0  0  0
  8  9  1  0  0  0
  8 11  1  0  0  0
  9 10  2  0  0  0
  9 13  1  0  0  0
 11 12  1  0  0  0
 13 14  1  0  0  0
 14 15  1  0  0  0
 14 17  1  0  0  0
 15 16  2  0  0  0
 15 27  1  0  0  0
 17 18  1  0  0  0
 18 19  4  0  0  0
 18 20  4  0  0  0
 19 21  4  0  0  0
 20 22  4  0  0  0
 20 23  4  0  0  0
 21 22  4  0  0  0
 22 24  4  0  0  0
 23 25  4  0  0  0
 24 26  4  0  0  0
 25 26  4  0  0  0
 27 28  1  0  0  0
 28 29  1  0  0  0
 28 31  1  0  0  0
 29 30  2  0  0  0
 29 38  1  0  0  0
 31 32  1  0  0  0
 32 33  1  0  0  0
 33 34  1  0  0  0
 34 35  1  0  0  0
 35 36  1  0  0  0
 35 37  2  0  0  0
 38 39  1  0  0  0
 39 40  1  0  0  0
 40 41  2  0  0  0
 40 42  1  0  0  0
 42 43  1  0  0  0
 43 44  1  0  0  0
 43 46  1  0  0  0
 44 45  2  0  0  0
 44 50  1  0  0  0
 46 47  1  0  0  0
 47 48  1  0  0  0
 47 49  1  0  0  0
 50 51  1  0  0  0
 51 52  1  0  0  0
 51 54  1  0  0  0
 52 53  2  0  0  0
 52 59  1  0  0  0
 54 55  1  0  0  0
 55 56  1  0  0  0
 56 57  1  0  0  0
 56 58  2  0  0  0
 59 60  1  0  0  0
 60 61  1  0  0  0
 60 63  1  0  0  0
 61 62  2  0  0  0
 61 67  1  0  0  0
 63 64  1  0  0  0
 64 65  2  0  0  0
 64 66  1  0  0  0
 67 68  1  0  0  0
 68 69  1  0  0  0
 68 71  1  0  0  0
 69 70  2  0  0  0
 69 77  1  0  0  0
 71 72  1  0  0  0
 72 73  4  0  0  0
 72 74  4  0  0  0
 73 75  4  0  0  0
 74 76  4  0  0  0
 75 76  4  0  0  0
 77 78  1  0  0  0
 78 79  1  0  0  0
 78 81  1  0  0  0
 79 80  2  0  0  0
 79 88  1  0  0  0
 81 82  1  0  0  0
 82 83  1  0  0  0
 83 84  1  0  0  0
 84 85  1  0  0  0
 85 86  1  0  0  0
 85 87  2  0  0  0
 88 89  1  0  0  0
 89 90  1  0  0  0
 89 92  1  0  0  0
 90 91  2  0  0  0
 90 96  1  0  0  0
 92 93  1  0  0  0
 93 94  1  0  0  0
 94 95  1  0  0  0
 96 97  1  0  0  0
 97 98  1  0  0  0
 97100  1  0  0  0
 98 99  2  0  0  0
 98102  1  0  0  0
100101  1  0  0  0
  1103  1  0  0  0
  1104  1  0  0  0
  1105  1  0  0  0
  2106  1  0  0  0
  5107  1  0  0  0
  5108  1  0  0  0
  7109  1  0  0  0
  8110  1  0  0  0
 11111  1  0  0  0
 11112  1  0  0  0
 12113  1  0  0  0
 13114  1  0  0  0
 14115  1  0  0  0
 17116  1  0  0  0
 17117  1  0  0  0
 19118  1  0  0  0
 23119  1  0  0  0
 24120  1  0  0  0
 25121  1  0  0  0
 26122  1  0  0  0
 27123  1  0  0  0
 28124  1  0  0  0
 31125  1  0  0  0
 31126  1  0  0  0
 32127  1  0  0  0
 32128  1  0  0  0
 33129  1  0  0  0
 33130  1  0  0  0
 34131  1  0  0  0
 36132  1  0  0  0
 36133  1  0  0  0
 37134  1  0  0  0
 38135  1  0  0  0
 39136  1  0  0  0
 39137  1  0  0  0
 42138  1  0  0  0
 43139  1  0  0  0
 46140  1  0  0  0
 46141  1  0  0  0
 47142  1  0  0  0
 48143  1  0  0  0
 48144  1  0  0  0
 48145  1  0  0  0
 49146  1  0  0  0
 49147  1  0  0  0
 49148  1  0  0  0
 50149  1  0  0  0
 51150  1  0  0  0
 54151  1  0  0  0
 54152  1  0  0  0
 55153  1  0  0  0
 55154  1  0  0  0
 57155  1  0  0  0
 59156  1  0  0  0
 60157  1  0  0  0
 63158  1  0  0  0
 63159  1  0  0  0
 66160  1  0  0  0
 66161  1  0  0  0
 67162  1  0  0  0
 68163  1  0  0  0
 71164  1  0  0  0
 71165  1  0  0  0
 74166  1  0  0  0
 75167  1  0  0  0
 77168  1  0  0  0
 78169  1  0  0  0
 81170  1  0  0  0
 81171  1  0  0  0
 82172  1  0  0  0
 82173  1  0  0  0
 83174  1  0  0  0
 83175  1  0  0  0
 84176  1  0  0  0
 86177  1  0  0  0
 86178  1  0  0  0
 87179  1  0  0  0
 88180  1  0  0  0
 89181  1  0  0  0
 92182  1  0  0  0
 92183  1  0  0  0
 93184  1  0  0  0
 93185  1  0  0  0
 95186  1  0  0  0
 95187  1  0  0  0
 95188  1  0  0  0
 96189  1  0  0  0
 97190  1  0  0  0
100191  1  0  0  0
100192  1  0  0  0
102193  1  0  0  0
M  END
$$$$
