### 
### Created by X-TOOL on Mon Sep 10 21:12:56 2018
### 

@<TRIPOS>MOLECULE
2nwn_ligand
  195   198     1     0     0
SMALL
GAST_HUCK


@<TRIPOS>ATOM
      1 N          83.5090   50.1260  -17.5760 N.4       1 CYS         0.2385
      2 CA         83.0820   48.9530  -16.7590 C.3       1 CYS         0.0749
      3 C          84.2520   48.0630  -16.3690 C.2       1 CYS         0.2276
      4 O          84.1130   47.1820  -15.5240 O.2       1 CYS        -0.3907
      5 CB         82.0540   48.1170  -17.5230 C.3       1 CYS         0.0643
      6 SG         80.4130   48.8850  -17.6580 S.3       1 CYS        -0.0848
      7 N          85.4010   48.2950  -16.9930 N.am      1 SER        -0.2588
      8 CA         86.5960   47.5120  -16.7110 C.3       1 SER         0.1540
      9 C          87.5140   48.1880  -15.6950 C.2       1 SER         0.2063
     10 O          88.4270   47.5560  -15.1660 O.2       1 SER        -0.3943
     11 CB         87.3790   47.2630  -18.0020 C.3       1 SER         0.0843
     12 OG         86.6350   46.4660  -18.9020 O.3       1 SER        -0.3903
     13 N          87.2640   49.4620  -15.4130 N.am      1 TRP        -0.2626
     14 CA         88.1060   50.2120  -14.4860 C.3       1 TRP         0.1352
     15 C          87.5030   50.4060  -13.0970 C.2       1 TRP         0.2052
     16 O          86.3340   50.1020  -12.8690 O.2       1 TRP        -0.3942
     17 CB         88.4260   51.5870  -15.0780 C.3       1 TRP         0.0042
     18 CG         88.8090   51.5630  -16.5290 C.2       1 TRP        -0.0418
     19 CD1        89.4370   50.5510  -17.2000 C.2       1 TRP         0.0167
     20 CD2        88.6350   52.6230  -17.4760 C.ar      1 TRP        -0.0214
     21 NE1        89.6640   50.9160  -18.5030 N.pl3     1 TRP        -0.2890
     22 CE2        89.1830   52.1840  -18.7010 C.ar      1 TRP         0.0603
     23 CE3        88.0700   53.9050  -17.4080 C.ar      1 TRP        -0.0747
     24 CZ2        89.1830   52.9810  -19.8520 C.ar      1 TRP        -0.0443
     25 CZ3        88.0700   54.6970  -18.5520 C.ar      1 TRP        -0.0792
     26 CH2        88.6240   54.2290  -19.7580 C.ar      1 TRP        -0.0768
     27 N          88.3130   50.9090  -12.1680 N.am      1 ARG        -0.2636
     28 CA         87.8260   51.1740  -10.8190 C.3       1 ARG         0.1311
     29 C          86.8150   52.3000  -10.9720 C.2       1 ARG         0.2037
     30 O          87.0280   53.2270  -11.7540 O.2       1 ARG        -0.3944
     31 CB         88.9440   51.6530   -9.8850 C.3       1 ARG        -0.0092
     32 CG         90.1340   50.7330   -9.7500 C.3       1 ARG        -0.0156
     33 CD         91.2180   51.1440  -10.7100 C.3       1 ARG         0.0627
     34 NE         92.4530   51.4810  -10.0210 N.pl3     1 ARG        -0.2723
     35 CZ         93.5580   51.8920  -10.6310 C.cat     1 ARG         0.2882
     36 NH1        93.5840   52.0230  -11.9500 N.pl3     1 ARG        -0.2849
     37 NH2        94.6410   52.1640   -9.9170 N.pl3     1 ARG        -0.2849
     38 N          85.7240   52.2210  -10.2230 N.am      1 GLY        -0.2664
     39 CA         84.7020   53.2420  -10.3070 C.3       1 GLY         0.1201
     40 C          83.3810   52.6950  -10.8110 C.2       1 GLY         0.2007
     41 O          82.3270   53.2700  -10.5390 O.2       1 GLY        -0.3947
     42 N          83.4250   51.5790  -11.5340 N.am      1 LEU        -0.2640
     43 CA         82.1990   50.9970  -12.0750 C.3       1 LEU         0.1312
     44 C          81.8490   49.5820  -11.6210 C.2       1 LEU         0.2039
     45 O          80.9980   48.9300  -12.2330 O.2       1 LEU        -0.3944
     46 CB         82.2250   51.0420  -13.6100 C.3       1 LEU        -0.0101
     47 CG         82.0510   52.4220  -14.2530 C.3       1 LEU        -0.0425
     48 CD1        82.1570   52.3000  -15.7670 C.3       1 LEU        -0.0625
     49 CD2        80.7030   53.0040  -13.8610 C.3       1 LEU        -0.0625
     50 N          82.4880   49.0980  -10.5620 N.am      1 GLU        -0.2636
     51 CA         82.1620   47.7620  -10.0840 C.3       1 GLU         0.1325
     52 C          80.7700   47.7830   -9.4550 C.2       1 GLU         0.2041
     53 O          80.3490   48.7890   -8.8810 O.2       1 GLU        -0.3944
     54 CB         83.2080   47.2550   -9.0750 C.3       1 GLU        -0.0008
     55 CG         83.8790   48.3190   -8.2200 C.3       1 GLU         0.0044
     56 CD         85.0750   48.9770   -8.9040 C.2       1 GLU         0.0350
     57 OE1        86.1780   48.3920   -8.9290 O.co2     1 GLU        -0.5690
     58 OE2        84.9090   50.0900   -9.4220 O.co2     1 GLU        -0.5690
     59 N          80.0470   46.6780   -9.5920 N.am      1 ASN        -0.2616
     60 CA         78.7000   46.5590   -9.0440 C.3       1 ASN         0.1476
     61 C          77.7760   47.6700   -9.5510 C.2       1 ASN         0.2063
     62 O          76.9660   48.2130   -8.8000 O.2       1 ASN        -0.3942
     63 CB         78.7560   46.5620   -7.5110 C.3       1 ASN         0.0773
     64 CG         77.4200   46.2200   -6.8740 C.2       1 ASN         0.1780
     65 OD1        76.7630   45.2510   -7.2610 O.2       1 ASN        -0.3970
     66 ND2        77.0170   47.0100   -5.8810 N.am      1 ASN        -0.3007
     67 N          77.9080   48.0040  -10.8310 N.am      1 HIS        -0.2623
     68 CA         77.0770   49.0290  -11.4530 C.3       1 HIS         0.1369
     69 C          76.1050   48.3880  -12.4390 C.2       1 HIS         0.2054
     70 O          76.5090   47.6430  -13.3330 O.2       1 HIS        -0.3942
     71 CB         77.9460   50.0640  -12.1730 C.3       1 HIS         0.0145
     72 CG         78.4400   51.1620  -11.2810 C.2       1 HIS        -0.0027
     73 ND1        78.0210   52.4690  -11.4090 N.2       1 HIS        -0.3252
     74 CD2        79.2930   51.1420  -10.2300 C.2       1 HIS         0.0291
     75 CE1        78.5930   53.2060  -10.4740 C.2       1 HIS         0.0907
     76 NE2        79.3700   52.4250   -9.7450 N.pl3     1 HIS        -0.2752
     77 N          74.8220   48.6860  -12.2590 N.am      1 ARG        -0.2636
     78 CA         73.7580   48.1490  -13.1000 C.3       1 ARG         0.1311
     79 C          74.0190   48.2110  -14.6030 C.2       1 ARG         0.2039
     80 O          73.8420   47.2160  -15.3010 O.2       1 ARG        -0.3944
     81 CB         72.4370   48.8570  -12.7720 C.3       1 ARG        -0.0092
     82 CG         71.3420   48.6770  -13.8150 C.3       1 ARG        -0.0156
     83 CD         69.9790   49.0310  -13.2480 C.3       1 ARG         0.0627
     84 NE         69.4900   47.9880  -12.3520 N.pl3     1 ARG        -0.2723
     85 CZ         68.4280   48.1110  -11.5620 C.cat     1 ARG         0.2882
     86 NH1        67.7350   49.2430  -11.5490 N.pl3     1 ARG        -0.2849
     87 NH2        68.0560   47.0990  -10.7890 N.pl3     1 ARG        -0.2849
     88 N          74.4370   49.3690  -15.1040 N.am      1 MET        -0.2637
     89 CA         74.6970   49.5150  -16.5320 C.3       1 MET         0.1317
     90 C          75.6380   48.4310  -17.0440 C.2       1 MET         0.2034
     91 O          75.4630   47.9160  -18.1480 O.2       1 MET        -0.3944
     92 CB         75.3020   50.8860  -16.8400 C.3       1 MET        -0.0034
     93 CG         76.7250   51.0720  -16.3380 C.3       1 MET        -0.0024
     94 SD         77.5000   52.5460  -17.0280 S.3       1 MET        -0.1639
     95 CE         78.3050   51.8570  -18.4790 C.3       1 MET        -0.0181
     96 N          76.6370   48.0890  -16.2360 N.am      1 CYS        -0.2687
     97 CA         77.6110   47.0720  -16.6120 C.3       1 CYS         0.1041
     98 C          77.0190   45.6720  -16.5100 C.2       1 CYS         0.0609
     99 O          76.9790   44.9740  -17.5450 O.co2     1 CYS        -0.5666
    100 CB         78.8500   47.1720  -15.7190 C.3       1 CYS         0.0388
    101 SG         79.6880   48.7890  -15.7680 S.3       1 CYS        -0.0887
    102 OXT        76.6020   45.2900  -15.3960 O.co2     1 CYS        -0.5666
    103 H1         82.7028   50.6842  -17.8095 H         1 CYS         0.2015
    104 H2         83.9506   49.8030  -18.4226 H         1 CYS         0.2015
    105 H3         84.1621   50.6834  -17.0480 H         1 CYS         0.2015
    106 H4         82.6142   49.3317  -15.8383 H         1 CYS         0.1107
    107 H5         81.9411   47.1531  -17.0052 H         1 CYS         0.0466
    108 H6         82.4377   47.9445  -18.5394 H         1 CYS         0.0466
    109 H7         85.4468   49.0260  -17.6739 H         1 SER         0.1885
    110 H8         86.2787   46.5433  -16.2976 H         1 SER         0.0823
    111 H9         88.3194   46.7472  -17.7582 H         1 SER         0.0606
    112 H10        87.6033   48.2288  -18.4783 H         1 SER         0.0606
    113 H11        87.1420   46.3265  -19.6932 H         1 SER         0.2097
    114 H12        86.4841   49.9158  -15.8440 H         1 TRP         0.1884
    115 H13        89.0458   49.6529  -14.3669 H         1 TRP         0.0815
    116 H14        89.2613   52.0208  -14.5088 H         1 TRP         0.0397
    117 H15        87.5366   52.2247  -14.9674 H         1 TRP         0.0397
    118 H16        89.7167   49.5934  -16.7634 H         1 TRP         0.0795
    119 H17        90.1219   50.3316  -19.2169 H         1 TRP         0.2216
    120 H18        87.6417   54.2716  -16.4822 H         1 TRP         0.0540
    121 H19        89.6092   52.6245  -20.7828 H         1 TRP         0.0541
    122 H20        87.6366   55.6898  -18.5137 H         1 TRP         0.0510
    123 H21        88.6083   54.8698  -20.6322 H         1 TRP         0.0530
    124 H22        89.2659   51.1073  -12.3976 H         1 ARG         0.1883
    125 H23        87.3540   50.2730  -10.4001 H         1 ARG         0.0800
    126 H24        88.5100   51.7908   -8.8837 H         1 ARG         0.0313
    127 H25        89.3074   52.6198  -10.2634 H         1 ARG         0.0313
    128 H26        89.8233   49.7015   -9.9723 H         1 ARG         0.0301
    129 H27        90.5199   50.7861   -8.7213 H         1 ARG         0.0301
    130 H28        90.8763   52.0222  -11.2774 H         1 ARG         0.0689
    131 H29        91.4131   50.3126  -11.4033 H         1 ARG         0.0689
    132 H30        92.4718   51.3954   -8.9947 H         1 ARG         0.2642
    133 H31        94.4437   52.3422  -12.4190 H         1 ARG         0.2615
    134 H32        92.7445   51.8055  -12.5058 H         1 ARG         0.2615
    135 H33        94.6212   52.0623   -8.8922 H         1 ARG         0.2615
    136 H34        95.5025   52.4770  -10.3869 H         1 ARG         0.2615
    137 H35        85.6066   51.4509   -9.5960 H         1 GLY         0.1881
    138 H36        85.0442   54.0291  -10.9950 H         1 GLY         0.0763
    139 H37        84.5480   53.6714   -9.3060 H         1 GLY         0.0763
    140 H38        84.3040   51.1352  -11.7085 H         1 LEU         0.1883
    141 H39        81.3767   51.6438  -11.7352 H         1 LEU         0.0800
    142 H40        81.4138   50.3965  -13.9778 H         1 LEU         0.0315
    143 H41        83.1934   50.6383  -13.9406 H         1 LEU         0.0315
    144 H42        82.8469   53.0900  -13.8920 H         1 LEU         0.0298
    145 H43        82.0316   53.2925  -16.2245 H         1 LEU         0.0232
    146 H44        81.3716   51.6242  -16.1363 H         1 LEU         0.0232
    147 H45        83.1444   51.8953  -16.0340 H         1 LEU         0.0232
    148 H46        80.6433   53.0852  -12.7656 H         1 LEU         0.0232
    149 H47        79.8999   52.3459  -14.2242 H         1 LEU         0.0232
    150 H48        80.5902   54.0021  -14.3093 H         1 LEU         0.0232
    151 H49        83.1850   49.6450  -10.0983 H         1 GLU         0.1883
    152 H50        82.1509   47.0752  -10.9432 H         1 GLU         0.0801
    153 H51        83.9939   46.7315   -9.6391 H         1 GLU         0.0330
    154 H52        82.7077   46.5460   -8.3990 H         1 GLU         0.0330
    155 H53        84.2247   47.8504   -7.2868 H         1 GLU         0.0433
    156 H54        83.1382   49.0979   -7.9866 H         1 GLU         0.0433
    157 H55        80.4383   45.9021  -10.0868 H         1 ASN         0.1885
    158 H56        78.2827   45.5957   -9.3724 H         1 ASN         0.0826
    159 H57        79.0612   47.5630   -7.1721 H         1 ASN         0.0551
    160 H58        79.5010   45.8214   -7.1848 H         1 ASN         0.0551
    161 H59        76.1454   46.8333   -5.4238 H         1 ASN         0.1814
    162 H60        77.5859   47.7801   -5.5924 H         1 ASN         0.1814
    163 H61        78.5983   47.5382  -11.3846 H         1 HIS         0.1885
    164 H62        76.5000   49.5388  -10.6674 H         1 HIS         0.0817
    165 H63        77.3514   50.5145  -12.9813 H         1 HIS         0.0420
    166 H64        78.8170   49.5475  -12.6026 H         1 HIS         0.0420
    167 H65        79.8197   50.2716   -9.8416 H         1 HIS         0.0729
    168 H66        78.4486   54.2756  -10.3288 H         1 HIS         0.1199
    169 H67        79.9408   52.7287   -8.9432 H         1 HIS         0.2361
    170 H68        74.5754   49.3058  -11.5140 H         1 ARG         0.1883
    171 H69        73.6486   47.0862  -12.8384 H         1 ARG         0.0800
    172 H70        72.6409   49.9333  -12.6717 H         1 ARG         0.0313
    173 H71        72.0659   48.4632  -11.8143 H         1 ARG         0.0313
    174 H72        71.3312   47.6281  -14.1463 H         1 ARG         0.0301
    175 H73        71.5539   49.3307  -14.6739 H         1 ARG         0.0301
    176 H74        69.2668   49.1537  -14.0773 H         1 ARG         0.0689
    177 H75        70.0576   49.9753  -12.6893 H         1 ARG         0.0689
    178 H76        70.0031   47.0951  -12.3302 H         1 ARG         0.2642
    179 H77        66.9124   49.3363  -10.9362 H         1 ARG         0.2615
    180 H78        68.0198   50.0282  -12.1518 H         1 ARG         0.2615
    181 H79        68.5926   46.2199  -10.7978 H         1 ARG         0.2615
    182 H80        67.2306   47.1924  -10.1800 H         1 ARG         0.2615
    183 H81        74.5749   50.1497  -14.4945 H         1 MET         0.1883
    184 H82        73.7390   49.4259  -17.0651 H         1 MET         0.0800
    185 H83        74.6690   51.6543  -16.3720 H         1 MET         0.0320
    186 H84        75.3013   51.0250  -17.9312 H         1 MET         0.0320
    187 H85        77.3198   50.1919  -16.6235 H         1 MET         0.0378
    188 H86        76.7056   51.1616  -15.2418 H         1 MET         0.0378
    189 H87        78.8342   52.6561  -19.0188 H         1 MET         0.0340
    190 H88        77.5487   51.4073  -19.1391 H         1 MET         0.0340
    191 H89        79.0250   51.0859  -18.1675 H         1 MET         0.0340
    192 H90        76.7222   48.5409  -15.3480 H         1 CYS         0.1876
    193 H91        77.9121   47.2486  -17.6551 H         1 CYS         0.0734
    194 H92        79.5680   46.4031  -16.0402 H         1 CYS         0.0425
    195 H93        78.5424   46.9758  -14.6813 H         1 CYS         0.0425
@<TRIPOS>BOND
     1    1    2 1  
     2    2    3 1  
     3    2    5 1  
     4    3    4 2  
     5    3    7 am 
     6    5    6 1  
     7    6  101 1  
     8    7    8 1  
     9    8    9 1  
    10    8   11 1  
    11    9   10 2  
    12    9   13 am 
    13   11   12 1  
    14   13   14 1  
    15   14   15 1  
    16   14   17 1  
    17   15   16 2  
    18   15   27 am 
    19   17   18 1  
    20   18   19 2  
    21   18   20 1  
    22   19   21 1  
    23   20   22 ar 
    24   20   23 ar 
    25   21   22 1  
    26   22   24 ar 
    27   23   25 ar 
    28   24   26 ar 
    29   25   26 ar 
    30   27   28 1  
    31   28   29 1  
    32   28   31 1  
    33   29   30 2  
    34   29   38 am 
    35   31   32 1  
    36   32   33 1  
    37   33   34 1  
    38   34   35 ar 
    39   35   36 ar 
    40   35   37 ar 
    41   38   39 1  
    42   39   40 1  
    43   40   41 2  
    44   40   42 am 
    45   42   43 1  
    46   43   44 1  
    47   43   46 1  
    48   44   45 2  
    49   44   50 am 
    50   46   47 1  
    51   47   48 1  
    52   47   49 1  
    53   50   51 1  
    54   51   52 1  
    55   51   54 1  
    56   52   53 2  
    57   52   59 am 
    58   54   55 1  
    59   55   56 1  
    60   56   57 ar 
    61   56   58 ar 
    62   59   60 1  
    63   60   61 1  
    64   60   63 1  
    65   61   62 2  
    66   61   67 am 
    67   63   64 1  
    68   64   65 2  
    69   64   66 am 
    70   67   68 1  
    71   68   69 1  
    72   68   71 1  
    73   69   70 2  
    74   69   77 am 
    75   71   72 1  
    76   72   73 1  
    77   72   74 2  
    78   73   75 2  
    79   74   76 1  
    80   75   76 1  
    81   77   78 1  
    82   78   79 1  
    83   78   81 1  
    84   79   80 2  
    85   79   88 am 
    86   81   82 1  
    87   82   83 1  
    88   83   84 1  
    89   84   85 ar 
    90   85   86 ar 
    91   85   87 ar 
    92   88   89 1  
    93   89   90 1  
    94   89   92 1  
    95   90   91 2  
    96   90   96 am 
    97   92   93 1  
    98   93   94 1  
    99   94   95 1  
   100   96   97 1  
   101   97   98 1  
   102   97  100 1  
   103   98   99 ar 
   104   98  102 ar 
   105  100  101 1  
   106    1  103 1  
   107    1  104 1  
   108    1  105 1  
   109    2  106 1  
   110    5  107 1  
   111    5  108 1  
   112    7  109 1  
   113    8  110 1  
   114   11  111 1  
   115   11  112 1  
   116   12  113 1  
   117   13  114 1  
   118   14  115 1  
   119   17  116 1  
   120   17  117 1  
   121   19  118 1  
   122   21  119 1  
   123   23  120 1  
   124   24  121 1  
   125   25  122 1  
   126   26  123 1  
   127   27  124 1  
   128   28  125 1  
   129   31  126 1  
   130   31  127 1  
   131   32  128 1  
   132   32  129 1  
   133   33  130 1  
   134   33  131 1  
   135   34  132 1  
   136   36  133 1  
   137   36  134 1  
   138   37  135 1  
   139   37  136 1  
   140   38  137 1  
   141   39  138 1  
   142   39  139 1  
   143   42  140 1  
   144   43  141 1  
   145   46  142 1  
   146   46  143 1  
   147   47  144 1  
   148   48  145 1  
   149   48  146 1  
   150   48  147 1  
   151   49  148 1  
   152   49  149 1  
   153   49  150 1  
   154   50  151 1  
   155   51  152 1  
   156   54  153 1  
   157   54  154 1  
   158   55  155 1  
   159   55  156 1  
   160   59  157 1  
   161   60  158 1  
   162   63  159 1  
   163   63  160 1  
   164   66  161 1  
   165   66  162 1  
   166   67  163 1  
   167   68  164 1  
   168   71  165 1  
   169   71  166 1  
   170   74  167 1  
   171   75  168 1  
   172   76  169 1  
   173   77  170 1  
   174   78  171 1  
   175   81  172 1  
   176   81  173 1  
   177   82  174 1  
   178   82  175 1  
   179   83  176 1  
   180   83  177 1  
   181   84  178 1  
   182   86  179 1  
   183   86  180 1  
   184   87  181 1  
   185   87  182 1  
   186   88  183 1  
   187   89  184 1  
   188   92  185 1  
   189   92  186 1  
   190   93  187 1  
   191   93  188 1  
   192   95  189 1  
   193   95  190 1  
   194   95  191 1  
   195   96  192 1  
   196   97  193 1  
   197  100  194 1  
   198  100  195 1  
@<TRIPOS>SUBSTRUCTURE
     1 CYS         1

