4iuv_ligand
  -I-interpret- 

157156  0  0  0  0  0  0  0  0999 V2000
  -14.5290  -52.8120   20.7540 N   0  3  0  0  0
  -14.4770  -52.4770   22.1730 C   0  0  0  0  0
  -13.3950  -51.4680   22.5010 C   0  0  0  0  0
  -12.8250  -50.8490   21.6160 O   0  0  0  0  0
  -14.2150  -53.6960   23.0130 C   0  0  0  0  0
  -12.8110  -53.9330   23.0460 O   0  0  0  0  0
  -14.8910  -54.8780   22.4080 C   0  0  0  0  0
  -13.1240  -51.3150   23.7910 N   0  0  0  0  0
  -12.1760  -50.2920   24.3040 C   0  0  0  0  0
  -12.9010  -49.4940   25.3710 C   0  0  0  0  0
  -12.9360  -47.9950   25.1430 C   0  0  0  0  0
  -13.6880  -47.3290   26.2870 C   0  0  0  0  0
  -13.9550  -45.8590   26.0040 C   0  0  0  0  0
  -14.0740  -45.0530   27.1990 N   0  3  0  0  0
  -15.1610  -44.1120   27.2770 C   0  0  0  0  0
  -11.0060  -50.9360   24.9530 C   0  0  0  0  0
  -11.1540  -51.8970   25.6850 O   0  0  0  0  0
   -9.8200  -50.4110   24.6990 N   0  0  0  0  0
   -8.6200  -50.9160   25.3380 C   0  0  0  0  0
   -8.7190  -50.6510   26.8280 C   0  0  0  0  0
   -9.5070  -49.8320   27.2610 O   0  0  0  0  0
   -7.3870  -50.2240   24.7650 C   0  0  0  0  0
   -7.5450  -49.7700   23.3390 C   0  0  0  0  0
   -6.5690  -50.4380   22.4170 C   0  0  0  0  0
   -6.8460  -51.4930   21.8610 O   0  0  0  0  0
   -5.4150  -49.8310   22.2460 N   0  0  0  0  0
   -7.9280  -51.3380   27.6270 N   0  0  0  0  0
   -7.9700  -51.0830   29.0480 C   0  0  0  0  0
   -6.9640  -50.0330   29.4570 C   0  0  0  0  0
   -5.7820  -50.1670   29.1950 O   0  0  0  0  0
   -7.6690  -52.3410   29.8150 C   0  0  0  0  0
   -8.1830  -53.4490   29.0800 O   0  0  0  0  0
   -8.3250  -52.2910   31.1620 C   0  0  0  0  0
   -7.4280  -48.9940   30.1290 N   0  0  0  0  0
   -6.5290  -47.9670   30.6190 C   0  0  0  0  0
   -5.7030  -48.4200   31.8110 C   0  0  0  0  0
   -6.1410  -49.2230   32.6180 O   0  0  0  0  0
   -7.3070  -46.7390   30.9790 C   0  0  0  0  0
   -4.4970  -47.8870   31.9100 N   0  0  0  0  0
   -3.7380  -47.9520   33.1360 C   0  0  0  0  0
   -3.3620  -46.5560   33.5750 C   0  0  0  0  0
   -2.8450  -45.7850   32.7930 O   0  0  0  0  0
   -2.4970  -48.8290   33.0130 C   0  0  0  0  0
   -1.7790  -48.7680   31.7090 C   0  0  0  0  0
   -0.3260  -49.1450   31.8870 C   0  0  0  0  0
    0.4770  -48.6820   30.7690 N   0  0  0  0  0
    1.2440  -47.6050   30.8080 C   0  0  0  0  0
    1.9320  -47.2460   29.7420 N   0  0  0  0  0
    1.3210  -46.8910   31.9140 N   0  0  0  0  0
   -3.6300  -46.2400   34.8340 N   0  0  0  0  0
   -3.2980  -44.9100   35.3780 C   0  0  0  0  0
   -4.3520  -44.4880   36.3860 C   0  0  0  0  0
   -5.6050  -45.3280   36.3110 C   0  0  0  0  0
   -6.5550  -44.9090   37.4190 C   0  0  0  0  0
   -7.7630  -44.1770   36.8750 C   0  0  0  0  0
   -8.8910  -44.1870   37.7670 N   0  3  0  0  0
  -10.2030  -43.8780   37.2590 C   0  0  0  0  0
   -1.9360  -44.8480   36.0050 C   0  0  0  0  0
   -1.2740  -45.8440   36.1600 O   0  0  0  0  0
   -1.5270  -43.6470   36.3820 N   0  0  0  0  0
   -0.1870  -43.3370   36.8600 C   0  0  0  0  0
    0.2310  -43.9110   38.2190 C   0  0  0  0  0
    0.9050  -44.9250   38.2980 O   0  0  0  0  0
   -0.0470  -41.8180   36.9020 C   0  0  0  0  0
    1.1830  -41.3820   36.3640 O   0  0  0  0  0
   -0.1380  -43.2020   39.2770 N   0  0  0  0  0
    0.1620  -43.5220   40.6680 C   0  0  0  0  0
   -0.3400  -42.3850   41.5580 C   0  0  0  0  0
   -0.5846  -41.2417   41.0882 O   0  0  0  0  0
    1.6810  -43.7730   40.9420 C   0  0  0  0  0
    2.4820  -42.9300   40.1040 O   0  0  0  0  0
    2.0660  -45.2520   40.7350 C   0  0  0  0  0
   -0.5129  -42.5957   42.7882 O   0  0  0  0  0
  -14.7077  -51.9662   20.2125 H   0  0  0  0  0
  -13.6377  -53.2178   20.4688 H   0  0  0  0  0
  -15.2778  -53.4854   20.5921 H   0  0  0  0  0
  -15.4532  -52.0481   22.3991 H   0  0  0  0  0
  -14.5980  -53.5367   24.0210 H   0  0  0  0  0
  -12.3687  -53.1749   23.4349 H   0  0  0  0  0
  -14.5186  -55.0287   21.3947 H   0  0  0  0  0
  -14.6804  -55.7625   23.0092 H   0  0  0  0  0
  -15.9667  -54.7044   22.3791 H   0  0  0  0  0
  -13.5879  -51.9279   24.4615 H   0  0  0  0  0
  -11.8345  -49.6712   23.4757 H   0  0  0  0  0
  -12.3617  -49.6564   26.3042 H   0  0  0  0  0
  -13.9361  -49.8355   25.3684 H   0  0  0  0  0
  -13.4411  -47.7811   24.2011 H   0  0  0  0  0
  -11.9177  -47.6085   25.1020 H   0  0  0  0  0
  -13.0772  -47.4001   27.1870 H   0  0  0  0  0
  -14.6458  -47.8348   26.4089 H   0  0  0  0  0
  -14.9034  -45.7954   25.4705 H   0  0  0  0  0
  -13.1083  -45.4763   25.4341 H   0  0  0  0  0
  -13.2254  -44.4879   27.2288 H   0  0  0  0  0
  -14.2365  -45.7163   27.9567 H   0  0  0  0  0
  -15.0791  -43.3956   26.4596 H   0  0  0  0  0
  -16.1082  -44.6458   27.2004 H   0  0  0  0  0
  -15.1157  -43.5847   28.2299 H   0  0  0  0  0
   -9.7472  -49.6354   24.0406 H   0  0  0  0  0
   -8.5274  -51.9866   25.1557 H   0  0  0  0  0
   -6.5723  -50.9478   24.7848 H   0  0  0  0  0
   -7.2063  -49.3346   25.3687 H   0  0  0  0  0
   -7.3622  -48.6960   23.3040 H   0  0  0  0  0
   -8.5516  -50.0296   23.0112 H   0  0  0  0  0
   -4.7107  -50.2384   21.6309 H   0  0  0  0  0
   -5.2243  -48.9528   22.7285 H   0  0  0  0  0
   -7.2941  -52.0409   27.2469 H   0  0  0  0  0
   -8.9744  -50.7262   29.2758 H   0  0  0  0  0
   -6.5923  -52.4409   29.9521 H   0  0  0  0  0
   -7.9986  -54.2613   29.5572 H   0  0  0  0  0
   -7.9465  -51.4329   31.7174 H   0  0  0  0  0
   -9.4036  -52.1969   31.0361 H   0  0  0  0  0
   -8.1002  -53.2070   31.7084 H   0  0  0  0  0
   -8.4295  -48.9135   30.3050 H   0  0  0  0  0
   -5.8295  -47.7482   29.8122 H   0  0  0  0  0
   -7.8293  -46.3696   30.0965 H   0  0  0  0  0
   -8.0316  -46.9841   31.7555 H   0  0  0  0  0
   -6.6244  -45.9726   31.3461 H   0  0  0  0  0
   -4.0928  -47.4180   31.0994 H   0  0  0  0  0
   -4.3720  -48.4168   33.8910 H   0  0  0  0  0
   -2.8377  -49.8582   33.1264 H   0  0  0  0  0
   -1.7944  -48.4715   33.7657 H   0  0  0  0  0
   -1.8361  -47.7513   31.3203 H   0  0  0  0  0
   -2.2443  -49.4683   31.0153 H   0  0  0  0  0
   -0.2524  -50.2311   31.9422 H   0  0  0  0  0
    0.0455  -48.6782   32.7993 H   0  0  0  0  0
    0.4478  -49.2191   29.9024 H   0  0  0  0  0
    1.8729  -47.7988   28.8869 H   0  0  0  0  0
    1.9129  -46.0609   31.9450 H   0  0  0  0  0
    0.7887  -47.1689   32.7385 H   0  0  0  0  0
   -4.0748  -46.9305   35.4388 H   0  0  0  0  0
   -3.2841  -44.2203   34.5340 H   0  0  0  0  0
   -4.6285  -43.4566   36.1671 H   0  0  0  0  0
   -3.9279  -44.6102   37.3827 H   0  0  0  0  0
   -5.3471  -46.3804   36.4292 H   0  0  0  0  0
   -6.0852  -45.1825   35.3433 H   0  0  0  0  0
   -6.0219  -44.2380   38.0925 H   0  0  0  0  0
   -6.9002  -45.8063   37.9326 H   0  0  0  0  0
   -8.0664  -44.6825   35.9582 H   0  0  0  0  0
   -7.4746  -43.1368   36.7240 H   0  0  0  0  0
   -8.6941  -43.4465   38.4403 H   0  0  0  0  0
   -8.9590  -45.1534   38.0861 H   0  0  0  0  0
  -10.2014  -42.8716   36.8403 H   0  0  0  0  0
  -10.4689  -44.5955   36.4827 H   0  0  0  0  0
  -10.9281  -43.9339   38.0710 H   0  0  0  0  0
   -2.2002  -42.8822   36.3342 H   0  0  0  0  0
    0.4828  -43.8287   36.1545 H   0  0  0  0  0
   -0.0932  -41.5014   37.9440 H   0  0  0  0  0
   -0.8507  -41.3863   36.3055 H   0  0  0  0  0
    1.2295  -40.4242   36.4098 H   0  0  0  0  0
   -0.6808  -42.3563   39.1023 H   0  0  0  0  0
   -0.3478  -44.4578   40.8969 H   0  0  0  0  0
    1.8713  -43.5272   41.9867 H   0  0  0  0  0
    3.4111  -43.0937   40.2819 H   0  0  0  0  0
    1.4879  -45.8755   41.4170 H   0  0  0  0  0
    1.8517  -45.5413   39.7062 H   0  0  0  0  0
    3.1295  -45.3808   40.9360 H   0  0  0  0  0
   -0.2855  -43.5061   42.9908 H   0  0  0  0  0
  1  2  1  0  0  0
  2  3  1  0  0  0
  2  5  1  0  0  0
  3  4  2  0  0  0
  3  8  1  0  0  0
  5  6  1  0  0  0
  5  7  1  0  0  0
  8  9  1  0  0  0
  9 10  1  0  0  0
  9 16  1  0  0  0
 10 11  1  0  0  0
 11 12  1  0  0  0
 12 13  1  0  0  0
 13 14  1  0  0  0
 14 15  1  0  0  0
 16 17  2  0  0  0
 16 18  1  0  0  0
 18 19  1  0  0  0
 19 20  1  0  0  0
 19 22  1  0  0  0
 20 21  2  0  0  0
 20 27  1  0  0  0
 22 23  1  0  0  0
 23 24  1  0  0  0
 24 25  2  0  0  0
 24 26  1  0  0  0
 27 28  1  0  0  0
 28 29  1  0  0  0
 28 31  1  0  0  0
 29 30  2  0  0  0
 29 34  1  0  0  0
 31 32  1  0  0  0
 31 33  1  0  0  0
 34 35  1  0  0  0
 35 36  1  0  0  0
 35 38  1  0  0  0
 36 37  2  0  0  0
 36 39  1  0  0  0
 39 40  1  0  0  0
 40 41  1  0  0  0
 40 43  1  0  0  0
 41 42  2  0  0  0
 41 50  1  0  0  0
 43 44  1  0  0  0
 44 45  1  0  0  0
 45 46  1  0  0  0
 46 47  1  0  0  0
 47 48  2  0  0  0
 47 49  1  0  0  0
 50 51  1  0  0  0
 51 52  1  0  0  0
 51 58  1  0  0  0
 52 53  1  0  0  0
 53 54  1  0  0  0
 54 55  1  0  0  0
 55 56  1  0  0  0
 56 57  1  0  0  0
 58 59  2  0  0  0
 58 60  1  0  0  0
 60 61  1  0  0  0
 61 62  1  0  0  0
 61 64  1  0  0  0
 62 63  2  0  0  0
 62 66  1  0  0  0
 64 65  1  0  0  0
 66 67  1  0  0  0
 67 68  1  0  0  0
 67 70  1  0  0  0
 68 69  2  0  0  0
 70 71  1  0  0  0
 70 72  1  0  0  0
 68 73  1  0  0  0
  1 74  1  0  0  0
  1 75  1  0  0  0
  1 76  1  0  0  0
  2 77  1  0  0  0
  5 78  1  0  0  0
  6 79  1  0  0  0
  7 80  1  0  0  0
  7 81  1  0  0  0
  7 82  1  0  0  0
  8 83  1  0  0  0
  9 84  1  0  0  0
 10 85  1  0  0  0
 10 86  1  0  0  0
 11 87  1  0  0  0
 11 88  1  0  0  0
 12 89  1  0  0  0
 12 90  1  0  0  0
 13 91  1  0  0  0
 13 92  1  0  0  0
 14 93  1  0  0  0
 14 94  1  0  0  0
 15 95  1  0  0  0
 15 96  1  0  0  0
 15 97  1  0  0  0
 18 98  1  0  0  0
 19 99  1  0  0  0
 22100  1  0  0  0
 22101  1  0  0  0
 23102  1  0  0  0
 23103  1  0  0  0
 26104  1  0  0  0
 26105  1  0  0  0
 27106  1  0  0  0
 28107  1  0  0  0
 31108  1  0  0  0
 32109  1  0  0  0
 33110  1  0  0  0
 33111  1  0  0  0
 33112  1  0  0  0
 34113  1  0  0  0
 35114  1  0  0  0
 38115  1  0  0  0
 38116  1  0  0  0
 38117  1  0  0  0
 39118  1  0  0  0
 40119  1  0  0  0
 43120  1  0  0  0
 43121  1  0  0  0
 44122  1  0  0  0
 44123  1  0  0  0
 45124  1  0  0  0
 45125  1  0  0  0
 46126  1  0  0  0
 48127  1  0  0  0
 49128  1  0  0  0
 49129  1  0  0  0
 50130  1  0  0  0
 51131  1  0  0  0
 52132  1  0  0  0
 52133  1  0  0  0
 53134  1  0  0  0
 53135  1  0  0  0
 54136  1  0  0  0
 54137  1  0  0  0
 55138  1  0  0  0
 55139  1  0  0  0
 56140  1  0  0  0
 56141  1  0  0  0
 57142  1  0  0  0
 57143  1  0  0  0
 57144  1  0  0  0
 60145  1  0  0  0
 61146  1  0  0  0
 64147  1  0  0  0
 64148  1  0  0  0
 65149  1  0  0  0
 66150  1  0  0  0
 67151  1  0  0  0
 70152  1  0  0  0
 71153  1  0  0  0
 72154  1  0  0  0
 72155  1  0  0  0
 72156  1  0  0  0
 73157  1  0  0  0
M  END
$$$$
