### 
### Created by X-TOOL on Sun Sep  9 21:52:18 2018
### 

@<TRIPOS>MOLECULE
4iuv_ligand
  157   156     1     0     0
SMALL
GAST_HUCK


@<TRIPOS>ATOM
      1 N         -14.5290  -52.8120   20.7540 N.4       1 NON         0.2398
      2 CA        -14.4770  -52.4770   22.1730 C.3       1 NON         0.0910
      3 C         -13.3950  -51.4680   22.5010 C.2       1 NON         0.2293
      4 O         -12.8250  -50.8490   21.6160 O.2       1 NON        -0.3906
      5 CB        -14.2150  -53.6960   23.0130 C.3       1 NON         0.1120
      6 OG1       -12.8110  -53.9330   23.0460 O.3       1 NON        -0.3840
      7 CG2       -14.8910  -54.8780   22.4080 C.3       1 NON        -0.0314
      8 N         -13.1240  -51.3150   23.7910 N.am      1 NON        -0.2609
      9 CA        -12.1760  -50.2920   24.3040 C.3       1 NON         0.1311
     10 CB        -12.9010  -49.4940   25.3710 C.3       1 NON        -0.0122
     11 CG        -12.9360  -47.9950   25.1430 C.3       1 NON        -0.0440
     12 CD        -13.6880  -47.3290   26.2870 C.3       1 NON        -0.0124
     13 CE        -13.9550  -45.8590   26.0040 C.3       1 NON        -0.0339
     14 NZ        -14.0740  -45.0530   27.1990 N.4       1 NON         0.2248
     15 CM        -15.1610  -44.1120   27.2770 C.3       1 NON        -0.0449
     16 C         -11.0060  -50.9360   24.9530 C.2       1 NON         0.2039
     17 O         -11.1540  -51.8970   25.6850 O.2       1 NON        -0.3944
     18 N          -9.8200  -50.4110   24.6990 N.am      1 NON        -0.2636
     19 CA         -8.6200  -50.9160   25.3380 C.3       1 NON         0.1330
     20 C          -8.7190  -50.6510   26.8280 C.2       1 NON         0.2041
     21 O          -9.5070  -49.8320   27.2610 O.2       1 NON        -0.3944
     22 CB         -7.3870  -50.2240   24.7650 C.3       1 NON         0.0045
     23 CG         -7.5450  -49.7700   23.3390 C.3       1 NON         0.0412
     24 CD         -6.5690  -50.4380   22.4170 C.2       1 NON         0.1737
     25 OE1        -6.8460  -51.4930   21.8610 O.2       1 NON        -0.3973
     26 NE2        -5.4150  -49.8310   22.2460 N.am      1 NON        -0.3009
     27 N          -7.9280  -51.3380   27.6270 N.am      1 NON        -0.2613
     28 CA         -7.9700  -51.0830   29.0480 C.3       1 NON         0.1565
     29 C          -6.9640  -50.0330   29.4570 C.2       1 NON         0.2065
     30 O          -5.7820  -50.1670   29.1950 O.2       1 NON        -0.3943
     31 CB         -7.6690  -52.3410   29.8150 C.3       1 NON         0.0924
     32 OG1        -8.1830  -53.4490   29.0800 O.3       1 NON        -0.3874
     33 CG2        -8.3250  -52.2910   31.1620 C.3       1 NON        -0.0346
     34 N          -7.4280  -48.9940   30.1290 N.am      1 NON        -0.2639
     35 CA         -6.5290  -47.9670   30.6190 C.3       1 NON         0.1282
     36 C          -5.7030  -48.4200   31.8110 C.2       1 NON         0.2036
     37 O          -6.1410  -49.2230   32.6180 O.2       1 NON        -0.3944
     38 CB         -7.3070  -46.7390   30.9790 C.3       1 NON        -0.0244
     39 N          -4.4970  -47.8870   31.9100 N.am      1 NON        -0.2637
     40 CA         -3.7380  -47.9520   33.1360 C.3       1 NON         0.1311
     41 C          -3.3620  -46.5560   33.5750 C.2       1 NON         0.2039
     42 O          -2.8450  -45.7850   32.7930 O.2       1 NON        -0.3944
     43 CB         -2.4970  -48.8290   33.0130 C.3       1 NON        -0.0092
     44 CG         -1.7790  -48.7680   31.7090 C.3       1 NON        -0.0156
     45 CD         -0.3260  -49.1450   31.8870 C.3       1 NON         0.0627
     46 NE          0.4770  -48.6820   30.7690 N.pl3     1 NON        -0.2723
     47 CZ          1.2440  -47.6050   30.8080 C.cat     1 NON         0.2882
     48 NH1         1.9320  -47.2460   29.7420 N.pl3     1 NON        -0.2849
     49 NH2         1.3210  -46.8910   31.9140 N.pl3     1 NON        -0.2849
     50 N          -3.6300  -46.2400   34.8340 N.am      1 NON        -0.2637
     51 CA         -3.2980  -44.9100   35.3780 C.3       1 NON         0.1310
     52 CB         -4.3520  -44.4880   36.3860 C.3       1 NON        -0.0122
     53 CG         -5.6050  -45.3280   36.3110 C.3       1 NON        -0.0440
     54 CD         -6.5550  -44.9090   37.4190 C.3       1 NON        -0.0124
     55 CE         -7.7630  -44.1770   36.8750 C.3       1 NON        -0.0339
     56 NZ         -8.8910  -44.1870   37.7670 N.4       1 NON         0.2248
     57 CM        -10.2030  -43.8780   37.2590 C.3       1 NON        -0.0449
     58 C          -1.9360  -44.8480   36.0050 C.2       1 NON         0.2040
     59 O          -1.2740  -45.8440   36.1600 O.2       1 NON        -0.3944
     60 N          -1.5270  -43.6470   36.3820 N.am      1 NON        -0.2616
     61 CA         -0.1870  -43.3370   36.8600 C.3       1 NON         0.1539
     62 C           0.2310  -43.9110   38.2190 C.2       1 NON         0.2057
     63 O           0.9050  -44.9250   38.2980 O.2       1 NON        -0.3943
     64 CB         -0.0470  -41.8180   36.9020 C.3       1 NON         0.0843
     65 OG          1.1830  -41.3820   36.3640 O.3       1 NON        -0.3903
     66 N          -0.1380  -43.2020   39.2770 N.am      1 NON        -0.2669
     67 CA          0.1620  -43.5220   40.6680 C.3       1 NON         0.1198
     68 C          -0.3400  -42.3850   41.5580 C.2       1 NON         0.0626
     69 O          -0.5846  -41.2417   41.0882 O.co2     1 NON        -0.5665
     70 CB          1.6810  -43.7730   40.9420 C.3       1 NON         0.0869
     71 OG1         2.4820  -42.9300   40.1040 O.3       1 NON        -0.3880
     72 CG2         2.0660  -45.2520   40.7350 C.3       1 NON        -0.0352
     73 O          -0.5129  -42.5957   42.7882 O.co2     1 NON        -0.5665
     74 H1        -14.7055  -51.9769   20.2179 H         1 NON         0.2016
     75 H2        -15.2688  -53.4774   20.5927 H         1 NON         0.2016
     76 H3        -13.6486  -53.2131   20.4709 H         1 NON         0.2016
     77 H4        -15.4516  -52.0516   22.4546 H         1 NON         0.1125
     78 H5        -14.5926  -53.5338   24.0333 H         1 NON         0.0674
     79 H6        -12.6331  -54.7020   23.5747 H         1 NON         0.2102
     80 H7        -14.6968  -55.7673   23.0255 H         1 NON         0.0258
     81 H8        -14.5007  -55.0440   21.3931 H         1 NON         0.0258
     82 H9        -15.9746  -54.6953   22.3588 H         1 NON         0.0258
     83 H10       -13.5788  -51.9159   24.4483 H         1 NON         0.1884
     84 H11       -11.8433  -49.6384   23.4842 H         1 NON         0.0800
     85 H12       -12.4021  -49.6804   26.3334 H         1 NON         0.0312
     86 H13       -13.9388  -49.8552   25.4200 H         1 NON         0.0312
     87 H14       -13.4470  -47.7797   24.1930 H         1 NON         0.0269
     88 H15       -11.9081  -47.6054   25.1030 H         1 NON         0.0269
     89 H16       -13.0872  -47.4119   27.2047 H         1 NON         0.0317
     90 H17       -14.6490  -47.8447   26.4300 H         1 NON         0.0317
     91 H18       -14.8932  -45.7788   25.4354 H         1 NON         0.0814
     92 H19       -13.1250  -45.4646   25.3995 H         1 NON         0.0814
     93 H20       -13.2178  -44.5296   27.2935 H         1 NON         0.2011
     94 H21       -14.1691  -45.6853   27.9782 H         1 NON         0.2011
     95 H22       -15.1164  -43.5792   28.2383 H         1 NON         0.0777
     96 H23       -16.1176  -44.6495   27.1998 H         1 NON         0.0777
     97 H24       -15.0794  -43.3884   26.4526 H         1 NON         0.0777
     98 H25        -9.7486  -49.6506   24.0535 H         1 NON         0.1883
     99 H26        -8.5399  -51.9990   25.1627 H         1 NON         0.0801
    100 H27        -6.5427  -50.9275   24.8121 H         1 NON         0.0337
    101 H28        -7.1654  -49.3432   25.3855 H         1 NON         0.0337
    102 H29        -7.3861  -48.6825   23.2944 H         1 NON         0.0504
    103 H30        -8.5659  -50.0054   23.0040 H         1 NON         0.0504
    104 H31        -4.7248  -50.2300   21.6423 H         1 NON         0.1814
    105 H32        -5.2277  -48.9704   22.7197 H         1 NON         0.1814
    106 H33        -7.3065  -52.0271   27.2543 H         1 NON         0.1884
    107 H34        -8.9791  -50.7321   29.3099 H         1 NON         0.0826
    108 H35        -6.5814  -52.4480   29.9399 H         1 NON         0.0639
    109 H36        -8.0005  -54.2529   29.5522 H         1 NON         0.2101
    110 H37        -8.0989  -53.2149   31.7145 H         1 NON         0.0257
    111 H38        -9.4137  -52.1961   31.0364 H         1 NON         0.0257
    112 H39        -7.9438  -51.4254   31.7236 H         1 NON         0.0257
    113 H40        -8.4098  -48.9151   30.3015 H         1 NON         0.1883
    114 H41        -5.8340  -47.7124   29.8053 H         1 NON         0.0797
    115 H42        -6.6191  -45.9647   31.3496 H         1 NON         0.0277
    116 H43        -8.0386  -46.9851   31.7627 H         1 NON         0.0277
    117 H44        -7.8346  -46.3652   30.0891 H         1 NON         0.0277
    118 H45        -4.1007  -47.4272   31.1153 H         1 NON         0.1883
    119 H46        -4.3835  -48.3942   33.9091 H         1 NON         0.0800
    120 H47        -2.8045  -49.8720   33.1790 H         1 NON         0.0313
    121 H48        -1.7911  -48.5251   33.8000 H         1 NON         0.0313
    122 H49        -1.8412  -47.7453   31.3089 H         1 NON         0.0301
    123 H50        -2.2506  -49.4673   31.0029 H         1 NON         0.0301
    124 H51        -0.2453  -50.2397   31.9577 H         1 NON         0.0689
    125 H52         0.0522  -48.6888   32.8137 H         1 NON         0.0689
    126 H53         0.4475  -49.2244   29.8939 H         1 NON         0.2642
    127 H54         2.5291  -46.4073   29.7728 H         1 NON         0.2615
    128 H55         1.8723  -47.8043   28.8785 H         1 NON         0.2615
    129 H56         0.7835  -47.1716   32.7466 H         1 NON         0.2615
    130 H57         1.9187  -46.0527   31.9453 H         1 NON         0.2615
    131 H58        -4.0661  -46.9170   35.4269 H         1 NON         0.1883
    132 H59        -3.3128  -44.1948   34.5424 H         1 NON         0.0800
    133 H60        -4.6207  -43.4386   36.1947 H         1 NON         0.0312
    134 H61        -3.9279  -44.5795   37.3968 H         1 NON         0.0312
    135 H62        -5.3439  -46.3896   36.4324 H         1 NON         0.0269
    136 H63        -6.0899  -45.1789   35.3350 H         1 NON         0.0269
    137 H64        -6.0203  -44.2460   38.1150 H         1 NON         0.0317
    138 H65        -6.8946  -45.8071   37.9558 H         1 NON         0.0317
    139 H66        -8.0625  -44.6539   35.9301 H         1 NON         0.0814
    140 H67        -7.4795  -43.1314   36.6843 H         1 NON         0.0814
    141 H68        -8.6942  -43.5184   38.4952 H         1 NON         0.2011
    142 H69        -8.9415  -45.1119   38.1646 H         1 NON         0.2011
    143 H70       -10.9357  -43.9341   38.0776 H         1 NON         0.0777
    144 H71       -10.4726  -44.6014   36.4754 H         1 NON         0.0777
    145 H72       -10.2027  -42.8625   36.8362 H         1 NON         0.0777
    146 H73        -2.1870  -42.8972   36.3351 H         1 NON         0.1884
    147 H74         0.5190  -43.7359   36.1167 H         1 NON         0.0823
    148 H75        -0.1144  -41.4846   37.9481 H         1 NON         0.0606
    149 H76        -0.8666  -41.3703   36.3209 H         1 NON         0.0606
    150 H77         1.2475  -41.6603   35.4580 H         1 NON         0.2097
    151 H78        -0.6701  -42.3728   39.1057 H         1 NON         0.1876
    152 H79        -0.3826  -44.4414   40.9288 H         1 NON         0.0752
    153 H80         1.8849  -43.5123   41.9910 H         1 NON         0.0632
    154 H81         2.2944  -43.1213   39.1925 H         1 NON         0.2100
    155 H82         3.1392  -45.3833   40.9376 H         1 NON         0.0256
    156 H83         1.8503  -45.5453   39.6970 H         1 NON         0.0256
    157 H84         1.4833  -45.8823   41.4228 H         1 NON         0.0256
@<TRIPOS>BOND
     1    1    2 1  
     2    2    3 1  
     3    2    5 1  
     4    3    4 2  
     5    3    8 am 
     6    5    6 1  
     7    5    7 1  
     8    8    9 1  
     9    9   10 1  
    10    9   16 1  
    11   10   11 1  
    12   11   12 1  
    13   12   13 1  
    14   13   14 1  
    15   14   15 1  
    16   16   17 2  
    17   16   18 am 
    18   18   19 1  
    19   19   20 1  
    20   19   22 1  
    21   20   21 2  
    22   20   27 am 
    23   22   23 1  
    24   23   24 1  
    25   24   25 2  
    26   24   26 am 
    27   27   28 1  
    28   28   29 1  
    29   28   31 1  
    30   29   30 2  
    31   29   34 am 
    32   31   32 1  
    33   31   33 1  
    34   34   35 1  
    35   35   36 1  
    36   35   38 1  
    37   36   37 2  
    38   36   39 am 
    39   39   40 1  
    40   40   41 1  
    41   40   43 1  
    42   41   42 2  
    43   41   50 am 
    44   43   44 1  
    45   44   45 1  
    46   45   46 1  
    47   46   47 ar 
    48   47   48 ar 
    49   47   49 ar 
    50   50   51 1  
    51   51   52 1  
    52   51   58 1  
    53   52   53 1  
    54   53   54 1  
    55   54   55 1  
    56   55   56 1  
    57   56   57 1  
    58   58   59 2  
    59   58   60 am 
    60   60   61 1  
    61   61   62 1  
    62   61   64 1  
    63   62   63 2  
    64   62   66 am 
    65   64   65 1  
    66   66   67 1  
    67   67   68 1  
    68   67   70 1  
    69   68   69 ar 
    70   70   71 1  
    71   70   72 1  
    72   68   73 ar 
    73    1   74 1  
    74    1   75 1  
    75    1   76 1  
    76    2   77 1  
    77    5   78 1  
    78    6   79 1  
    79    7   80 1  
    80    7   81 1  
    81    7   82 1  
    82    8   83 1  
    83    9   84 1  
    84   10   85 1  
    85   10   86 1  
    86   11   87 1  
    87   11   88 1  
    88   12   89 1  
    89   12   90 1  
    90   13   91 1  
    91   13   92 1  
    92   14   93 1  
    93   14   94 1  
    94   15   95 1  
    95   15   96 1  
    96   15   97 1  
    97   18   98 1  
    98   19   99 1  
    99   22  100 1  
   100   22  101 1  
   101   23  102 1  
   102   23  103 1  
   103   26  104 1  
   104   26  105 1  
   105   27  106 1  
   106   28  107 1  
   107   31  108 1  
   108   32  109 1  
   109   33  110 1  
   110   33  111 1  
   111   33  112 1  
   112   34  113 1  
   113   35  114 1  
   114   38  115 1  
   115   38  116 1  
   116   38  117 1  
   117   39  118 1  
   118   40  119 1  
   119   43  120 1  
   120   43  121 1  
   121   44  122 1  
   122   44  123 1  
   123   45  124 1  
   124   45  125 1  
   125   46  126 1  
   126   48  127 1  
   127   48  128 1  
   128   49  129 1  
   129   49  130 1  
   130   50  131 1  
   131   51  132 1  
   132   52  133 1  
   133   52  134 1  
   134   53  135 1  
   135   53  136 1  
   136   54  137 1  
   137   54  138 1  
   138   55  139 1  
   139   55  140 1  
   140   56  141 1  
   141   56  142 1  
   142   57  143 1  
   143   57  144 1  
   144   57  145 1  
   145   60  146 1  
   146   61  147 1  
   147   64  148 1  
   148   64  149 1  
   149   65  150 1  
   150   66  151 1  
   151   67  152 1  
   152   70  153 1  
   153   71  154 1  
   154   72  155 1  
   155   72  156 1  
   156   72  157 1  
@<TRIPOS>SUBSTRUCTURE
     1 NON         1

