1vyg_ligand
  -I-interpret- 

 54 53  0  0  0  0  0  0  0  0999 V2000
   17.0340   31.3290    6.3160 C   0  0  0  0  0
   16.3860   30.3750    7.2820 C   0  0  0  0  0
   15.2910   31.1270    8.0340 C   0  0  0  0  0
   14.1260   30.1760    8.3230 C   0  0  0  0  0
   14.0140   29.8790    9.8140 C   0  0  0  0  0
   12.8630   29.3630   10.2740 C   0  0  0  0  0
   11.7080   29.0650    9.3390 C   0  0  0  0  0
   10.5190   29.6300   10.0190 C   0  0  0  0  0
    9.5660   30.3730    9.4630 C   0  0  0  0  0
    9.4810   30.8020    8.0320 C   0  0  0  0  0
    8.0200   31.1210    7.8520 C   0  0  0  0  0
    7.5120   31.6000    6.7320 C   0  0  0  0  0
    8.3700   31.8860    5.5430 C   0  0  0  0  0
    8.1380   33.3240    5.1070 C   0  0  0  0  0
    9.0190   33.9950    4.3560 C   0  0  0  0  0
   10.3060   33.3720    3.8360 C   0  0  0  0  0
   11.5240   34.0660    4.4230 C   0  0  0  0  0
   11.5070   35.5550    4.0900 C   0  0  0  0  0
   11.4270   36.3440    5.3890 C   0  0  0  0  0
   11.3330   37.8550    5.1650 C   0  0  0  0  0
   17.6710   32.3160    6.6950 O   0  0  0  0  0
   16.8700   31.0720    5.0250 O   0  0  0  0  0
   17.1268   29.9919    7.9838 H   0  0  0  0  0
   15.9576   29.5299    6.7432 H   0  0  0  0  0
   14.9383   31.9598    7.4257 H   0  0  0  0  0
   15.6910   31.5080    8.9736 H   0  0  0  0  0
   14.3018   29.2394    7.7938 H   0  0  0  0  0
   13.2010   30.6480    7.9917 H   0  0  0  0  0
   14.8461   30.0802   10.4887 H   0  0  0  0  0
   12.7574   29.1547   11.3387 H   0  0  0  0  0
   11.6007   27.9964    9.1526 H   0  0  0  0  0
   11.8594   29.5036    8.3527 H   0  0  0  0  0
   10.4147   29.4151   11.0825 H   0  0  0  0  0
    8.7616   30.7046   10.1195 H   0  0  0  0  0
    9.8309   30.0340    7.3422 H   0  0  0  0  0
   10.1265   31.6517    7.8096 H   0  0  0  0  0
    7.3466   30.9470    8.6912 H   0  0  0  0  0
    6.4406   31.7915    6.6731 H   0  0  0  0  0
    8.1131   31.2071    4.7298 H   0  0  0  0  0
    9.4192   31.7427    5.8012 H   0  0  0  0  0
    7.2216   33.8261    5.4172 H   0  0  0  0  0
    8.8052   35.0341    4.1056 H   0  0  0  0  0
   10.3322   33.4781    2.7515 H   0  0  0  0  0
   10.3282   32.3218    4.1270 H   0  0  0  0  0
   12.4233   33.6197    3.9985 H   0  0  0  0  0
   11.5104   33.9464    5.5063 H   0  0  0  0  0
   10.6452   35.7847    3.4633 H   0  0  0  0  0
   12.4139   35.8239    3.5484 H   0  0  0  0  0
   12.3384   36.1478    5.9537 H   0  0  0  0  0
   10.5252   36.0291    5.9141 H   0  0  0  0  0
   12.2150   38.1962    4.6230 H   0  0  0  0  0
   10.4385   38.0800    4.5842 H   0  0  0  0  0
   11.2788   38.3612    6.1288 H   0  0  0  0  0
   16.3522   30.2701    4.9228 H   0  0  0  0  0
  1  2  1  0  0  0
  1 21  2  0  0  0
  1 22  1  0  0  0
  2  3  1  0  0  0
  3  4  1  0  0  0
  4  5  1  0  0  0
  5  6  2  0  0  0
  6  7  1  0  0  0
  7  8  1  0  0  0
  8  9  2  0  0  0
  9 10  1  0  0  0
 10 11  1  0  0  0
 11 12  2  0  0  0
 12 13  1  0  0  0
 13 14  1  0  0  0
 14 15  2  0  0  0
 15 16  1  0  0  0
 16 17  1  0  0  0
 17 18  1  0  0  0
 18 19  1  0  0  0
 19 20  1  0  0  0
  2 23  1  0  0  0
  2 24  1  0  0  0
  3 25  1  0  0  0
  3 26  1  0  0  0
  4 27  1  0  0  0
  4 28  1  0  0  0
  5 29  1  0  0  0
  6 30  1  0  0  0
  7 31  1  0  0  0
  7 32  1  0  0  0
  8 33  1  0  0  0
  9 34  1  0  0  0
 10 35  1  0  0  0
 10 36  1  0  0  0
 11 37  1  0  0  0
 12 38  1  0  0  0
 13 39  1  0  0  0
 13 40  1  0  0  0
 14 41  1  0  0  0
 15 42  1  0  0  0
 16 43  1  0  0  0
 16 44  1  0  0  0
 17 45  1  0  0  0
 17 46  1  0  0  0
 18 47  1  0  0  0
 18 48  1  0  0  0
 19 49  1  0  0  0
 19 50  1  0  0  0
 20 51  1  0  0  0
 20 52  1  0  0  0
 20 53  1  0  0  0
 22 54  1  0  0  0
M  END
$$$$
