4n7j_ligand
  -I-interpret- 

 26 27  0  0  0  0  0  0  0  0999 V2000
  -23.4900  -28.2720    3.8900 O   0  0  0  0  0
  -24.5950  -28.4890    4.3840 C   0  0  0  0  0
  -25.8700  -28.4530    3.6250 C   0  0  0  0  0
  -25.8950  -28.1850    2.2520 C   0  0  0  0  0
  -27.1010  -28.1680    1.5570 C   0  0  0  0  0
  -24.7070  -28.7810    5.7200 N   0  0  0  0  0
  -25.8550  -29.0280    6.4020 C   0  0  0  0  0
  -27.0480  -28.9700    5.7260 C   0  0  0  0  0
  -27.0880  -28.6930    4.3030 C   0  0  0  0  0
  -28.2840  -28.6670    3.5760 C   0  0  0  0  0
  -28.2880  -28.4130    2.2170 C   0  0  0  0  0
  -25.7370  -29.3350    7.8010 N   0  0  0  0  0
  -24.4350  -29.5790    8.4000 C   0  0  0  0  0
  -26.8820  -29.3940    8.7270 C   0  0  0  0  0
  -24.9629  -27.9880    1.7224 H   0  0  0  0  0
  -27.1079  -27.9603    0.4870 H   0  0  0  0  0
  -27.5650  -28.1218    6.1748 H   0  0  0  0  0
  -27.4485  -29.9803    5.8098 H   0  0  0  0  0
  -29.2277  -28.8500    4.0899 H   0  0  0  0  0
  -29.2289  -28.4062    1.6667 H   0  0  0  0  0
  -23.9646  -30.4310    7.9091 H   0  0  0  0  0
  -23.8085  -28.6956    8.2768 H   0  0  0  0  0
  -24.5592  -29.7927    9.4616 H   0  0  0  0  0
  -27.3795  -28.4244    8.7499 H   0  0  0  0  0
  -27.5836  -30.1558    8.3872 H   0  0  0  0  0
  -26.5268  -29.6453    9.7264 H   0  0  0  0  0
  1  2  2  0  0  0
  2  3  1  0  0  0
  2  6  1  0  0  0
  3  4  4  0  0  0
  3  9  4  0  0  0
  4  5  4  0  0  0
  5 11  4  0  0  0
  6  7  2  0  0  0
  7  8  1  0  0  0
  7 12  1  0  0  0
  8  9  1  0  0  0
  9 10  4  0  0  0
 10 11  4  0  0  0
 12 13  1  0  0  0
 12 14  1  0  0  0
  4 15  1  0  0  0
  5 16  1  0  0  0
  8 17  1  0  0  0
  8 18  1  0  0  0
 10 19  1  0  0  0
 11 20  1  0  0  0
 13 21  1  0  0  0
 13 22  1  0  0  0
 13 23  1  0  0  0
 14 24  1  0  0  0
 14 25  1  0  0  0
 14 26  1  0  0  0
M  END
$$$$
