4gk2_ligand
  -I-interpret- 

 50 54  0  0  0  0  0  0  0  0999 V2000
   -0.0950  -17.1840  -12.5760 O   0  0  0  0  0
    0.1930  -15.8560  -12.6760 C   0  0  0  0  0
    0.3040  -15.0810  -11.5650 N   0  0  0  0  0
    0.5830  -13.7580  -11.6440 C   0  0  0  0  0
    0.6910  -12.9940  -10.5240 O   0  0  0  0  0
    0.3620  -15.3520  -13.9070 N   0  0  0  0  0
    0.2360  -16.1890  -15.1070 C   0  0  0  0  0
    0.6390  -14.0590  -14.0280 C   0  0  0  0  0
    0.7640  -13.2230  -12.9160 C   0  0  0  0  0
    0.8420  -13.3740  -15.1970 N   0  0  0  0  0
    1.0740  -12.0860  -14.7280 C   0  0  0  0  0
    1.0630  -11.9590  -13.3810 N   0  3  0  0  0
    1.3130  -10.5940  -12.9250 C   0  0  0  0  0
    1.3970  -10.8950  -15.3300 N   0  0  0  0  0
    1.4990  -10.0180  -14.3360 C   0  0  0  0  0
    1.8320   -8.5740  -14.4850 C   0  0  0  0  0
    3.0120   -8.0280  -13.9560 C   0  0  0  0  0
    4.0030   -8.8550  -13.1640 C   0  0  0  0  0
    3.2870   -6.6790  -14.1600 C   0  0  0  0  0
    2.3930   -5.8920  -14.8810 C   0  0  0  0  0
    0.9510   -7.7810  -15.2210 C   0  0  0  0  0
    1.2370   -6.4360  -15.4180 C   0  0  0  0  0
    0.3770   -5.6470  -16.1180 O   0  0  0  0  0
    1.4440  -10.6860  -16.6450 C   0  0  0  0  0
    2.5980  -10.4820  -17.3960 C   0  0  0  0  0
    2.5570  -10.2830  -18.7750 C   0  0  0  0  0
    1.3570  -10.2660  -19.4800 C   0  0  0  0  0
    0.1650  -10.4610  -18.8060 C   0  0  0  0  0
    0.1770  -10.6600  -17.4300 C   0  0  0  0  0
   -1.0120  -10.8640  -16.7710 O   0  0  0  0  0
   -2.1870  -10.1360  -17.1260 C   0  0  0  0  0
    0.1737  -15.5070  -10.6474 H   0  0  0  0  0
   -0.5673  -15.8033  -15.7347 H   0  0  0  0  0
    1.1739  -16.1695  -15.6621 H   0  0  0  0  0
    0.0083  -17.2132  -14.8117 H   0  0  0  0  0
    1.3533  -10.1435  -11.9333 H   0  0  0  0  0
    3.5102   -9.2636  -12.2818 H   0  0  0  0  0
    4.3726   -9.6704  -13.7857 H   0  0  0  0  0
    4.8369   -8.2241  -12.8564 H   0  0  0  0  0
    4.1995   -6.2400  -13.7565 H   0  0  0  0  0
    2.6054   -4.8327  -15.0252 H   0  0  0  0  0
    0.0427   -8.2148  -15.6394 H   0  0  0  0  0
   -0.3666   -6.1744  -16.4188 H   0  0  0  0  0
    3.5635  -10.4777  -16.8902 H   0  0  0  0  0
    3.4914  -10.1365  -19.3168 H   0  0  0  0  0
    1.3566  -10.0999  -20.5573 H   0  0  0  0  0
   -0.7790  -10.4587  -19.3509 H   0  0  0  0  0
   -2.0053   -9.0692  -16.9951 H   0  0  0  0  0
   -2.4374  -10.3382  -18.1674 H   0  0  0  0  0
   -3.0126  -10.4465  -16.4856 H   0  0  0  0  0
  1  2  2  0  0  0
  2  3  1  0  0  0
  2  6  1  0  0  0
  3  4  1  0  0  0
  4  5  2  0  0  0
  4  9  1  0  0  0
  6  7  1  0  0  0
  6  8  1  0  0  0
  8  9  4  0  0  0
  8 10  4  0  0  0
  9 12  4  0  0  0
 10 11  4  0  0  0
 11 12  4  0  0  0
 11 14  4  0  0  0
 12 13  4  0  0  0
 13 15  4  0  0  0
 14 15  4  0  0  0
 14 24  1  0  0  0
 15 16  1  0  0  0
 16 17  4  0  0  0
 16 21  4  0  0  0
 17 18  1  0  0  0
 17 19  4  0  0  0
 19 20  4  0  0  0
 20 22  4  0  0  0
 21 22  4  0  0  0
 22 23  1  0  0  0
 24 25  4  0  0  0
 24 29  4  0  0  0
 25 26  4  0  0  0
 26 27  4  0  0  0
 27 28  4  0  0  0
 28 29  4  0  0  0
 29 30  1  0  0  0
 30 31  1  0  0  0
  3 32  1  0  0  0
  7 33  1  0  0  0
  7 34  1  0  0  0
  7 35  1  0  0  0
 13 36  1  0  0  0
 18 37  1  0  0  0
 18 38  1  0  0  0
 18 39  1  0  0  0
 19 40  1  0  0  0
 20 41  1  0  0  0
 21 42  1  0  0  0
 23 43  1  0  0  0
 25 44  1  0  0  0
 26 45  1  0  0  0
 27 46  1  0  0  0
 28 47  1  0  0  0
 31 48  1  0  0  0
 31 49  1  0  0  0
 31 50  1  0  0  0
M  END
$$$$
