3mag_ligand
  -I-interpret- 

 18 19  0  0  0  0  0  0  0  0999 V2000
   16.5870   14.2580   22.1700 N   0  0  0  0  0
   17.1230   13.1000   21.6220 C   0  0  0  0  0
   16.8770   11.8110   22.0090 N   0  0  0  0  0
   15.9830   11.3630   23.0630 C   0  0  0  0  0
   17.5900   10.9680   21.2410 C   0  0  0  0  0
   18.4220   11.2170   20.2240 N   0  0  0  0  0
   18.6270   12.4840   19.8580 C   0  0  0  0  0
   19.4260   12.7090   18.8290 N   0  0  0  0  0
   17.9490   13.5030   20.5930 C   0  0  0  0  0
   17.9290   14.9000   20.4880 N   0  0  0  0  0
   17.1130   15.2860   21.4340 C   0  0  0  0  0
   16.3029   11.7884   24.0142 H   0  0  0  0  0
   14.9676   11.6907   22.8401 H   0  0  0  0  0
   16.0101   10.2750   23.1226 H   0  0  0  0  0
   17.4706    9.9128   21.4869 H   0  0  0  0  0
   19.8633   11.9266   18.3422 H   0  0  0  0  0
   19.6052   13.6650   18.5219 H   0  0  0  0  0
   16.8729   16.3328   21.6202 H   0  0  0  0  0
  1 11  4  0  0  0
  1  2  4  0  0  0
  2  9  4  0  0  0
  2  3  4  0  0  0
  3  5  4  0  0  0
  3  4  1  0  0  0
  5  6  4  0  0  0
  6  7  4  0  0  0
  7  9  4  0  0  0
  7  8  1  0  0  0
  9 10  4  0  0  0
 10 11  4  0  0  0
  4 12  1  0  0  0
  4 13  1  0  0  0
  4 14  1  0  0  0
  5 15  1  0  0  0
  8 16  1  0  0  0
  8 17  1  0  0  0
 11 18  1  0  0  0
M  END
$$$$
