### 
### Created by X-TOOL on Mon Sep 10 21:12:58 2018
### 

@<TRIPOS>MOLECULE
3diw_ligand
  150   152     1     0     0
SMALL
GAST_HUCK


@<TRIPOS>ATOM
      1 N           3.0740   16.2780   12.9080 N.4       1 GLN         0.2380
      2 CA          3.6440   15.9860   14.2530 C.3       1 GLN         0.0671
      3 C           3.7180   14.4810   14.5150 C.2       1 GLN         0.2269
      4 O           4.7490   13.9760   14.9600 O.2       1 GLN        -0.3907
      5 CB          2.7970   16.6630   15.3380 C.3       1 GLN         0.0247
      6 CG          3.1520   16.2760   16.7740 C.3       1 GLN         0.0443
      7 CD          4.5330   16.7450   17.2050 C.2       1 GLN         0.1738
      8 OE1         5.5510   16.3110   16.6620 O.2       1 GLN        -0.3973
      9 NE2         4.5710   17.6360   18.1890 N.am      1 GLN        -0.3009
     10 N           2.6280   13.7690   14.2350 N.am      1 LEU        -0.2610
     11 CA          2.5850   12.3260   14.4600 C.3       1 LEU         0.1313
     12 C           3.3540   11.5810   13.3700 C.2       1 LEU         0.2039
     13 O           3.0210   11.6660   12.1850 O.2       1 LEU        -0.3944
     14 CB          1.1300   11.8400   14.5130 C.3       1 LEU        -0.0101
     15 CG          0.8780   10.4170   15.0250 C.3       1 LEU        -0.0425
     16 CD1         1.4510   10.2610   16.4270 C.3       1 LEU        -0.0625
     17 CD2        -0.6210   10.1320   15.0290 C.3       1 LEU        -0.0625
     18 N           4.3830   10.8510   13.7880 N.am      1 ALA        -0.2640
     19 CA          5.2340   10.0950   12.8790 C.3       1 ALA         0.1282
     20 C           4.6340    8.7790   12.3770 C.2       1 ALA         0.2037
     21 O           3.7070    8.2250   12.9710 O.2       1 ALA        -0.3944
     22 CB          6.5790    9.8230   13.5510 C.3       1 ALA        -0.0244
     23 N           5.1850    8.2940   11.2670 N.am      1 TRP        -0.2627
     24 CA          4.7570    7.0440   10.6510 C.3       1 TRP         0.1352
     25 C           5.2760    5.9310   11.5570 C.2       1 TRP         0.2053
     26 O           6.4750    5.8830   11.8520 O.2       1 TRP        -0.3942
     27 CB          5.3970    6.9020    9.2610 C.3       1 TRP         0.0042
     28 CG          4.6420    6.0320    8.2960 C.2       1 TRP        -0.0418
     29 CD1         3.6220    6.4140    7.4770 C.2       1 TRP         0.0167
     30 CD2         4.8510    4.6360    8.0500 C.ar      1 TRP        -0.0214
     31 NE1         3.1820    5.3460    6.7320 N.pl3     1 TRP        -0.2890
     32 CE2         3.9180    4.2410    7.0650 C.ar      1 TRP         0.0603
     33 CE3         5.7340    3.6790    8.5670 C.ar      1 TRP        -0.0747
     34 CZ2         3.8420    2.9280    6.5830 C.ar      1 TRP        -0.0443
     35 CZ3         5.6570    2.3680    8.0850 C.ar      1 TRP        -0.0792
     36 CH2         4.7160    2.0100    7.1030 C.ar      1 TRP        -0.0768
     37 N           4.3860    5.0590   12.0190 N.am      1 PHE        -0.2618
     38 CA          4.8040    3.9420   12.8700 C.3       1 PHE         0.1404
     39 C           3.8940    2.7440   12.6510 C.2       1 PHE         0.2060
     40 O           2.7940    2.8890   12.1090 O.2       1 PHE        -0.3942
     41 CB          4.8030    4.3290   14.3610 C.3       1 PHE         0.0214
     42 CG          3.4280    4.5690   14.9420 C.ar      1 PHE        -0.0386
     43 CD1         2.8640    5.8420   14.9350 C.ar      1 PHE        -0.0601
     44 CD2         2.7120    3.5230   15.5250 C.ar      1 PHE        -0.0601
     45 CE1         1.6020    6.0750   15.5070 C.ar      1 PHE        -0.0686
     46 CE2         1.4480    3.7400   16.0990 C.ar      1 PHE        -0.0686
     47 CZ          0.8950    5.0160   16.0910 C.ar      1 PHE        -0.0687
     48 N           4.3470    1.5640   13.0750 N.am      1 ASP        -0.2620
     49 CA          3.5510    0.3610   12.8960 C.3       1 ASP         0.1423
     50 C           3.1420   -0.3190   14.1990 C.2       1 ASP         0.2057
     51 O           3.7150   -0.0670   15.2600 O.2       1 ASP        -0.3943
     52 CB          4.2850   -0.6320   11.9780 C.3       1 ASP         0.0406
     53 CG          5.5820   -1.1560   12.5780 C.2       1 ASP         0.0393
     54 OD1         6.0200   -0.6460   13.6330 O.co2     1 ASP        -0.5688
     55 OD2         6.1690   -2.0850   11.9800 O.co2     1 ASP        -0.5688
     56 N           2.1360   -1.1810   14.0950 N.am      1 THR        -0.2612
     57 CA          1.6000   -1.9140   15.2350 C.3       1 THR         0.1565
     58 C           1.4120   -3.3820   14.8560 C.2       1 THR         0.2066
     59 O           1.0380   -3.6930   13.7190 O.2       1 THR        -0.3943
     60 CB          0.2380   -1.3090   15.6830 C.3       1 THR         0.0924
     61 OG1        -0.6630   -1.2780   14.5730 O.3       1 THR        -0.3874
     62 CG2         0.4210    0.1160   16.1750 C.3       1 THR        -0.0346
     63 N           1.6680   -4.2770   15.8100 N.am      1 ASP        -0.2621
     64 CA          1.5530   -5.7140   15.5760 C.3       1 ASP         0.1423
     65 C           0.1350   -6.2400   15.7920 C.2       1 ASP         0.2050
     66 O          -0.5490   -5.8460   16.7380 O.2       1 ASP        -0.3943
     67 CB          2.5270   -6.4790   16.4790 C.3       1 ASP         0.0406
     68 CG          3.9400   -5.9220   16.4190 C.2       1 ASP         0.0393
     69 OD1         4.4180   -5.6140   15.3050 O.co2     1 ASP        -0.5688
     70 OD2         4.5780   -5.8010   17.4900 O.co2     1 ASP        -0.5688
     71 N          -0.2920   -7.1370   14.9060 N.am      1 LEU        -0.2694
     72 CA         -1.6310   -7.7230   14.9510 C.3       1 LEU         0.0946
     73 C          -1.5750   -9.2450   14.8700 C.2       1 LEU         0.0601
     74 O          -2.5650   -9.8940   15.2670 O.co2     1 LEU        -0.5666
     75 CB         -2.4800   -7.1830   13.7950 C.3       1 LEU        -0.0156
     76 CG         -3.1980   -5.8330   13.9320 C.3       1 LEU        -0.0431
     77 CD1        -2.2520   -4.7550   14.4250 C.3       1 LEU        -0.0625
     78 CD2        -3.7760   -5.4510   12.5810 C.3       1 LEU        -0.0625
     79 OXT        -0.5510   -9.7690   14.3840 O.co2     1 LEU        -0.5666
     80 H1          3.0391   17.2755   12.7672 H         1 GLN         0.2015
     81 H2          2.1426   15.8974   12.8479 H         1 GLN         0.2015
     82 H3          3.6547   15.8588   12.1987 H         1 GLN         0.2015
     83 H4          4.6638   16.3963   14.2943 H         1 GLN         0.1100
     84 H5          1.7440   16.3968   15.1638 H         1 GLN         0.0370
     85 H6          2.9215   17.7513   15.2378 H         1 GLN         0.0370
     86 H7          3.1145   15.1799   16.8586 H         1 GLN         0.0506
     87 H8          2.4066   16.7216   17.4491 H         1 GLN         0.0506
     88 H9          5.4502   17.9823   18.5162 H         1 GLN         0.1814
     89 H10         3.7204   17.9606   18.6027 H         1 GLN         0.1814
     90 H11         1.8229   14.2312   13.8633 H         1 LEU         0.1884
     91 H12         3.0604   12.1113   15.4284 H         1 LEU         0.0800
     92 H13         0.7252   11.8994   13.4919 H         1 LEU         0.0315
     93 H14         0.5760   12.5288   15.1677 H         1 LEU         0.0315
     94 H15         1.3761    9.7009   14.3549 H         1 LEU         0.0298
     95 H16         1.2662    9.2381   16.7869 H         1 LEU         0.0232
     96 H17         0.9666   10.9807   17.1033 H         1 LEU         0.0232
     97 H18         2.5341   10.4514   16.4037 H         1 LEU         0.0232
     98 H19        -1.0191   10.2488   14.0103 H         1 LEU         0.0232
     99 H20        -1.1268   10.8385   15.7035 H         1 LEU         0.0232
    100 H21        -0.7977    9.1032   15.3760 H         1 LEU         0.0232
    101 H22         4.5814   10.8194   14.7676 H         1 ALA         0.1883
    102 H23         5.4112   10.7281   11.9971 H         1 ALA         0.0797
    103 H24         7.2226    9.2521   12.8655 H         1 ALA         0.0277
    104 H25         6.4183    9.2428   14.4716 H         1 ALA         0.0277
    105 H26         7.0645   10.7782   13.7996 H         1 ALA         0.0277
    106 H27         5.9255    8.8099   10.8363 H         1 TRP         0.1884
    107 H28         3.6608    7.0046   10.5690 H         1 TRP         0.0815
    108 H29         6.4019    6.4739    9.3909 H         1 TRP         0.0397
    109 H30         5.4805    7.9064    8.8203 H         1 TRP         0.0397
    110 H31         3.2136    7.4220    7.4208 H         1 TRP         0.0795
    111 H32         2.4225    5.3728    6.0367 H         1 TRP         0.2216
    112 H33         6.4613    3.9486    9.3243 H         1 TRP         0.0540
    113 H34         3.1181    2.6484    5.8262 H         1 TRP         0.0541
    114 H35         6.3335    1.6160    8.4747 H         1 TRP         0.0510
    115 H36         4.6815    0.9857    6.7499 H         1 TRP         0.0530
    116 H37         3.4202    5.1664   11.7832 H         1 PHE         0.1885
    117 H38         5.8290    3.6600   12.5873 H         1 PHE         0.0823
    118 H39         5.3917    5.2508   14.4778 H         1 PHE         0.0474
    119 H40         5.2791    3.5156   14.9281 H         1 PHE         0.0474
    120 H41         3.4059    6.6644   14.4821 H         1 PHE         0.0557
    121 H42         3.1380    2.5263   15.5353 H         1 PHE         0.0557
    122 H43         1.1764    7.0719   15.4964 H         1 PHE         0.0599
    123 H44         0.9055    2.9152   16.5468 H         1 PHE         0.0599
    124 H45        -0.0786    5.1903   16.5346 H         1 PHE         0.0559
    125 H46         5.2409    1.5061   13.5194 H         1 ASP         0.1884
    126 H47         2.6233    0.6630   12.3879 H         1 ASP         0.0819
    127 H48         4.5180   -0.1253   11.0299 H         1 ASP         0.0478
    128 H49         3.6196   -1.4860   11.7835 H         1 ASP         0.0478
    129 H50         1.7286   -1.3335   13.1946 H         1 THR         0.1884
    130 H51         2.3124   -1.8459   16.0704 H         1 THR         0.0826
    131 H52        -0.1852   -1.9261   16.4892 H         1 THR         0.0639
    132 H53        -0.2925   -0.7434   13.8807 H         1 THR         0.2101
    133 H54        -0.5519    0.5242   16.4862 H         1 THR         0.0257
    134 H55         0.8353    0.7335   15.3644 H         1 THR         0.0257
    135 H56         1.1121    0.1226   17.0308 H         1 THR         0.0257
    136 H57         1.9476   -3.9544   16.7143 H         1 ASP         0.1884
    137 H58         1.8280   -5.9056   14.5283 H         1 ASP         0.0819
    138 H59         2.5496   -7.5317   16.1608 H         1 ASP         0.0478
    139 H60         2.1678   -6.4172   17.5168 H         1 ASP         0.0478
    140 H61         0.3305   -7.4228   14.1774 H         1 LEU         0.1875
    141 H62        -2.1040   -7.4393   15.9027 H         1 LEU         0.0726
    142 H63        -3.2562   -7.9358   13.5931 H         1 LEU         0.0308
    143 H64        -1.8136   -7.1006   12.9237 H         1 LEU         0.0308
    144 H65        -4.0183   -5.9376   14.6574 H         1 LEU         0.0297
    145 H66        -2.7952   -3.8025   14.5124 H         1 LEU         0.0232
    146 H67        -1.4230   -4.6401   13.7112 H         1 LEU         0.0232
    147 H68        -1.8517   -5.0404   15.4090 H         1 LEU         0.0232
    148 H69        -4.4591   -6.2419   12.2376 H         1 LEU         0.0232
    149 H70        -2.9596   -5.3304   11.8537 H         1 LEU         0.0232
    150 H71        -4.3281   -4.5041   12.6729 H         1 LEU         0.0232
@<TRIPOS>BOND
     1    1    2 1  
     2    2    3 1  
     3    2    5 1  
     4    3    4 2  
     5    3   10 am 
     6    5    6 1  
     7    6    7 1  
     8    7    8 2  
     9    7    9 am 
    10   10   11 1  
    11   11   12 1  
    12   11   14 1  
    13   12   13 2  
    14   12   18 am 
    15   14   15 1  
    16   15   16 1  
    17   15   17 1  
    18   18   19 1  
    19   19   20 1  
    20   19   22 1  
    21   20   21 2  
    22   20   23 am 
    23   23   24 1  
    24   24   25 1  
    25   24   27 1  
    26   25   26 2  
    27   25   37 am 
    28   27   28 1  
    29   28   29 2  
    30   28   30 1  
    31   29   31 1  
    32   30   32 ar 
    33   30   33 ar 
    34   31   32 1  
    35   32   34 ar 
    36   33   35 ar 
    37   34   36 ar 
    38   35   36 ar 
    39   37   38 1  
    40   38   39 1  
    41   38   41 1  
    42   39   40 2  
    43   39   48 am 
    44   41   42 1  
    45   42   43 ar 
    46   42   44 ar 
    47   43   45 ar 
    48   44   46 ar 
    49   45   47 ar 
    50   46   47 ar 
    51   48   49 1  
    52   49   50 1  
    53   49   52 1  
    54   50   51 2  
    55   50   56 am 
    56   52   53 1  
    57   53   54 ar 
    58   53   55 ar 
    59   56   57 1  
    60   57   58 1  
    61   57   60 1  
    62   58   59 2  
    63   58   63 am 
    64   60   61 1  
    65   60   62 1  
    66   63   64 1  
    67   64   65 1  
    68   64   67 1  
    69   65   66 2  
    70   65   71 am 
    71   67   68 1  
    72   68   69 ar 
    73   68   70 ar 
    74   71   72 1  
    75   72   73 1  
    76   72   75 1  
    77   73   74 ar 
    78   73   79 ar 
    79   75   76 1  
    80   76   77 1  
    81   76   78 1  
    82    1   80 1  
    83    1   81 1  
    84    1   82 1  
    85    2   83 1  
    86    5   84 1  
    87    5   85 1  
    88    6   86 1  
    89    6   87 1  
    90    9   88 1  
    91    9   89 1  
    92   10   90 1  
    93   11   91 1  
    94   14   92 1  
    95   14   93 1  
    96   15   94 1  
    97   16   95 1  
    98   16   96 1  
    99   16   97 1  
   100   17   98 1  
   101   17   99 1  
   102   17  100 1  
   103   18  101 1  
   104   19  102 1  
   105   22  103 1  
   106   22  104 1  
   107   22  105 1  
   108   23  106 1  
   109   24  107 1  
   110   27  108 1  
   111   27  109 1  
   112   29  110 1  
   113   31  111 1  
   114   33  112 1  
   115   34  113 1  
   116   35  114 1  
   117   36  115 1  
   118   37  116 1  
   119   38  117 1  
   120   41  118 1  
   121   41  119 1  
   122   43  120 1  
   123   44  121 1  
   124   45  122 1  
   125   46  123 1  
   126   47  124 1  
   127   48  125 1  
   128   49  126 1  
   129   52  127 1  
   130   52  128 1  
   131   56  129 1  
   132   57  130 1  
   133   60  131 1  
   134   61  132 1  
   135   62  133 1  
   136   62  134 1  
   137   62  135 1  
   138   63  136 1  
   139   64  137 1  
   140   67  138 1  
   141   67  139 1  
   142   71  140 1  
   143   72  141 1  
   144   75  142 1  
   145   75  143 1  
   146   76  144 1  
   147   77  145 1  
   148   77  146 1  
   149   77  147 1  
   150   78  148 1  
   151   78  149 1  
   152   78  150 1  
@<TRIPOS>SUBSTRUCTURE
     1 GLN         1

