3diw_ligand
  -I-interpret- 

152154  0  0  0  0  0  0  0  0999 V2000
    3.0740   16.2780   12.9080 N   0  3  0  0  0
    3.6440   15.9860   14.2530 C   0  0  0  0  0
    3.7180   14.4810   14.5150 C   0  0  0  0  0
    4.7490   13.9760   14.9600 O   0  0  0  0  0
    2.7970   16.6630   15.3380 C   0  0  0  0  0
    3.1520   16.2760   16.7740 C   0  0  0  0  0
    4.5330   16.7450   17.2050 C   0  0  0  0  0
    5.5510   16.3110   16.6620 O   0  0  0  0  0
    4.5710   17.6360   18.1890 N   0  0  0  0  0
    2.6280   13.7690   14.2350 N   0  0  0  0  0
    2.5850   12.3260   14.4600 C   0  0  0  0  0
    3.3540   11.5810   13.3700 C   0  0  0  0  0
    3.0210   11.6660   12.1850 O   0  0  0  0  0
    1.1300   11.8400   14.5130 C   0  0  0  0  0
    0.8780   10.4170   15.0250 C   0  0  0  0  0
    1.4510   10.2610   16.4270 C   0  0  0  0  0
   -0.6210   10.1320   15.0290 C   0  0  0  0  0
    4.3830   10.8510   13.7880 N   0  0  0  0  0
    5.2340   10.0950   12.8790 C   0  0  0  0  0
    4.6340    8.7790   12.3770 C   0  0  0  0  0
    3.7070    8.2250   12.9710 O   0  0  0  0  0
    6.5790    9.8230   13.5510 C   0  0  0  0  0
    5.1850    8.2940   11.2670 N   0  0  0  0  0
    4.7570    7.0440   10.6510 C   0  0  0  0  0
    5.2760    5.9310   11.5570 C   0  0  0  0  0
    6.4750    5.8830   11.8520 O   0  0  0  0  0
    5.3970    6.9020    9.2610 C   0  0  0  0  0
    4.6420    6.0320    8.2960 C   0  0  0  0  0
    3.6220    6.4140    7.4770 C   0  0  0  0  0
    4.8510    4.6360    8.0500 C   0  0  0  0  0
    3.1820    5.3460    6.7320 N   0  0  0  0  0
    3.9180    4.2410    7.0650 C   0  0  0  0  0
    5.7340    3.6790    8.5670 C   0  0  0  0  0
    3.8420    2.9280    6.5830 C   0  0  0  0  0
    5.6570    2.3680    8.0850 C   0  0  0  0  0
    4.7160    2.0100    7.1030 C   0  0  0  0  0
    4.3860    5.0590   12.0190 N   0  0  0  0  0
    4.8040    3.9420   12.8700 C   0  0  0  0  0
    3.8940    2.7440   12.6510 C   0  0  0  0  0
    2.7940    2.8890   12.1090 O   0  0  0  0  0
    4.8030    4.3290   14.3610 C   0  0  0  0  0
    3.4280    4.5690   14.9420 C   0  0  0  0  0
    2.8640    5.8420   14.9350 C   0  0  0  0  0
    2.7120    3.5230   15.5250 C   0  0  0  0  0
    1.6020    6.0750   15.5070 C   0  0  0  0  0
    1.4480    3.7400   16.0990 C   0  0  0  0  0
    0.8950    5.0160   16.0910 C   0  0  0  0  0
    4.3470    1.5640   13.0750 N   0  0  0  0  0
    3.5510    0.3610   12.8960 C   0  0  0  0  0
    3.1420   -0.3190   14.1990 C   0  0  0  0  0
    3.7150   -0.0670   15.2600 O   0  0  0  0  0
    4.2850   -0.6320   11.9780 C   0  0  0  0  0
    5.5820   -1.1560   12.5780 C   0  0  0  0  0
    6.0200   -0.6460   13.6330 O   0  0  0  0  0
    6.1690   -2.0850   11.9800 O   0  0  0  0  0
    2.1360   -1.1810   14.0950 N   0  0  0  0  0
    1.6000   -1.9140   15.2350 C   0  0  0  0  0
    1.4120   -3.3820   14.8560 C   0  0  0  0  0
    1.0380   -3.6930   13.7190 O   0  0  0  0  0
    0.2380   -1.3090   15.6830 C   0  0  0  0  0
   -0.6630   -1.2780   14.5730 O   0  0  0  0  0
    0.4210    0.1160   16.1750 C   0  0  0  0  0
    1.6680   -4.2770   15.8100 N   0  0  0  0  0
    1.5530   -5.7140   15.5760 C   0  0  0  0  0
    0.1350   -6.2400   15.7920 C   0  0  0  0  0
   -0.5490   -5.8460   16.7380 O   0  0  0  0  0
    2.5270   -6.4790   16.4790 C   0  0  0  0  0
    3.9400   -5.9220   16.4190 C   0  0  0  0  0
    4.4180   -5.6140   15.3050 O   0  0  0  0  0
    4.5780   -5.8010   17.4900 O   0  0  0  0  0
   -0.2920   -7.1370   14.9060 N   0  0  0  0  0
   -1.6310   -7.7230   14.9510 C   0  0  0  0  0
   -1.5750   -9.2450   14.8700 C   0  0  0  0  0
   -2.5650   -9.8940   15.2670 O   0  0  0  0  0
   -2.4800   -7.1830   13.7950 C   0  0  0  0  0
   -3.1980   -5.8330   13.9320 C   0  0  0  0  0
   -2.2520   -4.7550   14.4250 C   0  0  0  0  0
   -3.7760   -5.4510   12.5810 C   0  0  0  0  0
   -0.5510   -9.7690   14.3840 O   0  0  0  0  0
    3.6429   15.8244   12.1932 H   0  0  0  0  0
    2.1191   15.9227   12.8603 H   0  0  0  0  0
    3.0711   17.2861   12.7528 H   0  0  0  0  0
    4.6588   16.3829   14.2807 H   0  0  0  0  0
    1.7666   16.3478   15.1738 H   0  0  0  0  0
    2.9725   17.7351   15.2495 H   0  0  0  0  0
    3.1429   15.1876   16.8317 H   0  0  0  0  0
    2.4244   16.7524   17.4311 H   0  0  0  0  0
    5.4678   17.9882   18.5238 H   0  0  0  0  0
    3.7034   17.9682   18.6100 H   0  0  0  0  0
    1.8068   14.2404   13.8559 H   0  0  0  0  0
    3.0621   12.1152   15.4171 H   0  0  0  0  0
    0.7803   11.8468   13.4806 H   0  0  0  0  0
    0.6256   12.4997   15.2190 H   0  0  0  0  0
    1.3718    9.7028   14.3661 H   0  0  0  0  0
    2.5242   10.4500   16.4026 H   0  0  0  0  0
    0.9703   10.9747   17.0961 H   0  0  0  0  0
    1.2673    9.2471   16.7825 H   0  0  0  0  0
   -1.1236   10.8464   15.6810 H   0  0  0  0  0
   -1.0103   10.2270   14.0153 H   0  0  0  0  0
   -0.7961    9.1198   15.3935 H   0  0  0  0  0
    4.5853   10.8188   14.7872 H   0  0  0  0  0
    5.3494   10.7194   11.9930 H   0  0  0  0  0
    7.0590   10.7702   13.7969 H   0  0  0  0  0
    6.4184    9.2481   14.4630 H   0  0  0  0  0
    7.2157    9.2573   12.8708 H   0  0  0  0  0
    5.9403    8.8202   10.8277 H   0  0  0  0  0
    3.6737    7.0071   10.5357 H   0  0  0  0  0
    6.3697    6.4334    9.4103 H   0  0  0  0  0
    5.4258    7.9009    8.8258 H   0  0  0  0  0
    3.2133    7.4229    7.4207 H   0  0  0  0  0
    6.4653    3.9501    9.3285 H   0  0  0  0  0
    3.1141    2.6469    5.8220 H   0  0  0  0  0
    6.3372    1.6118    8.4768 H   0  0  0  0  0
    4.6813    0.9800    6.7480 H   0  0  0  0  0
    3.4008    5.1685   11.7785 H   0  0  0  0  0
    5.8246    3.6817   12.5896 H   0  0  0  0  0
    5.3557    5.2643   14.4494 H   0  0  0  0  0
    5.2409    3.4945   14.9087 H   0  0  0  0  0
    3.4089    6.6690   14.4796 H   0  0  0  0  0
    3.1403    2.5207   15.5353 H   0  0  0  0  0
    1.1741    7.0774   15.4964 H   0  0  0  0  0
    0.9025    2.9107   16.5492 H   0  0  0  0  0
   -0.0840    5.1913   16.5371 H   0  0  0  0  0
    5.2588    1.5049   13.5283 H   0  0  0  0  0
    2.6212    0.6848   12.4282 H   0  0  0  0  0
    4.5356   -0.1069   11.0563 H   0  0  0  0  0
    3.6255   -1.4853   11.8197 H   0  0  0  0  0
    5.6678   -2.3278   11.1980 H   0  0  0  0  0
    1.7205   -1.3366   13.1766 H   0  0  0  0  0
    2.3038   -1.8368   16.0637 H   0  0  0  0  0
   -0.1590   -1.9293   16.4866 H   0  0  0  0  0
   -1.5016   -0.9043   14.8534 H   0  0  0  0  0
    1.1059    0.1211   17.0229 H   0  0  0  0  0
    0.8316    0.7267   15.3709 H   0  0  0  0  0
   -0.5436    0.5193   16.4831 H   0  0  0  0  0
    1.9532   -3.9480   16.7324 H   0  0  0  0  0
    1.8046   -5.8793   14.5284 H   0  0  0  0  0
    2.5594   -7.5134   16.1370 H   0  0  0  0  0
    2.1739   -6.3880   17.5062 H   0  0  0  0  0
    4.0299   -6.0924   18.2223 H   0  0  0  0  0
    0.3429   -7.4285   14.1628 H   0  0  0  0  0
   -2.0835   -7.4450   15.9029 H   0  0  0  0  0
   -3.2855   -7.9094   13.6872 H   0  0  0  0  0
   -1.7685   -7.0311   12.9833 H   0  0  0  0  0
   -3.9972   -5.9264   14.6673 H   0  0  0  0  0
   -1.8560   -5.0390   15.4000 H   0  0  0  0  0
   -1.4311   -4.6422   13.7169 H   0  0  0  0  0
   -2.7914   -3.8117   14.5112 H   0  0  0  0  0
   -2.9697   -5.3703   11.8520 H   0  0  0  0  0
   -4.4826   -6.2164   12.2600 H   0  0  0  0  0
   -4.2892   -4.4930   12.6645 H   0  0  0  0  0
    0.0777   -9.0825   14.1492 H   0  0  0  0  0
  1  2  1  0  0  0
  2  3  1  0  0  0
  2  5  1  0  0  0
  3  4  2  0  0  0
  3 10  1  0  0  0
  5  6  1  0  0  0
  6  7  1  0  0  0
  7  8  2  0  0  0
  7  9  1  0  0  0
 10 11  1  0  0  0
 11 12  1  0  0  0
 11 14  1  0  0  0
 12 13  2  0  0  0
 12 18  1  0  0  0
 14 15  1  0  0  0
 15 16  1  0  0  0
 15 17  1  0  0  0
 18 19  1  0  0  0
 19 20  1  0  0  0
 19 22  1  0  0  0
 20 21  2  0  0  0
 20 23  1  0  0  0
 23 24  1  0  0  0
 24 25  1  0  0  0
 24 27  1  0  0  0
 25 26  2  0  0  0
 25 37  1  0  0  0
 27 28  1  0  0  0
 28 29  4  0  0  0
 28 30  4  0  0  0
 29 31  4  0  0  0
 30 32  4  0  0  0
 30 33  4  0  0  0
 31 32  4  0  0  0
 32 34  4  0  0  0
 33 35  4  0  0  0
 34 36  4  0  0  0
 35 36  4  0  0  0
 37 38  1  0  0  0
 38 39  1  0  0  0
 38 41  1  0  0  0
 39 40  2  0  0  0
 39 48  1  0  0  0
 41 42  1  0  0  0
 42 43  4  0  0  0
 42 44  4  0  0  0
 43 45  4  0  0  0
 44 46  4  0  0  0
 45 47  4  0  0  0
 46 47  4  0  0  0
 48 49  1  0  0  0
 49 50  1  0  0  0
 49 52  1  0  0  0
 50 51  2  0  0  0
 50 56  1  0  0  0
 52 53  1  0  0  0
 53 54  2  0  0  0
 53 55  1  0  0  0
 56 57  1  0  0  0
 57 58  1  0  0  0
 57 60  1  0  0  0
 58 59  2  0  0  0
 58 63  1  0  0  0
 60 61  1  0  0  0
 60 62  1  0  0  0
 63 64  1  0  0  0
 64 65  1  0  0  0
 64 67  1  0  0  0
 65 66  2  0  0  0
 65 71  1  0  0  0
 67 68  1  0  0  0
 68 69  2  0  0  0
 68 70  1  0  0  0
 71 72  1  0  0  0
 72 73  1  0  0  0
 72 75  1  0  0  0
 73 74  2  0  0  0
 73 79  1  0  0  0
 75 76  1  0  0  0
 76 77  1  0  0  0
 76 78  1  0  0  0
  1 80  1  0  0  0
  1 81  1  0  0  0
  1 82  1  0  0  0
  2 83  1  0  0  0
  5 84  1  0  0  0
  5 85  1  0  0  0
  6 86  1  0  0  0
  6 87  1  0  0  0
  9 88  1  0  0  0
  9 89  1  0  0  0
 10 90  1  0  0  0
 11 91  1  0  0  0
 14 92  1  0  0  0
 14 93  1  0  0  0
 15 94  1  0  0  0
 16 95  1  0  0  0
 16 96  1  0  0  0
 16 97  1  0  0  0
 17 98  1  0  0  0
 17 99  1  0  0  0
 17100  1  0  0  0
 18101  1  0  0  0
 19102  1  0  0  0
 22103  1  0  0  0
 22104  1  0  0  0
 22105  1  0  0  0
 23106  1  0  0  0
 24107  1  0  0  0
 27108  1  0  0  0
 27109  1  0  0  0
 29110  1  0  0  0
 33111  1  0  0  0
 34112  1  0  0  0
 35113  1  0  0  0
 36114  1  0  0  0
 37115  1  0  0  0
 38116  1  0  0  0
 41117  1  0  0  0
 41118  1  0  0  0
 43119  1  0  0  0
 44120  1  0  0  0
 45121  1  0  0  0
 46122  1  0  0  0
 47123  1  0  0  0
 48124  1  0  0  0
 49125  1  0  0  0
 52126  1  0  0  0
 52127  1  0  0  0
 55128  1  0  0  0
 56129  1  0  0  0
 57130  1  0  0  0
 60131  1  0  0  0
 61132  1  0  0  0
 62133  1  0  0  0
 62134  1  0  0  0
 62135  1  0  0  0
 63136  1  0  0  0
 64137  1  0  0  0
 67138  1  0  0  0
 67139  1  0  0  0
 70140  1  0  0  0
 71141  1  0  0  0
 72142  1  0  0  0
 75143  1  0  0  0
 75144  1  0  0  0
 76145  1  0  0  0
 77146  1  0  0  0
 77147  1  0  0  0
 77148  1  0  0  0
 78149  1  0  0  0
 78150  1  0  0  0
 78151  1  0  0  0
 79152  1  0  0  0
M  END
$$$$
