4umb_ligand
  -I-interpret- 

 17 16  0  0  0  0  0  0  0  0999 V2000
   45.2510  -22.7690   -3.1840 C   0  0  0  0  0
   44.5030  -23.1800   -2.2720 O   0  0  0  0  0
   45.9830  -21.7570   -3.1410 O   0  0  0  0  0
   45.2140  -23.5940   -4.4550 C   0  0  0  0  0
   43.9030  -23.2080   -5.1490 C   0  0  0  0  0
   46.3310  -23.3010   -5.3120 O   0  0  0  0  0
   46.6820  -24.3070   -6.5450 P   0  0  0  0  0
   46.1840  -23.4840   -7.8140 O   0  0  0  0  0
   48.2820  -24.3260   -6.6820 O   0  0  0  0  0
   45.9440  -25.6160   -6.4710 O   0  0  0  0  0
   46.4530  -21.6678   -3.9733 H   0  0  0  0  0
   45.2717  -24.6592   -4.2311 H   0  0  0  0  0
   43.9126  -22.1414   -5.3735 H   0  0  0  0  0
   43.8030  -23.7746   -6.0748 H   0  0  0  0  0
   43.0644  -23.4345   -4.4905 H   0  0  0  0  0
   46.6566  -22.6496   -7.8584 H   0  0  0  0  0
   48.6097  -23.4244   -6.7175 H   0  0  0  0  0
  1  2  2  0  0  0
  1  3  1  0  0  0
  1  4  1  0  0  0
  4  5  1  0  0  0
  4  6  1  0  0  0
  6  7  1  0  0  0
  7  8  1  0  0  0
  7  9  1  0  0  0
  7 10  2  0  0  0
  3 11  1  0  0  0
  4 12  1  0  0  0
  5 13  1  0  0  0
  5 14  1  0  0  0
  5 15  1  0  0  0
  8 16  1  0  0  0
  9 17  1  0  0  0
M  END
$$$$
