4r18_ligand
  -I-interpret- 

 16 15  0  0  0  0  0  0  0  0999 V2000
   11.0290 -141.0030    9.9800 N   0  3  0  0  0
   10.5980 -139.8950    9.0710 C   0  0  0  0  0
   11.4410 -139.8430    7.7940 C   0  0  0  0  0
   12.6170 -140.2160    7.7980 O   0  0  0  0  0
   10.5840 -138.5240    9.8100 C   0  0  0  0  0
   11.3750 -137.4240    9.0660 C   0  0  0  0  0
   11.0269 -141.8837    9.4654 H   0  0  0  0  0
   11.9696 -140.8117   10.3250 H   0  0  0  0  0
   10.3832 -141.0662   10.7670 H   0  0  0  0  0
    9.5740 -140.1096    8.7652 H   0  0  0  0  0
   10.9969 -139.4720    6.8703 H   0  0  0  0  0
   11.0536 -138.6681   10.7830 H   0  0  0  0  0
    9.5468 -138.1961    9.8788 H   0  0  0  0  0
   12.4152 -137.7329    8.9630 H   0  0  0  0  0
   10.9405 -137.2710    8.0781 H   0  0  0  0  0
   11.3251 -136.4951    9.6341 H   0  0  0  0  0
  1  2  1  0  0  0
  2  3  1  0  0  0
  2  5  1  0  0  0
  3  4  2  0  0  0
  5  6  1  0  0  0
  1  7  1  0  0  0
  1  8  1  0  0  0
  1  9  1  0  0  0
  2 10  1  0  0  0
  3 11  1  0  0  0
  5 12  1  0  0  0
  5 13  1  0  0  0
  6 14  1  0  0  0
  6 15  1  0  0  0
  6 16  1  0  0  0
M  END
$$$$
