2xd6_ligand
  -I-interpret- 

 46 47  0  0  0  0  0  0  0  0999 V2000
  -18.8570    2.3090   -5.9370 C   0  0  0  0  0
  -18.8500    3.2050   -4.7530 C   0  0  0  0  0
  -19.8360    4.3840   -4.7180 C   0  0  0  0  0
  -19.8370    5.3300   -3.5590 C   0  0  0  0  0
  -18.9020    5.1160   -2.4930 C   0  0  0  0  0
  -17.8910    3.9030   -2.5390 C   0  0  0  0  0
  -17.8900    2.9860   -3.6450 C   0  0  0  0  0
  -16.9000    1.8330   -3.6940 C   0  0  0  0  0
  -15.4430    2.1980   -3.8190 C   0  0  0  0  0
  -14.3840    1.1680   -3.4700 C   0  0  0  0  0
  -13.1140    1.1130   -4.3050 C   0  0  0  0  0
  -13.2160    0.8620   -5.7960 C   0  0  0  0  0
  -13.1920    2.0850   -6.7430 C   0  0  0  0  0
  -14.3520    2.2420   -7.6980 C   0  0  0  0  0
  -15.2220    1.1770   -7.8560 C   0  0  0  0  0
  -16.5000    1.4090   -8.5470 C   0  0  0  0  0
  -17.7300    1.3060   -7.7060 C   0  0  0  0  0
  -17.7390    2.0470   -6.5110 O   0  0  0  0  0
  -19.9310    1.7580   -6.2830 O   0  0  0  0  0
  -20.7320    4.5080   -5.7720 O   0  0  0  0  0
  -18.8300    5.9760   -1.4070 O   0  0  0  0  0
  -16.8490    3.6760   -1.1850 Cl  0  0  0  0  0
  -15.1340    3.3100   -4.2850 O   0  0  0  0  0
  -14.7050    3.6060   -8.4050 C   0  0  0  0  0
  -13.7380    4.5890   -8.5730 O   0  0  0  0  0
  -20.5353    6.1662   -3.5255 H   0  0  0  0  0
  -17.1454    1.2640   -4.5908 H   0  0  0  0  0
  -16.9986    1.3115   -2.7420 H   0  0  0  0  0
  -14.8663    0.2028   -3.6246 H   0  0  0  0  0
  -14.0515    1.4330   -2.4664 H   0  0  0  0  0
  -12.5625    0.2570   -3.9161 H   0  0  0  0  0
  -12.6820    2.1101   -4.2199 H   0  0  0  0  0
  -14.1923    0.4007   -5.9450 H   0  0  0  0  0
  -12.3300    0.2811   -6.0522 H   0  0  0  0  0
  -12.3088    1.9572   -7.3689 H   0  0  0  0  0
  -13.2214    2.9612   -6.0954 H   0  0  0  0  0
  -14.9658    0.1878   -7.4766 H   0  0  0  0  0
  -16.5827    0.6304   -9.3053 H   0  0  0  0  0
  -16.4665    2.4347   -8.9144 H   0  0  0  0  0
  -17.8069    0.2593   -7.4118 H   0  0  0  0  0
  -18.5438    1.7032   -8.3127 H   0  0  0  0  0
  -21.2869    5.2784   -5.6298 H   0  0  0  0  0
  -18.1495    5.6704   -0.8028 H   0  0  0  0  0
  -15.4408    4.0658   -7.7452 H   0  0  0  0  0
  -14.9720    3.3181   -9.4218 H   0  0  0  0  0
  -14.1263    5.3453   -9.0189 H   0  0  0  0  0
  1  2  1  0  0  0
  1 18  1  0  0  0
  1 19  2  0  0  0
  2  3  4  0  0  0
  2  7  4  0  0  0
  3  4  4  0  0  0
  3 20  1  0  0  0
  4  5  4  0  0  0
  5  6  4  0  0  0
  5 21  1  0  0  0
  6  7  4  0  0  0
  6 22  1  0  0  0
  7  8  1  0  0  0
  8  9  1  0  0  0
  9 10  1  0  0  0
  9 23  2  0  0  0
 10 11  1  0  0  0
 11 12  1  0  0  0
 12 13  1  0  0  0
 13 14  1  0  0  0
 14 15  2  0  0  0
 14 24  1  0  0  0
 15 16  1  0  0  0
 16 17  1  0  0  0
 17 18  1  0  0  0
 24 25  1  0  0  0
  4 26  1  0  0  0
  8 27  1  0  0  0
  8 28  1  0  0  0
 10 29  1  0  0  0
 10 30  1  0  0  0
 11 31  1  0  0  0
 11 32  1  0  0  0
 12 33  1  0  0  0
 12 34  1  0  0  0
 13 35  1  0  0  0
 13 36  1  0  0  0
 15 37  1  0  0  0
 16 38  1  0  0  0
 16 39  1  0  0  0
 17 40  1  0  0  0
 17 41  1  0  0  0
 20 42  1  0  0  0
 21 43  1  0  0  0
 24 44  1  0  0  0
 24 45  1  0  0  0
 25 46  1  0  0  0
M  END
$$$$
