5tyr_ligand
  -I-interpret- 

 90 95  0  0  0  0  0  0  0  0999 V2000
   -6.7290   17.1690   -8.5310 C   0  0  0  0  0
   -8.3370   16.9150   -6.9600 C   0  0  0  0  0
   -9.5830   16.9370   -6.3640 C   0  0  0  0  0
   -9.7340   16.4830   -5.0580 C   0  0  0  0  0
   -8.6500   15.9960   -4.3330 C   0  0  0  0  0
   -7.4010   15.9790   -4.9500 C   0  0  0  0  0
  -11.9230   14.8880    7.4500 C   0  0  0  0  0
   -8.0330   17.3060   -8.1930 N   0  0  0  0  0
   -6.1830   17.5420   -9.8380 N   0  0  0  0  0
   -9.4990   15.8830    6.4290 C   0  0  0  0  0
  -13.2830   14.2820    1.5970 C   0  0  0  0  0
  -12.3560   14.4090    0.5600 C   0  0  0  0  0
  -11.6900   13.2820    0.0750 C   0  0  0  0  0
   -9.8330   13.7490    7.1350 C   0  0  0  0  0
  -12.6620   14.5480    5.1790 C   0  0  0  0  0
   -7.4580   17.6770   -1.9700 C   0  0  0  0  0
   -6.4520   17.9260   -0.7970 C   0  0  0  0  0
   -6.4200   19.4240   -0.4140 C   0  0  0  0  0
   -6.6710   17.0130    0.4330 C   0  0  0  0  0
   -9.9330   17.6210   -1.4670 C   0  0  0  0  0
  -10.3200   17.6450    0.0270 C   0  0  0  0  0
  -10.6720   16.2340    0.4850 C   0  0  0  0  0
  -10.1370   15.2950    2.8100 C   0  0  0  0  0
   -3.9920   18.6290   -9.3800 C   0  0  0  0  0
  -12.0380   15.8020   -0.0580 C   0  0  0  0  0
  -13.5570   13.0270    2.1450 C   0  0  0  0  0
  -11.9630   12.0300    0.6250 C   0  0  0  0  0
  -12.8930   11.9030    1.6590 C   0  0  0  0  0
   -4.2500   18.6990  -10.9010 C   0  0  0  0  0
   -7.2570   16.4390   -6.2590 C   0  0  0  0  0
  -10.3040   14.1600    4.8710 C   0  0  0  0  0
  -11.5310   13.6660    5.4630 C   0  0  0  0  0
  -11.3110   13.6810    6.9380 C   0  0  0  0  0
   -4.7410   17.4960  -10.0850 C   0  0  0  0  0
   -9.3530   14.4930    6.0940 C   0  0  0  0  0
   -8.6570   16.8540   -1.6440 N   0  0  0  0  0
  -10.7780   16.2900    1.9290 N   0  0  0  0  0
  -10.7080   15.9970    7.8000 O   0  0  0  0  0
   -7.7490   14.4890   -2.2840 O   0  0  0  0  0
  -11.4260   18.4640    0.1970 O   0  0  0  0  0
  -12.7390   15.4630    6.4600 O   0  0  0  0  0
   -9.3240   14.5240    2.4030 O   0  0  0  0  0
  -10.5520   15.3410    4.1730 O   0  0  0  0  0
  -10.1730   14.8380   -2.4570 O   0  0  0  0  0
   -5.8340   16.4870   -7.1930 S   0  0  0  0  0
   -8.8260   15.4200   -2.6120 S   0  0  0  0  0
  -10.4460   17.3093   -6.9160 H   0  0  0  0  0
  -10.7197   16.5090   -4.5934 H   0  0  0  0  0
   -6.5328   15.6047   -4.4076 H   0  0  0  0  0
  -12.5111   14.6442    8.3347 H   0  0  0  0  0
   -6.8139   17.8367  -10.5834 H   0  0  0  0  0
  -10.5528   16.1067    6.5949 H   0  0  0  0  0
   -8.9334   16.0983    7.3356 H   0  0  0  0  0
   -9.1211   16.4945    5.6097 H   0  0  0  0  0
  -13.7942   15.1653    1.9798 H   0  0  0  0  0
  -10.9607   13.3801   -0.7291 H   0  0  0  0  0
   -9.3885   12.7539    7.1495 H   0  0  0  0  0
   -9.5810   14.2004    8.0946 H   0  0  0  0  0
  -13.5867   13.9998    4.9988 H   0  0  0  0  0
  -12.5272   15.1210    4.2616 H   0  0  0  0  0
   -6.9074   17.1248   -2.7316 H   0  0  0  0  0
   -7.8323   18.6577   -2.2637 H   0  0  0  0  0
   -5.4692   17.6434   -1.1743 H   0  0  0  0  0
   -6.1083   20.0119   -1.2774 H   0  0  0  0  0
   -7.4149   19.7384   -0.0987 H   0  0  0  0  0
   -5.7143   19.5738    0.4031 H   0  0  0  0  0
   -7.6727   17.1755    0.8307 H   0  0  0  0  0
   -6.5621   15.9705    0.1340 H   0  0  0  0  0
   -5.9319   17.2522    1.1976 H   0  0  0  0  0
   -9.7937   18.6423   -1.8214 H   0  0  0  0  0
  -10.7267   17.1404   -2.0390 H   0  0  0  0  0
   -9.4825   18.0223    0.6138 H   0  0  0  0  0
   -9.9164   15.5316    0.1331 H   0  0  0  0  0
   -4.1059   19.2626   -8.5004 H   0  0  0  0  0
   -3.1625   18.7530   -8.6839 H   0  0  0  0  0
  -12.8061   16.5270    0.2113 H   0  0  0  0  0
  -12.0191   15.7450   -1.1463 H   0  0  0  0  0
  -14.2865   12.9275    2.9487 H   0  0  0  0  0
  -11.4484   11.1469    0.2463 H   0  0  0  0  0
  -13.0998   10.9220    2.0868 H   0  0  0  0  0
   -3.6968   18.8973  -11.8190 H   0  0  0  0  0
   -4.6365   19.4048  -11.6362 H   0  0  0  0  0
   -9.8736   13.4335    4.1818 H   0  0  0  0  0
  -11.7595   12.6781    5.0631 H   0  0  0  0  0
  -11.7311   12.8104    7.4417 H   0  0  0  0  0
   -4.6189   16.4150  -10.1528 H   0  0  0  0  0
   -8.3069   14.2818    5.8724 H   0  0  0  0  0
  -11.3161   17.0459    2.3525 H   0  0  0  0  0
  -11.1011   16.8037    8.1411 H   0  0  0  0  0
  -11.6700   18.4817    1.1253 H   0  0  0  0  0
  1  8  4  0  0  0
  1  9  1  0  0  0
 45  1  4  0  0  0
  3  2  4  0  0  0
  2  8  4  0  0  0
 30  2  4  0  0  0
  4  3  4  0  0  0
  5  4  4  0  0  0
  5  6  4  0  0  0
 46  5  1  0  0  0
  6 30  4  0  0  0
 33  7  1  0  0  0
  7 38  1  0  0  0
  7 41  1  0  0  0
  9 34  1  0  0  0
 35 10  1  0  0  0
 12 11  4  0  0  0
 11 26  4  0  0  0
 12 13  4  0  0  0
 25 12  1  0  0  0
 13 27  4  0  0  0
 14 33  1  0  0  0
 35 14  1  0  0  0
 32 15  1  0  0  0
 15 41  1  0  0  0
 16 17  1  0  0  0
 36 16  1  0  0  0
 17 18  1  0  0  0
 17 19  1  0  0  0
 20 21  1  0  0  0
 36 20  1  0  0  0
 21 22  1  0  0  0
 21 40  1  0  0  0
 22 25  1  0  0  0
 22 37  1  0  0  0
 37 23  1  0  0  0
 23 42  2  0  0  0
 23 43  1  0  0  0
 29 24  1  0  0  0
 34 24  1  0  0  0
 26 28  4  0  0  0
 27 28  4  0  0  0
 34 29  1  0  0  0
 30 45  4  0  0  0
 31 32  1  0  0  0
 31 35  1  0  0  0
 43 31  1  0  0  0
 32 33  1  0  0  0
 36 46  1  0  0  0
 46 39  2  0  0  0
 46 44  2  0  0  0
  3 47  1  0  0  0
  4 48  1  0  0  0
  6 49  1  0  0  0
  7 50  1  0  0  0
  9 51  1  0  0  0
 10 52  1  0  0  0
 10 53  1  0  0  0
 10 54  1  0  0  0
 11 55  1  0  0  0
 13 56  1  0  0  0
 14 57  1  0  0  0
 14 58  1  0  0  0
 15 59  1  0  0  0
 15 60  1  0  0  0
 16 61  1  0  0  0
 16 62  1  0  0  0
 17 63  1  0  0  0
 18 64  1  0  0  0
 18 65  1  0  0  0
 18 66  1  0  0  0
 19 67  1  0  0  0
 19 68  1  0  0  0
 19 69  1  0  0  0
 20 70  1  0  0  0
 20 71  1  0  0  0
 21 72  1  0  0  0
 22 73  1  0  0  0
 24 74  1  0  0  0
 24 75  1  0  0  0
 25 76  1  0  0  0
 25 77  1  0  0  0
 26 78  1  0  0  0
 27 79  1  0  0  0
 28 80  1  0  0  0
 29 81  1  0  0  0
 29 82  1  0  0  0
 31 83  1  0  0  0
 32 84  1  0  0  0
 33 85  1  0  0  0
 34 86  1  0  0  0
 35 87  1  0  0  0
 37 88  1  0  0  0
 38 89  1  0  0  0
 40 90  1  0  0  0
M  END
$$$$
