6qz6_ligand
  -I-interpret- 

 53 57  0  0  0  0  0  0  0  0999 V2000
    6.3940    1.8540   -6.4570 C   0  0  0  0  0
    6.1630    2.0770   -7.8140 C   0  0  0  0  0
    5.6160    0.8540   -5.8370 C   0  0  0  0  0
    4.4810    0.5000   -7.8370 C   0  0  0  0  0
    7.8970    3.4740   -7.0040 C   0  0  0  0  0
    5.2010    1.4180   -8.5500 N   0  0  0  0  0
    3.6860    2.8160   -0.5910 C   0  0  0  0  0
    5.0520    2.7080   -0.7950 C   0  0  0  0  0
    5.6190    1.5590   -1.4080 C   0  0  0  0  0
    4.7430    0.5320   -1.7540 C   0  0  0  0  0
    5.3190   -0.7250   -2.4660 C   0  0  0  0  0
    7.4470    2.6650   -5.9930 C   0  0  0  0  0
    4.6460    0.2020   -6.5690 N   0  0  0  0  0
    8.8600    3.2710   -2.0150 C   0  0  0  0  0
    8.2160    4.2870   -2.7240 C   0  0  0  0  0
    7.7460    4.0620   -4.0180 C   0  0  0  0  0
    9.0560    2.0430   -2.5970 C   0  0  0  0  0
    7.9490    2.8060   -4.6060 C   0  0  0  0  0
    8.6010    1.8150   -3.8940 C   0  0  0  0  0
    4.9480   -0.6430   -3.9170 C   0  0  0  0  0
    9.5360   -0.0090   -3.0850 C   0  0  0  0  0
    8.9340    0.5330   -4.2130 C   0  0  0  0  0
    2.8000    1.8010   -0.9540 C   0  0  0  0  0
    3.3740    0.6210   -1.5060 C   0  0  0  0  0
    5.3320   -2.0130   -4.6290 C   0  0  0  0  0
    6.4510   -2.0840   -5.1370 O   0  0  0  0  0
    4.5430   -2.9870   -4.6070 O   0  0  0  0  0
    5.7050    0.5340   -4.5340 N   0  0  0  0  0
    7.1640    3.2160   -8.4760 S   0  0  0  0  0
    9.0170    4.5100   -6.9000 C   0  0  0  0  0
    9.8900    4.4040   -8.0720 C   0  0  0  0  0
    9.5670    0.9210   -2.1260 N   0  0  0  0  0
    3.6960   -0.0348   -8.3717 H   0  0  0  0  0
    3.2909    3.7225   -0.1325 H   0  0  0  0  0
    5.7050    3.5214   -0.4786 H   0  0  0  0  0
    6.6895    1.4841   -1.5989 H   0  0  0  0  0
    4.9085   -1.6319   -2.0219 H   0  0  0  0  0
    6.4028   -0.7587   -2.3546 H   0  0  0  0  0
    9.2076    3.4530   -0.9981 H   0  0  0  0  0
    8.0793    5.2648   -2.2622 H   0  0  0  0  0
    7.2286    4.8511   -4.5636 H   0  0  0  0  0
    3.8772   -0.4839   -4.0438 H   0  0  0  0  0
    9.9199   -1.0253   -2.9965 H   0  0  0  0  0
    8.7619    0.0317   -5.1655 H   0  0  0  0  0
    1.7232    1.9063   -0.8216 H   0  0  0  0  0
    2.7316   -0.2282   -1.7389 H   0  0  0  0  0
    3.7288   -2.7280   -4.1693 H   0  0  0  0  0
    6.3026    1.1001   -3.9317 H   0  0  0  0  0
    9.5982    4.3276   -5.9961 H   0  0  0  0  0
    8.5847    5.5097   -6.8579 H   0  0  0  0  0
   10.3216    3.4039   -8.1127 H   0  0  0  0  0
    9.3076    4.5868   -8.9750 H   0  0  0  0  0
   10.6880    5.1427   -7.9971 H   0  0  0  0  0
  1  2  4  0  0  0
  3  1  4  0  0  0
  1 12  4  0  0  0
  2  6  4  0  0  0
  2 29  4  0  0  0
  3 13  4  0  0  0
 28  3  1  0  0  0
  4  6  4  0  0  0
 13  4  4  0  0  0
 12  5  4  0  0  0
  5 29  4  0  0  0
  5 30  1  0  0  0
  8  7  4  0  0  0
  7 23  4  0  0  0
  9  8  4  0  0  0
 10  9  4  0  0  0
 11 10  1  0  0  0
 10 24  4  0  0  0
 20 11  1  0  0  0
 12 18  1  0  0  0
 15 14  4  0  0  0
 17 14  4  0  0  0
 16 15  4  0  0  0
 18 16  4  0  0  0
 19 17  4  0  0  0
 17 32  4  0  0  0
 18 19  4  0  0  0
 19 22  4  0  0  0
 20 25  1  0  0  0
 20 28  1  0  0  0
 22 21  4  0  0  0
 21 32  4  0  0  0
 23 24  4  0  0  0
 25 26  2  0  0  0
 25 27  1  0  0  0
 30 31  1  0  0  0
  4 33  1  0  0  0
  7 34  1  0  0  0
  8 35  1  0  0  0
  9 36  1  0  0  0
 11 37  1  0  0  0
 11 38  1  0  0  0
 14 39  1  0  0  0
 15 40  1  0  0  0
 16 41  1  0  0  0
 20 42  1  0  0  0
 21 43  1  0  0  0
 22 44  1  0  0  0
 23 45  1  0  0  0
 24 46  1  0  0  0
 27 47  1  0  0  0
 28 48  1  0  0  0
 30 49  1  0  0  0
 30 50  1  0  0  0
 31 51  1  0  0  0
 31 52  1  0  0  0
 31 53  1  0  0  0
M  END
$$$$
