1nfs_ligand
  -I-interpret- 

 28 27  0  0  0  0  0  0  0  0999 V2000
   11.0840    2.4940   10.3280 O   0  0  0  0  0
   10.7230    2.2890   12.6210 O   0  0  0  0  0
    8.8570    2.0930   11.1060 O   0  0  0  0  0
   10.1960    2.7640   11.2820 P   0  0  0  0  0
    9.9230    4.2670   11.4440 O   0  0  0  0  0
   11.6080    5.9160   11.8150 O   0  0  0  0  0
   11.5470    3.8890   13.1840 O   0  0  0  0  0
   10.8440    4.9960   12.4350 P   0  0  0  0  0
    9.9300    5.6960   13.4220 O   0  0  0  0  0
    9.7930    7.0970   13.1880 C   0  0  0  0  0
    8.6410    7.6540   14.0590 C   0  0  0  0  0
    8.8850    9.0930   14.2480 N   0  3  0  0  0
    9.1490    9.3880   15.6600 C   0  0  0  0  0
   10.0470    9.4560   13.4130 C   0  0  0  0  0
   10.0791    2.4860   13.3052 H   0  0  0  0  0
    8.2792    2.3390   11.8321 H   0  0  0  0  0
   10.8940    3.3053   13.5771 H   0  0  0  0  0
    9.5695    7.2699   12.1353 H   0  0  0  0  0
   10.7231    7.6020   13.4487 H   0  0  0  0  0
    8.6095    7.1432   15.0214 H   0  0  0  0  0
    7.6805    7.4913   13.5700 H   0  0  0  0  0
    8.0660    9.6354   13.9733 H   0  0  0  0  0
    8.2874    9.0927   16.2588 H   0  0  0  0  0
   10.0282    8.8331   15.9876 H   0  0  0  0  0
    9.3270   10.4567   15.7795 H   0  0  0  0  0
   10.9145    8.8762   13.7281 H   0  0  0  0  0
    9.8238    9.2397   12.3683 H   0  0  0  0  0
   10.2577   10.5192   13.5283 H   0  0  0  0  0
  1  4  2  0  0  0
  4  5  1  0  0  0
  5  8  1  0  0  0
  8  9  1  0  0  0
  9 10  1  0  0  0
 10 11  1  0  0  0
 11 12  1  0  0  0
 12 13  1  0  0  0
 12 14  1  0  0  0
  8  7  1  0  0  0
  8  6  2  0  0  0
  4  3  1  0  0  0
  4  2  1  0  0  0
  2 15  1  0  0  0
  3 16  1  0  0  0
  7 17  1  0  0  0
 10 18  1  0  0  0
 10 19  1  0  0  0
 11 20  1  0  0  0
 11 21  1  0  0  0
 12 22  1  0  0  0
 13 23  1  0  0  0
 13 24  1  0  0  0
 13 25  1  0  0  0
 14 26  1  0  0  0
 14 27  1  0  0  0
 14 28  1  0  0  0
M  END
$$$$
