### 
### Created by X-TOOL on Mon Sep 10 21:12:50 2018
### 

@<TRIPOS>MOLECULE
1nfs_ligand
   25    24     1     0     0
SMALL
GAST_HUCK


@<TRIPOS>ATOM
      1 O1         11.0840    2.4940   10.3280 O.co2     1 DED        -0.5891
      2 O2         10.7230    2.2890   12.6210 O.co2     1 DED        -0.5891
      3 O3          8.8570    2.0930   11.1060 O.co2     1 DED        -0.5891
      4 P4         10.1960    2.7640   11.2820 P.3       1 DED         0.2069
      5 O5          9.9230    4.2670   11.4440 O.3       1 DED        -0.1548
      6 O6         11.6080    5.9160   11.8150 O.co2     1 DED        -0.5556
      7 O7         11.5470    3.8890   13.1840 O.co2     1 DED        -0.5556
      8 P8         10.8440    4.9960   12.4350 P.3       1 DED         0.3277
      9 O9          9.9300    5.6960   13.4220 O.3       1 DED        -0.2409
     10 C10         9.7930    7.0970   13.1880 C.3       1 DED         0.1240
     11 C11         8.6410    7.6540   14.0590 C.3       1 DED        -0.0032
     12 N12         8.8850    9.0930   14.2480 N.4       1 DED         0.2328
     13 C13         9.1490    9.3880   15.6600 C.3       1 DED        -0.0433
     14 C14        10.0470    9.4560   13.4130 C.3       1 DED        -0.0433
     15 H1          9.5670    7.2712   12.1257 H         1 DED         0.0675
     16 H2         10.7316    7.6065   13.4516 H         1 DED         0.0675
     17 H3          8.6269    7.1444   15.0337 H         1 DED         0.0841
     18 H4          7.6777    7.5001   13.5508 H         1 DED         0.0841
     19 H5          8.0769    9.6161   13.9491 H         1 DED         0.2029
     20 H6          9.3288   10.4663   15.7819 H         1 DED         0.0777
     21 H7         10.0361    8.8286   15.9918 H         1 DED         0.0777
     22 H8          8.2802    9.0904   16.2654 H         1 DED         0.0777
     23 H9          9.8275    9.2268   12.3598 H         1 DED         0.0777
     24 H10        10.9262    8.8804   13.7380 H         1 DED         0.0777
     25 H11        10.2531   10.5313   13.5189 H         1 DED         0.0777
@<TRIPOS>BOND
     1    1    4 ar 
     2    4    5 1  
     3    5    8 1  
     4    8    9 1  
     5    9   10 1  
     6   10   11 1  
     7   11   12 1  
     8   12   13 1  
     9   12   14 1  
    10    8    7 ar 
    11    8    6 ar 
    12    4    3 ar 
    13    4    2 ar 
    14   10   15 1  
    15   10   16 1  
    16   11   17 1  
    17   11   18 1  
    18   12   19 1  
    19   13   20 1  
    20   13   21 1  
    21   13   22 1  
    22   14   23 1  
    23   14   24 1  
    24   14   25 1  
@<TRIPOS>SUBSTRUCTURE
     1 DED         1

