6ql2_ligand
  -I-interpret- 

 26 27  0  0  0  0  0  0  0  0999 V2000
   15.8630    1.2300   16.1660 N   0  0  0  0  0
   17.8220    5.2070   15.2350 C   0  0  0  0  0
   16.7730    5.9850   14.8460 C   0  0  0  0  0
   16.9520    7.2080   14.1530 C   0  0  0  0  0
   18.3080    7.5350   13.8960 C   0  0  0  0  0
   17.5820    9.5560   12.7200 C   0  0  0  0  0
   13.9930    2.8460   16.6010 O   0  0  0  0  0
   15.8440    2.7140   18.2540 O   0  0  0  0  0
   15.3920    2.6120   16.8670 S   0  0  0  0  0
   16.1530    3.9700   16.0050 C   0  0  0  0  0
   17.4890    4.0280   15.9090 N   0  0  0  0  0
   15.3260    5.2350   15.3330 S   0  0  0  0  0
   19.3720    6.7180   14.2690 C   0  0  0  0  0
   19.1830    5.5580   14.9720 C   0  0  0  0  0
   18.6280    8.7010   13.1880 O   0  0  0  0  0
   18.3040   10.6530   11.9110 C   0  0  0  0  0
   15.1936    0.6742   15.6336 H   0  0  0  0  0
   16.8290    0.9154   16.2569 H   0  0  0  0  0
   16.1206    7.8418   13.8445 H   0  0  0  0  0
   17.0003    9.9736   13.5418 H   0  0  0  0  0
   16.8560    9.0150   12.1131 H   0  0  0  0  0
   20.3852    7.0103   13.9933 H   0  0  0  0  0
   20.0165    4.9419   15.3094 H   0  0  0  0  0
   19.0001   11.1832   12.5609 H   0  0  0  0  0
   18.8513   10.1945   11.0874 H   0  0  0  0  0
   17.5690   11.3538   11.5150 H   0  0  0  0  0
  9  1  1  0  0  0
  2  3  4  0  0  0
 11  2  4  0  0  0
  2 14  4  0  0  0
  3  4  4  0  0  0
  3 12  4  0  0  0
  4  5  4  0  0  0
  5 13  4  0  0  0
  5 15  1  0  0  0
 15  6  1  0  0  0
  6 16  1  0  0  0
  9  7  2  0  0  0
  9  8  2  0  0  0
 10  9  1  0  0  0
 10 11  4  0  0  0
 10 12  4  0  0  0
 13 14  4  0  0  0
  1 17  1  0  0  0
  1 18  1  0  0  0
  4 19  1  0  0  0
  6 20  1  0  0  0
  6 21  1  0  0  0
 13 22  1  0  0  0
 14 23  1  0  0  0
 16 24  1  0  0  0
 16 25  1  0  0  0
 16 26  1  0  0  0
M  END
$$$$
