5nee_ligand
  -I-interpret- 

 35 37  0  0  0  0  0  0  0  0999 V2000
   -5.8300    0.9270   16.5530 S   0  0  0  0  0
   -4.9770    2.1220   15.5800 C   0  0  0  0  0
   -5.8140    3.4210   14.8170 S   0  0  0  0  0
   -4.3240    4.0920   14.2150 C   0  0  0  0  0
   -3.2520    3.3090   14.6030 C   0  0  0  0  0
   -3.6200    2.1930   15.3750 C   0  0  0  0  0
   -4.1860    5.3020   13.4290 C   0  0  0  0  0
   -3.2200    6.2000   13.1540 C   0  0  0  0  0
   -3.6970    7.1750   12.3050 N   0  0  0  0  0
   -4.9450    6.8360   12.0870 C   0  0  0  0  0
   -5.3170    5.7130   12.7440 O   0  0  0  0  0
   -5.9040    7.5040   11.1390 C   0  0  0  0  0
   -7.2310    1.1050   16.3310 O   0  0  0  0  0
   -5.2900    1.0400   17.8720 O   0  0  0  0  0
   -5.4160   -0.4900   15.9800 N   0  0  0  0  0
   -6.9960    6.9800   10.9150 O   0  0  0  0  0
   -5.5130    8.6250   10.5320 N   0  0  0  0  0
   -5.2970    9.7510   11.2600 C   0  0  0  0  0
   -3.8460   10.2340   11.2390 C   0  0  0  0  0
   -2.9870    9.2570   10.6470 O   0  0  0  0  0
   -3.4380    8.7980    9.3000 C   0  0  0  0  0
   -4.9280    8.5720    9.2200 C   0  0  0  0  0
   -2.2199    3.5356   14.3357 H   0  0  0  0  0
   -2.9088    1.4658   15.7669 H   0  0  0  0  0
   -2.2043    6.1608   13.5476 H   0  0  0  0  0
   -6.1180   -1.0897   15.5464 H   0  0  0  0  0
   -4.4474   -0.8031   16.0446 H   0  0  0  0  0
   -5.5468    9.5203   12.2956 H   0  0  0  0  0
   -5.9080   10.5412   10.8236 H   0  0  0  0  0
   -3.5214   10.4080   12.2649 H   0  0  0  0  0
   -3.7916   11.1493   10.6496 H   0  0  0  0  0
   -2.9471    7.8472    9.0925 H   0  0  0  0  0
   -3.1820    9.5769    8.5817 H   0  0  0  0  0
   -5.3729    9.3509    8.6008 H   0  0  0  0  0
   -5.1157    7.5896    8.7866 H   0  0  0  0  0
  1  2  1  0  0  0
  1 13  2  0  0  0
  1 14  2  0  0  0
  1 15  1  0  0  0
  2  3  4  0  0  0
  2  6  4  0  0  0
  3  4  4  0  0  0
  4  5  4  0  0  0
  4  7  1  0  0  0
  5  6  4  0  0  0
  7  8  4  0  0  0
  7 11  4  0  0  0
  8  9  4  0  0  0
  9 10  4  0  0  0
 10 11  4  0  0  0
 10 12  1  0  0  0
 12 16  2  0  0  0
 12 17  1  0  0  0
 17 18  1  0  0  0
 17 22  1  0  0  0
 18 19  1  0  0  0
 19 20  1  0  0  0
 20 21  1  0  0  0
 21 22  1  0  0  0
  5 23  1  0  0  0
  6 24  1  0  0  0
  8 25  1  0  0  0
 15 26  1  0  0  0
 15 27  1  0  0  0
 18 28  1  0  0  0
 18 29  1  0  0  0
 19 30  1  0  0  0
 19 31  1  0  0  0
 21 32  1  0  0  0
 21 33  1  0  0  0
 22 34  1  0  0  0
 22 35  1  0  0  0
M  END
$$$$
