4u2y_ligand
  -I-interpret- 

 46 47  0  0  0  0  0  0  0  0999 V2000
   27.3770  -29.4670  278.9870 O   0  0  0  0  0
   27.2450  -30.7450  279.6140 C   0  0  0  0  0
   25.8170  -31.0760  280.0380 C   0  0  0  0  0
   23.8070  -30.1220  280.4210 C   0  0  0  0  0
   23.0010  -30.3880  281.5160 C   0  0  0  0  0
   22.4760  -29.0960  281.9220 O   0  0  0  0  0
   23.6710  -31.2280  279.2710 C   0  0  0  0  0
   22.5290  -30.8150  278.3730 O   0  0  0  0  0
   24.7930  -31.1390  278.7190 C   0  0  0  0  0
   25.1430  -32.2780  277.8500 O   0  0  0  0  0
   24.7000  -32.0300  276.5420 C   0  0  0  0  0
   24.3670  -33.3570  275.9370 C   0  0  0  0  0
   23.3400  -33.9690  276.7540 O   0  0  0  0  0
   25.5910  -34.1920  275.8300 C   0  0  0  0  0
   25.3160  -35.5290  275.3250 O   0  0  0  0  0
   26.5740  -33.5070  274.9590 C   0  0  0  0  0
   27.7510  -34.3480  274.7720 O   0  0  0  0  0
   26.9350  -32.2140  275.6360 C   0  0  0  0  0
   28.0290  -31.4480  274.9630 C   0  0  0  0  0
   27.5060  -30.7740  273.8310 O   0  0  0  0  0
   25.7540  -31.3280  275.7860 O   0  0  0  0  0
   25.2970  -30.1390  280.7830 N   0  3  0  0  0
   28.2952  -29.3230  278.7468 H   0  0  0  0  0
   27.8575  -30.7304  280.5155 H   0  0  0  0  0
   27.5519  -31.4975  278.8876 H   0  0  0  0  0
   25.8970  -32.0272  280.5643 H   0  0  0  0  0
   23.4724  -29.1413  280.0827 H   0  0  0  0  0
   23.5591  -30.8671  282.3204 H   0  0  0  0  0
   22.2027  -31.0877  281.2684 H   0  0  0  0  0
   21.9034  -29.2097  282.6841 H   0  0  0  0  0
   23.4503  -32.2487  279.5833 H   0  0  0  0  0
   21.7003  -30.9044  278.8494 H   0  0  0  0  0
   24.8405  -30.2866  278.0414 H   0  0  0  0  0
   23.8188  -31.3887  276.5254 H   0  0  0  0  0
   23.9852  -33.2464  274.9221 H   0  0  0  0  0
   23.1076  -34.8247  276.3860 H   0  0  0  0  0
   25.9973  -34.3152  276.8339 H   0  0  0  0  0
   26.1359  -36.0259  275.2750 H   0  0  0  0  0
   26.1576  -33.3126  273.9706 H   0  0  0  0  0
   28.3804  -33.8944  274.2066 H   0  0  0  0  0
   27.3075  -32.5190  276.6139 H   0  0  0  0  0
   28.8129  -32.1360  274.6464 H   0  0  0  0  0
   28.4447  -30.7200  275.6596 H   0  0  0  0  0
   28.2088  -30.2826  273.3996 H   0  0  0  0  0
   25.7368  -29.2345  280.6132 H   0  0  0  0  0
   25.4419  -30.3225  281.7758 H   0  0  0  0  0
  2  1  1  0  0  0
  3  2  1  0  0  0
  3  9  1  0  0  0
 22  3  1  0  0  0
  4  5  1  0  0  0
  4  7  1  0  0  0
  4 22  1  0  0  0
  5  6  1  0  0  0
  7  8  1  0  0  0
  7  9  1  0  0  0
  9 10  1  0  0  0
 10 11  1  0  0  0
 11 12  1  0  0  0
 11 21  1  0  0  0
 12 13  1  0  0  0
 12 14  1  0  0  0
 14 15  1  0  0  0
 14 16  1  0  0  0
 16 17  1  0  0  0
 16 18  1  0  0  0
 18 19  1  0  0  0
 18 21  1  0  0  0
 19 20  1  0  0  0
  1 23  1  0  0  0
  2 24  1  0  0  0
  2 25  1  0  0  0
  3 26  1  0  0  0
  4 27  1  0  0  0
  5 28  1  0  0  0
  5 29  1  0  0  0
  6 30  1  0  0  0
  7 31  1  0  0  0
  8 32  1  0  0  0
  9 33  1  0  0  0
 11 34  1  0  0  0
 12 35  1  0  0  0
 13 36  1  0  0  0
 14 37  1  0  0  0
 15 38  1  0  0  0
 16 39  1  0  0  0
 17 40  1  0  0  0
 18 41  1  0  0  0
 19 42  1  0  0  0
 19 43  1  0  0  0
 20 44  1  0  0  0
 22 45  1  0  0  0
 22 46  1  0  0  0
M  END
$$$$
