4og8_ligand
  -I-interpret- 

 68 71  0  0  0  0  0  0  0  0999 V2000
   10.7820   19.1740   13.4280 C   0  0  0  0  0
   10.2110   20.3510   13.9100 C   0  0  0  0  0
    8.8390   20.4500   13.9770 C   0  0  0  0  0
    8.2260   21.6560   14.5220 C   0  0  0  0  0
    7.7610   22.5890   14.9450 N   0  0  0  0  0
    8.0590   19.4040   13.5550 C   0  0  0  0  0
    8.6080   18.1900   13.1160 C   0  0  0  0  0
    9.9800   18.1220   13.0120 C   0  0  0  0  0
   10.6340   17.0280   12.5580 O   0  0  0  0  0
    9.8200   15.9040   12.1510 C   0  0  0  0  0
   10.7640   15.0530   11.2760 C   0  0  0  0  0
   11.6810   14.3510   12.2700 C   0  0  0  0  0
   12.7470   13.5620   11.5280 N   0  3  0  0  0
   13.6020   12.8520   12.5240 C   0  0  0  0  0
   14.7510   12.0840   11.9470 C   0  0  0  0  0
   12.1590   12.5020   10.6870 C   0  0  0  0  0
   13.2570   11.7460    9.9150 C   0  0  0  0  0
   14.1710   11.0540   10.9750 C   0  0  0  0  0
   15.2610   10.0850   10.4250 C   0  0  0  0  0
   14.6030    9.0950    9.3890 C   0  0  0  0  0
   13.5070    8.2210    9.8380 C   0  0  0  0  0
   13.2770    7.2290    8.6950 C   0  0  0  0  0
   14.6050    7.2520    7.8880 C   0  0  0  0  0
   15.5970    8.1450    8.6890 C   0  0  0  0  0
   16.2640   10.9470    9.7180 N   0  3  0  0  0
   15.9320    9.3250   11.5220 C   0  0  0  0  0
   15.2110    8.7410   12.5550 C   0  0  0  0  0
   15.8060    8.0190   13.5720 C   0  0  0  0  0
   17.1570    7.7940   13.5730 C   0  0  0  0  0
   17.9020    8.3100   12.5450 C   0  0  0  0  0
   17.3040    9.0650   11.5260 C   0  0  0  0  0
   11.8668   19.0800   13.3778 H   0  0  0  0  0
   10.8414   21.1809   14.2292 H   0  0  0  0  0
    6.9752   19.5199   13.5609 H   0  0  0  0  0
    7.9762   17.3372   12.8678 H   0  0  0  0  0
    8.9268   16.2165   11.6101 H   0  0  0  0  0
    9.4329   15.3455   13.0033 H   0  0  0  0  0
   11.3230   15.6635   10.5668 H   0  0  0  0  0
   10.2159   14.3436   10.6560 H   0  0  0  0  0
   11.0908   13.6684   12.8814 H   0  0  0  0  0
   12.1626   15.0973   12.9018 H   0  0  0  0  0
   13.2652   14.2256   10.9523 H   0  0  0  0  0
   12.9613   12.1265   13.0252 H   0  0  0  0  0
   14.0309   13.6179   13.1702 H   0  0  0  0  0
   15.3145   11.5883   12.7374 H   0  0  0  0  0
   15.4368   12.7543   11.4289 H   0  0  0  0  0
   11.4763   12.9591    9.9707 H   0  0  0  0  0
   11.6304   11.7967   11.3282 H   0  0  0  0  0
   13.8360   12.4333    9.2981 H   0  0  0  0  0
   12.8169   11.0069    9.2456 H   0  0  0  0  0
   13.5020   10.3827   11.5134 H   0  0  0  0  0
   14.1892    9.8543    8.7254 H   0  0  0  0  0
   12.6053    8.7930   10.0567 H   0  0  0  0  0
   13.7609    7.7081   10.7657 H   0  0  0  0  0
   12.4202    7.5049    8.0803 H   0  0  0  0  0
   13.0387    6.2306    9.0618 H   0  0  0  0  0
   14.4448    7.6502    6.8861 H   0  0  0  0  0
   15.0020    6.2446    7.7630 H   0  0  0  0  0
   16.2474    7.5951    9.3692 H   0  0  0  0  0
   16.3435    8.6491    8.0752 H   0  0  0  0  0
   17.0054   10.3601    9.3356 H   0  0  0  0  0
   15.8032   11.4513    8.9606 H   0  0  0  0  0
   16.6632   11.6138   10.3786 H   0  0  0  0  0
   14.1273    8.8572   12.5641 H   0  0  0  0  0
   15.1933    7.6242   14.3824 H   0  0  0  0  0
   17.6275    7.2194   14.3708 H   0  0  0  0  0
   18.9768    8.1306   12.5191 H   0  0  0  0  0
   17.9234    9.4575   10.7195 H   0  0  0  0  0
  1  2  4  0  0  0
  1  8  4  0  0  0
  2  3  4  0  0  0
  3  4  1  0  0  0
  3  6  4  0  0  0
  4  5  3  0  0  0
  6  7  4  0  0  0
  7  8  4  0  0  0
  8  9  1  0  0  0
  9 10  1  0  0  0
 10 11  1  0  0  0
 11 12  1  0  0  0
 12 13  1  0  0  0
 13 14  1  0  0  0
 13 16  1  0  0  0
 14 15  1  0  0  0
 15 18  1  0  0  0
 16 17  1  0  0  0
 17 18  1  0  0  0
 18 19  1  0  0  0
 19 20  1  0  0  0
 19 25  1  0  0  0
 19 26  1  0  0  0
 20 21  1  0  0  0
 20 24  1  0  0  0
 21 22  1  0  0  0
 22 23  1  0  0  0
 23 24  1  0  0  0
 26 27  4  0  0  0
 26 31  4  0  0  0
 27 28  4  0  0  0
 28 29  4  0  0  0
 29 30  4  0  0  0
 30 31  4  0  0  0
  1 32  1  0  0  0
  2 33  1  0  0  0
  6 34  1  0  0  0
  7 35  1  0  0  0
 10 36  1  0  0  0
 10 37  1  0  0  0
 11 38  1  0  0  0
 11 39  1  0  0  0
 12 40  1  0  0  0
 12 41  1  0  0  0
 13 42  1  0  0  0
 14 43  1  0  0  0
 14 44  1  0  0  0
 15 45  1  0  0  0
 15 46  1  0  0  0
 16 47  1  0  0  0
 16 48  1  0  0  0
 17 49  1  0  0  0
 17 50  1  0  0  0
 18 51  1  0  0  0
 20 52  1  0  0  0
 21 53  1  0  0  0
 21 54  1  0  0  0
 22 55  1  0  0  0
 22 56  1  0  0  0
 23 57  1  0  0  0
 23 58  1  0  0  0
 24 59  1  0  0  0
 24 60  1  0  0  0
 25 61  1  0  0  0
 25 62  1  0  0  0
 25 63  1  0  0  0
 27 64  1  0  0  0
 28 65  1  0  0  0
 29 66  1  0  0  0
 30 67  1  0  0  0
 31 68  1  0  0  0
M  END
$$$$
