2og8_ligand
  -I-interpret- 

 73 76  0  0  0  0  0  0  0  0999 V2000
    3.0170   26.6310   58.1430 C   0  0  0  0  0
    3.3950   27.6880   57.2440 C   0  0  0  0  0
    4.7990   27.8720   56.9700 C   0  0  0  0  0
    5.2680   28.8830   55.9860 C   0  0  0  0  0
    4.4430   29.9090   55.6550 N   0  0  0  0  0
    4.5500   30.6750   54.5550 C   0  0  0  0  0
    4.3920   32.0770   54.6920 C   0  0  0  0  0
    4.4850   33.0190   53.5830 C   0  0  0  0  0
    4.7510   32.4630   52.3020 C   0  0  0  0  0
    4.9150   31.0060   52.1520 C   0  0  0  0  0
    4.8130   30.1020   53.2920 C   0  0  0  0  0
    5.2010   30.3940   50.7400 C   0  0  0  0  0
    4.7940   29.1490   50.5580 F   0  0  0  0  0
    6.4700   30.4090   50.4520 F   0  0  0  0  0
    4.5570   31.0590   49.8280 F   0  0  0  0  0
    6.3640   28.8020   55.4640 O   0  0  0  0  0
    5.8100   27.0330   57.5850 C   0  0  0  0  0
    5.4580   25.9530   58.4940 C   0  0  0  0  0
    4.0610   25.7940   58.7340 C   0  0  0  0  0
    3.5590   24.7130   59.5990 C   0  0  0  0  0
    4.1440   32.4690   55.9700 N   0  0  0  0  0
    3.5140   33.6200   56.3390 C   0  0  0  0  0
    3.7760   34.0150   57.7810 C   0  0  0  0  0
    3.7970   35.4930   57.8910 N   0  3  0  0  0
    4.9520   35.9320   58.7010 C   0  0  0  0  0
    2.5630   36.0720   58.4440 C   0  0  0  0  0
    5.5420   37.1550   58.0270 C   0  0  0  0  0
    1.8260   35.1180   59.3770 C   0  0  0  0  0
    9.7900   21.4520   58.1900 N   0  0  0  0  0
    8.7190   22.1740   57.7860 C   0  0  0  0  0
    8.1960   23.2170   58.6010 C   0  0  0  0  0
    8.8840   23.4720   59.9240 C   0  0  0  0  0
    9.9810   22.6650   60.2400 N   0  0  0  0  0
   10.4070   21.6840   59.3830 C   0  0  0  0  0
    7.0850   24.0310   58.2200 C   0  0  0  0  0
    6.5720   25.1220   59.0530 C   0  0  0  0  0
    7.2320   25.3710   60.3500 C   0  0  0  0  0
    8.3800   24.5490   60.7780 C   0  0  0  0  0
   11.4400   20.8790   59.7030 N   0  0  0  0  0
   12.2420   21.0180   60.9180 C   0  0  0  0  0
    2.8020   34.2880   55.5870 O   0  0  0  0  0
    1.9677   26.4561   58.3806 H   0  0  0  0  0
    2.6438   28.3301   56.7840 H   0  0  0  0  0
    3.6766   30.1166   56.2953 H   0  0  0  0  0
    4.3574   34.0917   53.7283 H   0  0  0  0  0
    4.8336   33.1137   51.4314 H   0  0  0  0  0
    4.9351   29.0254   53.1733 H   0  0  0  0  0
    6.8607   27.2165   57.3602 H   0  0  0  0  0
    2.9915   25.1435   60.4240 H   0  0  0  0  0
    2.9142   24.0540   59.0176 H   0  0  0  0  0
    4.4011   24.1442   59.9933 H   0  0  0  0  0
    4.4562   31.8484   56.7169 H   0  0  0  0  0
    4.7377   33.6128   58.0994 H   0  0  0  0  0
    2.9870   33.6140   58.4172 H   0  0  0  0  0
    3.8772   35.8378   56.9344 H   0  0  0  0  0
    5.6952   35.1374   58.7676 H   0  0  0  0  0
    4.6367   36.1711   59.7166 H   0  0  0  0  0
    1.8996   36.3004   57.6098 H   0  0  0  0  0
    2.8390   36.9547   59.0208 H   0  0  0  0  0
    5.8607   36.8939   57.0179 H   0  0  0  0  0
    4.7884   37.9411   57.9794 H   0  0  0  0  0
    6.3996   37.5063   58.6008 H   0  0  0  0  0
    1.5538   34.2151   58.8303 H   0  0  0  0  0
    2.4744   34.8564   60.2132 H   0  0  0  0  0
    0.9247   35.6027   59.7522 H   0  0  0  0  0
    8.2519   21.9543   56.8260 H   0  0  0  0  0
    6.5968   23.8312   57.2661 H   0  0  0  0  0
    6.8679   26.1691   60.9970 H   0  0  0  0  0
    8.8570   24.7453   61.7383 H   0  0  0  0  0
   11.6770   20.1258   59.0573 H   0  0  0  0  0
   12.7134   22.0007   60.9302 H   0  0  0  0  0
   11.5981   20.9117   61.7910 H   0  0  0  0  0
   13.0102   20.2449   60.9352 H   0  0  0  0  0
  1  2  4  0  0  0
 19  1  4  0  0  0
  3  2  4  0  0  0
  3  4  1  0  0  0
 17  3  4  0  0  0
  4  5  1  0  0  0
  4 16  2  0  0  0
  5  6  1  0  0  0
  6  7  4  0  0  0
  6 11  4  0  0  0
  7  8  4  0  0  0
  7 21  1  0  0  0
  8  9  4  0  0  0
 10  9  4  0  0  0
 11 10  4  0  0  0
 10 12  1  0  0  0
 12 13  1  0  0  0
 12 14  1  0  0  0
 12 15  1  0  0  0
 18 17  4  0  0  0
 18 19  4  0  0  0
 36 18  1  0  0  0
 19 20  1  0  0  0
 21 22  1  0  0  0
 22 23  1  0  0  0
 22 41  2  0  0  0
 23 24  1  0  0  0
 24 25  1  0  0  0
 24 26  1  0  0  0
 25 27  1  0  0  0
 26 28  1  0  0  0
 30 29  4  0  0  0
 29 34  4  0  0  0
 31 30  4  0  0  0
 31 32  4  0  0  0
 35 31  4  0  0  0
 32 33  4  0  0  0
 32 38  4  0  0  0
 33 34  4  0  0  0
 34 39  1  0  0  0
 35 36  4  0  0  0
 36 37  4  0  0  0
 37 38  4  0  0  0
 39 40  1  0  0  0
  1 42  1  0  0  0
  2 43  1  0  0  0
  5 44  1  0  0  0
  8 45  1  0  0  0
  9 46  1  0  0  0
 11 47  1  0  0  0
 17 48  1  0  0  0
 20 49  1  0  0  0
 20 50  1  0  0  0
 20 51  1  0  0  0
 21 52  1  0  0  0
 23 53  1  0  0  0
 23 54  1  0  0  0
 24 55  1  0  0  0
 25 56  1  0  0  0
 25 57  1  0  0  0
 26 58  1  0  0  0
 26 59  1  0  0  0
 27 60  1  0  0  0
 27 61  1  0  0  0
 27 62  1  0  0  0
 28 63  1  0  0  0
 28 64  1  0  0  0
 28 65  1  0  0  0
 30 66  1  0  0  0
 35 67  1  0  0  0
 37 68  1  0  0  0
 38 69  1  0  0  0
 39 70  1  0  0  0
 40 71  1  0  0  0
 40 72  1  0  0  0
 40 73  1  0  0  0
M  END
$$$$
