5iua_ligand
  -I-interpret- 

 57 61  0  0  0  0  0  0  0  0999 V2000
  -21.0550   14.8060   14.4660 C   0  0  0  0  0
  -18.7130   14.3340   15.8520 C   0  0  0  0  0
  -18.1010   16.1010   14.2420 C   0  0  0  0  0
  -16.7530   15.7550   12.2670 C   0  0  0  0  0
  -17.8270   17.4590   14.1880 C   0  0  0  0  0
  -21.0760    6.6640   17.4580 C   0  0  0  0  0
  -20.0150    4.9930   18.4320 C   0  0  0  0  0
  -16.4800   17.1150   12.2170 C   0  0  0  0  0
  -17.0150   17.9660   13.1740 C   0  0  0  0  0
  -17.5620   15.2500   13.2780 C   0  0  0  0  0
  -19.4730   13.2170   15.1180 C   0  0  0  0  0
  -20.3040   15.8560   15.2850 C   0  0  0  0  0
  -18.2590    8.8970   18.0590 N   0  0  0  0  0
  -19.5380    8.4200   17.6300 C   0  0  0  0  0
  -20.4050    9.2450   17.0000 N   0  0  0  0  0
  -21.6240    8.7800   16.5920 C   0  0  0  0  0
  -22.5380    9.6420   15.9250 N   0  0  0  0  0
  -22.2140   11.0490   15.7670 C   0  0  0  0  0
  -21.3040   11.2390   14.5390 C   0  0  0  0  0
  -21.3020   12.7040   14.0310 C   0  0  0  0  0
  -20.8140   13.5030   14.8930 N   0  3  0  0  0
  -18.9600   15.5730   15.3120 N   0  0  0  0  0
  -21.9650    7.5110   16.8100 N   0  0  0  0  0
  -21.1690    5.3300   17.8120 N   0  0  0  0  0
  -19.2080    6.0860   18.4630 N   0  0  0  0  0
  -19.8880    7.1120   17.8570 N   0  0  0  0  0
  -19.6770    3.5940   18.9780 C   0  0  0  0  0
  -20.5870    2.5580   19.2260 C   0  0  0  0  0
  -19.8430    1.4610   19.6970 C   0  0  0  0  0
  -18.5030    1.8400   19.7230 C   0  0  0  0  0
  -18.4290    3.1370   19.2770 O   0  0  0  0  0
  -20.7124   14.8844   13.4342 H   0  0  0  0  0
  -22.1217   14.9991   14.5795 H   0  0  0  0  0
  -17.6455   14.1324   15.7628 H   0  0  0  0  0
  -19.0457   14.3445   16.8899 H   0  0  0  0  0
  -16.3343   15.0853   11.5158 H   0  0  0  0  0
  -18.2461   18.1300   14.9378 H   0  0  0  0  0
  -15.8454   17.5147   11.4261 H   0  0  0  0  0
  -16.7998   19.0338   13.1329 H   0  0  0  0  0
  -17.7764   14.1820   13.3175 H   0  0  0  0  0
  -19.4321   12.3286   15.7482 H   0  0  0  0  0
  -19.0007   13.0892   14.1440 H   0  0  0  0  0
  -20.6879   15.8509   16.3052 H   0  0  0  0  0
  -20.4511   16.8343   14.8273 H   0  0  0  0  0
  -17.9938    9.8674   17.8905 H   0  0  0  0  0
  -17.6124    8.2666   18.5333 H   0  0  0  0  0
  -23.4163    9.2740   15.5596 H   0  0  0  0  0
  -21.6955   11.4021   16.6584 H   0  0  0  0  0
  -23.1334   11.6173   15.6261 H   0  0  0  0  0
  -21.6797   10.6031   13.7374 H   0  0  0  0  0
  -20.2857   10.9796   14.8286 H   0  0  0  0  0
  -22.3326   12.9998   13.8348 H   0  0  0  0  0
  -20.6880   12.7537   13.1318 H   0  0  0  0  0
  -21.2651   13.3901   15.8008 H   0  0  0  0  0
  -21.6667    2.5950   19.0814 H   0  0  0  0  0
  -20.2429    0.4899   19.9889 H   0  0  0  0  0
  -17.6647    1.2196   20.0399 H   0  0  0  0  0
  1 12  1  0  0  0
 21  1  1  0  0  0
 11  2  1  0  0  0
  2 22  1  0  0  0
  3  5  4  0  0  0
  3 10  4  0  0  0
 22  3  1  0  0  0
  4  8  4  0  0  0
 10  4  4  0  0  0
  5  9  4  0  0  0
 23  6  4  0  0  0
  6 24  4  0  0  0
  6 26  4  0  0  0
 24  7  4  0  0  0
  7 25  4  0  0  0
  7 27  1  0  0  0
  9  8  4  0  0  0
 21 11  1  0  0  0
 12 22  1  0  0  0
 14 13  1  0  0  0
 15 14  4  0  0  0
 14 26  4  0  0  0
 16 15  4  0  0  0
 17 16  1  0  0  0
 16 23  4  0  0  0
 18 17  1  0  0  0
 19 18  1  0  0  0
 20 19  1  0  0  0
 20 21  1  0  0  0
 25 26  4  0  0  0
 27 28  4  0  0  0
 27 31  4  0  0  0
 28 29  4  0  0  0
 29 30  4  0  0  0
 30 31  4  0  0  0
  1 32  1  0  0  0
  1 33  1  0  0  0
  2 34  1  0  0  0
  2 35  1  0  0  0
  4 36  1  0  0  0
  5 37  1  0  0  0
  8 38  1  0  0  0
  9 39  1  0  0  0
 10 40  1  0  0  0
 11 41  1  0  0  0
 11 42  1  0  0  0
 12 43  1  0  0  0
 12 44  1  0  0  0
 13 45  1  0  0  0
 13 46  1  0  0  0
 17 47  1  0  0  0
 18 48  1  0  0  0
 18 49  1  0  0  0
 19 50  1  0  0  0
 19 51  1  0  0  0
 20 52  1  0  0  0
 20 53  1  0  0  0
 21 54  1  0  0  0
 28 55  1  0  0  0
 29 56  1  0  0  0
 30 57  1  0  0  0
M  END
$$$$
