5hdx_ligand
  -I-interpret- 

 50 53  0  0  0  0  0  0  0  0999 V2000
   22.8250   10.5970   20.6490 C   0  0  0  0  0
   15.7950   10.6030   22.5010 C   0  0  0  0  0
   20.3390    9.8680   20.7990 C   0  0  0  0  0
   19.6630   11.6700   22.2870 C   0  0  0  0  0
   15.1970    9.7510   21.6180 C   0  0  0  0  0
   16.0160    9.1480   20.6890 C   0  0  0  0  0
   23.0020   11.2320   19.4250 C   0  0  0  0  0
   22.4300   11.4290   23.9860 N   0  0  0  0  0
   25.2010   10.5760   19.8510 C   0  0  0  0  0
   26.5970   10.4160   19.7510 C   0  0  0  0  0
   17.8670   10.1950   21.5660 C   0  0  0  0  0
   21.6030   10.4250   21.4830 C   0  0  0  0  0
   21.1190   11.7860   21.9440 C   0  0  0  0  0
   22.3590   10.0640   23.8270 C   0  0  0  0  0
   21.8220   12.3450   23.1500 C   0  0  0  0  0
   21.8390    9.5870   22.6550 N   0  0  0  0  0
   17.1170   10.8130   22.5010 N   0  0  0  0  0
   19.2860   10.4580   21.6140 N   0  0  0  0  0
   17.3460    9.3660   20.6560 N   0  0  0  0  0
   24.3380    9.9890   21.2100 S   0  0  0  0  0
   27.7530   10.3360   19.7580 N   0  0  0  0  0
   22.7750    9.2610   24.7540 N   0  0  0  0  0
   24.3490   11.2140   18.9700 C   0  0  0  0  0
   21.7760   13.5490   23.3620 O   0  0  0  0  0
   13.8780    9.5380   21.7050 F   0  0  0  0  0
   23.2190   11.9850   25.0680 C   0  0  0  0  0
   14.9800   11.1690   23.4650 O   0  0  0  0  0
   15.4070    8.2320   19.6650 C   0  0  0  0  0
   15.2130   12.5780   23.4610 C   0  0  0  0  0
   14.7620   13.1220   24.7950 C   0  0  0  0  0
   20.3054    8.7791   20.7630 H   0  0  0  0  0
   20.2668   10.1214   19.7413 H   0  0  0  0  0
   19.0781   12.5347   21.9733 H   0  0  0  0  0
   19.4761   11.6406   23.3605 H   0  0  0  0  0
   22.1884   11.6978   18.8689 H   0  0  0  0  0
   21.3272   12.4694   21.1207 H   0  0  0  0  0
   21.6044    8.5960   22.5971 H   0  0  0  0  0
   23.1628    9.6378   25.6189 H   0  0  0  0  0
   24.6743   11.6557   18.0281 H   0  0  0  0  0
   22.8317   11.6243   26.0209 H   0  0  0  0  0
   24.2577   11.6743   24.9554 H   0  0  0  0  0
   23.1586   13.0729   25.0382 H   0  0  0  0  0
   14.9099    7.4038   20.1701 H   0  0  0  0  0
   14.6802    8.7857   19.0706 H   0  0  0  0  0
   16.1908    7.8445   19.0142 H   0  0  0  0  0
   14.6582   13.0518   22.6512 H   0  0  0  0  0
   16.2713   12.7868   23.3046 H   0  0  0  0  0
   13.7009   12.9132   24.9311 H   0  0  0  0  0
   15.3326   12.6453   25.5920 H   0  0  0  0  0
   14.9280   14.1989   24.8217 H   0  0  0  0  0
  1  7  4  0  0  0
 12  1  1  0  0  0
  1 20  4  0  0  0
  2  5  4  0  0  0
 17  2  4  0  0  0
  2 27  1  0  0  0
 12  3  1  0  0  0
  3 18  1  0  0  0
 13  4  1  0  0  0
  4 18  1  0  0  0
  6  5  4  0  0  0
  5 25  1  0  0  0
 19  6  4  0  0  0
  6 28  1  0  0  0
  7 23  4  0  0  0
  8 14  4  0  0  0
 15  8  1  0  0  0
  8 26  1  0  0  0
  9 10  1  0  0  0
 20  9  4  0  0  0
  9 23  4  0  0  0
 10 21  3  0  0  0
 11 17  4  0  0  0
 18 11  1  0  0  0
 11 19  4  0  0  0
 13 12  1  0  0  0
 12 16  1  0  0  0
 13 15  1  0  0  0
 14 16  1  0  0  0
 14 22  2  0  0  0
 15 24  2  0  0  0
 27 29  1  0  0  0
 29 30  1  0  0  0
  3 31  1  0  0  0
  3 32  1  0  0  0
  4 33  1  0  0  0
  4 34  1  0  0  0
  7 35  1  0  0  0
 13 36  1  0  0  0
 16 37  1  0  0  0
 22 38  1  0  0  0
 23 39  1  0  0  0
 26 40  1  0  0  0
 26 41  1  0  0  0
 26 42  1  0  0  0
 28 43  1  0  0  0
 28 44  1  0  0  0
 28 45  1  0  0  0
 29 46  1  0  0  0
 29 47  1  0  0  0
 30 48  1  0  0  0
 30 49  1  0  0  0
 30 50  1  0  0  0
M  END
$$$$
