3zcw_ligand
  -I-interpret- 

 50 53  0  0  0  0  0  0  0  0999 V2000
   -2.9620   -5.8180   12.6990 F   0  0  0  0  0
   -1.6840   -5.6420   12.5050 C   0  0  0  0  0
   -1.0290   -6.0040   13.5880 F   0  0  0  0  0
   -1.3320   -6.4500   11.4950 F   0  0  0  0  0
   -1.3780   -4.1690   12.1960 C   0  0  0  0  0
   -0.3580   -3.5260   12.9450 C   0  0  0  0  0
   -0.0470   -2.2110   12.6690 C   0  0  0  0  0
   -0.7440   -1.5430   11.6660 C   0  0  0  0  0
   -1.7450   -2.1600   10.9340 C   0  0  0  0  0
   -2.0620   -3.4870   11.2000 C   0  0  0  0  0
   -3.1910   -4.1740   10.3780 C   0  0  0  0  0
   -3.4540   -3.4850    9.0980 N   0  0  0  0  0
   -2.7890   -3.7480    7.9930 C   0  0  0  0  0
   -1.7260   -4.6350    7.7430 C   0  0  0  0  0
   -1.2060   -4.7040    6.4490 C   0  0  0  0  0
   -1.7540   -3.8730    5.4540 C   0  0  0  0  0
   -1.2090   -3.9140    4.0320 C   0  0  0  0  0
   -1.9160   -3.4550    3.0880 O   0  0  0  0  0
   -0.0980   -4.4270    3.8110 O   0  0  0  0  0
   -2.7990   -2.9870    5.7330 C   0  0  0  0  0
   -3.3340   -2.9330    7.0130 C   0  0  0  0  0
   -4.3010   -2.1940    7.5680 N   0  0  0  0  0
   -4.3750   -2.5490    8.8710 C   0  0  0  0  0
   -5.2440   -2.0790    9.7660 N   0  0  0  0  0
   -6.0270   -0.9950    9.6720 C   0  0  0  0  0
   -5.6460    0.0950    8.9050 C   0  0  0  0  0
   -6.4800    1.2050    8.8360 C   0  0  0  0  0
   -6.1240    2.2710    8.1170 F   0  0  0  0  0
   -7.6710    1.2720    9.5440 C   0  0  0  0  0
   -8.4470    2.3880    9.4500 O   0  0  0  0  0
   -9.4170    2.5720   10.5220 C   0  0  0  0  0
   -8.0600    0.1740   10.3020 C   0  0  0  0  0
   -7.2370   -0.9590   10.3760 C   0  0  0  0  0
    0.1733   -4.0653   13.7292 H   0  0  0  0  0
    0.7358   -1.7004   13.2299 H   0  0  0  0  0
   -0.4947   -0.5040   11.4504 H   0  0  0  0  0
   -2.2783   -1.6110   10.1579 H   0  0  0  0  0
   -4.1053   -4.1452   10.9708 H   0  0  0  0  0
   -2.8734   -5.1923   10.1540 H   0  0  0  0  0
   -1.3175   -5.2544    8.5415 H   0  0  0  0  0
   -0.3910   -5.3885    6.2139 H   0  0  0  0  0
   -2.7338   -3.1011    3.4451 H   0  0  0  0  0
   -3.1923   -2.3408    4.9482 H   0  0  0  0  0
   -5.3232   -2.6118   10.6322 H   0  0  0  0  0
   -4.7015    0.0819    8.3612 H   0  0  0  0  0
  -10.1005    1.7231   10.5415 H   0  0  0  0  0
   -8.8938    2.6408   11.4758 H   0  0  0  0  0
   -9.9796    3.4892   10.3477 H   0  0  0  0  0
   -9.0075    0.1936   10.8405 H   0  0  0  0  0
   -7.5395   -1.8128   10.9823 H   0  0  0  0  0
  1  2  1  0  0  0
  2  3  1  0  0  0
  2  4  1  0  0  0
  2  5  1  0  0  0
  5  6  4  0  0  0
  5 10  4  0  0  0
  6  7  4  0  0  0
  7  8  4  0  0  0
  8  9  4  0  0  0
  9 10  4  0  0  0
 10 11  1  0  0  0
 11 12  1  0  0  0
 12 13  4  0  0  0
 12 23  4  0  0  0
 13 14  4  0  0  0
 13 21  4  0  0  0
 14 15  4  0  0  0
 15 16  4  0  0  0
 16 17  1  0  0  0
 16 20  4  0  0  0
 17 18  1  0  0  0
 17 19  2  0  0  0
 20 21  4  0  0  0
 21 22  4  0  0  0
 22 23  4  0  0  0
 23 24  1  0  0  0
 24 25  1  0  0  0
 25 26  4  0  0  0
 25 33  4  0  0  0
 26 27  4  0  0  0
 27 28  1  0  0  0
 27 29  4  0  0  0
 29 30  1  0  0  0
 29 32  4  0  0  0
 30 31  1  0  0  0
 32 33  4  0  0  0
  6 34  1  0  0  0
  7 35  1  0  0  0
  8 36  1  0  0  0
  9 37  1  0  0  0
 11 38  1  0  0  0
 11 39  1  0  0  0
 14 40  1  0  0  0
 15 41  1  0  0  0
 18 42  1  0  0  0
 20 43  1  0  0  0
 24 44  1  0  0  0
 26 45  1  0  0  0
 31 46  1  0  0  0
 31 47  1  0  0  0
 31 48  1  0  0  0
 32 49  1  0  0  0
 33 50  1  0  0  0
M  END
$$$$
