### 
### Created by X-TOOL on Mon Aug  2 16:12:24 2021
### 

@<TRIPOS>MOLECULE
5zdf_ligand
   57    60     1     0     0
SMALL
GAST_HUCK


@<TRIPOS>ATOM
      1 N1         10.3320   -7.4350    0.8470 N.ar      1 AR6        -0.2698
      2 C2         10.9290   -6.2580    0.5450 C.ar      1 AR6         0.0533
      3 N3         12.0760   -5.9020    1.1470 N.ar      1 AR6        -0.2714
      4 C4         12.6140   -6.7330    2.0530 C.ar      1 AR6         0.1613
      5 C5         12.0310   -7.9040    2.3570 C.ar      1 AR6         0.1045
      6 C6         10.8640   -8.2570    1.7340 C.ar      1 AR6         0.1298
      7 N6          9.9750   -9.4080    1.8050 N.pl3     1 AR6        -0.3152
      8 N7         12.7760   -8.5250    3.2770 N.2       1 AR6        -0.2958
      9 C8         13.8170   -7.7330    3.5310 C.2       1 AR6         0.1123
     10 N9         13.7270   -6.6280    2.7800 N.pl3     1 AR6        -0.1919
     11 PA         18.1820   -9.2280    1.8390 P.3       1 AR6         0.2972
     12 PB         20.5150   -9.0990    0.1520 P.3       1 AR6         0.2972
     13 C1'        14.6220   -5.5360    2.7940 C.3       1 AR6         0.2010
     14 O1A        19.2410   -9.2080    2.9050 O.co2     1 AR6        -0.6127
     15 O1B        21.0130   -7.9760    1.0360 O.co2     1 AR6        -0.6127
     16 C1D        19.2850  -14.1740    1.4640 C.3       1 AR6         0.1854
     17 O1D        19.6760  -15.0860    2.2670 O.3       1 AR6        -0.3649
     18 C2'        15.2010   -5.4580    4.0050 C.3       1 AR6         0.1385
     19 O2'        15.2140   -4.0650    4.4970 O.3       1 AR6        -0.3836
     20 O2A        17.2210  -10.3640    2.0260 O.co2     1 AR6        -0.6127
     21 O2B        20.7200   -8.7960   -1.3060 O.co2     1 AR6        -0.6127
     22 C2D        19.4530  -14.5920   -0.0020 C.3       1 AR6         0.1339
     23 O2D        19.2590  -16.0520   -0.1560 O.3       1 AR6        -0.3841
     24 C3'        16.6460   -5.9920    3.8130 C.3       1 AR6         0.1149
     25 O3'        17.4960   -5.4430    4.6810 O.3       1 AR6        -0.3864
     26 O3A        18.9020   -9.3270    0.3710 O.3       1 AR6        -0.1319
     27 C3D        20.7080  -14.2480   -0.2900 C.3       1 AR6         0.1144
     28 O3D        21.6080  -15.2760    0.1180 O.3       1 AR6        -0.3864
     29 C4'        16.9670   -5.6070    2.3010 C.3       1 AR6         0.1189
     30 O4'        15.8160   -5.7180    1.6790 O.3       1 AR6        -0.3364
     31 C4D        21.0240  -12.9040    0.5880 C.3       1 AR6         0.1184
     32 O4D        20.1970  -12.8810    1.5950 O.3       1 AR6        -0.3403
     33 C5'        17.9400   -6.6140    1.6780 C.3       1 AR6         0.1128
     34 O5'        17.3050   -7.8510    1.8430 O.3       1 AR6        -0.2476
     35 C5D        20.7870  -11.6760   -0.2530 C.3       1 AR6         0.1128
     36 O5D        21.2510  -10.5540    0.4700 O.3       1 AR6        -0.2476
     37 H1         10.4784   -5.5983   -0.1876 H         1 AR6         0.0996
     38 H2         10.1926  -10.1884    2.4411 H         1 AR6         0.1820
     39 H3          9.1285   -9.4418    1.2192 H         1 AR6         0.1820
     40 H4         14.6158   -7.9503    4.2385 H         1 AR6         0.1349
     41 H5         14.0651   -4.6108    2.5849 H         1 AR6         0.0996
     42 H6         18.2334  -13.9322    1.6775 H         1 AR6         0.0935
     43 H7         19.1184  -15.8494    2.1731 H         1 AR6         0.2126
     44 H8         14.6578   -6.0878    4.7249 H         1 AR6         0.0676
     45 H9         14.3218   -3.7458    4.5642 H         1 AR6         0.2101
     46 H10        18.7413  -14.0562   -0.6473 H         1 AR6         0.0671
     47 H11        19.9014  -16.5130    0.3707 H         1 AR6         0.2101
     48 H12        16.6730   -7.0841    3.9415 H         1 AR6         0.0648
     49 H13        17.5069   -4.5009    4.5591 H         1 AR6         0.2100
     50 H14        20.8191  -14.0513   -1.3665 H         1 AR6         0.0648
     51 H15        21.3941  -16.0818   -0.3375 H         1 AR6         0.2100
     52 H16        17.3715   -4.5866    2.2291 H         1 AR6         0.0651
     53 H17        22.0641  -12.9207    0.9456 H         1 AR6         0.0651
     54 H18        18.9067   -6.5985    2.2026 H         1 AR6         0.0648
     55 H19        18.0980   -6.3956    0.6115 H         1 AR6         0.0648
     56 H20        19.7122  -11.5676   -0.4605 H         1 AR6         0.0648
     57 H21        21.3368  -11.7618   -1.2018 H         1 AR6         0.0648
@<TRIPOS>BOND
     1    2    1 ar 
     2    6    1 ar 
     3    3    2 ar 
     4    4    3 ar 
     5    4    5 ar 
     6   10    4 1  
     7    5    6 ar 
     8    8    5 1  
     9    6    7 1  
    10    9    8 2  
    11   10    9 1  
    12   13   10 1  
    13   11   14 ar 
    14   11   20 ar 
    15   26   11 1  
    16   11   34 1  
    17   12   15 ar 
    18   12   21 ar 
    19   12   26 1  
    20   36   12 1  
    21   13   18 1  
    22   30   13 1  
    23   16   17 1  
    24   16   22 1  
    25   32   16 1  
    26   18   19 1  
    27   24   18 1  
    28   22   23 1  
    29   27   22 1  
    30   24   25 1  
    31   29   24 1  
    32   27   28 1  
    33   31   27 1  
    34   29   30 1  
    35   33   29 1  
    36   31   32 1  
    37   35   31 1  
    38   34   33 1  
    39   35   36 1  
    40    2   37 1  
    41    7   38 1  
    42    7   39 1  
    43    9   40 1  
    44   13   41 1  
    45   16   42 1  
    46   17   43 1  
    47   18   44 1  
    48   19   45 1  
    49   22   46 1  
    50   23   47 1  
    51   24   48 1  
    52   25   49 1  
    53   27   50 1  
    54   28   51 1  
    55   29   52 1  
    56   31   53 1  
    57   33   54 1  
    58   33   55 1  
    59   35   56 1  
    60   35   57 1  
@<TRIPOS>SUBSTRUCTURE
     1 AR6         1

