5zdf_ligand
  -I-interpret- 

 59 62  0  0  0  0  0  0  0  0999 V2000
   10.3320   -7.4350    0.8470 N   0  0  0  0  0
   10.9290   -6.2580    0.5450 C   0  0  0  0  0
   12.0760   -5.9020    1.1470 N   0  0  0  0  0
   12.6140   -6.7330    2.0530 C   0  0  0  0  0
   12.0310   -7.9040    2.3570 C   0  0  0  0  0
   10.8640   -8.2570    1.7340 C   0  0  0  0  0
    9.9750   -9.4080    1.8050 N   0  0  0  0  0
   12.7760   -8.5250    3.2770 N   0  0  0  0  0
   13.8170   -7.7330    3.5310 C   0  0  0  0  0
   13.7270   -6.6280    2.7800 N   0  0  0  0  0
   18.1820   -9.2280    1.8390 P   0  0  0  0  0
   20.5150   -9.0990    0.1520 P   0  0  0  0  0
   14.6220   -5.5360    2.7940 C   0  0  0  0  0
   19.2410   -9.2080    2.9050 O   0  0  0  0  0
   21.0130   -7.9760    1.0360 O   0  0  0  0  0
   19.2850  -14.1740    1.4640 C   0  0  0  0  0
   19.6760  -15.0860    2.2670 O   0  0  0  0  0
   15.2010   -5.4580    4.0050 C   0  0  0  0  0
   15.2140   -4.0650    4.4970 O   0  0  0  0  0
   17.2210  -10.3640    2.0260 O   0  0  0  0  0
   20.7200   -8.7960   -1.3060 O   0  0  0  0  0
   19.4530  -14.5920   -0.0020 C   0  0  0  0  0
   19.2590  -16.0520   -0.1560 O   0  0  0  0  0
   16.6460   -5.9920    3.8130 C   0  0  0  0  0
   17.4960   -5.4430    4.6810 O   0  0  0  0  0
   18.9020   -9.3270    0.3710 O   0  0  0  0  0
   20.7080  -14.2480   -0.2900 C   0  0  0  0  0
   21.6080  -15.2760    0.1180 O   0  0  0  0  0
   16.9670   -5.6070    2.3010 C   0  0  0  0  0
   15.8160   -5.7180    1.6790 O   0  0  0  0  0
   21.0240  -12.9040    0.5880 C   0  0  0  0  0
   20.1970  -12.8810    1.5950 O   0  0  0  0  0
   17.9400   -6.6140    1.6780 C   0  0  0  0  0
   17.3050   -7.8510    1.8430 O   0  0  0  0  0
   20.7870  -11.6760   -0.2530 C   0  0  0  0  0
   21.2510  -10.5540    0.4700 O   0  0  0  0  0
   10.4759   -5.5946   -0.1917 H   0  0  0  0  0
    9.1367   -9.4415    1.2248 H   0  0  0  0  0
   10.1905  -10.1808    2.4349 H   0  0  0  0  0
   14.6166   -7.9505    4.2392 H   0  0  0  0  0
   14.0521   -4.6361    2.5626 H   0  0  0  0  0
   19.8345   -8.4693    2.7511 H   0  0  0  0  0
   20.8654   -8.2054    1.9564 H   0  0  0  0  0
   18.2416  -13.9921    1.7214 H   0  0  0  0  0
   19.5553  -14.7877    3.1715 H   0  0  0  0  0
   14.6542   -6.0391    4.7477 H   0  0  0  0  0
   15.6314   -4.0359    5.3610 H   0  0  0  0  0
   18.7254  -14.1195   -0.6619 H   0  0  0  0  0
   19.3681  -16.2926   -1.0789 H   0  0  0  0  0
   16.7443   -7.0613    4.0000 H   0  0  0  0  0
   18.3762   -5.7962    4.5323 H   0  0  0  0  0
   20.8290  -14.0855   -1.3610 H   0  0  0  0  0
   22.5071  -15.0157   -0.0950 H   0  0  0  0  0
   17.4140   -4.6153    2.2314 H   0  0  0  0  0
   22.0600  -12.9156    0.9266 H   0  0  0  0  0
   18.9203   -6.5878    2.1539 H   0  0  0  0  0
   18.1460   -6.3935    0.6306 H   0  0  0  0  0
   19.7246  -11.5693   -0.4719 H   0  0  0  0  0
   21.3201  -11.7600   -1.2000 H   0  0  0  0  0
  2  1  4  0  0  0
  6  1  4  0  0  0
  3  2  4  0  0  0
  4  3  4  0  0  0
  4  5  4  0  0  0
 10  4  4  0  0  0
  5  6  4  0  0  0
  8  5  4  0  0  0
  6  7  1  0  0  0
  9  8  4  0  0  0
 10  9  4  0  0  0
 13 10  1  0  0  0
 11 14  1  0  0  0
 11 20  2  0  0  0
 26 11  1  0  0  0
 11 34  1  0  0  0
 12 15  1  0  0  0
 12 21  2  0  0  0
 12 26  1  0  0  0
 36 12  1  0  0  0
 13 18  1  0  0  0
 30 13  1  0  0  0
 16 17  1  0  0  0
 16 22  1  0  0  0
 32 16  1  0  0  0
 18 19  1  0  0  0
 24 18  1  0  0  0
 22 23  1  0  0  0
 27 22  1  0  0  0
 24 25  1  0  0  0
 29 24  1  0  0  0
 27 28  1  0  0  0
 31 27  1  0  0  0
 29 30  1  0  0  0
 33 29  1  0  0  0
 31 32  1  0  0  0
 35 31  1  0  0  0
 34 33  1  0  0  0
 35 36  1  0  0  0
  2 37  1  0  0  0
  7 38  1  0  0  0
  7 39  1  0  0  0
  9 40  1  0  0  0
 13 41  1  0  0  0
 14 42  1  0  0  0
 15 43  1  0  0  0
 16 44  1  0  0  0
 17 45  1  0  0  0
 18 46  1  0  0  0
 19 47  1  0  0  0
 22 48  1  0  0  0
 23 49  1  0  0  0
 24 50  1  0  0  0
 25 51  1  0  0  0
 27 52  1  0  0  0
 28 53  1  0  0  0
 29 54  1  0  0  0
 31 55  1  0  0  0
 33 56  1  0  0  0
 33 57  1  0  0  0
 35 58  1  0  0  0
 35 59  1  0  0  0
M  END
$$$$
