1axs_ligand
  -I-interpret- 

 55 57  0  0  0  0  0  0  0  0999 V2000
   10.2640   -2.3220   61.3000 C   0  0  0  0  0
    8.8770   -2.4380   61.0240 C   0  0  0  0  0
   11.2140   -2.6850   60.3160 C   0  0  0  0  0
   10.7710   -3.1700   59.0570 C   0  0  0  0  0
    9.3650   -3.2970   58.7640 C   0  0  0  0  0
    8.4280   -2.9230   59.7650 C   0  0  0  0  0
    8.8860   -3.8530   57.3870 C   0  0  0  0  0
    9.0180   -5.4180   57.2820 C   0  0  0  0  0
    8.5700   -5.9780   55.8900 C   0  0  0  0  0
    9.4040   -5.3120   54.7390 C   0  0  0  0  0
    9.2030   -3.7530   54.8030 C   0  0  0  0  0
    9.6230   -3.1780   56.1920 C   0  0  0  0  0
    9.0560   -5.8510   53.3020 C   0  0  0  0  0
    7.7920   -5.6750   52.6430 C   0  0  0  0  0
    7.5940   -6.2030   51.3190 C   0  0  0  0  0
    8.6520   -6.9140   50.6270 C   0  0  0  0  0
    9.8940   -7.0700   51.3130 C   0  0  0  0  0
   10.0910   -6.5520   52.6150 C   0  0  0  0  0
    8.7220   -7.3970   55.8890 O   0  0  0  0  0
    8.4890   -7.4960   49.2060 C   0  0  0  0  0
    9.4390   -8.0950   48.6700 O   0  0  0  0  0
    7.3010   -7.3580   48.5210 N   0  0  0  0  0
    7.0740   -7.8980   47.1410 C   0  0  0  0  0
    6.0960   -7.0030   46.3370 C   0  0  0  0  0
    6.6660   -6.5530   44.9580 C   0  0  0  0  0
    6.5820   -7.6010   43.8300 C   0  0  0  0  0
    5.5440   -8.1780   43.4800 O   0  0  0  0  0
    7.7940   -7.8240   43.2430 O   0  0  0  0  0
   10.5977   -1.9533   62.2699 H   0  0  0  0  0
    8.1493   -2.1528   61.7838 H   0  0  0  0  0
   12.2801   -2.5928   60.5233 H   0  0  0  0  0
   11.5046   -3.4503   58.3011 H   0  0  0  0  0
    7.3596   -3.0084   59.5666 H   0  0  0  0  0
    7.8269   -3.6022   57.3273 H   0  0  0  0  0
    8.3704   -5.8574   58.0407 H   0  0  0  0  0
   10.0689   -5.6725   57.4196 H   0  0  0  0  0
    7.5216   -5.7370   55.7141 H   0  0  0  0  0
   10.4481   -5.5779   54.9041 H   0  0  0  0  0
    8.1470   -3.5344   54.6441 H   0  0  0  0  0
    9.8264   -3.2930   54.0363 H   0  0  0  0  0
   10.6900   -3.3632   56.3161 H   0  0  0  0  0
    9.3650   -2.1190   56.2017 H   0  0  0  0  0
    6.9841   -5.1424   53.1448 H   0  0  0  0  0
    6.6310   -6.0661   50.8271 H   0  0  0  0  0
   10.7099   -7.6007   50.8223 H   0  0  0  0  0
   11.0552   -6.6918   53.1038 H   0  0  0  0  0
    8.4487   -7.7464   55.0376 H   0  0  0  0  0
    6.5354   -6.8620   48.9773 H   0  0  0  0  0
    6.6407   -8.8945   47.2262 H   0  0  0  0  0
    8.0298   -7.9233   46.6177 H   0  0  0  0  0
    5.9106   -6.1049   46.9262 H   0  0  0  0  0
    5.1952   -7.5866   46.1470 H   0  0  0  0  0
    7.7253   -6.3479   45.1124 H   0  0  0  0  0
    6.0647   -5.7026   44.6365 H   0  0  0  0  0
    8.4588   -7.2755   43.6658 H   0  0  0  0  0
  1  2  4  0  0  0
  1  3  4  0  0  0
  2  6  4  0  0  0
  3  4  4  0  0  0
  4  5  4  0  0  0
  5  6  4  0  0  0
  5  7  1  0  0  0
  7  8  1  0  0  0
  7 12  1  0  0  0
  8  9  1  0  0  0
  9 10  1  0  0  0
  9 19  1  0  0  0
 10 11  1  0  0  0
 10 13  1  0  0  0
 11 12  1  0  0  0
 13 14  4  0  0  0
 13 18  4  0  0  0
 14 15  4  0  0  0
 15 16  4  0  0  0
 16 17  4  0  0  0
 16 20  1  0  0  0
 17 18  4  0  0  0
 20 21  2  0  0  0
 20 22  1  0  0  0
 22 23  1  0  0  0
 23 24  1  0  0  0
 24 25  1  0  0  0
 25 26  1  0  0  0
 26 27  2  0  0  0
 26 28  1  0  0  0
  1 29  1  0  0  0
  2 30  1  0  0  0
  3 31  1  0  0  0
  4 32  1  0  0  0
  6 33  1  0  0  0
  7 34  1  0  0  0
  8 35  1  0  0  0
  8 36  1  0  0  0
  9 37  1  0  0  0
 10 38  1  0  0  0
 11 39  1  0  0  0
 11 40  1  0  0  0
 12 41  1  0  0  0
 12 42  1  0  0  0
 14 43  1  0  0  0
 15 44  1  0  0  0
 17 45  1  0  0  0
 18 46  1  0  0  0
 19 47  1  0  0  0
 22 48  1  0  0  0
 23 49  1  0  0  0
 23 50  1  0  0  0
 24 51  1  0  0  0
 24 52  1  0  0  0
 25 53  1  0  0  0
 25 54  1  0  0  0
 28 55  1  0  0  0
M  END
$$$$
