2itz_ligand
  -I-interpret- 

 56 59  0  0  0  0  0  0  0  0999 V2000
  -47.1980   -4.1360  -17.5700 C   0  0  0  0  0
  -46.7890   -5.5260  -17.0320 C   0  0  0  0  0
  -47.0140   -6.6360  -18.0000 O   0  0  0  0  0
  -48.3210   -6.6560  -18.6930 C   0  0  0  0  0
  -48.6940   -5.2500  -19.1760 C   0  0  0  0  0
  -48.5890   -4.2690  -18.0560 N   0  3  0  0  0
  -49.0970   -2.9790  -18.5090 C   0  0  0  0  0
  -49.9770   -3.2790  -19.7290 C   0  0  0  0  0
  -50.1290   -2.0010  -20.5060 C   0  0  0  0  0
  -50.7680   -1.1820  -19.5140 O   0  0  0  0  0
  -51.7890   -0.5000  -20.0660 C   0  0  0  0  0
  -52.5420    0.3110  -19.2520 C   0  0  0  0  0
  -53.6120    1.0440  -19.8070 C   0  0  0  0  0
  -52.1660    0.3310  -17.9350 O   0  0  0  0  0
  -52.6820    1.4130  -17.0980 C   0  0  0  0  0
  -52.0670   -0.6040  -21.4190 C   0  0  0  0  0
  -53.1160    0.1170  -21.9750 C   0  0  0  0  0
  -53.8940    0.9450  -21.1770 C   0  0  0  0  0
  -54.8960    1.6160  -21.7510 N   0  0  0  0  0
  -55.1550    1.4940  -23.0500 C   0  0  0  0  0
  -54.4370    0.7190  -23.8420 N   0  0  0  0  0
  -53.3960    0.0080  -23.3370 C   0  0  0  0  0
  -52.6120   -0.8090  -24.0850 N   0  0  0  0  0
  -52.6790   -0.8110  -25.4190 C   0  0  0  0  0
  -52.7020    0.4180  -26.0960 C   0  0  0  0  0
  -52.7880    0.4480  -27.4880 C   0  0  0  0  0
  -52.8460    1.9560  -28.3460 Cl  0  0  0  0  0
  -52.8460   -0.7480  -28.1910 C   0  0  0  0  0
  -52.9230   -0.6730  -29.5270 F   0  0  0  0  0
  -52.8180   -1.9870  -27.5250 C   0  0  0  0  0
  -52.7350   -2.0260  -26.1310 C   0  0  0  0  0
  -46.5326   -3.8155  -18.3716 H   0  0  0  0  0
  -47.1271   -3.3782  -16.7897 H   0  0  0  0  0
  -47.4047   -5.7293  -16.1558 H   0  0  0  0  0
  -45.7203   -5.4909  -16.8206 H   0  0  0  0  0
  -49.0847   -7.0061  -17.9986 H   0  0  0  0  0
  -48.2549   -7.3205  -19.5545 H   0  0  0  0  0
  -49.7206   -5.2616  -19.5422 H   0  0  0  0  0
  -48.0094   -4.9550  -19.9712 H   0  0  0  0  0
  -49.1470   -4.6082  -17.2724 H   0  0  0  0  0
  -48.2829   -2.3010  -18.7654 H   0  0  0  0  0
  -49.6654   -2.4798  -17.7242 H   0  0  0  0  0
  -50.9520   -3.6494  -19.4124 H   0  0  0  0  0
  -49.5171   -4.0484  -20.3492 H   0  0  0  0  0
  -50.6889   -2.1025  -21.4357 H   0  0  0  0  0
  -49.1944   -1.5944  -20.8925 H   0  0  0  0  0
  -54.2196    1.6874  -19.1707 H   0  0  0  0  0
  -52.3573    2.3711  -17.5039 H   0  0  0  0  0
  -53.7712    1.3728  -17.0851 H   0  0  0  0  0
  -52.3009    1.2990  -16.0832 H   0  0  0  0  0
  -51.4604   -1.2540  -22.0496 H   0  0  0  0  0
  -55.9886    2.0530  -23.4752 H   0  0  0  0  0
  -51.9567   -1.4358  -23.6179 H   0  0  0  0  0
  -52.6526    1.3503  -25.5335 H   0  0  0  0  0
  -52.8610   -2.9147  -28.0956 H   0  0  0  0  0
  -52.7139   -2.9795  -25.6032 H   0  0  0  0  0
  1  2  1  0  0  0
  1  6  1  0  0  0
  2  3  1  0  0  0
  3  4  1  0  0  0
  4  5  1  0  0  0
  5  6  1  0  0  0
  6  7  1  0  0  0
  7  8  1  0  0  0
  8  9  1  0  0  0
  9 10  1  0  0  0
 10 11  1  0  0  0
 11 12  4  0  0  0
 11 16  4  0  0  0
 12 13  4  0  0  0
 12 14  1  0  0  0
 13 18  4  0  0  0
 14 15  1  0  0  0
 16 17  4  0  0  0
 17 18  4  0  0  0
 17 22  4  0  0  0
 18 19  4  0  0  0
 19 20  4  0  0  0
 20 21  4  0  0  0
 21 22  4  0  0  0
 22 23  1  0  0  0
 23 24  1  0  0  0
 24 25  4  0  0  0
 24 31  4  0  0  0
 25 26  4  0  0  0
 26 27  1  0  0  0
 26 28  4  0  0  0
 28 29  1  0  0  0
 28 30  4  0  0  0
 30 31  4  0  0  0
  1 32  1  0  0  0
  1 33  1  0  0  0
  2 34  1  0  0  0
  2 35  1  0  0  0
  4 36  1  0  0  0
  4 37  1  0  0  0
  5 38  1  0  0  0
  5 39  1  0  0  0
  6 40  1  0  0  0
  7 41  1  0  0  0
  7 42  1  0  0  0
  8 43  1  0  0  0
  8 44  1  0  0  0
  9 45  1  0  0  0
  9 46  1  0  0  0
 13 47  1  0  0  0
 15 48  1  0  0  0
 15 49  1  0  0  0
 15 50  1  0  0  0
 16 51  1  0  0  0
 20 52  1  0  0  0
 23 53  1  0  0  0
 25 54  1  0  0  0
 30 55  1  0  0  0
 31 56  1  0  0  0
M  END
$$$$
