4de0_ligand
  -I-interpret- 

 32 35  0  0  0  0  0  0  0  0999 V2000
   -9.1470   55.4140   13.7360 O   0  0  0  0  0
   -8.7480   55.4880   12.5700 C   0  0  0  0  0
   -9.4750   56.3480   11.5940 C   0  0  0  0  0
   -9.1390   56.3710   10.2410 C   0  0  0  0  0
   -8.2370   55.6640    9.4730 N   0  0  0  0  0
   -8.3690   56.1060    8.2130 C   0  0  0  0  0
   -9.3720   57.0080    8.1210 N   0  0  0  0  0
   -9.8570   57.2290    9.3730 C   0  0  0  0  0
  -10.8600   58.0700    9.8600 C   0  0  0  0  0
  -11.1520   58.0240   11.2230 C   0  0  0  0  0
  -10.4630   57.1860   12.0650 C   0  0  0  0  0
   -7.6610   54.8670   12.1230 N   0  0  0  0  0
   -6.7920   54.0590   12.8850 C   0  0  0  0  0
   -5.4480   53.9970   12.5080 C   0  0  0  0  0
   -7.2520   53.3060   13.9800 C   0  0  0  0  0
   -6.3210   52.5660   14.7040 C   0  0  0  0  0
   -4.9760   52.5130   14.3840 C   0  0  0  0  0
   -4.5590   53.2480   13.2730 C   0  0  0  0  0
   -3.1510   53.2120   12.8680 C   0  0  0  0  0
   -2.1460   52.8870   13.6680 N   0  0  0  0  0
   -0.9980   52.9330   12.9520 N   0  0  0  0  0
   -1.2920   53.3310   11.6900 N   0  0  0  0  0
   -2.6780   53.4730   11.6370 N   0  0  0  0  0
   -7.7507   55.7815    7.3760 H   0  0  0  0  0
  -11.3993   58.7433    9.1937 H   0  0  0  0  0
  -11.9384   58.6624   11.6257 H   0  0  0  0  0
  -10.7025   57.1834   13.1284 H   0  0  0  0  0
   -7.4341   54.9862   11.1357 H   0  0  0  0  0
   -5.0993   54.5300   11.6235 H   0  0  0  0  0
   -8.3070   53.3018   14.2540 H   0  0  0  0  0
   -6.6697   51.9993   15.5673 H   0  0  0  0  0
   -4.2734   51.9236   14.9731 H   0  0  0  0  0
  1  2  2  0  0  0
  2  3  1  0  0  0
  2 12  1  0  0  0
  3  4  4  0  0  0
  3 11  4  0  0  0
  4  5  4  0  0  0
  4  8  4  0  0  0
  5  6  4  0  0  0
  6  7  4  0  0  0
  7  8  4  0  0  0
  8  9  4  0  0  0
  9 10  4  0  0  0
 10 11  4  0  0  0
 12 13  1  0  0  0
 13 14  4  0  0  0
 13 15  4  0  0  0
 14 18  4  0  0  0
 15 16  4  0  0  0
 16 17  4  0  0  0
 17 18  4  0  0  0
 18 19  1  0  0  0
 19 20  4  0  0  0
 19 23  4  0  0  0
 20 21  4  0  0  0
 21 22  4  0  0  0
 22 23  4  0  0  0
  6 24  1  0  0  0
  9 25  1  0  0  0
 10 26  1  0  0  0
 11 27  1  0  0  0
 12 28  1  0  0  0
 14 29  1  0  0  0
 15 30  1  0  0  0
 16 31  1  0  0  0
 17 32  1  0  0  0
M  END
$$$$
