3iiw_ligand
  -I-interpret- 

 89 88  0  0  0  0  0  0  0  0999 V2000
  -21.1360  -36.2940   25.7300 N   0  3  0  0  0
  -19.8020  -35.6730   25.9670 C   0  0  0  0  0
  -19.9870  -34.2530   26.4810 C   0  0  0  0  0
  -20.7850  -33.4970   25.9460 O   0  0  0  0  0
  -18.9960  -35.6660   24.6810 C   0  0  0  0  0
  -19.2870  -33.9060   27.5510 N   0  0  0  0  0
  -19.3900  -32.5720   28.1270 C   0  0  0  0  0
  -18.2000  -31.7130   27.6790 C   0  0  0  0  0
  -17.1080  -32.2300   27.4930 O   0  0  0  0  0
  -19.4000  -32.6750   29.6470 C   0  0  0  0  0
  -19.7460  -31.3610   30.3540 C   0  0  0  0  0
  -21.0700  -30.7500   29.8850 C   0  0  0  0  0
  -20.9430  -29.3080   29.6630 N   0  0  0  0  0
  -21.0370  -28.7150   28.4760 C   0  0  0  0  0
  -21.2970  -29.4210   27.3800 N   0  0  0  0  0
  -20.8870  -27.3980   28.3920 N   0  0  0  0  0
  -18.4120  -30.4070   27.5360 N   0  0  0  0  0
  -17.3030  -29.5000   27.2430 C   0  0  0  0  0
  -17.8300  -28.3020   26.4520 C   0  0  0  0  0
  -16.6770  -27.4400   25.9200 C   0  0  0  0  0
  -17.2490  -26.1840   25.2570 C   0  0  0  0  0
  -16.1530  -25.3410   24.5820 C   0  0  0  0  0
  -16.6070  -24.1390   23.8380 N   0  3  0  0  0
  -16.4880  -29.1270   28.4550 C   0  0  0  0  0
  -15.3030  -28.8450   28.3330 O   0  0  0  0  0
  -15.4110  -23.4000   23.4000 C   0  0  0  0  0
  -17.4270  -23.2370   24.6730 C   0  0  0  0  0
  -17.3800  -24.4930   22.6340 C   0  0  0  0  0
  -17.0720  -29.1600   29.6530 N   0  0  0  0  0
  -16.2620  -28.9210   30.8590 C   0  0  0  0  0
  -16.4010  -29.9880   31.9500 C   0  0  0  0  0
  -17.4440  -30.6200   32.0560 O   0  0  0  0  0
  -16.5540  -27.5410   31.4410 C   0  0  0  0  0
  -17.9480  -27.3320   31.5570 O   0  0  0  0  0
  -15.3770  -30.1370   32.7910 N   0  0  0  0  0
  -15.4520  -31.0140   33.9700 C   0  0  0  0  0
  -16.1580  -30.3150   35.1260 C   0  0  0  0  0
  -17.3410  -30.5600   35.3820 O   0  0  0  0  0
  -14.0560  -31.4740   34.4040 C   0  0  0  0  0
  -15.6138  -29.5923   35.7322 O   0  0  0  0  0
  -21.6691  -36.2938   26.5996 H   0  0  0  0  0
  -21.6380  -35.7584   25.0218 H   0  0  0  0  0
  -21.0106  -37.2533   25.4070 H   0  0  0  0  0
  -19.2602  -36.2546   26.7129 H   0  0  0  0  0
  -19.5216  -35.0795   23.9275 H   0  0  0  0  0
  -18.0174  -35.2245   24.8694 H   0  0  0  0  0
  -18.8722  -36.6890   24.3258 H   0  0  0  0  0
  -18.6622  -34.5880   27.9809 H   0  0  0  0  0
  -20.3142  -32.1058   27.7854 H   0  0  0  0  0
  -18.3948  -32.9574   29.9601 H   0  0  0  0  0
  -20.1661  -33.4014   29.9183 H   0  0  0  0  0
  -18.9549  -30.6466   30.1263 H   0  0  0  0  0
  -19.8412  -31.5752   31.4185 H   0  0  0  0  0
  -21.8213  -30.9169   30.6569 H   0  0  0  0  0
  -21.3554  -31.2215   28.9446 H   0  0  0  0  0
  -20.7703  -28.7167   30.4759 H   0  0  0  0  0
  -21.3806  -28.9511   26.4786 H   0  0  0  0  0
  -21.4128  -30.4326   27.4405 H   0  0  0  0  0
  -20.7016  -26.8512   29.2328 H   0  0  0  0  0
  -19.3570  -30.0351   27.6317 H   0  0  0  0  0
  -16.5817  -30.0267   26.6181 H   0  0  0  0  0
  -18.4455  -27.6915   27.1127 H   0  0  0  0  0
  -18.4090  -28.6708   25.6053 H   0  0  0  0  0
  -16.1027  -28.0093   25.1891 H   0  0  0  0  0
  -16.0252  -27.1527   26.7451 H   0  0  0  0  0
  -17.7214  -25.5757   26.0283 H   0  0  0  0  0
  -17.9602  -26.4954   24.4919 H   0  0  0  0  0
  -15.6816  -25.9919   23.8457 H   0  0  0  0  0
  -15.5147  -24.9753   25.3863 H   0  0  0  0  0
  -14.8271  -23.1065   24.2724 H   0  0  0  0  0
  -14.8071  -24.0382   22.7549 H   0  0  0  0  0
  -15.7166  -22.5102   22.8496 H   0  0  0  0  0
  -18.3105  -23.7710   25.0229 H   0  0  0  0  0
  -16.8403  -22.9027   25.5287 H   0  0  0  0  0
  -17.7330  -22.3743   24.0812 H   0  0  0  0  0
  -16.7586  -25.0914   21.9678 H   0  0  0  0  0
  -18.2603  -25.0664   22.9245 H   0  0  0  0  0
  -17.6908  -23.5820   22.1224 H   0  0  0  0  0
  -18.0711  -29.3491   29.7334 H   0  0  0  0  0
  -15.2282  -28.9778   30.5183 H   0  0  0  0  0
  -16.1382  -26.7833   30.7768 H   0  0  0  0  0
  -16.1041  -27.4740   32.4315 H   0  0  0  0  0
  -18.1102  -26.4600   31.9243 H   0  0  0  0  0
  -14.5128  -29.6259   32.6110 H   0  0  0  0  0
  -16.0329  -31.8928   33.6901 H   0  0  0  0  0
  -17.6731  -31.2125   34.7611 H   0  0  0  0  0
  -13.5862  -32.0239   33.5885 H   0  0  0  0  0
  -13.4494  -30.6035   34.6538 H   0  0  0  0  0
  -14.1430  -32.1205   35.2772 H   0  0  0  0  0
  1  2  1  0  0  0
  2  3  1  0  0  0
  2  5  1  0  0  0
  3  4  2  0  0  0
  3  6  1  0  0  0
  6  7  1  0  0  0
  7  8  1  0  0  0
  7 10  1  0  0  0
  8  9  2  0  0  0
  8 17  1  0  0  0
 10 11  1  0  0  0
 11 12  1  0  0  0
 12 13  1  0  0  0
 13 14  1  0  0  0
 14 15  1  0  0  0
 14 16  2  0  0  0
 17 18  1  0  0  0
 18 19  1  0  0  0
 18 24  1  0  0  0
 19 20  1  0  0  0
 20 21  1  0  0  0
 21 22  1  0  0  0
 22 23  1  0  0  0
 23 26  1  0  0  0
 23 27  1  0  0  0
 23 28  1  0  0  0
 24 25  2  0  0  0
 24 29  1  0  0  0
 29 30  1  0  0  0
 30 31  1  0  0  0
 30 33  1  0  0  0
 31 32  2  0  0  0
 31 35  1  0  0  0
 33 34  1  0  0  0
 35 36  1  0  0  0
 36 37  1  0  0  0
 36 39  1  0  0  0
 37 38  1  0  0  0
 37 40  2  0  0  0
  1 41  1  0  0  0
  1 42  1  0  0  0
  1 43  1  0  0  0
  2 44  1  0  0  0
  5 45  1  0  0  0
  5 46  1  0  0  0
  5 47  1  0  0  0
  6 48  1  0  0  0
  7 49  1  0  0  0
 10 50  1  0  0  0
 10 51  1  0  0  0
 11 52  1  0  0  0
 11 53  1  0  0  0
 12 54  1  0  0  0
 12 55  1  0  0  0
 13 56  1  0  0  0
 15 57  1  0  0  0
 15 58  1  0  0  0
 16 59  1  0  0  0
 17 60  1  0  0  0
 18 61  1  0  0  0
 19 62  1  0  0  0
 19 63  1  0  0  0
 20 64  1  0  0  0
 20 65  1  0  0  0
 21 66  1  0  0  0
 21 67  1  0  0  0
 22 68  1  0  0  0
 22 69  1  0  0  0
 26 70  1  0  0  0
 26 71  1  0  0  0
 26 72  1  0  0  0
 27 73  1  0  0  0
 27 74  1  0  0  0
 27 75  1  0  0  0
 28 76  1  0  0  0
 28 77  1  0  0  0
 28 78  1  0  0  0
 29 79  1  0  0  0
 30 80  1  0  0  0
 33 81  1  0  0  0
 33 82  1  0  0  0
 34 83  1  0  0  0
 35 84  1  0  0  0
 36 85  1  0  0  0
 38 86  1  0  0  0
 39 87  1  0  0  0
 39 88  1  0  0  0
 39 89  1  0  0  0
M  END
$$$$
