3dgl_ligand
  -I-interpret- 

 47 49  0  0  0  0  0  0  0  0999 V2000
   25.4120  -13.1530  -18.5240 P   0  0  0  0  0
   25.5750  -14.4010  -17.6950 O   0  0  0  0  0
   24.2430  -13.2210  -19.4840 O   0  0  0  0  0
   25.4970  -11.8660  -17.7300 O   0  0  0  0  0
   27.0240  -11.8110  -20.4090 P   0  0  0  0  0
   27.6140  -10.7100  -19.5590 O   0  0  0  0  0
   25.7940  -11.5470  -21.2440 O   0  0  0  0  0
   26.7260  -13.0800  -19.4600 O   0  0  0  0  0
   29.5490  -13.0230  -21.0010 P   0  0  0  0  0
   29.7650  -12.8990  -19.5160 O   0  0  0  0  0
   30.6360  -12.5860  -21.9480 O   0  0  0  0  0
   28.1700  -12.3040  -21.4330 O   0  0  0  0  0
   29.2300  -14.5740  -21.3330 O   0  0  0  0  0
   28.7710  -15.0140  -22.6130 C   0  0  0  0  0
   27.7740  -16.1490  -22.3900 C   0  0  0  0  0
   28.4430  -17.2420  -21.7450 O   0  0  0  0  0
   26.6180  -15.7580  -21.4810 C   0  0  0  0  0
   25.4400  -16.4270  -21.9510 O   0  0  0  0  0
   27.0160  -16.3330  -20.1270 C   0  0  0  0  0
   25.9120  -16.6930  -19.3090 O   0  0  0  0  0
   27.7630  -17.5830  -20.5270 C   0  0  0  0  0
   28.7420  -18.0370  -19.5110 N   0  0  0  0  0
   29.3810  -17.2910  -18.5820 C   0  0  0  0  0
   30.2270  -18.0520  -17.8460 N   0  0  0  0  0
   30.1040  -19.3170  -18.3190 C   0  0  0  0  0
   30.7240  -20.6220  -18.0180 C   0  0  0  0  0
   31.6210  -20.7120  -17.0080 N   0  0  0  0  0
   30.3350  -21.6960  -18.7560 N   0  0  0  0  0
   29.4280  -21.6160  -19.7520 C   0  0  0  0  0
   28.8370  -20.4480  -20.0980 N   0  0  0  0  0
   29.1400  -19.3000  -19.4230 C   0  0  0  0  0
   24.1908  -12.4016  -19.9815 H   0  0  0  0  0
   25.3848  -11.1183  -18.3216 H   0  0  0  0  0
   28.3862  -11.0435  -19.0962 H   0  0  0  0  0
   30.3470  -12.7279  -22.8524 H   0  0  0  0  0
   29.6100  -15.3618  -23.2156 H   0  0  0  0  0
   28.2935  -14.1916  -23.1458 H   0  0  0  0  0
   27.3817  -16.4091  -23.3731 H   0  0  0  0  0
   26.4239  -14.6860  -21.4453 H   0  0  0  0  0
   24.6961  -16.1942  -21.3907 H   0  0  0  0  0
   27.5749  -15.6095  -19.5334 H   0  0  0  0  0
   26.2338  -17.0459  -18.4763 H   0  0  0  0  0
   27.0644  -18.4122  -20.6387 H   0  0  0  0  0
   29.2351  -16.2197  -18.4434 H   0  0  0  0  0
   31.8618  -19.8832  -16.4644 H   0  0  0  0  0
   32.0561  -21.6086  -16.7907 H   0  0  0  0  0
   29.1622  -22.5222  -20.2963 H   0  0  0  0  0
  1  2  2  0  0  0
  1  3  1  0  0  0
  1  4  1  0  0  0
  8  1  1  0  0  0
  5  6  1  0  0  0
  5  7  2  0  0  0
  5  8  1  0  0  0
 12  5  1  0  0  0
  9 10  2  0  0  0
  9 11  1  0  0  0
  9 12  1  0  0  0
  9 13  1  0  0  0
 13 14  1  0  0  0
 14 15  1  0  0  0
 15 16  1  0  0  0
 15 17  1  0  0  0
 16 21  1  0  0  0
 17 18  1  0  0  0
 17 19  1  0  0  0
 19 20  1  0  0  0
 19 21  1  0  0  0
 21 22  1  0  0  0
 22 23  4  0  0  0
 22 31  4  0  0  0
 23 24  4  0  0  0
 24 25  4  0  0  0
 25 26  4  0  0  0
 25 31  4  0  0  0
 26 27  1  0  0  0
 26 28  4  0  0  0
 28 29  4  0  0  0
 29 30  4  0  0  0
 30 31  4  0  0  0
  3 32  1  0  0  0
  4 33  1  0  0  0
  6 34  1  0  0  0
 11 35  1  0  0  0
 14 36  1  0  0  0
 14 37  1  0  0  0
 15 38  1  0  0  0
 17 39  1  0  0  0
 18 40  1  0  0  0
 19 41  1  0  0  0
 20 42  1  0  0  0
 21 43  1  0  0  0
 23 44  1  0  0  0
 27 45  1  0  0  0
 27 46  1  0  0  0
 29 47  1  0  0  0
M  END
$$$$
