### 
### Created by X-TOOL on Mon Sep 10 21:12:59 2018
### 

@<TRIPOS>MOLECULE
3dgl_ligand
   43    45     1     0     0
SMALL
GAST_HUCK


@<TRIPOS>ATOM
      1 PG         25.4120  -13.1530  -18.5240 P.3       1 ATP         0.1879
      2 O1G        25.5750  -14.4010  -17.6950 O.co2     1 ATP        -0.6091
      3 O2G        24.2430  -13.2210  -19.4840 O.co2     1 ATP        -0.6091
      4 O3G        25.4970  -11.8660  -17.7300 O.co2     1 ATP        -0.6091
      5 PB         27.0240  -11.8110  -20.4090 P.3       1 ATP         0.3553
      6 O1B        27.6140  -10.7100  -19.5590 O.co2     1 ATP        -0.5652
      7 O2B        25.7940  -11.5470  -21.2440 O.co2     1 ATP        -0.5652
      8 O3B        26.7260  -13.0800  -19.4600 O.3       1 ATP        -0.1546
      9 PA         29.5490  -13.0230  -21.0010 P.3       1 ATP         0.3266
     10 O1A        29.7650  -12.8990  -19.5160 O.co2     1 ATP        -0.5692
     11 O2A        30.6360  -12.5860  -21.9480 O.co2     1 ATP        -0.5692
     12 O3A        28.1700  -12.3040  -21.4330 O.3       1 ATP        -0.1171
     13 O5'        29.2300  -14.5740  -21.3330 O.3       1 ATP        -0.2441
     14 C5'        28.7710  -15.0140  -22.6130 C.3       1 ATP         0.1131
     15 C4'        27.7740  -16.1490  -22.3900 C.3       1 ATP         0.1189
     16 O4'        28.4430  -17.2420  -21.7450 O.3       1 ATP        -0.3364
     17 C3'        26.6180  -15.7580  -21.4810 C.3       1 ATP         0.1149
     18 O3'        25.4400  -16.4270  -21.9510 O.3       1 ATP        -0.3864
     19 C2'        27.0160  -16.3330  -20.1270 C.3       1 ATP         0.1385
     20 O2'        25.9120  -16.6930  -19.3090 O.3       1 ATP        -0.3836
     21 C1'        27.7630  -17.5830  -20.5270 C.3       1 ATP         0.2010
     22 N9         28.7420  -18.0370  -19.5110 N.pl3     1 ATP        -0.1919
     23 C8         29.3810  -17.2910  -18.5820 C.2       1 ATP         0.1123
     24 N7         30.2270  -18.0520  -17.8460 N.2       1 ATP        -0.2958
     25 C5         30.1040  -19.3170  -18.3190 C.ar      1 ATP         0.1045
     26 C6         30.7240  -20.6220  -18.0180 C.ar      1 ATP         0.1298
     27 N6         31.6210  -20.7120  -17.0080 N.pl3     1 ATP        -0.3152
     28 N1         30.3350  -21.6960  -18.7560 N.ar      1 ATP        -0.2698
     29 C2         29.4280  -21.6160  -19.7520 C.ar      1 ATP         0.0533
     30 N3         28.8370  -20.4480  -20.0980 N.ar      1 ATP        -0.2714
     31 C4         29.1400  -19.3000  -19.4230 C.ar      1 ATP         0.1613
     32 H1         29.6208  -15.3753  -23.2108 H         1 ATP         0.0648
     33 H2         28.2792  -14.1828  -23.1396 H         1 ATP         0.0648
     34 H3         27.3781  -16.4695  -23.3650 H         1 ATP         0.0651
     35 H4         26.4678  -14.6691  -21.4399 H         1 ATP         0.0648
     36 H5         24.7038  -16.1966  -21.3965 H         1 ATP         0.2100
     37 H6         27.6613  -15.6301  -19.5797 H         1 ATP         0.0676
     38 H7         25.3916  -17.3519  -19.7534 H         1 ATP         0.2101
     39 H8         27.0450  -18.3964  -20.7083 H         1 ATP         0.0996
     40 H9         29.2352  -16.2207  -18.4435 H         1 ATP         0.1349
     41 H10        32.0603  -21.6174  -16.7885 H         1 ATP         0.1820
     42 H11        31.8641  -19.8751  -16.4590 H         1 ATP         0.1820
     43 H12        29.1637  -22.5172  -20.2933 H         1 ATP         0.0996
@<TRIPOS>BOND
     1    1    2 ar 
     2    1    3 ar 
     3    1    4 ar 
     4    8    1 1  
     5    5    6 ar 
     6    5    7 ar 
     7    5    8 1  
     8   12    5 1  
     9    9   10 ar 
    10    9   11 ar 
    11    9   12 1  
    12    9   13 1  
    13   13   14 1  
    14   14   15 1  
    15   15   16 1  
    16   15   17 1  
    17   16   21 1  
    18   17   18 1  
    19   17   19 1  
    20   19   20 1  
    21   19   21 1  
    22   21   22 1  
    23   22   23 1  
    24   22   31 1  
    25   23   24 2  
    26   24   25 1  
    27   25   26 ar 
    28   25   31 ar 
    29   26   27 1  
    30   26   28 ar 
    31   28   29 ar 
    32   29   30 ar 
    33   30   31 ar 
    34   14   32 1  
    35   14   33 1  
    36   15   34 1  
    37   17   35 1  
    38   18   36 1  
    39   19   37 1  
    40   20   38 1  
    41   21   39 1  
    42   23   40 1  
    43   27   41 1  
    44   27   42 1  
    45   29   43 1  
@<TRIPOS>SUBSTRUCTURE
     1 ATP         1

