1o5f_ligand
  -I-interpret- 

 50 53  0  0  0  0  0  0  0  0999 V2000
   16.3690   -6.1780   25.3860 C   0  0  0  0  0
   15.4850   -5.1350   24.8890 C   0  0  0  0  0
   15.0230   -5.1330   23.6260 F   0  0  0  0  0
   15.0810   -4.0570   25.6650 C   0  0  0  0  0
   15.5690   -4.0300   26.9250 C   0  0  0  0  0
   16.3940   -4.9650   27.4370 C   0  0  0  0  0
   16.8210   -6.0480   26.7190 C   0  0  0  0  0
   16.7570   -7.2920   24.5990 C   0  0  0  0  0
   17.8610   -7.9480   24.8430 N   0  0  0  0  0
   16.0220   -7.7060   23.5950 N   0  0  0  0  0
   15.3600   -3.1730   27.8500 N   0  0  0  0  0
   16.7320   -4.7190   28.6870 N   0  0  0  0  0
   16.0550   -3.5960   28.8610 C   0  0  0  0  0
   16.1060   -2.8990   30.0850 C   0  0  0  0  0
   17.0520   -3.2260   31.0720 C   0  0  0  0  0
   17.1080   -2.5440   32.2760 C   0  0  0  0  0
   16.2160   -1.5070   32.5450 C   0  0  0  0  0
   15.2550   -1.1490   31.5860 C   0  0  0  0  0
   15.2130   -1.8420   30.3820 C   0  0  0  0  0
   14.2640   -1.4530   29.4750 O   0  0  0  0  0
   14.3110   -0.1430   31.7690 O   0  0  0  0  0
   13.9530    0.8320   34.0290 C   0  0  0  0  0
   12.6090    1.5620   34.0070 C   0  0  0  0  0
   12.8220    3.0780   33.8490 C   0  0  0  0  0
   13.9670    3.4040   32.8920 C   0  0  0  0  0
   14.1680    2.2590   31.8920 C   0  0  0  0  0
   14.6430    0.9610   32.6050 C   0  0  0  0  0
   13.7090   -0.6540   34.4020 C   0  0  0  0  0
   14.4144   -3.2837   25.2833 H   0  0  0  0  0
   17.4888   -6.7876   27.1608 H   0  0  0  0  0
   18.1190   -8.7459   24.2624 H   0  0  0  0  0
   16.3203   -8.5093   23.0417 H   0  0  0  0  0
   15.1520   -7.2247   23.3674 H   0  0  0  0  0
   17.7580   -4.0352   30.8853 H   0  0  0  0  0
   17.8557   -2.8203   33.0194 H   0  0  0  0  0
   16.2644   -0.9763   33.4959 H   0  0  0  0  0
   13.7511   -0.7286   29.8409 H   0  0  0  0  0
   14.6181    1.2737   34.7711 H   0  0  0  0  0
   12.0880    1.3734   34.9457 H   0  0  0  0  0
   12.0214    1.1971   33.1646 H   0  0  0  0  0
   13.0707    3.4890   34.8274 H   0  0  0  0  0
   11.9070    3.5081   33.4416 H   0  0  0  0  0
   14.8833    3.5392   33.4667 H   0  0  0  0  0
   13.7249    4.3153   32.3452 H   0  0  0  0  0
   14.9300    2.5575   31.1720 H   0  0  0  0  0
   13.2160    2.0563   31.4014 H   0  0  0  0  0
   15.7203    0.9853   32.7694 H   0  0  0  0  0
   13.2423   -0.7085   35.3855 H   0  0  0  0  0
   13.0524   -1.1101   33.6611 H   0  0  0  0  0
   14.6614   -1.1837   34.4205 H   0  0  0  0  0
  1  2  4  0  0  0
  7  1  4  0  0  0
  1  8  1  0  0  0
  2  3  1  0  0  0
  4  2  4  0  0  0
  5  4  4  0  0  0
  6  5  4  0  0  0
 11  5  4  0  0  0
  6  7  4  0  0  0
 12  6  4  0  0  0
  8  9  2  0  0  0
  8 10  1  0  0  0
 13 11  4  0  0  0
 13 12  4  0  0  0
 14 13  1  0  0  0
 14 15  4  0  0  0
 19 14  4  0  0  0
 16 15  4  0  0  0
 17 16  4  0  0  0
 18 17  4  0  0  0
 18 19  4  0  0  0
 21 18  1  0  0  0
 19 20  1  0  0  0
 27 21  1  0  0  0
 22 23  1  0  0  0
 22 27  1  0  0  0
 22 28  1  0  0  0
 23 24  1  0  0  0
 24 25  1  0  0  0
 25 26  1  0  0  0
 26 27  1  0  0  0
  4 29  1  0  0  0
  7 30  1  0  0  0
  9 31  1  0  0  0
 10 32  1  0  0  0
 10 33  1  0  0  0
 15 34  1  0  0  0
 16 35  1  0  0  0
 17 36  1  0  0  0
 20 37  1  0  0  0
 22 38  1  0  0  0
 23 39  1  0  0  0
 23 40  1  0  0  0
 24 41  1  0  0  0
 24 42  1  0  0  0
 25 43  1  0  0  0
 25 44  1  0  0  0
 26 45  1  0  0  0
 26 46  1  0  0  0
 27 47  1  0  0  0
 28 48  1  0  0  0
 28 49  1  0  0  0
 28 50  1  0  0  0
M  END
$$$$
