4ewr_ligand
  -I-interpret- 

134134  0  0  0  0  0  0  0  0999 V2000
  -11.1560  -35.1590  -11.1850 N   0  3  0  0  0
  -11.3480  -35.6370  -12.5540 C   0  0  0  0  0
  -11.9210  -34.5510  -13.4620 C   0  0  0  0  0
  -11.7000  -34.5650  -14.6720 O   0  0  0  0  0
  -12.2370  -36.8740  -12.5730 C   0  0  0  0  0
  -12.6670  -33.6160  -12.8800 N   0  0  0  0  0
  -13.1420  -32.4580  -13.6330 C   0  0  0  0  0
  -12.0730  -31.3760  -13.6870 C   0  0  0  0  0
  -12.1350  -30.4890  -14.5350 O   0  0  0  0  0
  -14.4110  -31.8350  -13.0270 C   0  0  0  0  0
  -14.1230  -31.3650  -11.7020 O   0  0  0  0  0
  -15.5540  -32.8520  -12.9940 C   0  0  0  0  0
  -11.1060  -31.4380  -12.7710 N   0  0  0  0  0
   -9.9640  -30.5440  -12.8370 C   0  0  0  0  0
   -9.8590  -29.4680  -11.7670 C   0  0  0  0  0
   -8.8000  -28.8850  -11.5960 O   0  0  0  0  0
  -10.9460  -29.1620  -11.0700 N   0  0  0  0  0
  -10.8530  -28.2630   -9.9120 C   0  0  0  0  0
  -11.7490  -28.7420   -8.7840 C   0  0  0  0  0
  -12.7510  -29.4160   -9.0270 O   0  0  0  0  0
  -11.2220  -26.8250  -10.2700 C   0  0  0  0  0
  -12.6320  -26.6690  -10.3700 O   0  0  0  0  0
  -11.3970  -28.3890   -7.5520 N   0  0  0  0  0
  -12.2030  -28.8000   -6.4120 C   0  0  0  0  0
  -13.6500  -28.3090   -6.5310 C   0  0  0  0  0
  -14.5910  -29.0660   -6.2800 O   0  0  0  0  0
  -11.5580  -28.3410   -5.0970 C   0  0  0  0  0
  -13.8500  -27.0610   -6.9400 N   0  0  0  0  0
  -15.2170  -26.5630   -7.0350 C   0  0  0  0  0
  -16.0390  -27.2670   -8.1180 C   0  0  0  0  0
  -17.2190  -27.5410   -7.9180 O   0  0  0  0  0
  -15.2550  -25.0520   -7.2460 C   0  0  0  0  0
  -16.6640  -24.4810   -7.0760 C   0  0  0  0  0
  -16.7090  -22.9860   -7.3010 C   0  0  0  0  0
  -15.8440  -22.2570   -6.3760 N   0  0  0  0  0
  -16.2520  -21.7500   -5.2150 C   0  0  0  0  0
  -17.5150  -21.8880   -4.8250 N   0  0  0  0  0
  -15.3940  -21.0900   -4.4430 N   0  0  0  0  0
  -15.4380  -27.5570   -9.2670 N   0  0  0  0  0
  -16.2120  -28.2060  -10.3280 C   0  0  0  0  0
  -16.4310  -29.6940  -10.0600 C   0  0  0  0  0
  -17.2770  -30.3250  -10.7040 O   0  0  0  0  0
  -15.5790  -27.9810  -11.7050 C   0  0  0  0  0
  -14.2580  -28.4950  -11.7750 O   0  0  0  0  0
  -15.6890  -30.2520   -9.1040 N   0  0  0  0  0
  -15.8560  -31.6620   -8.7370 C   0  0  0  0  0
  -17.0680  -31.8720   -7.8350 C   0  0  0  0  0
  -17.7260  -32.9150   -7.8960 O   0  0  0  0  0
  -14.6050  -32.1930   -8.0340 C   0  0  0  0  0
  -14.4860  -33.7160   -8.0250 C   0  0  0  0  0
  -14.0530  -34.2900   -9.3710 C   0  0  0  0  0
  -13.9710  -35.5310   -9.4830 O   0  0  0  0  0
  -13.7950  -33.5070  -10.3090 O   0  0  0  0  0
  -17.3650  -30.8860   -6.9930 N   0  0  0  0  0
  -18.4780  -31.0070   -6.0730 C   0  0  0  0  0
  -18.1370  -31.7050   -4.7740 C   0  0  0  0  0
  -17.0520  -32.2780   -4.6250 O   0  0  0  0  0
  -19.0810  -31.6510   -3.8370 N   0  0  0  0  0
  -18.9160  -32.2250   -2.5030 C   0  0  0  0  0
  -18.5780  -33.7130   -2.5710 C   0  0  0  0  0
  -19.2270  -34.4720   -3.2910 O   0  0  0  0  0
  -20.1880  -32.0010   -1.6750 C   0  0  0  0  0
  -20.1480  -32.6210   -0.2900 C   0  0  0  0  0
  -19.6840  -31.9010    0.8060 C   0  0  0  0  0
  -20.5720  -33.9300   -0.0820 C   0  0  0  0  0
  -19.6460  -32.4660    2.0680 C   0  0  0  0  0
  -20.5320  -34.5050    1.1730 C   0  0  0  0  0
  -20.0710  -33.7650    2.2440 C   0  0  0  0  0
  -20.0330  -34.3320    3.4980 O   0  0  0  0  0
  -17.6254  -34.1682   -1.8833 O   0  0  0  0  0
  -10.5591  -34.3320  -11.1955 H   0  0  0  0  0
  -12.0611  -34.9214  -10.7790 H   0  0  0  0  0
  -10.7145  -35.8915  -10.6292 H   0  0  0  0  0
  -10.3662  -35.9051  -12.9442 H   0  0  0  0  0
  -13.2342  -36.6086  -12.2220 H   0  0  0  0  0
  -12.2992  -37.2595  -13.5906 H   0  0  0  0  0
  -11.8114  -37.6358  -11.9199 H   0  0  0  0  0
  -12.9108  -33.7090  -11.8939 H   0  0  0  0  0
  -13.3735  -32.8274  -14.6320 H   0  0  0  0  0
  -14.7258  -30.9971  -13.6490 H   0  0  0  0  0
  -14.9144  -30.9759  -11.3226 H   0  0  0  0  0
  -15.2674  -33.6987  -12.3702 H   0  0  0  0  0
  -16.4461  -32.3808  -12.5815 H   0  0  0  0  0
  -15.7598  -33.1984  -14.0068 H   0  0  0  0  0
  -11.1693  -32.1208  -12.0159 H   0  0  0  0  0
  -10.0600  -30.0114  -13.7832 H   0  0  0  0  0
   -9.0858  -31.1765  -12.7072 H   0  0  0  0  0
  -11.8491  -29.5523  -11.3392 H   0  0  0  0  0
   -9.8127  -28.2794   -9.5869 H   0  0  0  0  0
  -10.7743  -26.5790  -11.2329 H   0  0  0  0  0
  -10.8523  -26.1641   -9.4860 H   0  0  0  0  0
  -12.8369  -25.7586  -10.5954 H   0  0  0  0  0
  -10.5583  -27.8275   -7.4048 H   0  0  0  0  0
  -12.2391  -29.8894   -6.4069 H   0  0  0  0  0
  -10.5664  -28.7844   -5.0060 H   0  0  0  0  0
  -11.4730  -27.2543   -5.0954 H   0  0  0  0  0
  -12.1781  -28.6595   -4.2591 H   0  0  0  0  0
  -13.0612  -26.4618   -7.1833 H   0  0  0  0  0
  -15.6791  -26.7950   -6.0754 H   0  0  0  0  0
  -14.9244  -24.8429   -8.2634 H   0  0  0  0  0
  -14.6088  -24.5888   -6.5004 H   0  0  0  0  0
  -16.9879  -24.6789   -6.0542 H   0  0  0  0  0
  -17.3116  -24.9536   -7.8145 H   0  0  0  0  0
  -17.7337  -22.6514   -7.1392 H   0  0  0  0  0
  -16.3620  -22.7870   -8.3150 H   0  0  0  0  0
  -14.8662  -22.1286   -6.6364 H   0  0  0  0  0
  -18.1801  -22.3856   -5.4170 H   0  0  0  0  0
  -15.7064  -20.6929   -3.5569 H   0  0  0  0  0
  -14.4234  -20.9807   -4.7368 H   0  0  0  0  0
  -14.4533  -27.3313   -9.4080 H   0  0  0  0  0
  -17.1942  -27.7333  -10.3292 H   0  0  0  0  0
  -15.5365  -26.9074  -11.8886 H   0  0  0  0  0
  -16.1857  -28.4997  -12.4472 H   0  0  0  0  0
  -13.8992  -28.3341  -12.6508 H   0  0  0  0  0
  -14.9917  -29.6878   -8.6184 H   0  0  0  0  0
  -16.0144  -32.2138   -9.6636 H   0  0  0  0  0
  -14.6603  -31.8699   -6.9944 H   0  0  0  0  0
  -13.7434  -31.8077   -8.5792 H   0  0  0  0  0
  -15.4695  -34.1239   -7.7917 H   0  0  0  0  0
  -13.7269  -33.9848   -7.2904 H   0  0  0  0  0
  -13.9206  -32.6025  -10.0130 H   0  0  0  0  0
  -16.8028  -30.0349   -6.9950 H   0  0  0  0  0
  -19.2413  -31.6064   -6.5691 H   0  0  0  0  0
  -18.7974  -29.9960   -5.8203 H   0  0  0  0  0
  -19.9614  -31.1870   -4.0606 H   0  0  0  0  0
  -18.0802  -31.7200   -2.0188 H   0  0  0  0  0
  -21.0094  -32.4728   -2.2143 H   0  0  0  0  0
  -20.2991  -30.9249   -1.5419 H   0  0  0  0  0
  -19.3447  -30.8744    0.6680 H   0  0  0  0  0
  -20.9427  -34.5124   -0.9255 H   0  0  0  0  0
  -19.2824  -31.8877    2.9174 H   0  0  0  0  0
  -20.8614  -35.5340    1.3170 H   0  0  0  0  0
  -20.3601  -35.2333    3.4505 H   0  0  0  0  0
  -17.2250  -33.4545   -1.3814 H   0  0  0  0  0
  1  2  1  0  0  0
  2  3  1  0  0  0
  2  5  1  0  0  0
  3  4  2  0  0  0
  3  6  1  0  0  0
  6  7  1  0  0  0
  7  8  1  0  0  0
  7 10  1  0  0  0
  8  9  2  0  0  0
  8 13  1  0  0  0
 10 11  1  0  0  0
 10 12  1  0  0  0
 13 14  1  0  0  0
 14 15  1  0  0  0
 15 16  2  0  0  0
 15 17  1  0  0  0
 17 18  1  0  0  0
 18 19  1  0  0  0
 18 21  1  0  0  0
 19 20  2  0  0  0
 19 23  1  0  0  0
 21 22  1  0  0  0
 23 24  1  0  0  0
 24 25  1  0  0  0
 24 27  1  0  0  0
 25 26  2  0  0  0
 25 28  1  0  0  0
 28 29  1  0  0  0
 29 30  1  0  0  0
 29 32  1  0  0  0
 30 31  2  0  0  0
 30 39  1  0  0  0
 32 33  1  0  0  0
 33 34  1  0  0  0
 34 35  1  0  0  0
 35 36  1  0  0  0
 36 37  2  0  0  0
 36 38  1  0  0  0
 39 40  1  0  0  0
 40 41  1  0  0  0
 40 43  1  0  0  0
 41 42  2  0  0  0
 41 45  1  0  0  0
 43 44  1  0  0  0
 45 46  1  0  0  0
 46 47  1  0  0  0
 46 49  1  0  0  0
 47 48  2  0  0  0
 47 54  1  0  0  0
 49 50  1  0  0  0
 50 51  1  0  0  0
 51 52  2  0  0  0
 51 53  1  0  0  0
 54 55  1  0  0  0
 55 56  1  0  0  0
 56 57  2  0  0  0
 56 58  1  0  0  0
 58 59  1  0  0  0
 59 60  1  0  0  0
 59 62  1  0  0  0
 60 61  2  0  0  0
 62 63  1  0  0  0
 63 64  4  0  0  0
 63 65  4  0  0  0
 64 66  4  0  0  0
 65 67  4  0  0  0
 66 68  4  0  0  0
 67 68  4  0  0  0
 68 69  1  0  0  0
 60 70  1  0  0  0
  1 71  1  0  0  0
  1 72  1  0  0  0
  1 73  1  0  0  0
  2 74  1  0  0  0
  5 75  1  0  0  0
  5 76  1  0  0  0
  5 77  1  0  0  0
  6 78  1  0  0  0
  7 79  1  0  0  0
 10 80  1  0  0  0
 11 81  1  0  0  0
 12 82  1  0  0  0
 12 83  1  0  0  0
 12 84  1  0  0  0
 13 85  1  0  0  0
 14 86  1  0  0  0
 14 87  1  0  0  0
 17 88  1  0  0  0
 18 89  1  0  0  0
 21 90  1  0  0  0
 21 91  1  0  0  0
 22 92  1  0  0  0
 23 93  1  0  0  0
 24 94  1  0  0  0
 27 95  1  0  0  0
 27 96  1  0  0  0
 27 97  1  0  0  0
 28 98  1  0  0  0
 29 99  1  0  0  0
 32100  1  0  0  0
 32101  1  0  0  0
 33102  1  0  0  0
 33103  1  0  0  0
 34104  1  0  0  0
 34105  1  0  0  0
 35106  1  0  0  0
 37107  1  0  0  0
 38108  1  0  0  0
 38109  1  0  0  0
 39110  1  0  0  0
 40111  1  0  0  0
 43112  1  0  0  0
 43113  1  0  0  0
 44114  1  0  0  0
 45115  1  0  0  0
 46116  1  0  0  0
 49117  1  0  0  0
 49118  1  0  0  0
 50119  1  0  0  0
 50120  1  0  0  0
 53121  1  0  0  0
 54122  1  0  0  0
 55123  1  0  0  0
 55124  1  0  0  0
 58125  1  0  0  0
 59126  1  0  0  0
 62127  1  0  0  0
 62128  1  0  0  0
 64129  1  0  0  0
 65130  1  0  0  0
 66131  1  0  0  0
 67132  1  0  0  0
 69133  1  0  0  0
 70134  1  0  0  0
M  END
$$$$
