### 
### Created by X-TOOL on Mon Sep 10 21:13:09 2018
### 

@<TRIPOS>MOLECULE
4ewr_ligand
  133   133     1     0     0
SMALL
GAST_HUCK


@<TRIPOS>ATOM
      1 N         -11.1560  -35.1590  -11.1850 N.4       1 GLN         0.2377
      2 CA        -11.3480  -35.6370  -12.5540 C.3       1 GLN         0.0621
      3 C         -11.9210  -34.5510  -13.4620 C.2       1 GLN         0.2265
      4 O         -11.7000  -34.5650  -14.6720 O.2       1 GLN        -0.3907
      5 CB        -12.2370  -36.8740  -12.5730 C.3       1 GLN        -0.0040
      6 N         -12.6670  -33.6160  -12.8800 N.am      1 THR        -0.2586
      7 CA        -13.1420  -32.4580  -13.6330 C.3       1 THR         0.1566
      8 C         -12.0730  -31.3760  -13.6870 C.2       1 THR         0.2063
      9 O         -12.1350  -30.4890  -14.5350 O.2       1 THR        -0.3943
     10 CB        -14.4110  -31.8350  -13.0270 C.3       1 THR         0.0924
     11 OG1       -14.1230  -31.3650  -11.7020 O.3       1 THR        -0.3874
     12 CG2       -15.5540  -32.8520  -12.9940 C.3       1 THR        -0.0346
     13 N         -11.1060  -31.4380  -12.7710 N.am      1 GLY        -0.2663
     14 CA         -9.9640  -30.5440  -12.8370 C.3       1 GLY         0.1201
     15 C          -9.8590  -29.4680  -11.7670 C.2       1 GLY         0.2008
     16 O          -8.8000  -28.8850  -11.5960 O.2       1 GLY        -0.3947
     17 N         -10.9460  -29.1620  -11.0700 N.am      1 SER        -0.2618
     18 CA        -10.8530  -28.2630   -9.9120 C.3       1 SER         0.1539
     19 C         -11.7490  -28.7420   -8.7840 C.2       1 SER         0.2062
     20 O         -12.7510  -29.4160   -9.0270 O.2       1 SER        -0.3943
     21 CB        -11.2220  -26.8250  -10.2700 C.3       1 SER         0.0843
     22 OG        -12.6320  -26.6690  -10.3700 O.3       1 SER        -0.3903
     23 N         -11.3970  -28.3890   -7.5520 N.am      1 ALA        -0.2639
     24 CA        -12.2030  -28.8000   -6.4120 C.3       1 ALA         0.1282
     25 C         -13.6500  -28.3090   -6.5310 C.2       1 ALA         0.2036
     26 O         -14.5910  -29.0660   -6.2800 O.2       1 ALA        -0.3944
     27 CB        -11.5580  -28.3410   -5.0970 C.3       1 ALA        -0.0244
     28 N         -13.8500  -27.0610   -6.9400 N.am      1 ARG        -0.2637
     29 CA        -15.2170  -26.5630   -7.0350 C.3       1 ARG         0.1311
     30 C         -16.0390  -27.2670   -8.1180 C.2       1 ARG         0.2040
     31 O         -17.2190  -27.5410   -7.9180 O.2       1 ARG        -0.3944
     32 CB        -15.2550  -25.0520   -7.2460 C.3       1 ARG        -0.0092
     33 CG        -16.6640  -24.4810   -7.0760 C.3       1 ARG        -0.0156
     34 CD        -16.7090  -22.9860   -7.3010 C.3       1 ARG         0.0627
     35 NE        -15.8440  -22.2570   -6.3760 N.pl3     1 ARG        -0.2723
     36 CZ        -16.2520  -21.7500   -5.2150 C.cat     1 ARG         0.2882
     37 NH1       -17.5150  -21.8880   -4.8250 N.pl3     1 ARG        -0.2849
     38 NH2       -15.3940  -21.0900   -4.4430 N.pl3     1 ARG        -0.2849
     39 N         -15.4380  -27.5570   -9.2670 N.am      1 SER        -0.2616
     40 CA        -16.2120  -28.2060  -10.3280 C.3       1 SER         0.1539
     41 C         -16.4310  -29.6940  -10.0600 C.2       1 SER         0.2062
     42 O         -17.2770  -30.3250  -10.7040 O.2       1 SER        -0.3943
     43 CB        -15.5790  -27.9810  -11.7050 C.3       1 SER         0.0843
     44 OG        -14.2580  -28.4950  -11.7750 O.3       1 SER        -0.3903
     45 N         -15.6890  -30.2520   -9.1040 N.am      1 GLU        -0.2636
     46 CA        -15.8560  -31.6620   -8.7370 C.3       1 GLU         0.1325
     47 C         -17.0680  -31.8720   -7.8350 C.2       1 GLU         0.2038
     48 O         -17.7260  -32.9150   -7.8960 O.2       1 GLU        -0.3944
     49 CB        -14.6050  -32.1930   -8.0340 C.3       1 GLU        -0.0008
     50 CG        -14.4860  -33.7160   -8.0250 C.3       1 GLU         0.0044
     51 CD        -14.0530  -34.2900   -9.3710 C.2       1 GLU         0.0350
     52 OE1       -13.9710  -35.5310   -9.4830 O.co2     1 GLU        -0.5690
     53 OE2       -13.7950  -33.5070  -10.3090 O.co2     1 GLU        -0.5690
     54 N         -17.3650  -30.8860   -6.9930 N.am      1 GLY        -0.2664
     55 CA        -18.4780  -31.0070   -6.0730 C.3       1 GLY         0.1201
     56 C         -18.1370  -31.7050   -4.7740 C.2       1 GLY         0.2004
     57 O         -17.0520  -32.2780   -4.6250 O.2       1 GLY        -0.3947
     58 N         -19.0810  -31.6510   -3.8370 N.am      1 TYR        -0.2657
     59 CA        -18.9160  -32.2250   -2.5030 C.3       1 TYR         0.1306
     60 C         -18.5780  -33.7130   -2.5710 C.2       1 TYR         0.2167
     61 O         -19.2270  -34.4720   -3.2910 O.co2     1 TYR        -0.4118
     62 CB        -20.1880  -32.0010   -1.6750 C.3       1 TYR         0.0132
     63 CG        -20.1480  -32.6210   -0.2900 C.ar      1 TYR        -0.0498
     64 CD1       -19.6840  -31.9010    0.8060 C.ar      1 TYR        -0.0686
     65 CD2       -20.5720  -33.9300   -0.0820 C.ar      1 TYR        -0.0686
     66 CE1       -19.6460  -32.4660    2.0680 C.ar      1 TYR        -0.0398
     67 CE2       -20.5320  -34.5050    1.1730 C.ar      1 TYR        -0.0398
     68 CZ        -20.0710  -33.7650    2.2440 C.ar      1 TYR         0.0805
     69 OH        -20.0330  -34.3320    3.4980 O.3       1 TYR        -0.3376
     70 H         -10.7777  -35.9027  -10.6194 H         1 GLN         0.2015
     71 H         -12.0418  -34.8648  -10.8045 H         1 GLN         0.2015
     72 H         -10.5161  -34.3802  -11.1876 H         1 GLN         0.2015
     73 H         -10.3622  -35.9208  -12.9511 H         1 GLN         0.1095
     74 H         -12.3677  -37.2157  -13.6104 H         1 GLN         0.0310
     75 H         -13.2184  -36.6269  -12.1420 H         1 GLN         0.0310
     76 H         -11.7668  -37.6726  -11.9805 H         1 GLN         0.0310
     77 H         -12.9060  -33.7072  -11.9133 H         1 THR         0.1885
     78 H         -13.3688  -32.7883  -14.6574 H         1 THR         0.0826
     79 H         -14.7187  -30.9814  -13.6489 H         1 THR         0.0639
     80 H         -13.8378  -32.0940  -11.1636 H         1 THR         0.2101
     81 H         -16.4487  -32.3840  -12.5574 H         1 THR         0.0257
     82 H         -15.2575  -33.7172  -12.3828 H         1 THR         0.0257
     83 H         -15.7775  -33.1858  -14.0180 H         1 THR         0.0257
     84 H         -11.1681  -32.1074  -12.0307 H         1 GLY         0.1881
     85 H          -9.9964  -30.0376  -13.8130 H         1 GLY         0.0763
     86 H          -9.0562  -31.1620  -12.7745 H         1 GLY         0.0763
     87 H         -11.8314  -29.5447  -11.3340 H         1 SER         0.1884
     88 H          -9.8114  -28.2732   -9.5585 H         1 SER         0.0823
     89 H         -10.7624  -26.5656  -11.2351 H         1 SER         0.0606
     90 H         -10.8403  -26.1509   -9.4891 H         1 SER         0.0606
     91 H         -12.9662  -27.2467  -11.0461 H         1 SER         0.2097
     92 H         -10.5747  -27.8386   -7.4077 H         1 ALA         0.1883
     93 H         -12.2289  -29.8997   -6.4035 H         1 ALA         0.0797
     94 H         -12.1829  -28.6619   -4.2505 H         1 ALA         0.0277
     95 H         -11.4717  -27.2444   -5.0941 H         1 ALA         0.0277
     96 H         -10.5572  -28.7878   -5.0039 H         1 ALA         0.0277
     97 H         -13.0767  -26.4735   -7.1785 H         1 ARG         0.1883
     98 H         -15.7016  -26.7739   -6.0703 H         1 ARG         0.0800
     99 H         -14.9019  -24.8272   -8.2632 H         1 ARG         0.0313
    100 H         -14.5884  -24.5748   -6.5126 H         1 ARG         0.0313
    101 H         -17.0117  -24.6955   -6.0547 H         1 ARG         0.0301
    102 H         -17.3328  -24.9680   -7.8009 H         1 ARG         0.0301
    103 H         -17.7439  -22.6392   -7.1644 H         1 ARG         0.0689
    104 H         -16.3839  -22.7737   -8.3302 H         1 ARG         0.0689
    105 H         -14.8566  -22.1274   -6.6390 H         1 ARG         0.2642
    106 H         -17.8222  -21.4925   -3.9250 H         1 ARG         0.2615
    107 H         -18.1866  -22.3905   -5.4228 H         1 ARG         0.2615
    108 H         -14.4139  -20.9797   -4.7397 H         1 ARG         0.2615
    109 H         -15.7095  -20.6890   -3.5482 H         1 ARG         0.2615
    110 H         -14.4726  -27.3357   -9.4053 H         1 SER         0.1884
    111 H         -17.2033  -27.7295  -10.3418 H         1 SER         0.0823
    112 H         -15.5507  -26.9007  -11.9103 H         1 SER         0.0606
    113 H         -16.1956  -28.4827  -12.4653 H         1 SER         0.0606
    114 H         -13.7163  -28.0627  -11.1253 H         1 SER         0.2097
    115 H         -15.0054  -29.6988   -8.6279 H         1 GLU         0.1883
    116 H         -16.0086  -32.2386   -9.6613 H         1 GLU         0.0801
    117 H         -14.6212  -31.8429   -6.9914 H         1 GLU         0.0330
    118 H         -13.7221  -31.7818   -8.5452 H         1 GLU         0.0330
    119 H         -15.4652  -34.1422   -7.7613 H         1 GLU         0.0433
    120 H         -13.7439  -34.0048   -7.2661 H         1 GLU         0.0433
    121 H         -16.8138  -30.0516   -6.9949 H         1 GLY         0.1881
    122 H         -19.2767  -31.5763   -6.5710 H         1 GLY         0.0763
    123 H         -18.8412  -29.9961   -5.8362 H         1 GLY         0.0763
    124 H         -19.9441  -31.1961   -4.0562 H         1 TYR         0.1878
    125 H         -18.0822  -31.7071   -2.0064 H         1 TYR         0.0772
    126 O1        -17.6254  -34.1682   -1.8833 O.co2     1 TYR        -0.4118
    127 H         -21.0369  -32.4359   -2.2229 H         1 TYR         0.0446
    128 H         -20.3401  -30.9173   -1.5632 H         1 TYR         0.0446
    129 H         -19.3465  -30.8800    0.6688 H         1 TYR         0.0530
    130 H         -20.9406  -34.5092   -0.9208 H         1 TYR         0.0530
    131 H         -19.2844  -31.8909    2.9127 H         1 TYR         0.0525
    132 H         -20.8596  -35.5283    1.3162 H         1 TYR         0.0525
    133 H         -19.6941  -33.6992    4.1203 H         1 TYR         0.2458
@<TRIPOS>BOND
     1    1    2 1  
     2    2    3 1  
     3    2    5 1  
     4    3    4 2  
     5    3    6 am 
     6    6    7 1  
     7    7    8 1  
     8    7   10 1  
     9    8    9 2  
    10    8   13 am 
    11   10   11 1  
    12   10   12 1  
    13   13   14 1  
    14   14   15 1  
    15   15   16 2  
    16   15   17 am 
    17   17   18 1  
    18   18   19 1  
    19   18   21 1  
    20   19   20 2  
    21   19   23 am 
    22   21   22 1  
    23   23   24 1  
    24   24   25 1  
    25   24   27 1  
    26   25   26 2  
    27   25   28 am 
    28   28   29 1  
    29   29   30 1  
    30   29   32 1  
    31   30   31 2  
    32   30   39 am 
    33   32   33 1  
    34   33   34 1  
    35   34   35 1  
    36   35   36 ar 
    37   36   37 ar 
    38   36   38 ar 
    39   39   40 1  
    40   40   41 1  
    41   40   43 1  
    42   41   42 2  
    43   41   45 am 
    44   43   44 1  
    45   45   46 1  
    46   46   47 1  
    47   46   49 1  
    48   47   48 2  
    49   47   54 am 
    50   49   50 1  
    51   50   51 1  
    52   51   52 ar 
    53   51   53 ar 
    54   54   55 1  
    55   55   56 1  
    56   56   57 2  
    57   56   58 am 
    58   58   59 1  
    59   59   60 1  
    60   59   62 1  
    61   60   61 ar 
    62   62   63 1  
    63   63   64 ar 
    64   63   65 ar 
    65   64   66 ar 
    66   65   67 ar 
    67   66   68 ar 
    68   67   68 ar 
    69   68   69 1  
    70    1   70 1  
    71    1   71 1  
    72    1   72 1  
    73    2   73 1  
    74    5   74 1  
    75    5   75 1  
    76    5   76 1  
    77    6   77 1  
    78    7   78 1  
    79   10   79 1  
    80   11   80 1  
    81   12   81 1  
    82   12   82 1  
    83   12   83 1  
    84   13   84 1  
    85   14   85 1  
    86   14   86 1  
    87   17   87 1  
    88   18   88 1  
    89   21   89 1  
    90   21   90 1  
    91   22   91 1  
    92   23   92 1  
    93   24   93 1  
    94   27   94 1  
    95   27   95 1  
    96   27   96 1  
    97   28   97 1  
    98   29   98 1  
    99   32   99 1  
   100   32  100 1  
   101   33  101 1  
   102   33  102 1  
   103   34  103 1  
   104   34  104 1  
   105   35  105 1  
   106   37  106 1  
   107   37  107 1  
   108   38  108 1  
   109   38  109 1  
   110   39  110 1  
   111   40  111 1  
   112   43  112 1  
   113   43  113 1  
   114   44  114 1  
   115   45  115 1  
   116   46  116 1  
   117   49  117 1  
   118   49  118 1  
   119   50  119 1  
   120   50  120 1  
   121   54  121 1  
   122   55  122 1  
   123   55  123 1  
   124   58  124 1  
   125   59  125 1  
   126   60  126 ar 
   127   62  127 1  
   128   62  128 1  
   129   64  129 1  
   130   65  130 1  
   131   66  131 1  
   132   67  132 1  
   133   69  133 1  
@<TRIPOS>SUBSTRUCTURE
     1 GLN         1

