6dh6_ligand
  -I-interpret- 

 75 78  0  0  0  0  0  0  0  0999 V2000
   65.4310   51.8590   12.5960 N   0  0  0  0  0
   66.3830   52.5490   13.5180 C   0  0  0  0  0
   67.4560   51.8520   14.0380 C   0  0  0  0  0
   68.3360   52.4820   14.8860 C   0  0  0  0  0
   68.1280   53.8210   15.2210 C   0  0  0  0  0
   67.0740   54.5150   14.7060 C   0  0  0  0  0
   66.1830   53.8770   13.8480 C   0  0  0  0  0
   69.2900   54.6940   16.3360 S   0  0  0  0  0
   69.7860   53.8810   17.4250 O   0  0  0  0  0
   68.5870   55.8150   17.0120 O   0  0  0  0  0
   70.5730   55.2720   15.3360 N   0  0  0  0  0
   71.3580   54.2490   14.6140 C   0  0  0  0  0
   72.8450   54.6130   14.5740 C   0  0  0  0  0
   73.4440   54.6890   16.0200 C   0  0  0  0  0
   73.6110   53.6150   13.6720 C   0  0  0  0  0
   70.2770   56.6030   14.6190 C   0  0  0  0  0
   71.2230   57.7160   15.1630 C   0  0  0  0  0
   71.1190   58.8110   14.3310 O   0  0  0  0  0
   70.8590   58.0780   16.6180 C   0  0  0  0  0
   71.8240   59.0390   17.0860 N   0  0  0  0  0
   72.8470   58.6940   18.0730 C   0  0  0  0  0
   72.8580   57.6390   18.6340 O   0  0  0  0  0
   73.7860   59.6950   18.3150 O   0  0  0  0  0
   74.5000   59.6650   19.5340 C   0  0  0  0  0
   75.9810   60.3180   19.1940 C   0  0  0  0  0
   75.7190   61.6200   19.0360 O   0  0  0  0  0
   74.6180   61.9190   20.1170 C   0  0  0  0  0
   73.6960   62.6260   19.6410 O   0  0  0  0  0
   72.3200   61.7490   19.6610 C   0  0  0  0  0
   72.5240   60.7130   20.4460 C   0  0  0  0  0
   74.0070   60.4950   20.4730 C   0  0  0  0  0
   69.4990   58.7570   16.7390 C   0  0  0  0  0
   68.9230   58.3910   19.1650 C   0  0  0  0  0
   68.6880   58.8560   20.4710 C   0  0  0  0  0
   68.7700   60.2320   20.7560 C   0  0  0  0  0
   69.0860   61.1210   19.7520 C   0  0  0  0  0
   69.3250   60.6590   18.4490 C   0  0  0  0  0
   69.2400   59.2740   18.1600 C   0  0  0  0  0
   65.5755   50.8787   12.3539 H   0  0  0  0  0
   64.6366   52.3682   12.2086 H   0  0  0  0  0
   67.6049   50.8043   13.7766 H   0  0  0  0  0
   69.1894   51.9401   15.2935 H   0  0  0  0  0
   66.9297   55.5640   14.9647 H   0  0  0  0  0
   65.3320   54.4212   13.4383 H   0  0  0  0  0
   70.9886   54.1873   13.5904 H   0  0  0  0  0
   71.2480   53.2971   15.1336 H   0  0  0  0  0
   72.9568   55.6057   14.1380 H   0  0  0  0  0
   72.9128   55.4494   16.5924 H   0  0  0  0  0
   73.3336   53.7211   16.5090 H   0  0  0  0  0
   74.5008   54.9492   15.9609 H   0  0  0  0  0
   73.4988   52.6068   14.0708 H   0  0  0  0  0
   73.2044   53.6547   12.6615 H   0  0  0  0  0
   74.6673   53.8833   13.6508 H   0  0  0  0  0
   69.2411   56.8888   14.8018 H   0  0  0  0  0
   70.4419   56.4807   13.5485 H   0  0  0  0  0
   72.2541   57.3628   15.1734 H   0  0  0  0  0
   71.6954   59.5095   14.6496 H   0  0  0  0  0
   70.8440   57.1490   17.1880 H   0  0  0  0  0
   71.7932   59.9897   16.7178 H   0  0  0  0  0
   74.4761   58.6395   19.9026 H   0  0  0  0  0
   76.4407   59.8741   18.3110 H   0  0  0  0  0
   76.7109   60.1312   19.9817 H   0  0  0  0  0
   75.0413   62.4484   20.9706 H   0  0  0  0  0
   72.0624   61.4201   18.6542 H   0  0  0  0  0
   71.4895   62.3504   20.0308 H   0  0  0  0  0
   72.0035   59.8301   20.0750 H   0  0  0  0  0
   72.1352   60.8962   21.4477 H   0  0  0  0  0
   74.2530   60.0574   21.4405 H   0  0  0  0  0
   68.7292   58.0243   16.4970 H   0  0  0  0  0
   69.4807   59.6078   16.0579 H   0  0  0  0  0
   68.8535   57.3250   18.9483 H   0  0  0  0  0
   68.4419   58.1498   21.2640 H   0  0  0  0  0
   68.5841   60.5930   21.7676 H   0  0  0  0  0
   69.1505   62.1869   19.9707 H   0  0  0  0  0
   69.5763   61.3658   17.6582 H   0  0  0  0  0
  2  1  1  0  0  0
  3  2  4  0  0  0
  7  2  4  0  0  0
  4  3  4  0  0  0
  5  4  4  0  0  0
  5  6  4  0  0  0
  8  5  1  0  0  0
  6  7  4  0  0  0
  8  9  2  0  0  0
  8 10  2  0  0  0
 11  8  1  0  0  0
 11 12  1  0  0  0
 16 11  1  0  0  0
 12 13  1  0  0  0
 13 14  1  0  0  0
 13 15  1  0  0  0
 17 16  1  0  0  0
 17 18  1  0  0  0
 19 17  1  0  0  0
 19 20  1  0  0  0
 32 19  1  0  0  0
 20 21  1  0  0  0
 21 22  2  0  0  0
 21 23  1  0  0  0
 23 24  1  0  0  0
 24 25  1  0  0  0
 24 31  1  0  0  0
 25 26  1  0  0  0
 27 26  1  0  0  0
 27 28  1  0  0  0
 31 27  1  0  0  0
 29 28  1  0  0  0
 30 29  1  0  0  0
 31 30  1  0  0  0
 38 32  1  0  0  0
 33 34  4  0  0  0
 33 38  4  0  0  0
 34 35  4  0  0  0
 35 36  4  0  0  0
 36 37  4  0  0  0
 37 38  4  0  0  0
  1 39  1  0  0  0
  1 40  1  0  0  0
  3 41  1  0  0  0
  4 42  1  0  0  0
  6 43  1  0  0  0
  7 44  1  0  0  0
 12 45  1  0  0  0
 12 46  1  0  0  0
 13 47  1  0  0  0
 14 48  1  0  0  0
 14 49  1  0  0  0
 14 50  1  0  0  0
 15 51  1  0  0  0
 15 52  1  0  0  0
 15 53  1  0  0  0
 16 54  1  0  0  0
 16 55  1  0  0  0
 17 56  1  0  0  0
 18 57  1  0  0  0
 19 58  1  0  0  0
 20 59  1  0  0  0
 24 60  1  0  0  0
 25 61  1  0  0  0
 25 62  1  0  0  0
 27 63  1  0  0  0
 29 64  1  0  0  0
 29 65  1  0  0  0
 30 66  1  0  0  0
 30 67  1  0  0  0
 31 68  1  0  0  0
 32 69  1  0  0  0
 32 70  1  0  0  0
 33 71  1  0  0  0
 34 72  1  0  0  0
 35 73  1  0  0  0
 36 74  1  0  0  0
 37 75  1  0  0  0
M  END
$$$$
