4qlu_ligand
  -I-interpret- 

 93 97  0  0  0  0  0  0  0  0999 V2000
   11.4050 -139.2310   23.7430 C   0  0  0  0  0
   11.4510 -137.7240   23.8770 C   0  0  0  0  0
   11.9110 -137.0900   24.9470 C   0  0  0  0  0
   12.3340 -137.5080   26.1250 C   0  0  0  0  0
   12.7670 -136.6650   27.1080 C   0  0  0  0  0
   12.7400 -135.3330   26.8470 C   0  0  0  0  0
   12.2600 -134.9480   25.6270 C   0  0  0  0  0
   11.8570 -135.8080   24.7090 C   0  0  0  0  0
   11.3460 -135.6220   23.4410 C   0  0  0  0  0
   11.0910 -136.8650   22.9550 C   0  0  0  0  0
   10.5680 -137.1450   21.7650 C   0  0  0  0  0
   10.4520 -138.2850   21.3980 O   0  0  0  0  0
   10.2340 -136.1310   21.0030 N   0  0  0  0  0
    9.6000 -136.2260   19.6990 C   0  0  0  0  0
    8.6180 -137.3740   19.6380 C   0  0  0  0  0
   10.6170 -136.2720   18.6450 C   0  0  0  0  0
   11.4930 -135.4510   18.7000 O   0  0  0  0  0
   10.4760 -137.1400   17.6620 N   0  0  0  0  0
   11.4500 -137.2150   16.5920 C   0  0  0  0  0
   10.6680 -137.3030   15.3040 C   0  0  0  0  0
    9.5200 -137.6490   15.3340 O   0  0  0  0  0
   12.4910 -138.3290   16.9070 C   0  0  0  0  0
   13.8660 -137.7180   17.2750 C   0  0  0  0  0
   14.1510 -136.4740   17.0960 C   0  0  0  0  0
   14.9280 -138.2670   17.8040 C   0  0  0  0  0
   15.3600 -136.2620   17.4890 N   0  0  0  0  0
   15.8530 -137.3510   17.9150 C   0  0  0  0  0
   15.2180 -139.4900   18.2000 C   0  0  0  0  0
   17.0540 -137.5510   18.3990 C   0  0  0  0  0
   16.4750 -139.7880   18.7190 C   0  0  0  0  0
   17.4250 -138.7940   18.8270 C   0  0  0  0  0
   11.2570 -136.8930   14.2050 N   0  0  0  0  0
   10.5930 -136.7620   12.9130 C   0  0  0  0  0
   10.6630 -135.2430   12.7260 C   0  0  0  0  0
    9.3980 -134.4010   12.7360 C   0  0  0  0  0
    9.8820 -132.9690   12.6950 C   0  0  0  0  0
    9.1260 -131.9260   13.4340 C   0  0  0  0  0
    7.7390 -132.2870   13.6630 C   0  0  0  0  0
    7.7150 -133.5180   14.4710 C   0  0  0  0  0
    8.5530 -134.6750   13.9360 C   0  0  0  0  0
   11.3460 -137.4670   11.7470 C   0  0  0  0  0
   12.6630 -137.3630   12.0180 O   0  0  0  0  0
   11.0510 -138.9960   11.5500 C   0  0  0  0  0
    9.5790 -139.2790   11.6710 C   0  0  0  0  0
   11.6630 -139.7860   12.6760 C   0  0  0  0  0
   12.8910 -139.2350   13.0610 O   0  0  0  0  0
   10.3788 -139.5466   23.5549 H   0  0  0  0  0
   12.0396 -139.5402   22.9124 H   0  0  0  0  0
   11.7636 -139.6876   24.6655 H   0  0  0  0  0
   12.3379 -138.5798   26.3232 H   0  0  0  0  0
   13.1208 -137.0469   28.0656 H   0  0  0  0  0
   13.0860 -134.6028   27.5785 H   0  0  0  0  0
   12.2073 -133.8830   25.4011 H   0  0  0  0  0
   12.0511 -135.0862   22.8055 H   0  0  0  0  0
   10.4418 -135.0138   23.4646 H   0  0  0  0  0
   10.4367 -135.1957   21.3560 H   0  0  0  0  0
    9.0051 -135.3287   19.5285 H   0  0  0  0  0
    9.1418 -138.3094   19.8348 H   0  0  0  0  0
    7.8412 -137.2263   20.3883 H   0  0  0  0  0
    8.1655 -137.4111   18.6471 H   0  0  0  0  0
    9.6710 -137.7664   17.6550 H   0  0  0  0  0
   12.0853 -136.3357   16.4854 H   0  0  0  0  0
   12.6122 -138.9539   16.0222 H   0  0  0  0  0
   12.1311 -138.9140   17.7534 H   0  0  0  0  0
   13.4790 -135.7234   16.6800 H   0  0  0  0  0
   14.4666 -140.2756   18.1204 H   0  0  0  0  0
   17.7597 -136.7225   18.4603 H   0  0  0  0  0
   16.7076 -140.8037   19.0390 H   0  0  0  0  0
   18.4179 -138.9897   19.2319 H   0  0  0  0  0
   12.2461 -136.6495   14.2581 H   0  0  0  0  0
    9.6013 -137.2140   12.8981 H   0  0  0  0  0
   11.0599 -135.1162   11.7188 H   0  0  0  0  0
   11.2233 -134.8930   13.5930 H   0  0  0  0  0
    8.7525 -134.6315   11.8885 H   0  0  0  0  0
    9.8054 -132.6788   11.6471 H   0  0  0  0  0
   10.8623 -132.9924   13.1709 H   0  0  0  0  0
    9.1378 -131.0176   12.8317 H   0  0  0  0  0
    9.6009 -131.7978   14.4067 H   0  0  0  0  0
    7.2313 -132.4511   12.7125 H   0  0  0  0  0
    7.2228 -131.4829   14.1874 H   0  0  0  0  0
    6.6810 -133.8628   14.4787 H   0  0  0  0  0
    8.1325 -133.2577   15.4436 H   0  0  0  0  0
    9.2467 -134.9350   14.7356 H   0  0  0  0  0
    7.8412 -135.4418   13.6302 H   0  0  0  0  0
   11.0085 -136.9754   10.8346 H   0  0  0  0  0
   13.1667 -137.7874   11.3196 H   0  0  0  0  0
   11.4459 -139.2643   10.5701 H   0  0  0  0  0
    9.2329 -138.9795   12.6602 H   0  0  0  0  0
    9.0384 -138.7165   10.9098 H   0  0  0  0  0
    9.4026 -140.3454   11.5303 H   0  0  0  0  0
   11.8277 -140.8091   12.3381 H   0  0  0  0  0
   10.9852 -139.7639   13.5294 H   0  0  0  0  0
   13.2622 -139.7536   13.7786 H   0  0  0  0  0
  1  2  1  0  0  0
  2  3  1  0  0  0
  2 10  2  0  0  0
  3  4  4  0  0  0
  3  8  4  0  0  0
  4  5  4  0  0  0
  5  6  4  0  0  0
  6  7  4  0  0  0
  7  8  4  0  0  0
  8  9  1  0  0  0
  9 10  1  0  0  0
 10 11  1  0  0  0
 11 12  2  0  0  0
 11 13  1  0  0  0
 13 14  1  0  0  0
 14 15  1  0  0  0
 14 16  1  0  0  0
 16 17  2  0  0  0
 16 18  1  0  0  0
 18 19  1  0  0  0
 19 20  1  0  0  0
 19 22  1  0  0  0
 20 21  2  0  0  0
 20 32  1  0  0  0
 22 23  1  0  0  0
 23 24  4  0  0  0
 23 25  4  0  0  0
 24 26  4  0  0  0
 25 27  4  0  0  0
 25 28  4  0  0  0
 26 27  4  0  0  0
 27 29  4  0  0  0
 28 30  4  0  0  0
 29 31  4  0  0  0
 30 31  4  0  0  0
 32 33  1  0  0  0
 33 34  1  0  0  0
 33 41  1  0  0  0
 34 35  1  0  0  0
 35 36  1  0  0  0
 35 40  1  0  0  0
 36 37  1  0  0  0
 37 38  1  0  0  0
 38 39  1  0  0  0
 39 40  1  0  0  0
 41 42  1  0  0  0
 41 43  1  0  0  0
 43 44  1  0  0  0
 43 45  1  0  0  0
 45 46  1  0  0  0
  1 47  1  0  0  0
  1 48  1  0  0  0
  1 49  1  0  0  0
  4 50  1  0  0  0
  5 51  1  0  0  0
  6 52  1  0  0  0
  7 53  1  0  0  0
  9 54  1  0  0  0
  9 55  1  0  0  0
 13 56  1  0  0  0
 14 57  1  0  0  0
 15 58  1  0  0  0
 15 59  1  0  0  0
 15 60  1  0  0  0
 18 61  1  0  0  0
 19 62  1  0  0  0
 22 63  1  0  0  0
 22 64  1  0  0  0
 24 65  1  0  0  0
 28 66  1  0  0  0
 29 67  1  0  0  0
 30 68  1  0  0  0
 31 69  1  0  0  0
 32 70  1  0  0  0
 33 71  1  0  0  0
 34 72  1  0  0  0
 34 73  1  0  0  0
 35 74  1  0  0  0
 36 75  1  0  0  0
 36 76  1  0  0  0
 37 77  1  0  0  0
 37 78  1  0  0  0
 38 79  1  0  0  0
 38 80  1  0  0  0
 39 81  1  0  0  0
 39 82  1  0  0  0
 40 83  1  0  0  0
 40 84  1  0  0  0
 41 85  1  0  0  0
 42 86  1  0  0  0
 43 87  1  0  0  0
 44 88  1  0  0  0
 44 89  1  0  0  0
 44 90  1  0  0  0
 45 91  1  0  0  0
 45 92  1  0  0  0
 46 93  1  0  0  0
M  END
$$$$
