4btk_ligand
  -I-interpret- 

 37 39  0  0  0  0  0  0  0  0999 V2000
   64.9060   19.2270   25.5250 N   0  0  0  0  0
   66.2050   19.1560   25.2280 C   0  0  0  0  0
   66.9080   19.9880   24.4600 N   0  0  0  0  0
   66.2410   21.0060   23.9200 C   0  0  0  0  0
   64.8900   21.1870   24.1810 C   0  0  0  0  0
   64.2450   20.2590   24.9870 C   0  0  0  0  0
   66.9010   21.9020   23.1050 C   0  0  0  0  0
   66.2580   22.9880   22.5480 C   0  0  0  0  0
   64.9070   23.1510   22.8090 C   0  0  0  0  0
   64.2200   22.2520   23.6100 C   0  0  0  0  0
   62.8680   20.4170   25.2580 N   0  0  0  0  0
   62.0970   19.5370   26.0450 C   0  0  0  0  0
   61.0730   20.0890   26.7790 C   0  0  0  0  0
   60.2820   19.2820   27.5620 C   0  0  0  0  0
   60.4590   17.9150   27.6330 C   0  0  0  0  0
   61.4850   17.3590   26.8910 C   0  0  0  0  0
   62.2840   18.1660   26.1040 C   0  0  0  0  0
   59.2700   19.8870   28.2490 O   0  0  0  0  0
   66.9030   23.9280   21.7190 O   0  0  0  0  0
   68.3220   23.8160   21.6770 C   0  0  0  0  0
   64.2260   24.2010   22.2030 O   0  0  0  0  0
   63.4820   24.9220   23.1960 C   0  0  0  0  0
   66.7544   18.3215   25.6637 H   0  0  0  0  0
   67.9595   21.7478   22.8954 H   0  0  0  0  0
   63.1531   22.3851   23.7891 H   0  0  0  0  0
   62.3968   21.2269   24.8550 H   0  0  0  0  0
   60.8893   21.1627   26.7400 H   0  0  0  0  0
   59.8119   17.2946   28.2530 H   0  0  0  0  0
   61.6633   16.2843   26.9270 H   0  0  0  0  0
   63.0812   17.7124   25.5150 H   0  0  0  0  0
   58.7905   19.2280   28.7563 H   0  0  0  0  0
   68.7258   23.9528   22.6801 H   0  0  0  0  0
   68.5964   22.8289   21.3050 H   0  0  0  0  0
   68.7261   24.5809   21.0138 H   0  0  0  0  0
   62.7676   24.2502   23.6718 H   0  0  0  0  0
   64.1673   25.3163   23.9463 H   0  0  0  0  0
   62.9480   25.7452   22.7214 H   0  0  0  0  0
  1  2  4  0  0  0
  1  6  4  0  0  0
  2  3  4  0  0  0
  3  4  4  0  0  0
  4  5  4  0  0  0
  4  7  4  0  0  0
  5  6  4  0  0  0
  5 10  4  0  0  0
  6 11  1  0  0  0
  7  8  4  0  0  0
  8  9  4  0  0  0
  8 19  1  0  0  0
  9 10  4  0  0  0
  9 21  1  0  0  0
 11 12  1  0  0  0
 12 13  4  0  0  0
 12 17  4  0  0  0
 13 14  4  0  0  0
 14 15  4  0  0  0
 14 18  1  0  0  0
 15 16  4  0  0  0
 16 17  4  0  0  0
 19 20  1  0  0  0
 21 22  1  0  0  0
  2 23  1  0  0  0
  7 24  1  0  0  0
 10 25  1  0  0  0
 11 26  1  0  0  0
 13 27  1  0  0  0
 15 28  1  0  0  0
 16 29  1  0  0  0
 17 30  1  0  0  0
 18 31  1  0  0  0
 20 32  1  0  0  0
 20 33  1  0  0  0
 20 34  1  0  0  0
 22 35  1  0  0  0
 22 36  1  0  0  0
 22 37  1  0  0  0
M  END
$$$$
