### 
### Created by X-TOOL on Mon Sep 10 21:13:06 2018
### 

@<TRIPOS>MOLECULE
3ay9_ligand
   39    41     1     0     0
SMALL
GAST_HUCK


@<TRIPOS>ATOM
      1 PB         -5.6660   11.7160  -17.9680 P.3       1 ADP         0.2069
      2 O1B        -5.7690   11.6500  -19.4560 O.co2     1 ADP        -0.5891
      3 O2B        -4.8660   10.5820  -17.3920 O.co2     1 ADP        -0.5891
      4 O3B        -6.9550   11.9520  -17.2840 O.co2     1 ADP        -0.5891
      5 PA         -4.3680   13.8370  -16.3600 P.3       1 ADP         0.3276
      6 O1A        -4.4660   12.9810  -15.1280 O.co2     1 ADP        -0.5556
      7 O2A        -3.0770   14.5450  -16.7440 O.co2     1 ADP        -0.5556
      8 O3A        -4.7770   13.0650  -17.7340 O.3       1 ADP        -0.1548
      9 O5'        -5.5300   14.9180  -16.1350 O.3       1 ADP        -0.2436
     10 C5'        -5.9020   15.7640  -17.2400 C.3       1 ADP         0.1132
     11 C4'        -6.8620   16.8010  -16.7050 C.3       1 ADP         0.1189
     12 O4'        -6.2560   17.4180  -15.5590 O.3       1 ADP        -0.3364
     13 C3'        -7.0950   17.8800  -17.7540 C.3       1 ADP         0.1149
     14 O3'        -8.4950   18.1790  -17.7160 O.3       1 ADP        -0.3864
     15 C2'        -6.3120   19.0770  -17.2390 C.3       1 ADP         0.1385
     16 O2'        -6.8430   20.3540  -17.6740 O.3       1 ADP        -0.3836
     17 C1'        -6.4660   18.8390  -15.7430 C.3       1 ADP         0.2010
     18 N9         -5.4950   19.5620  -14.9480 N.pl3     1 ADP        -0.1919
     19 C8         -4.1440   19.5250  -15.0880 C.2       1 ADP         0.1123
     20 N7         -3.5540   20.3000  -14.1460 N.2       1 ADP        -0.2958
     21 C5         -4.5410   20.8600  -13.4240 C.ar      1 ADP         0.1045
     22 C6         -4.5960   21.8200  -12.2990 C.ar      1 ADP         0.1298
     23 N6         -3.4420   22.3210  -11.7750 N.pl3     1 ADP        -0.3152
     24 N1         -5.8250   22.1380  -11.8370 N.ar      1 ADP        -0.2698
     25 C2         -6.9670   21.6390  -12.3530 C.ar      1 ADP         0.0533
     26 N3         -6.9980   20.7410  -13.3780 N.ar      1 ADP        -0.2714
     27 C4         -5.8200   20.3590  -13.9400 C.ar      1 ADP         0.1613
     28 H1         -6.3907   15.1669  -18.0240 H         1 ADP         0.0648
     29 H2         -5.0099   16.2552  -17.6557 H         1 ADP         0.0648
     30 H3         -7.8161   16.3281  -16.4292 H         1 ADP         0.0651
     31 H4         -6.7707   17.5738  -18.7595 H         1 ADP         0.0648
     32 H5         -8.6915   18.8517  -18.3574 H         1 ADP         0.2100
     33 H6         -5.2566   19.0198  -17.5436 H         1 ADP         0.0676
     34 H7         -6.8297   20.3945  -18.6230 H         1 ADP         0.2101
     35 H8         -7.4783   19.1265  -15.4228 H         1 ADP         0.0996
     36 H9         -3.6119   18.9546  -15.8479 H         1 ADP         0.1349
     37 H10        -3.4794   22.9892  -10.9920 H         1 ADP         0.1820
     38 H11        -2.5324   22.0315  -12.1619 H         1 ADP         0.1820
     39 H12        -7.9091   21.9693  -11.9306 H         1 ADP         0.0996
@<TRIPOS>BOND
     1    1    2 ar 
     2    1    3 ar 
     3    1    4 ar 
     4    8    1 1  
     5    5    6 ar 
     6    5    7 ar 
     7    5    8 1  
     8    5    9 1  
     9    9   10 1  
    10   10   11 1  
    11   11   12 1  
    12   11   13 1  
    13   12   17 1  
    14   13   14 1  
    15   13   15 1  
    16   15   16 1  
    17   15   17 1  
    18   17   18 1  
    19   18   19 1  
    20   18   27 1  
    21   19   20 2  
    22   20   21 1  
    23   21   22 ar 
    24   21   27 ar 
    25   22   23 1  
    26   22   24 ar 
    27   24   25 ar 
    28   25   26 ar 
    29   26   27 ar 
    30   10   28 1  
    31   10   29 1  
    32   11   30 1  
    33   13   31 1  
    34   14   32 1  
    35   15   33 1  
    36   16   34 1  
    37   17   35 1  
    38   19   36 1  
    39   23   37 1  
    40   23   38 1  
    41   25   39 1  
@<TRIPOS>SUBSTRUCTURE
     1 ADP         1

