3ay9_ligand
  -I-interpret- 

 42 44  0  0  0  0  0  0  0  0999 V2000
   -5.6660   11.7160  -17.9680 P   0  0  0  0  0
   -5.7690   11.6500  -19.4560 O   0  0  0  0  0
   -4.8660   10.5820  -17.3920 O   0  0  0  0  0
   -6.9550   11.9520  -17.2840 O   0  0  0  0  0
   -4.3680   13.8370  -16.3600 P   0  0  0  0  0
   -4.4660   12.9810  -15.1280 O   0  0  0  0  0
   -3.0770   14.5450  -16.7440 O   0  0  0  0  0
   -4.7770   13.0650  -17.7340 O   0  0  0  0  0
   -5.5300   14.9180  -16.1350 O   0  0  0  0  0
   -5.9020   15.7640  -17.2400 C   0  0  0  0  0
   -6.8620   16.8010  -16.7050 C   0  0  0  0  0
   -6.2560   17.4180  -15.5590 O   0  0  0  0  0
   -7.0950   17.8800  -17.7540 C   0  0  0  0  0
   -8.4950   18.1790  -17.7160 O   0  0  0  0  0
   -6.3120   19.0770  -17.2390 C   0  0  0  0  0
   -6.8430   20.3540  -17.6740 O   0  0  0  0  0
   -6.4660   18.8390  -15.7430 C   0  0  0  0  0
   -5.4950   19.5620  -14.9480 N   0  0  0  0  0
   -4.1440   19.5250  -15.0880 C   0  0  0  0  0
   -3.5540   20.3000  -14.1460 N   0  0  0  0  0
   -4.5410   20.8600  -13.4240 C   0  0  0  0  0
   -4.5960   21.8200  -12.2990 C   0  0  0  0  0
   -3.4420   22.3210  -11.7750 N   0  0  0  0  0
   -5.8250   22.1380  -11.8370 N   0  0  0  0  0
   -6.9670   21.6390  -12.3530 C   0  0  0  0  0
   -6.9980   20.7410  -13.3780 N   0  0  0  0  0
   -5.8200   20.3590  -13.9400 C   0  0  0  0  0
   -4.8982   11.4954  -19.8294 H   0  0  0  0  0
   -4.0467   10.4879  -17.8834 H   0  0  0  0  0
   -3.2134   15.0388  -17.5559 H   0  0  0  0  0
   -6.3708   15.1786  -18.0309 H   0  0  0  0  0
   -5.0221   16.2415  -17.6711 H   0  0  0  0  0
   -7.8096   16.3274  -16.4486 H   0  0  0  0  0
   -6.7979   17.6040  -18.7658 H   0  0  0  0  0
   -8.6936   18.8588  -18.3641 H   0  0  0  0  0
   -5.2850   19.1427  -17.5983 H   0  0  0  0  0
   -6.3040   21.0625  -17.3147 H   0  0  0  0  0
   -7.4456   19.1871  -15.4154 H   0  0  0  0  0
   -3.6115   18.9541  -15.8486 H   0  0  0  0  0
   -2.5412   22.0343  -12.1582 H   0  0  0  0  0
   -3.4791   22.9827  -10.9996 H   0  0  0  0  0
   -7.9143   21.9711  -11.9282 H   0  0  0  0  0
  1  2  1  0  0  0
  1  3  1  0  0  0
  1  4  2  0  0  0
  8  1  1  0  0  0
  5  6  2  0  0  0
  5  7  1  0  0  0
  5  8  1  0  0  0
  5  9  1  0  0  0
  9 10  1  0  0  0
 10 11  1  0  0  0
 11 12  1  0  0  0
 11 13  1  0  0  0
 12 17  1  0  0  0
 13 14  1  0  0  0
 13 15  1  0  0  0
 15 16  1  0  0  0
 15 17  1  0  0  0
 17 18  1  0  0  0
 18 19  4  0  0  0
 18 27  4  0  0  0
 19 20  4  0  0  0
 20 21  4  0  0  0
 21 22  4  0  0  0
 21 27  4  0  0  0
 22 23  1  0  0  0
 22 24  4  0  0  0
 24 25  4  0  0  0
 25 26  4  0  0  0
 26 27  4  0  0  0
  2 28  1  0  0  0
  3 29  1  0  0  0
  7 30  1  0  0  0
 10 31  1  0  0  0
 10 32  1  0  0  0
 11 33  1  0  0  0
 13 34  1  0  0  0
 14 35  1  0  0  0
 15 36  1  0  0  0
 16 37  1  0  0  0
 17 38  1  0  0  0
 19 39  1  0  0  0
 23 40  1  0  0  0
 23 41  1  0  0  0
 25 42  1  0  0  0
M  END
$$$$
