5h8e_ligand
  -I-interpret- 

 55 58  0  0  0  0  0  0  0  0999 V2000
   16.4310   65.2870   37.5450 C   0  0  0  0  0
   16.3050   64.9840   35.0110 C   0  0  0  0  0
   17.2870   65.8580   34.5510 C   0  0  0  0  0
   22.3030   69.9030   35.2050 N   0  0  0  0  0
   15.4210   64.4100   34.0830 C   0  0  0  0  0
   13.1930   63.7670   35.0470 C   0  0  0  0  0
   14.4890   62.0640   33.7200 C   0  0  0  0  0
   15.8190   61.3310   33.7980 C   0  0  0  0  0
   19.2800   67.8900   33.3430 C   0  0  0  0  0
   20.1150   68.6440   32.5130 C   0  0  0  0  0
   21.1930   69.3600   33.0390 C   0  0  0  0  0
   20.5160   68.4630   35.1770 C   0  0  0  0  0
   20.9330   68.5840   36.4980 C   0  0  0  0  0
   22.0890   69.3790   36.4380 C   0  0  0  0  0
   22.7040   71.2770   30.1190 C   0  0  0  0  0
   21.2250   71.2970   30.2400 C   0  0  0  0  0
   19.9030   67.4460   38.5500 N   0  0  0  0  0
   20.3520   67.9620   37.6400 C   0  0  0  0  0
   21.3590   69.2710   34.4220 N   0  0  0  0  0
   22.1110   70.0630   32.2510 N   0  0  0  0  0
   21.9990   70.1750   30.7990 C   0  0  0  0  0
   19.4560   67.8090   34.6730 N   0  0  0  0  0
   18.2700   67.1760   32.7210 N   0  0  0  0  0
   17.3140   66.2580   33.2150 C   0  0  0  0  0
   16.4590   65.6550   32.3000 C   0  0  0  0  0
   15.4850   64.7730   32.7350 C   0  0  0  0  0
   14.4850   63.3600   34.5310 N   0  0  0  0  0
   16.0200   60.6830   35.1120 N   0  3  0  0  0
   16.0850   64.6690   36.3840 N   0  0  0  0  0
   16.4820   64.7010   38.6190 O   0  0  0  0  0
   16.5340   66.7840   37.4650 C   0  0  0  0  0
   18.0420   66.2332   35.2419 H   0  0  0  0  0
   12.5034   63.9200   34.2168 H   0  0  0  0  0
   12.8047   62.9896   35.7050 H   0  0  0  0  0
   13.3027   64.6964   35.6058 H   0  0  0  0  0
   13.7200   61.4091   34.1296 H   0  0  0  0  0
   14.3075   62.3204   32.6762 H   0  0  0  0  0
   16.6175   62.0584   33.6516 H   0  0  0  0  0
   15.8257   60.5558   33.0318 H   0  0  0  0  0
   19.9222   68.6736   31.4406 H   0  0  0  0  0
   22.7443   69.5561   37.2908 H   0  0  0  0  0
   23.6308   71.7383   29.7779 H   0  0  0  0  0
   20.2681   71.7843   30.0527 H   0  0  0  0  0
   22.8971   70.5198   32.7133 H   0  0  0  0  0
   21.9767   69.0914   30.6829 H   0  0  0  0  0
   18.2026   67.3436   31.7171 H   0  0  0  0  0
   16.5557   65.8772   31.2373 H   0  0  0  0  0
   14.7673   64.3612   32.0255 H   0  0  0  0  0
   16.9210   60.2050   35.1198 H   0  0  0  0  0
   16.0034   61.3917   35.8454 H   0  0  0  0  0
   15.2737   60.0069   35.2740 H   0  0  0  0  0
   15.5619   63.8046   36.5239 H   0  0  0  0  0
   15.7208   67.2338   38.0346 H   0  0  0  0  0
   17.4900   67.1038   37.8796 H   0  0  0  0  0
   16.4657   67.0964   36.4230 H   0  0  0  0  0
 29  1  1  0  0  0
  1 30  2  0  0  0
  1 31  1  0  0  0
  3  2  4  0  0  0
  2  5  4  0  0  0
  2 29  1  0  0  0
 24  3  4  0  0  0
  4 14  4  0  0  0
 19  4  4  0  0  0
  5 26  4  0  0  0
  5 27  1  0  0  0
 27  6  1  0  0  0
  7  8  1  0  0  0
 27  7  1  0  0  0
  8 28  1  0  0  0
  9 10  4  0  0  0
  9 22  4  0  0  0
 23  9  1  0  0  0
 10 11  4  0  0  0
 11 19  4  0  0  0
 11 20  1  0  0  0
 12 13  4  0  0  0
 12 19  4  0  0  0
 22 12  4  0  0  0
 13 14  4  0  0  0
 13 18  1  0  0  0
 16 15  2  0  0  0
 21 15  1  0  0  0
 21 16  1  0  0  0
 18 17  3  0  0  0
 20 21  1  0  0  0
 23 24  1  0  0  0
 24 25  4  0  0  0
 25 26  4  0  0  0
  3 32  1  0  0  0
  6 33  1  0  0  0
  6 34  1  0  0  0
  6 35  1  0  0  0
  7 36  1  0  0  0
  7 37  1  0  0  0
  8 38  1  0  0  0
  8 39  1  0  0  0
 10 40  1  0  0  0
 14 41  1  0  0  0
 15 42  1  0  0  0
 16 43  1  0  0  0
 20 44  1  0  0  0
 21 45  1  0  0  0
 23 46  1  0  0  0
 25 47  1  0  0  0
 26 48  1  0  0  0
 28 49  1  0  0  0
 28 50  1  0  0  0
 28 51  1  0  0  0
 29 52  1  0  0  0
 31 53  1  0  0  0
 31 54  1  0  0  0
 31 55  1  0  0  0
M  END
$$$$
