2ltx_ligand
  -I-interpret- 

242248  0  0  0  0  0  0  0  0999 V2000
    1.5980  -12.7780    4.2880 N   0  3  0  0  0
    1.1240  -11.5650    4.9960 C   0  0  0  0  0
    0.8110  -11.8890    6.4500 C   0  0  0  0  0
    1.3630  -11.2730    7.3580 O   0  0  0  0  0
   -0.1230  -10.9760    4.3170 C   0  0  0  0  0
    0.1460  -10.3100    2.9720 C   0  0  0  0  0
    0.6050  -11.2840    1.9070 C   0  0  0  0  0
    1.7960  -11.6500    1.9070 O   0  0  0  0  0
   -0.2270  -11.7040    1.0810 O   0  0  0  0  0
   -0.0910  -12.8560    6.6530 N   0  0  0  0  0
   -0.4990  -13.3050    7.9910 C   0  0  0  0  0
   -1.2730  -12.2180    8.7410 C   0  0  0  0  0
   -1.5690  -12.3600    9.9260 O   0  0  0  0  0
    0.7200  -13.7540    8.8090 C   0  0  0  0  0
    1.5310  -14.8970    8.1920 C   0  0  0  0  0
    2.7210  -15.2400    9.0710 C   0  0  0  0  0
    0.6560  -16.1220    7.9780 C   0  0  0  0  0
   -1.6310  -11.1600    8.0310 N   0  0  0  0  0
   -2.3570  -10.0420    8.6180 C   0  0  0  0  0
   -3.8190  -10.0610    8.1950 C   0  0  0  0  0
   -4.2040  -10.8050    7.2920 O   0  0  0  0  0
   -1.7240   -8.7180    8.1860 C   0  0  0  0  0
   -0.4650   -8.3560    8.9510 C   0  0  0  0  0
   -0.7520   -8.0000   10.3950 C   0  0  0  0  0
   -0.7890   -8.9090   11.2460 O   0  0  0  0  0
   -0.9510   -6.8020   10.6870 O   0  0  0  0  0
   -4.6200   -9.2350    8.8570 N   0  0  0  0  0
   -6.0070   -9.0120    8.4730 C   0  0  0  0  0
   -6.0940   -8.4960    7.0390 C   0  0  0  0  0
   -5.1300   -7.9210    6.5330 O   0  0  0  0  0
   -6.6240   -7.9880    9.4210 C   0  0  0  0  0
   -5.7380   -6.9030    9.6350 O   0  0  0  0  0
   -7.2520   -8.6690    6.3760 N   0  0  0  0  0
   -7.4590   -8.1730    5.0130 C   0  0  0  0  0
   -7.1470   -6.6800    4.8920 C   0  0  0  0  0
   -7.7450   -5.8480    5.5770 O   0  0  0  0  0
   -8.9490   -8.4370    4.7430 C   0  0  0  0  0
   -9.5470   -8.7460    6.0750 C   0  0  0  0  0
   -8.4440   -9.3560    6.8880 C   0  0  0  0  0
   -6.1770   -6.3410    4.0330 N   0  0  0  0  0
   -5.7800   -4.9540    3.7650 C   0  0  0  0  0
   -6.9140   -4.1080    3.1770 C   0  0  0  0  0
   -7.8870   -4.6360    2.6310 O   0  0  0  0  0
   -4.6340   -5.1000    2.7520 C   0  0  0  0  0
   -4.7810   -6.4660    2.1880 C   0  0  0  0  0
   -5.3440   -7.2970    3.2960 C   0  0  0  0  0
   -6.7660   -2.7760    3.2470 N   0  0  0  0  0
   -7.7850   -1.8180    2.8020 C   0  0  0  0  0
   -7.9520   -1.8470    1.2810 C   0  0  0  0  0
   -6.9760   -1.7010    0.5480 O   0  0  0  0  0
   -7.2250   -0.4560    3.2680 C   0  0  0  0  0
   -6.1220   -0.7860    4.2070 C   0  0  0  0  0
   -5.5710   -2.0870    3.7360 C   0  0  0  0  0
   -9.1920   -2.0470    0.7920 N   0  0  0  0  0
   -9.4890   -2.1570   -0.6450 C   0  0  0  0  0
   -8.8670   -1.0220   -1.4570 C   0  0  0  0  0
   -9.0060    0.1530   -1.1030 O   0  0  0  0  0
  -11.0250   -2.0880   -0.7120 C   0  0  0  0  0
  -11.4740   -1.6940    0.6580 C   0  0  0  0  0
  -10.4090   -2.1740    1.6000 C   0  0  0  0  0
   -8.1990   -1.3800   -2.5550 N   0  0  0  0  0
   -7.4840   -0.4060   -3.3700 C   0  0  0  0  0
   -8.4190    0.6640   -3.9190 C   0  0  0  0  0
   -9.2250    0.4220   -4.8180 O   0  0  0  0  0
   -6.7120   -1.0880   -4.5210 C   0  0  0  0  0
   -6.1880   -0.1200   -5.5790 C   0  0  0  0  0
   -5.6750    1.1270   -5.2300 C   0  0  0  0  0
   -6.2330   -0.4420   -6.9340 C   0  0  0  0  0
   -5.2400    2.0190   -6.1920 C   0  0  0  0  0
   -5.7840    0.4510   -7.8930 C   0  0  0  0  0
   -5.3000    1.6670   -7.5180 C   0  0  0  0  0
   -4.8960    2.5450   -8.4900 O   0  0  0  0  0
   -8.3180    1.8340   -3.3210 N   0  0  0  0  0
   -8.9080    3.0350   -3.8600 C   0  0  0  0  0
   -7.7880    3.8210   -4.5210 C   0  0  0  0  0
   -6.6760    3.8470   -3.9940 O   0  0  0  0  0
   -9.5530    3.8420   -2.7330 C   0  0  0  0  0
  -10.4390    3.0300   -1.9730 O   0  0  0  0  0
   -8.0640    4.4680   -5.6460 N   0  0  0  0  0
   -7.0020    5.0750   -6.4390 C   0  0  0  0  0
   -6.2460    6.1150   -5.6280 C   0  0  0  0  0
   -5.0230    6.0670   -5.5300 O   0  0  0  0  0
   -7.5560    5.7450   -7.6970 C   0  0  0  0  0
   -8.3430    4.8320   -8.6180 C   0  0  0  0  0
   -8.7200    5.5640   -9.8930 C   0  0  0  0  0
   -9.7450    4.8620  -10.6600 N   0  0  0  0  0
  -10.6630    5.4770  -11.4040 C   0  0  0  0  0
  -10.6940    6.8040  -11.4680 N   0  0  0  0  0
  -11.5620    4.7670  -12.0740 N   0  0  0  0  0
   -6.9700    7.0540   -5.0540 N   0  0  0  0  0
   -6.3480    8.1010   -4.2660 C   0  0  0  0  0
   -6.8780    8.0430   -2.8450 C   0  0  0  0  0
   -7.9850    8.5050   -2.5610 O   0  0  0  0  0
   -6.5830    9.4820   -4.9020 C   0  0  0  0  0
   -5.8230    9.6890   -6.2010 C   0  0  0  0  0
   -5.8670    8.7380   -7.2110 C   0  0  0  0  0
   -5.0530   10.8230   -6.4130 C   0  0  0  0  0
   -5.1730    8.9010   -8.3870 C   0  0  0  0  0
   -4.3540   11.0010   -7.5930 C   0  0  0  0  0
   -4.4160   10.0360   -8.5790 C   0  0  0  0  0
   -3.7160   10.2080   -9.7540 O   0  0  0  0  0
   -6.1120    7.4080   -1.9490 N   0  0  0  0  0
   -6.5130    7.1640   -0.5760 C   0  0  0  0  0
   -6.1560    8.3300    0.3370 C   0  0  0  0  0
   -4.9850    8.6860    0.4850 O   0  0  0  0  0
   -5.7140    5.8990   -0.1960 C   0  0  0  0  0
   -4.7910    5.6240   -1.3510 C   0  0  0  0  0
   -4.7780    6.8650   -2.1920 C   0  0  0  0  0
   -7.1710    8.9410    0.9230 N   0  0  0  0  0
   -6.9650   10.0480    1.8390 C   0  0  0  0  0
   -7.4850    9.6780    3.2200 C   0  0  0  0  0
   -8.6960    9.5820    3.4470 O   0  0  0  0  0
   -7.6260   11.3320    1.3110 C   0  0  0  0  0
   -9.0890   11.1660    0.9240 C   0  0  0  0  0
   -9.7740   12.6320    0.1250 S   0  0  0  0  0
   -8.7220   12.7490   -1.3210 C   0  0  0  0  0
   -6.5560    9.4300    4.1270 N   0  0  0  0  0
   -6.8830    8.9690    5.4640 C   0  0  0  0  0
   -6.0160    9.6800    6.4920 C   0  0  0  0  0
   -6.5370   10.0180    7.5760 O   0  0  0  0  0
   -6.7080    7.4460    5.5700 C   0  0  0  0  0
   -5.2820    6.9910    5.3160 C   0  0  0  0  0
   -4.9320    6.7180    4.1460 O   0  0  0  0  0
   -4.5000    6.9060    6.2820 O   0  0  0  0  0
   -4.8280    9.9450    6.1930 O   0  0  0  0  0
    2.4241  -13.1450    4.7605 H   0  0  0  0  0
    0.8608  -13.4829    4.2928 H   0  0  0  0  0
    1.8341  -12.5378    3.3252 H   0  0  0  0  0
    1.9218  -10.8234    4.9550 H   0  0  0  0  0
   -0.5152  -10.2064    4.9818 H   0  0  0  0  0
   -0.8073  -11.8041    4.1322 H   0  0  0  0  0
    0.9420   -9.5797    3.1177 H   0  0  0  0  0
   -0.7880   -9.8632    2.6313 H   0  0  0  0  0
    2.2646  -11.2105    2.6203 H   0  0  0  0  0
   -0.5156  -13.3027    5.8402 H   0  0  0  0  0
   -1.1659  -14.1570    7.8590 H   0  0  0  0  0
    0.3405  -14.1182    9.7637 H   0  0  0  0  0
    1.3878  -12.8950    8.8743 H   0  0  0  0  0
    1.9021  -14.5680    7.2214 H   0  0  0  0  0
    3.3619  -14.3640    9.1707 H   0  0  0  0  0
    2.3675  -15.5471   10.0553 H   0  0  0  0  0
    3.2847  -16.0543    8.6157 H   0  0  0  0  0
    0.2539  -16.4515    8.9360 H   0  0  0  0  0
   -0.1640  -15.8683    7.3062 H   0  0  0  0  0
    1.2531  -16.9212    7.5389 H   0  0  0  0  0
   -1.3906  -11.1264    7.0403 H   0  0  0  0  0
   -2.3026  -10.1382    9.7024 H   0  0  0  0  0
   -2.4553   -7.9328    8.3776 H   0  0  0  0  0
   -1.4463   -8.8200    7.1369 H   0  0  0  0  0
   -0.0161   -7.4863    8.4711 H   0  0  0  0  0
    0.1972   -9.2217    8.9414 H   0  0  0  0  0
   -0.8785   -6.2644    9.8949 H   0  0  0  0  0
   -4.2495   -8.7370    9.6664 H   0  0  0  0  0
   -6.5485   -9.9561    8.5330 H   0  0  0  0  0
   -6.8259   -8.4709   10.3771 H   0  0  0  0  0
   -7.5444   -7.6081    8.9775 H   0  0  0  0  0
   -6.1452   -6.2720   10.2330 H   0  0  0  0  0
   -6.7990   -8.6652    4.2987 H   0  0  0  0  0
   -9.0882   -9.2601    4.0421 H   0  0  0  0  0
   -9.4297   -7.5754    4.2796 H   0  0  0  0  0
  -10.3929   -9.4270    5.9810 H   0  0  0  0  0
   -9.9394   -7.8474    6.5510 H   0  0  0  0  0
   -8.5832   -9.2256    7.9612 H   0  0  0  0  0
   -8.3883  -10.4398    6.7858 H   0  0  0  0  0
   -5.4981   -4.4345    4.6808 H   0  0  0  0  0
   -3.6612   -4.9636    3.2244 H   0  0  0  0  0
   -4.6859   -4.3374    1.9749 H   0  0  0  0  0
   -3.8260   -6.8591    1.8394 H   0  0  0  0  0
   -5.4334   -6.4696    1.3148 H   0  0  0  0  0
   -5.9067   -8.1579    2.9351 H   0  0  0  0  0
   -4.5726   -7.7525    3.9170 H   0  0  0  0  0
   -8.7728   -2.0370    3.2074 H   0  0  0  0  0
   -7.9929    0.1503    3.7485 H   0  0  0  0  0
   -6.8711    0.1410    2.4275 H   0  0  0  0  0
   -6.4800   -0.8534    5.2343 H   0  0  0  0  0
   -5.3580   -0.0086    4.2133 H   0  0  0  0  0
   -4.8000   -1.9744    2.9738 H   0  0  0  0  0
   -5.0487   -2.6387    4.5177 H   0  0  0  0  0
   -9.0764   -3.0716   -1.0709 H   0  0  0  0  0
  -11.4527   -3.0453   -1.0098 H   0  0  0  0  0
  -11.3577   -1.3692   -1.4608 H   0  0  0  0  0
  -12.4405   -2.1371    0.8980 H   0  0  0  0  0
  -11.6085   -0.6149    0.7329 H   0  0  0  0  0
  -10.3685   -1.6019    2.5269 H   0  0  0  0  0
  -10.5806   -3.1891    1.9579 H   0  0  0  0  0
   -8.1884   -2.3618   -2.8315 H   0  0  0  0  0
   -6.7607    0.0814   -2.7163 H   0  0  0  0  0
   -7.4064   -1.7649   -5.0187 H   0  0  0  0  0
   -5.8469   -1.5834   -4.0802 H   0  0  0  0  0
   -5.6154    1.4048   -4.1777 H   0  0  0  0  0
   -6.6270   -1.4100   -7.2436 H   0  0  0  0  0
   -4.8521    2.9949   -5.9002 H   0  0  0  0  0
   -5.8182    0.1801   -8.9482 H   0  0  0  0  0
   -5.0052    2.1381   -9.3526 H   0  0  0  0  0
   -7.8025    1.8927   -2.4428 H   0  0  0  0  0
   -9.6872    2.8063   -4.5871 H   0  0  0  0  0
  -10.1183    4.6654   -3.1696 H   0  0  0  0  0
   -8.7684    4.2164   -2.0755 H   0  0  0  0  0
  -10.8318    3.5559   -1.2725 H   0  0  0  0  0
   -9.0317    4.5416   -5.9600 H   0  0  0  0  0
   -6.3259    4.2708   -6.7293 H   0  0  0  0  0
   -6.6979    6.1018   -8.2666 H   0  0  0  0  0
   -8.2435    6.5218   -7.3623 H   0  0  0  0  0
   -9.2528    4.5133   -8.1093 H   0  0  0  0  0
   -7.7279    3.9690   -8.8728 H   0  0  0  0  0
   -7.8274    5.6380  -10.5142 H   0  0  0  0  0
   -9.1181    6.5398   -9.6148 H   0  0  0  0  0
   -9.7589    3.8427  -10.6241 H   0  0  0  0  0
  -11.4059    7.2710  -12.0297 H   0  0  0  0  0
  -10.0059    7.3555  -10.9554 H   0  0  0  0  0
  -11.5509    3.7485  -12.0198 H   0  0  0  0  0
   -7.9839    7.0447   -5.1654 H   0  0  0  0  0
   -5.2700    7.9416   -4.2424 H   0  0  0  0  0
   -6.2316   10.2325   -4.1940 H   0  0  0  0  0
   -7.6462    9.5614   -5.1286 H   0  0  0  0  0
   -6.4669    7.8391   -7.0684 H   0  0  0  0  0
   -4.9979   11.5864   -5.6369 H   0  0  0  0  0
   -5.2215    8.1367   -9.1626 H   0  0  0  0  0
   -3.7562   11.8998   -7.7443 H   0  0  0  0  0
   -3.2452   11.0442   -9.7252 H   0  0  0  0  0
   -7.5913    7.0443   -0.4704 H   0  0  0  0  0
   -6.3783    5.0543   -0.0137 H   0  0  0  0  0
   -5.1545    6.0498    0.7272 H   0  0  0  0  0
   -5.1341    4.7655   -1.9283 H   0  0  0  0  0
   -3.7883    5.3809   -0.9994 H   0  0  0  0  0
   -3.9759    7.5556   -1.9315 H   0  0  0  0  0
   -4.5751    6.6715   -3.2453 H   0  0  0  0  0
   -8.1215    8.6272    0.7269 H   0  0  0  0  0
   -5.8963   10.2478    1.9170 H   0  0  0  0  0
   -7.0861   11.6252    0.4106 H   0  0  0  0  0
   -7.5870   12.0679    2.1142 H   0  0  0  0  0
   -9.6570   10.9882    1.8371 H   0  0  0  0  0
   -9.1547   10.3395    0.2164 H   0  0  0  0  0
   -7.6853   12.8671   -1.0059 H   0  0  0  0  0
   -8.8212   11.8407   -1.9153 H   0  0  0  0  0
   -9.0219   13.6101   -1.9182 H   0  0  0  0  0
   -5.5762    9.5672    3.8790 H   0  0  0  0  0
   -7.9275    9.2058    5.6666 H   0  0  0  0  0
   -7.3422    6.9863    4.8120 H   0  0  0  0  0
   -6.9734    7.1521    6.5855 H   0  0  0  0  0
   -5.6756    6.8465    3.5525 H   0  0  0  0  0
   -4.6333    9.5957    5.3202 H   0  0  0  0  0
  1  2  1  0  0  0
  2  3  1  0  0  0
  2  5  1  0  0  0
  3  4  2  0  0  0
  3 10  1  0  0  0
  5  6  1  0  0  0
  6  7  1  0  0  0
  7  8  1  0  0  0
  7  9  2  0  0  0
 10 11  1  0  0  0
 11 12  1  0  0  0
 11 14  1  0  0  0
 12 13  2  0  0  0
 12 18  1  0  0  0
 14 15  1  0  0  0
 15 16  1  0  0  0
 15 17  1  0  0  0
 18 19  1  0  0  0
 19 20  1  0  0  0
 19 22  1  0  0  0
 20 21  2  0  0  0
 20 27  1  0  0  0
 22 23  1  0  0  0
 23 24  1  0  0  0
 24 25  2  0  0  0
 24 26  1  0  0  0
 27 28  1  0  0  0
 28 29  1  0  0  0
 28 31  1  0  0  0
 29 30  2  0  0  0
 29 33  1  0  0  0
 31 32  1  0  0  0
 33 34  1  0  0  0
 33 39  1  0  0  0
 34 35  1  0  0  0
 34 37  1  0  0  0
 35 36  2  0  0  0
 35 40  1  0  0  0
 37 38  1  0  0  0
 38 39  1  0  0  0
 40 41  1  0  0  0
 40 46  1  0  0  0
 41 42  1  0  0  0
 41 44  1  0  0  0
 42 43  2  0  0  0
 42 47  1  0  0  0
 44 45  1  0  0  0
 45 46  1  0  0  0
 47 48  1  0  0  0
 47 53  1  0  0  0
 48 49  1  0  0  0
 48 51  1  0  0  0
 49 50  2  0  0  0
 49 54  1  0  0  0
 51 52  1  0  0  0
 52 53  1  0  0  0
 54 55  1  0  0  0
 54 60  1  0  0  0
 55 56  1  0  0  0
 55 58  1  0  0  0
 56 57  2  0  0  0
 56 61  1  0  0  0
 58 59  1  0  0  0
 59 60  1  0  0  0
 61 62  1  0  0  0
 62 63  1  0  0  0
 62 65  1  0  0  0
 63 64  2  0  0  0
 63 73  1  0  0  0
 65 66  1  0  0  0
 66 67  4  0  0  0
 66 68  4  0  0  0
 67 69  4  0  0  0
 68 70  4  0  0  0
 69 71  4  0  0  0
 70 71  4  0  0  0
 71 72  1  0  0  0
 73 74  1  0  0  0
 74 75  1  0  0  0
 74 77  1  0  0  0
 75 76  2  0  0  0
 75 79  1  0  0  0
 77 78  1  0  0  0
 79 80  1  0  0  0
 80 81  1  0  0  0
 80 83  1  0  0  0
 81 82  2  0  0  0
 81 90  1  0  0  0
 83 84  1  0  0  0
 84 85  1  0  0  0
 85 86  1  0  0  0
 86 87  1  0  0  0
 87 88  1  0  0  0
 87 89  2  0  0  0
 90 91  1  0  0  0
 91 92  1  0  0  0
 91 94  1  0  0  0
 92 93  2  0  0  0
 92102  1  0  0  0
 94 95  1  0  0  0
 95 96  4  0  0  0
 95 97  4  0  0  0
 96 98  4  0  0  0
 97 99  4  0  0  0
 98100  4  0  0  0
 99100  4  0  0  0
100101  1  0  0  0
102103  1  0  0  0
102108  1  0  0  0
103104  1  0  0  0
103106  1  0  0  0
104105  2  0  0  0
104109  1  0  0  0
106107  1  0  0  0
107108  1  0  0  0
109110  1  0  0  0
110111  1  0  0  0
110113  1  0  0  0
111112  2  0  0  0
111117  1  0  0  0
113114  1  0  0  0
114115  1  0  0  0
115116  1  0  0  0
117118  1  0  0  0
118119  1  0  0  0
118121  1  0  0  0
119120  2  0  0  0
119125  1  0  0  0
121122  1  0  0  0
122123  1  0  0  0
122124  2  0  0  0
  1126  1  0  0  0
  1127  1  0  0  0
  1128  1  0  0  0
  2129  1  0  0  0
  5130  1  0  0  0
  5131  1  0  0  0
  6132  1  0  0  0
  6133  1  0  0  0
  8134  1  0  0  0
 10135  1  0  0  0
 11136  1  0  0  0
 14137  1  0  0  0
 14138  1  0  0  0
 15139  1  0  0  0
 16140  1  0  0  0
 16141  1  0  0  0
 16142  1  0  0  0
 17143  1  0  0  0
 17144  1  0  0  0
 17145  1  0  0  0
 18146  1  0  0  0
 19147  1  0  0  0
 22148  1  0  0  0
 22149  1  0  0  0
 23150  1  0  0  0
 23151  1  0  0  0
 26152  1  0  0  0
 27153  1  0  0  0
 28154  1  0  0  0
 31155  1  0  0  0
 31156  1  0  0  0
 32157  1  0  0  0
 34158  1  0  0  0
 37159  1  0  0  0
 37160  1  0  0  0
 38161  1  0  0  0
 38162  1  0  0  0
 39163  1  0  0  0
 39164  1  0  0  0
 41165  1  0  0  0
 44166  1  0  0  0
 44167  1  0  0  0
 45168  1  0  0  0
 45169  1  0  0  0
 46170  1  0  0  0
 46171  1  0  0  0
 48172  1  0  0  0
 51173  1  0  0  0
 51174  1  0  0  0
 52175  1  0  0  0
 52176  1  0  0  0
 53177  1  0  0  0
 53178  1  0  0  0
 55179  1  0  0  0
 58180  1  0  0  0
 58181  1  0  0  0
 59182  1  0  0  0
 59183  1  0  0  0
 60184  1  0  0  0
 60185  1  0  0  0
 61186  1  0  0  0
 62187  1  0  0  0
 65188  1  0  0  0
 65189  1  0  0  0
 67190  1  0  0  0
 68191  1  0  0  0
 69192  1  0  0  0
 70193  1  0  0  0
 72194  1  0  0  0
 73195  1  0  0  0
 74196  1  0  0  0
 77197  1  0  0  0
 77198  1  0  0  0
 78199  1  0  0  0
 79200  1  0  0  0
 80201  1  0  0  0
 83202  1  0  0  0
 83203  1  0  0  0
 84204  1  0  0  0
 84205  1  0  0  0
 85206  1  0  0  0
 85207  1  0  0  0
 86208  1  0  0  0
 88209  1  0  0  0
 88210  1  0  0  0
 89211  1  0  0  0
 90212  1  0  0  0
 91213  1  0  0  0
 94214  1  0  0  0
 94215  1  0  0  0
 96216  1  0  0  0
 97217  1  0  0  0
 98218  1  0  0  0
 99219  1  0  0  0
101220  1  0  0  0
103221  1  0  0  0
106222  1  0  0  0
106223  1  0  0  0
107224  1  0  0  0
107225  1  0  0  0
108226  1  0  0  0
108227  1  0  0  0
109228  1  0  0  0
110229  1  0  0  0
113230  1  0  0  0
113231  1  0  0  0
114232  1  0  0  0
114233  1  0  0  0
116234  1  0  0  0
116235  1  0  0  0
116236  1  0  0  0
117237  1  0  0  0
118238  1  0  0  0
121239  1  0  0  0
121240  1  0  0  0
123241  1  0  0  0
125242  1  0  0  0
M  END
$$$$
