### 
### Created by X-TOOL on Mon Sep 10 21:13:12 2018
### 

@<TRIPOS>MOLECULE
2ltx_ligand
  239   245     1     0     0
SMALL
GAST_HUCK


@<TRIPOS>ATOM
      1 N           1.5980  -12.7780    4.2880 N.4       1 GLU         0.2380
      2 CA          1.1240  -11.5650    4.9960 C.3       1 GLU         0.0665
      3 C           0.8110  -11.8890    6.4500 C.2       1 GLU         0.2268
      4 O           1.3630  -11.2730    7.3580 O.2       1 GLU        -0.3907
      5 CB         -0.1230  -10.9760    4.3170 C.3       1 GLU         0.0194
      6 CG          0.1460  -10.3100    2.9720 C.3       1 GLU         0.0075
      7 CD          0.6050  -11.2840    1.9070 C.2       1 GLU         0.0351
      8 OE1         1.7960  -11.6500    1.9070 O.co2     1 GLU        -0.5690
      9 OE2        -0.2270  -11.7040    1.0810 O.co2     1 GLU        -0.5690
     10 N          -0.0910  -12.8560    6.6530 N.am      1 LEU        -0.2610
     11 CA         -0.4990  -13.3050    7.9910 C.3       1 LEU         0.1313
     12 C          -1.2730  -12.2180    8.7410 C.2       1 LEU         0.2039
     13 O          -1.5690  -12.3600    9.9260 O.2       1 LEU        -0.3944
     14 CB          0.7200  -13.7540    8.8090 C.3       1 LEU        -0.0101
     15 CG          1.5310  -14.8970    8.1920 C.3       1 LEU        -0.0425
     16 CD1         2.7210  -15.2400    9.0710 C.3       1 LEU        -0.0625
     17 CD2         0.6560  -16.1220    7.9780 C.3       1 LEU        -0.0625
     18 N          -1.6310  -11.1600    8.0310 N.am      1 GLU        -0.2636
     19 CA         -2.3570  -10.0420    8.6180 C.3       1 GLU         0.1325
     20 C          -3.8190  -10.0610    8.1950 C.2       1 GLU         0.2041
     21 O          -4.2040  -10.8050    7.2920 O.2       1 GLU        -0.3944
     22 CB         -1.7240   -8.7180    8.1860 C.3       1 GLU        -0.0008
     23 CG         -0.4650   -8.3560    8.9510 C.3       1 GLU         0.0044
     24 CD         -0.7520   -8.0000   10.3950 C.2       1 GLU         0.0350
     25 OE1        -0.7890   -8.9090   11.2460 O.co2     1 GLU        -0.5690
     26 OE2        -0.9510   -6.8020   10.6870 O.co2     1 GLU        -0.5690
     27 N          -4.6200   -9.2350    8.8570 N.am      1 SER        -0.2616
     28 CA         -6.0070   -9.0120    8.4730 C.3       1 SER         0.1541
     29 C          -6.0940   -8.4960    7.0390 C.2       1 SER         0.2087
     30 O          -5.1300   -7.9210    6.5330 O.2       1 SER        -0.3941
     31 CB         -6.6240   -7.9880    9.4210 C.3       1 SER         0.0843
     32 OG         -5.7380   -6.9030    9.6350 O.3       1 SER        -0.3903
     33 N          -7.2520   -8.6690    6.3760 N.am      1 PRO        -0.2498
     34 CA         -7.4590   -8.1730    5.0130 C.3       1 PRO         0.1340
     35 C          -7.1470   -6.6800    4.8920 C.2       1 PRO         0.2066
     36 O          -7.7450   -5.8480    5.5770 O.2       1 PRO        -0.3942
     37 CB         -8.9490   -8.4370    4.7430 C.3       1 PRO        -0.0104
     38 CG         -9.5470   -8.7460    6.0750 C.3       1 PRO        -0.0281
     39 CD         -8.4440   -9.3560    6.8880 C.3       1 PRO         0.0369
     40 N          -6.1770   -6.3410    4.0330 N.am      1 PRO        -0.2498
     41 CA         -5.7800   -4.9540    3.7650 C.3       1 PRO         0.1340
     42 C          -6.9140   -4.1080    3.1770 C.2       1 PRO         0.2066
     43 O          -7.8870   -4.6360    2.6310 O.2       1 PRO        -0.3942
     44 CB         -4.6340   -5.1000    2.7520 C.3       1 PRO        -0.0104
     45 CG         -4.7810   -6.4660    2.1880 C.3       1 PRO        -0.0281
     46 CD         -5.3440   -7.2970    3.2960 C.3       1 PRO         0.0369
     47 N          -6.7660   -2.7760    3.2470 N.am      1 PRO        -0.2498
     48 CA         -7.7850   -1.8180    2.8020 C.3       1 PRO         0.1340
     49 C          -7.9520   -1.8470    1.2810 C.2       1 PRO         0.2066
     50 O          -6.9760   -1.7010    0.5480 O.2       1 PRO        -0.3942
     51 CB         -7.2250   -0.4560    3.2680 C.3       1 PRO        -0.0104
     52 CG         -6.1220   -0.7860    4.2070 C.3       1 PRO        -0.0281
     53 CD         -5.5710   -2.0870    3.7360 C.3       1 PRO         0.0369
     54 N          -9.1920   -2.0470    0.7920 N.am      1 PRO        -0.2498
     55 CA         -9.4890   -2.1570   -0.6450 C.3       1 PRO         0.1338
     56 C          -8.8670   -1.0220   -1.4570 C.2       1 PRO         0.2042
     57 O          -9.0060    0.1530   -1.1030 O.2       1 PRO        -0.3944
     58 CB        -11.0250   -2.0880   -0.7120 C.3       1 PRO        -0.0104
     59 CG        -11.4740   -1.6940    0.6580 C.3       1 PRO        -0.0281
     60 CD        -10.4090   -2.1740    1.6000 C.3       1 PRO         0.0369
     61 N          -8.1990   -1.3800   -2.5550 N.am      1 TYR        -0.2621
     62 CA         -7.4840   -0.4060   -3.3700 C.3       1 TYR         0.1390
     63 C          -8.4190    0.6640   -3.9190 C.2       1 TYR         0.2058
     64 O          -9.2250    0.4220   -4.8180 O.2       1 TYR        -0.3942
     65 CB         -6.7120   -1.0880   -4.5210 C.3       1 TYR         0.0163
     66 CG         -6.1880   -0.1200   -5.5790 C.ar      1 TYR        -0.0493
     67 CD1        -5.6750    1.1270   -5.2300 C.ar      1 TYR        -0.0685
     68 CD2        -6.2330   -0.4420   -6.9340 C.ar      1 TYR        -0.0685
     69 CE1        -5.2400    2.0190   -6.1920 C.ar      1 TYR        -0.0398
     70 CE2        -5.7840    0.4510   -7.8930 C.ar      1 TYR        -0.0398
     71 CZ         -5.3000    1.6670   -7.5180 C.ar      1 TYR         0.0805
     72 OH         -4.8960    2.5450   -8.4900 O.3       1 TYR        -0.3376
     73 N          -8.3180    1.8340   -3.3210 N.am      1 SER        -0.2614
     74 CA         -8.9080    3.0350   -3.8600 C.3       1 SER         0.1539
     75 C          -7.7880    3.8210   -4.5210 C.2       1 SER         0.2062
     76 O          -6.6760    3.8470   -3.9940 O.2       1 SER        -0.3943
     77 CB         -9.5530    3.8420   -2.7330 C.3       1 SER         0.0843
     78 OG        -10.4390    3.0300   -1.9730 O.3       1 SER        -0.3903
     79 N          -8.0640    4.4680   -5.6460 N.am      1 ARG        -0.2637
     80 CA         -7.0020    5.0750   -6.4390 C.3       1 ARG         0.1311
     81 C          -6.2460    6.1150   -5.6280 C.2       1 ARG         0.2040
     82 O          -5.0230    6.0670   -5.5300 O.2       1 ARG        -0.3944
     83 CB         -7.5560    5.7450   -7.6970 C.3       1 ARG        -0.0092
     84 CG         -8.3430    4.8320   -8.6180 C.3       1 ARG        -0.0156
     85 CD         -8.7200    5.5640   -9.8930 C.3       1 ARG         0.0627
     86 NE         -9.7450    4.8620  -10.6600 N.pl3     1 ARG        -0.2723
     87 CZ        -10.6630    5.4770  -11.4040 C.cat     1 ARG         0.2882
     88 NH1       -10.6940    6.8040  -11.4680 N.pl3     1 ARG        -0.2849
     89 NH2       -11.5620    4.7670  -12.0740 N.pl3     1 ARG        -0.2849
     90 N          -6.9700    7.0540   -5.0540 N.am      1 TYR        -0.2621
     91 CA         -6.3480    8.1010   -4.2660 C.3       1 TYR         0.1392
     92 C          -6.8780    8.0430   -2.8450 C.2       1 TYR         0.2082
     93 O          -7.9850    8.5050   -2.5610 O.2       1 TYR        -0.3940
     94 CB         -6.5830    9.4820   -4.9020 C.3       1 TYR         0.0164
     95 CG         -5.8230    9.6890   -6.2010 C.ar      1 TYR        -0.0493
     96 CD1        -5.8670    8.7380   -7.2110 C.ar      1 TYR        -0.0685
     97 CD2        -5.0530   10.8230   -6.4130 C.ar      1 TYR        -0.0685
     98 CE1        -5.1730    8.9010   -8.3870 C.ar      1 TYR        -0.0398
     99 CE2        -4.3540   11.0010   -7.5930 C.ar      1 TYR        -0.0398
    100 CZ         -4.4160   10.0360   -8.5790 C.ar      1 TYR         0.0805
    101 OH         -3.7160   10.2080   -9.7540 O.3       1 TYR        -0.3376
    102 N          -6.1120    7.4080   -1.9490 N.am      1 PRO        -0.2497
    103 CA         -6.5130    7.1640   -0.5760 C.3       1 PRO         0.1338
    104 C          -6.1560    8.3300    0.3370 C.2       1 PRO         0.2041
    105 O          -4.9850    8.6860    0.4850 O.2       1 PRO        -0.3944
    106 CB         -5.7140    5.8990   -0.1960 C.3       1 PRO        -0.0104
    107 CG         -4.7910    5.6240   -1.3510 C.3       1 PRO        -0.0281
    108 CD         -4.7780    6.8650   -2.1920 C.3       1 PRO         0.0369
    109 N          -7.1710    8.9410    0.9230 N.am      1 MET        -0.2637
    110 CA         -6.9650   10.0480    1.8390 C.3       1 MET         0.1317
    111 C          -7.4850    9.6780    3.2200 C.2       1 MET         0.2035
    112 O          -8.6960    9.5820    3.4470 O.2       1 MET        -0.3944
    113 CB         -7.6260   11.3320    1.3110 C.3       1 MET        -0.0034
    114 CG         -9.0890   11.1660    0.9240 C.3       1 MET        -0.0024
    115 SD         -9.7740   12.6320    0.1250 S.3       1 MET        -0.1639
    116 CE         -8.7220   12.7490   -1.3210 C.3       1 MET        -0.0181
    117 N          -6.5560    9.4300    4.1270 N.am      1 ASP        -0.2679
    118 CA         -6.8830    8.9690    5.4640 C.3       1 ASP         0.1057
    119 C          -6.0160    9.6800    6.4920 C.2       1 ASP         0.0618
    120 O          -6.5370   10.0180    7.5760 O.co2     1 ASP        -0.5665
    121 CB         -6.7080    7.4460    5.5700 C.3       1 ASP         0.0351
    122 CG         -5.2820    6.9910    5.3160 C.2       1 ASP         0.0387
    123 OD1        -4.9320    6.7180    4.1460 O.co2     1 ASP        -0.5688
    124 OD2        -4.5000    6.9060    6.2820 O.co2     1 ASP        -0.5688
    125 OXT        -4.8280    9.9450    6.1930 O.co2     1 ASP        -0.5665
    126 H           2.4241  -13.1450    4.7605 H         1 GLU         0.2015
    127 H           0.8608  -13.4829    4.2928 H         1 GLU         0.2015
    128 H           1.8341  -12.5378    3.3252 H         1 GLU         0.2015
    129 H           1.9218  -10.8234    4.9550 H         1 GLU         0.1099
    130 H          -0.5152  -10.2064    4.9818 H         1 GLU         0.0363
    131 H          -0.8073  -11.8041    4.1322 H         1 GLU         0.0363
    132 H           0.9420   -9.5797    3.1177 H         1 GLU         0.0434
    133 H          -0.7880   -9.8632    2.6313 H         1 GLU         0.0434
    134 H          -0.5156  -13.3027    5.8402 H         1 LEU         0.1884
    135 H          -1.1659  -14.1570    7.8590 H         1 LEU         0.0800
    136 H           0.3405  -14.1182    9.7637 H         1 LEU         0.0315
    137 H           1.3878  -12.8950    8.8743 H         1 LEU         0.0315
    138 H           1.9021  -14.5680    7.2214 H         1 LEU         0.0298
    139 H           3.3619  -14.3640    9.1707 H         1 LEU         0.0232
    140 H           2.3675  -15.5471   10.0553 H         1 LEU         0.0232
    141 H           3.2847  -16.0543    8.6157 H         1 LEU         0.0232
    142 H           0.2539  -16.4515    8.9360 H         1 LEU         0.0232
    143 H          -0.1640  -15.8683    7.3062 H         1 LEU         0.0232
    144 H           1.2531  -16.9212    7.5389 H         1 LEU         0.0232
    145 H          -1.3906  -11.1264    7.0403 H         1 GLU         0.1883
    146 H          -2.3026  -10.1382    9.7024 H         1 GLU         0.0801
    147 H          -2.4553   -7.9328    8.3776 H         1 GLU         0.0330
    148 H          -1.4463   -8.8200    7.1369 H         1 GLU         0.0330
    149 H          -0.0161   -7.4863    8.4711 H         1 GLU         0.0433
    150 H           0.1972   -9.2217    8.9414 H         1 GLU         0.0433
    151 H          -4.2495   -8.7370    9.6664 H         1 SER         0.1884
    152 H          -6.5485   -9.9561    8.5330 H         1 SER         0.0823
    153 H          -6.8259   -8.4709   10.3771 H         1 SER         0.0606
    154 H          -7.5444   -7.6081    8.9775 H         1 SER         0.0606
    155 H          -6.1452   -6.2720   10.2330 H         1 SER         0.2097
    156 H          -6.7990   -8.6652    4.2987 H         1 PRO         0.0802
    157 H          -9.0882   -9.2601    4.0421 H         1 PRO         0.0313
    158 H          -9.4297   -7.5754    4.2796 H         1 PRO         0.0313
    159 H         -10.3929   -9.4270    5.9810 H         1 PRO         0.0287
    160 H          -9.9394   -7.8474    6.5510 H         1 PRO         0.0287
    161 H          -8.5832   -9.2256    7.9612 H         1 PRO         0.0524
    162 H          -8.3883  -10.4398    6.7858 H         1 PRO         0.0524
    163 H          -5.4981   -4.4345    4.6808 H         1 PRO         0.0802
    164 H          -3.6612   -4.9636    3.2244 H         1 PRO         0.0313
    165 H          -4.6859   -4.3374    1.9749 H         1 PRO         0.0313
    166 H          -3.8260   -6.8591    1.8394 H         1 PRO         0.0287
    167 H          -5.4334   -6.4696    1.3148 H         1 PRO         0.0287
    168 H          -5.9067   -8.1579    2.9351 H         1 PRO         0.0524
    169 H          -4.5726   -7.7525    3.9170 H         1 PRO         0.0524
    170 H          -8.7728   -2.0370    3.2074 H         1 PRO         0.0802
    171 H          -7.9929    0.1503    3.7485 H         1 PRO         0.0313
    172 H          -6.8711    0.1410    2.4275 H         1 PRO         0.0313
    173 H          -6.4800   -0.8534    5.2343 H         1 PRO         0.0287
    174 H          -5.3580   -0.0086    4.2133 H         1 PRO         0.0287
    175 H          -4.8000   -1.9744    2.9738 H         1 PRO         0.0524
    176 H          -5.0487   -2.6387    4.5177 H         1 PRO         0.0524
    177 H          -9.0764   -3.0716   -1.0709 H         1 PRO         0.0802
    178 H         -11.4527   -3.0453   -1.0098 H         1 PRO         0.0313
    179 H         -11.3577   -1.3692   -1.4608 H         1 PRO         0.0313
    180 H         -12.4405   -2.1371    0.8980 H         1 PRO         0.0287
    181 H         -11.6085   -0.6149    0.7329 H         1 PRO         0.0287
    182 H         -10.3685   -1.6019    2.5269 H         1 PRO         0.0524
    183 H         -10.5806   -3.1891    1.9579 H         1 PRO         0.0524
    184 H          -8.1884   -2.3618   -2.8315 H         1 TYR         0.1885
    185 H          -6.7607    0.0814   -2.7163 H         1 TYR         0.0821
    186 H          -7.4064   -1.7649   -5.0187 H         1 TYR         0.0453
    187 H          -5.8469   -1.5834   -4.0802 H         1 TYR         0.0453
    188 H          -5.6154    1.4048   -4.1777 H         1 TYR         0.0530
    189 H          -6.6270   -1.4100   -7.2436 H         1 TYR         0.0530
    190 H          -4.8521    2.9949   -5.9002 H         1 TYR         0.0525
    191 H          -5.8182    0.1801   -8.9482 H         1 TYR         0.0525
    192 H          -4.5813    3.3534   -8.0787 H         1 TYR         0.2458
    193 H          -7.8025    1.8927   -2.4428 H         1 SER         0.1884
    194 H          -9.6872    2.8063   -4.5871 H         1 SER         0.0823
    195 H         -10.1183    4.6654   -3.1696 H         1 SER         0.0606
    196 H          -8.7684    4.2164   -2.0755 H         1 SER         0.0606
    197 H          -9.9508    2.2978   -1.5896 H         1 SER         0.2097
    198 H          -9.0317    4.5416   -5.9600 H         1 ARG         0.1883
    199 H          -6.3259    4.2708   -6.7293 H         1 ARG         0.0800
    200 H          -6.6979    6.1018   -8.2666 H         1 ARG         0.0313
    201 H          -8.2435    6.5218   -7.3623 H         1 ARG         0.0313
    202 H          -9.2528    4.5133   -8.1093 H         1 ARG         0.0301
    203 H          -7.7279    3.9690   -8.8728 H         1 ARG         0.0301
    204 H          -7.8274    5.6380  -10.5142 H         1 ARG         0.0689
    205 H          -9.1181    6.5398   -9.6148 H         1 ARG         0.0689
    206 H          -9.7589    3.8427  -10.6241 H         1 ARG         0.2642
    207 H         -10.0131    7.3558  -10.9462 H         1 ARG         0.2615
    208 H         -11.3987    7.2707  -12.0390 H         1 ARG         0.2615
    209 H         -11.5509    3.7485  -12.0198 H         1 ARG         0.2615
    210 H         -12.2641    5.2398  -12.6431 H         1 ARG         0.2615
    211 H          -7.9839    7.0447   -5.1654 H         1 TYR         0.1885
    212 H          -5.2700    7.9416   -4.2424 H         1 TYR         0.0821
    213 H          -6.2316   10.2325   -4.1940 H         1 TYR         0.0453
    214 H          -7.6462    9.5614   -5.1286 H         1 TYR         0.0453
    215 H          -6.4669    7.8391   -7.0684 H         1 TYR         0.0530
    216 H          -4.9979   11.5864   -5.6369 H         1 TYR         0.0530
    217 H          -5.2215    8.1367   -9.1626 H         1 TYR         0.0525
    218 H          -3.7562   11.8998   -7.7443 H         1 TYR         0.0525
    219 H          -3.8654    9.4529  -10.3277 H         1 TYR         0.2458
    220 H          -7.5913    7.0443   -0.4704 H         1 PRO         0.0802
    221 H          -6.3783    5.0543   -0.0137 H         1 PRO         0.0313
    222 H          -5.1545    6.0498    0.7272 H         1 PRO         0.0313
    223 H          -5.1341    4.7655   -1.9283 H         1 PRO         0.0287
    224 H          -3.7883    5.3809   -0.9994 H         1 PRO         0.0287
    225 H          -3.9759    7.5556   -1.9315 H         1 PRO         0.0524
    226 H          -4.5751    6.6715   -3.2453 H         1 PRO         0.0524
    227 H          -8.1215    8.6272    0.7269 H         1 MET         0.1883
    228 H          -5.8963   10.2478    1.9170 H         1 MET         0.0800
    229 H          -7.0861   11.6252    0.4106 H         1 MET         0.0320
    230 H          -7.5870   12.0679    2.1142 H         1 MET         0.0320
    231 H          -9.6570   10.9882    1.8371 H         1 MET         0.0378
    232 H          -9.1547   10.3395    0.2164 H         1 MET         0.0378
    233 H          -7.6853   12.8671   -1.0059 H         1 MET         0.0340
    234 H          -8.8212   11.8407   -1.9153 H         1 MET         0.0340
    235 H          -9.0219   13.6101   -1.9182 H         1 MET         0.0340
    236 H          -5.5762    9.5672    3.8790 H         1 ASP         0.1876
    237 H          -7.9275    9.2058    5.6666 H         1 ASP         0.0745
    238 H          -7.3422    6.9863    4.8120 H         1 ASP         0.0471
    239 H          -6.9734    7.1521    6.5855 H         1 ASP         0.0471
@<TRIPOS>BOND
     1    1    2 1  
     2    2    3 1  
     3    2    5 1  
     4    3    4 2  
     5    3   10 am 
     6    5    6 1  
     7    6    7 1  
     8    7    8 ar 
     9    7    9 ar 
    10   10   11 1  
    11   11   12 1  
    12   11   14 1  
    13   12   13 2  
    14   12   18 am 
    15   14   15 1  
    16   15   16 1  
    17   15   17 1  
    18   18   19 1  
    19   19   20 1  
    20   19   22 1  
    21   20   21 2  
    22   20   27 am 
    23   22   23 1  
    24   23   24 1  
    25   24   25 ar 
    26   24   26 ar 
    27   27   28 1  
    28   28   29 1  
    29   28   31 1  
    30   29   30 2  
    31   29   33 am 
    32   31   32 1  
    33   33   34 1  
    34   33   39 1  
    35   34   35 1  
    36   34   37 1  
    37   35   36 2  
    38   35   40 am 
    39   37   38 1  
    40   38   39 1  
    41   40   41 1  
    42   40   46 1  
    43   41   42 1  
    44   41   44 1  
    45   42   43 2  
    46   42   47 am 
    47   44   45 1  
    48   45   46 1  
    49   47   48 1  
    50   47   53 1  
    51   48   49 1  
    52   48   51 1  
    53   49   50 2  
    54   49   54 am 
    55   51   52 1  
    56   52   53 1  
    57   54   55 1  
    58   54   60 1  
    59   55   56 1  
    60   55   58 1  
    61   56   57 2  
    62   56   61 am 
    63   58   59 1  
    64   59   60 1  
    65   61   62 1  
    66   62   63 1  
    67   62   65 1  
    68   63   64 2  
    69   63   73 am 
    70   65   66 1  
    71   66   67 ar 
    72   66   68 ar 
    73   67   69 ar 
    74   68   70 ar 
    75   69   71 ar 
    76   70   71 ar 
    77   71   72 1  
    78   73   74 1  
    79   74   75 1  
    80   74   77 1  
    81   75   76 2  
    82   75   79 am 
    83   77   78 1  
    84   79   80 1  
    85   80   81 1  
    86   80   83 1  
    87   81   82 2  
    88   81   90 am 
    89   83   84 1  
    90   84   85 1  
    91   85   86 1  
    92   86   87 ar 
    93   87   88 ar 
    94   87   89 ar 
    95   90   91 1  
    96   91   92 1  
    97   91   94 1  
    98   92   93 2  
    99   92  102 am 
   100   94   95 1  
   101   95   96 ar 
   102   95   97 ar 
   103   96   98 ar 
   104   97   99 ar 
   105   98  100 ar 
   106   99  100 ar 
   107  100  101 1  
   108  102  103 1  
   109  102  108 1  
   110  103  104 1  
   111  103  106 1  
   112  104  105 2  
   113  104  109 am 
   114  106  107 1  
   115  107  108 1  
   116  109  110 1  
   117  110  111 1  
   118  110  113 1  
   119  111  112 2  
   120  111  117 am 
   121  113  114 1  
   122  114  115 1  
   123  115  116 1  
   124  117  118 1  
   125  118  119 1  
   126  118  121 1  
   127  119  120 ar 
   128  119  125 ar 
   129  121  122 1  
   130  122  123 ar 
   131  122  124 ar 
   132    1  126 1  
   133    1  127 1  
   134    1  128 1  
   135    2  129 1  
   136    5  130 1  
   137    5  131 1  
   138    6  132 1  
   139    6  133 1  
   140   10  134 1  
   141   11  135 1  
   142   14  136 1  
   143   14  137 1  
   144   15  138 1  
   145   16  139 1  
   146   16  140 1  
   147   16  141 1  
   148   17  142 1  
   149   17  143 1  
   150   17  144 1  
   151   18  145 1  
   152   19  146 1  
   153   22  147 1  
   154   22  148 1  
   155   23  149 1  
   156   23  150 1  
   157   27  151 1  
   158   28  152 1  
   159   31  153 1  
   160   31  154 1  
   161   32  155 1  
   162   34  156 1  
   163   37  157 1  
   164   37  158 1  
   165   38  159 1  
   166   38  160 1  
   167   39  161 1  
   168   39  162 1  
   169   41  163 1  
   170   44  164 1  
   171   44  165 1  
   172   45  166 1  
   173   45  167 1  
   174   46  168 1  
   175   46  169 1  
   176   48  170 1  
   177   51  171 1  
   178   51  172 1  
   179   52  173 1  
   180   52  174 1  
   181   53  175 1  
   182   53  176 1  
   183   55  177 1  
   184   58  178 1  
   185   58  179 1  
   186   59  180 1  
   187   59  181 1  
   188   60  182 1  
   189   60  183 1  
   190   61  184 1  
   191   62  185 1  
   192   65  186 1  
   193   65  187 1  
   194   67  188 1  
   195   68  189 1  
   196   69  190 1  
   197   70  191 1  
   198   72  192 1  
   199   73  193 1  
   200   74  194 1  
   201   77  195 1  
   202   77  196 1  
   203   78  197 1  
   204   79  198 1  
   205   80  199 1  
   206   83  200 1  
   207   83  201 1  
   208   84  202 1  
   209   84  203 1  
   210   85  204 1  
   211   85  205 1  
   212   86  206 1  
   213   88  207 1  
   214   88  208 1  
   215   89  209 1  
   216   89  210 1  
   217   90  211 1  
   218   91  212 1  
   219   94  213 1  
   220   94  214 1  
   221   96  215 1  
   222   97  216 1  
   223   98  217 1  
   224   99  218 1  
   225  101  219 1  
   226  103  220 1  
   227  106  221 1  
   228  106  222 1  
   229  107  223 1  
   230  107  224 1  
   231  108  225 1  
   232  108  226 1  
   233  109  227 1  
   234  110  228 1  
   235  113  229 1  
   236  113  230 1  
   237  114  231 1  
   238  114  232 1  
   239  116  233 1  
   240  116  234 1  
   241  116  235 1  
   242  117  236 1  
   243  118  237 1  
   244  121  238 1  
   245  121  239 1  
@<TRIPOS>SUBSTRUCTURE
     1 GLU         1

