2zft_ligand
  -I-interpret- 

 57 59  0  0  0  0  0  0  0  0999 V2000
  -28.6490    0.8580   15.7200 N   0  0  0  0  0
  -28.4160    0.9120   17.0430 C   0  0  0  0  0
  -27.2760    0.8660   17.5140 O   0  0  0  0  0
  -29.6090    1.0240   17.9380 C   0  0  0  0  0
  -29.9720    1.1270   15.1080 C   0  0  0  0  0
  -29.7860    1.1040   13.5950 C   0  0  0  0  0
  -28.4600    0.3900   13.4900 C   0  0  0  0  0
  -27.6230    0.5070   14.7560 C   0  0  0  0  0
  -26.5220    1.4880   14.5720 C   0  0  0  0  0
  -25.3690    1.1760   14.0640 N   0  0  0  0  0
  -24.2520    1.9970   13.8110 C   0  0  0  0  0
  -23.1560    1.8750   14.7890 C   0  0  0  0  0
  -23.2500    2.2580   16.0810 C   0  0  0  0  0
  -22.1760    2.1160   16.9550 C   0  0  0  0  0
  -20.9650    1.5810   16.5600 C   0  0  0  0  0
  -19.8280    1.4440   17.5380 C   0  0  0  0  0
  -19.6410    2.3610   18.4870 N   0  0  0  0  0
  -19.0210    0.3940   17.4330 N   0  0  0  0  0
  -20.8710    1.1840   15.2210 C   0  0  0  0  0
  -21.9470    1.3240   14.3340 C   0  0  0  0  0
  -26.6450    2.6580   14.8980 O   0  0  0  0  0
  -29.3560    0.4470   19.2270 N   0  3  0  0  0
  -30.0140   -0.8220   19.5070 C   0  0  0  0  0
  -29.0850   -1.6140   20.4560 C   0  0  0  0  0
  -29.5930   -3.0660   20.4260 C   0  0  0  0  0
  -30.0470   -3.2670   18.9710 C   0  0  0  0  0
  -30.3890   -1.8630   18.3810 C   0  0  0  0  0
  -30.4381    0.4876   17.4766 H   0  0  0  0  0
  -29.8416    2.0804   18.0724 H   0  0  0  0  0
  -30.3535    2.0953   15.4318 H   0  0  0  0  0
  -30.6963    0.3729   15.4159 H   0  0  0  0  0
  -29.7988    2.0897   13.1299 H   0  0  0  0  0
  -30.5976    0.6173   13.0541 H   0  0  0  0  0
  -27.8985    0.8482   12.6759 H   0  0  0  0  0
  -28.6635   -0.6675   13.3218 H   0  0  0  0  0
  -27.0692   -0.3784   15.0683 H   0  0  0  0  0
  -25.2550    0.1944   13.8113 H   0  0  0  0  0
  -24.6021    3.0282   13.8573 H   0  0  0  0  0
  -23.8484    1.6911   12.8458 H   0  0  0  0  0
  -24.1838    2.6860   16.4457 H   0  0  0  0  0
  -22.2948    2.4388   17.9893 H   0  0  0  0  0
  -18.8691    2.2624   19.1464 H   0  0  0  0  0
  -20.2698    3.1613   18.5538 H   0  0  0  0  0
  -19.1780   -0.2987   16.7010 H   0  0  0  0  0
  -19.9368    0.7549   14.8588 H   0  0  0  0  0
  -21.8460    1.0068   13.2961 H   0  0  0  0  0
  -29.7176    1.1113   19.9113 H   0  0  0  0  0
  -28.3537    0.2611   19.2630 H   0  0  0  0  0
  -30.9835   -0.4646   19.8541 H   0  0  0  0  0
  -29.1102   -1.2062   21.4665 H   0  0  0  0  0
  -28.0450   -1.5514   20.1357 H   0  0  0  0  0
  -30.3990   -3.2380   21.1393 H   0  0  0  0  0
  -28.8250   -3.7801   20.7230 H   0  0  0  0  0
  -30.9212   -3.9170   18.9332 H   0  0  0  0  0
  -29.2559   -3.7400   18.3892 H   0  0  0  0  0
  -29.8334   -1.6721   17.4628 H   0  0  0  0  0
  -31.4423   -1.7922   18.1097 H   0  0  0  0  0
  1  2  1  0  0  0
  1  5  1  0  0  0
  1  8  1  0  0  0
  2  3  2  0  0  0
  2  4  1  0  0  0
  4 22  1  0  0  0
  5  6  1  0  0  0
  6  7  1  0  0  0
  7  8  1  0  0  0
  8  9  1  0  0  0
  9 10  1  0  0  0
  9 21  2  0  0  0
 10 11  1  0  0  0
 11 12  1  0  0  0
 12 13  4  0  0  0
 12 20  4  0  0  0
 13 14  4  0  0  0
 14 15  4  0  0  0
 15 16  1  0  0  0
 15 19  4  0  0  0
 16 17  1  0  0  0
 16 18  2  0  0  0
 19 20  4  0  0  0
 22 23  1  0  0  0
 23 24  1  0  0  0
 23 27  1  0  0  0
 24 25  1  0  0  0
 25 26  1  0  0  0
 26 27  1  0  0  0
  4 28  1  0  0  0
  4 29  1  0  0  0
  5 30  1  0  0  0
  5 31  1  0  0  0
  6 32  1  0  0  0
  6 33  1  0  0  0
  7 34  1  0  0  0
  7 35  1  0  0  0
  8 36  1  0  0  0
 10 37  1  0  0  0
 11 38  1  0  0  0
 11 39  1  0  0  0
 13 40  1  0  0  0
 14 41  1  0  0  0
 17 42  1  0  0  0
 17 43  1  0  0  0
 18 44  1  0  0  0
 19 45  1  0  0  0
 20 46  1  0  0  0
 22 47  1  0  0  0
 22 48  1  0  0  0
 23 49  1  0  0  0
 24 50  1  0  0  0
 24 51  1  0  0  0
 25 52  1  0  0  0
 25 53  1  0  0  0
 26 54  1  0  0  0
 26 55  1  0  0  0
 27 56  1  0  0  0
 27 57  1  0  0  0
M  END
$$$$
