5ldo_ligand
  -I-interpret- 

 37 39  0  0  0  0  0  0  0  0999 V2000
   85.3390  -15.8320   -1.3790 O   0  0  0  0  0
   85.1680  -14.5280   -0.6350 P   0  0  0  0  0
   83.7890  -14.4580   -0.0250 O   0  0  0  0  0
   86.2110  -14.4320    0.4430 O   0  0  0  0  0
   83.0880  -12.4480   -2.5960 O   0  0  0  0  0
   84.1650  -12.6480   -3.5580 C   0  0  0  0  0
   85.1380  -13.5960   -3.0380 C   0  0  0  0  0
   85.3400  -13.3470   -1.6340 O   0  0  0  0  0
   84.9360  -11.4050   -3.7400 C   0  0  0  0  0
   86.3530  -11.8120   -4.0230 O   0  0  0  0  0
   86.4020  -13.2720   -3.7330 C   0  0  0  0  0
   86.5070  -14.0400   -4.9930 C   0  0  0  0  0
   87.0420  -15.3250   -4.7240 O   0  0  0  0  0
   84.4580  -10.6530   -4.8170 N   0  0  0  0  0
   83.9070  -11.1400   -5.9770 C   0  0  0  0  0
   83.5740  -10.1170   -6.7850 N   0  0  0  0  0
   83.9020   -8.9180   -6.1780 C   0  0  0  0  0
   83.7920   -7.5890   -6.5350 C   0  0  0  0  0
   83.2250   -7.2270   -7.7940 N   0  0  0  0  0
   84.4720   -9.2300   -4.9160 C   0  0  0  0  0
   84.8850   -8.2310   -4.1080 N   0  0  0  0  0
   84.7600   -6.9220   -4.4910 C   0  0  0  0  0
   84.2210   -6.6190   -5.6850 N   0  0  0  0  0
   84.6737  -15.8955   -2.0682 H   0  0  0  0  0
   83.1295  -14.5200   -0.7198 H   0  0  0  0  0
   82.4545  -11.8209   -2.9524 H   0  0  0  0  0
   83.6966  -12.9877   -4.4817 H   0  0  0  0  0
   84.8157  -14.6270   -3.1835 H   0  0  0  0  0
   84.8516  -10.7879   -2.8455 H   0  0  0  0  0
   87.2676  -13.5284   -3.1223 H   0  0  0  0  0
   87.1632  -13.5122   -5.6850 H   0  0  0  0  0
   85.5168  -14.1456   -5.4362 H   0  0  0  0  0
   87.1088  -15.8206   -5.5435 H   0  0  0  0  0
   83.7615  -12.1953   -6.2080 H   0  0  0  0  0
   82.8992   -7.9515   -8.4338 H   0  0  0  0  0
   83.1456   -6.2438   -8.0538 H   0  0  0  0  0
   85.0976   -6.1256   -3.8277 H   0  0  0  0  0
  2  1  1  0  0  0
  2  3  1  0  0  0
  2  4  2  0  0  0
  8  2  1  0  0  0
  6  5  1  0  0  0
  7  6  1  0  0  0
  6  9  1  0  0  0
  7  8  1  0  0  0
  7 11  1  0  0  0
  9 10  1  0  0  0
  9 14  1  0  0  0
 10 11  1  0  0  0
 11 12  1  0  0  0
 12 13  1  0  0  0
 14 15  4  0  0  0
 14 20  4  0  0  0
 15 16  4  0  0  0
 16 17  4  0  0  0
 17 18  4  0  0  0
 17 20  4  0  0  0
 18 19  1  0  0  0
 18 23  4  0  0  0
 20 21  4  0  0  0
 21 22  4  0  0  0
 22 23  4  0  0  0
  1 24  1  0  0  0
  3 25  1  0  0  0
  5 26  1  0  0  0
  6 27  1  0  0  0
  7 28  1  0  0  0
  9 29  1  0  0  0
 11 30  1  0  0  0
 12 31  1  0  0  0
 12 32  1  0  0  0
 13 33  1  0  0  0
 15 34  1  0  0  0
 19 35  1  0  0  0
 19 36  1  0  0  0
 22 37  1  0  0  0
M  END
$$$$
