### 
### Created by X-TOOL on Mon Sep 10 21:13:34 2018
### 

@<TRIPOS>MOLECULE
5ldo_ligand
   35    37     1     0     0
SMALL
GAST_HUCK


@<TRIPOS>ATOM
      1 O1P        85.3390  -15.8320   -1.3790 O.co2     1 3AM        -0.5537
      2 P          85.1680  -14.5280   -0.6350 P.3       1 3AM         0.2013
      3 O2P        83.7890  -14.4580   -0.0250 O.co2     1 3AM        -0.5537
      4 O3P        86.2110  -14.4320    0.4430 O.co2     1 3AM        -0.5537
      5 O2'        83.0880  -12.4480   -2.5960 O.3       1 3AM        -0.3832
      6 C2'        84.1650  -12.6480   -3.5580 C.3       1 3AM         0.1432
      7 C3'        85.1380  -13.5960   -3.0380 C.3       1 3AM         0.1484
      8 O3'        85.3400  -13.3470   -1.6340 O.3       1 3AM        -0.2675
      9 C1'        84.9360  -11.4050   -3.7400 C.3       1 3AM         0.2013
     10 O4'        86.3530  -11.8120   -4.0230 O.3       1 3AM        -0.3364
     11 C4'        86.4020  -13.2720   -3.7330 C.3       1 3AM         0.1182
     12 C5'        86.5070  -14.0400   -4.9930 C.3       1 3AM         0.0734
     13 O5'        87.0420  -15.3250   -4.7240 O.3       1 3AM        -0.3924
     14 N9         84.4580  -10.6530   -4.8170 N.pl3     1 3AM        -0.1919
     15 C8         83.9070  -11.1400   -5.9770 C.2       1 3AM         0.1123
     16 N7         83.5740  -10.1170   -6.7850 N.2       1 3AM        -0.2958
     17 C5         83.9020   -8.9180   -6.1780 C.ar      1 3AM         0.1045
     18 C6         83.7920   -7.5890   -6.5350 C.ar      1 3AM         0.1298
     19 N6         83.2250   -7.2270   -7.7940 N.pl3     1 3AM        -0.3152
     20 C4         84.4720   -9.2300   -4.9160 C.ar      1 3AM         0.1613
     21 N3         84.8850   -8.2310   -4.1080 N.ar      1 3AM        -0.2714
     22 C2         84.7600   -6.9220   -4.4910 C.ar      1 3AM         0.0533
     23 N1         84.2210   -6.6190   -5.6850 N.ar      1 3AM        -0.2698
     24 H1         83.4483  -12.1095   -1.7848 H         1 3AM         0.2101
     25 H2         83.7481  -12.9957   -4.5147 H         1 3AM         0.0680
     26 H3         84.8256  -14.6356   -3.2155 H         1 3AM         0.0704
     27 H4         84.8878  -10.7996   -2.8229 H         1 3AM         0.0996
     28 H5         87.2624  -13.5048   -3.0885 H         1 3AM         0.0650
     29 H6         87.1682  -13.5074   -5.6923 H         1 3AM         0.0584
     30 H7         85.5082  -14.1460   -5.4414 H         1 3AM         0.0584
     31 H8         87.1081  -15.8154   -5.5350 H         1 3AM         0.2095
     32 H9         83.7617  -12.1943   -6.2078 H         1 3AM         0.1349
     33 H10        83.1448   -6.2342   -8.0563 H         1 3AM         0.1820
     34 H11        82.8960   -7.9586   -8.4401 H         1 3AM         0.1820
     35 H12        85.0957   -6.1300   -3.8314 H         1 3AM         0.0996
@<TRIPOS>BOND
     1    2    1 ar 
     2    2    3 ar 
     3    2    4 ar 
     4    8    2 1  
     5    6    5 1  
     6    7    6 1  
     7    6    9 1  
     8    7    8 1  
     9    7   11 1  
    10    9   10 1  
    11    9   14 1  
    12   10   11 1  
    13   11   12 1  
    14   12   13 1  
    15   14   15 1  
    16   14   20 1  
    17   15   16 2  
    18   16   17 1  
    19   17   18 ar 
    20   17   20 ar 
    21   18   19 1  
    22   18   23 ar 
    23   20   21 ar 
    24   21   22 ar 
    25   22   23 ar 
    26    5   24 1  
    27    6   25 1  
    28    7   26 1  
    29    9   27 1  
    30   11   28 1  
    31   12   29 1  
    32   12   30 1  
    33   13   31 1  
    34   15   32 1  
    35   19   33 1  
    36   19   34 1  
    37   22   35 1  
@<TRIPOS>SUBSTRUCTURE
     1 3AM         1

