1u0g_ligand
  -I-interpret- 

 23 22  0  0  0  0  0  0  0  0999 V2000
    8.0180    2.4430   -0.0770 C   0  0  0  0  0
    9.1930    2.5960    0.7100 O   0  0  0  0  0
    7.3640    3.7110   -0.5170 C   0  0  0  0  0
    8.4140    4.4790   -1.0640 O   0  0  0  0  0
    6.7300    4.3930    0.6870 C   0  0  0  0  0
    5.6200    3.6230    1.1180 O   0  0  0  0  0
    6.2260    5.7940    0.3300 C   0  0  0  0  0
    5.2880    5.7220   -0.7420 O   0  0  0  0  0
    4.8490    7.0110   -1.4150 P   0  0  0  0  0
    4.3190    7.9470   -0.3660 O   0  0  0  0  0
    6.0170    7.6460   -2.1060 O   0  0  0  0  0
    3.7500    6.6700   -2.3850 O   0  0  0  0  0
    7.2929    1.9226    0.5487 H   0  0  0  0  0
    8.3202    1.9204   -0.9846 H   0  0  0  0  0
    9.5367    1.7301    0.9415 H   0  0  0  0  0
    6.5662    3.5620   -1.2446 H   0  0  0  0  0
    8.7871    4.0174   -1.8185 H   0  0  0  0  0
    7.4849    4.4756    1.4689 H   0  0  0  0  0
    5.9151    2.7387    1.3472 H   0  0  0  0  0
    7.0715    6.4098    0.0234 H   0  0  0  0  0
    5.7386    6.2306    1.2017 H   0  0  0  0  0
    3.5707    7.5395    0.0763 H   0  0  0  0  0
    3.0197    6.2662   -1.9104 H   0  0  0  0  0
  1  2  1  0  0  0
  1  3  1  0  0  0
  3  4  1  0  0  0
  3  5  1  0  0  0
  5  6  1  0  0  0
  5  7  1  0  0  0
  7  8  1  0  0  0
  8  9  1  0  0  0
  9 10  1  0  0  0
  9 11  2  0  0  0
  9 12  1  0  0  0
  1 13  1  0  0  0
  1 14  1  0  0  0
  2 15  1  0  0  0
  3 16  1  0  0  0
  4 17  1  0  0  0
  5 18  1  0  0  0
  6 19  1  0  0  0
  7 20  1  0  0  0
  7 21  1  0  0  0
 10 22  1  0  0  0
 12 23  1  0  0  0
M  END
$$$$
