5kbq_ligand
  -I-interpret- 

 63 66  0  0  0  0  0  0  0  0999 V2000
    2.8060  -33.7250   19.6590 C   0  0  0  0  0
    1.6840  -33.9470   20.4550 C   0  0  0  0  0
    0.6570  -33.0280   20.5370 C   0  0  0  0  0
    4.8860  -31.1750   18.5130 C   0  0  0  0  0
    4.2170  -32.8870   16.8130 C   0  0  0  0  0
    3.2520  -33.6710   16.1880 C   0  0  0  0  0
    3.6140  -34.2140   14.9720 C   0  0  0  0  0
    5.6620  -33.2330   15.0810 C   0  0  0  0  0
    8.0010  -32.2100   14.7950 C   0  0  0  0  0
    8.0120  -31.4140   15.9380 C   0  0  0  0  0
    9.1710  -30.7160   16.2870 C   0  0  0  0  0
   10.3170  -30.8620   15.5040 C   0  0  0  0  0
   10.2990  -31.6530   14.3680 C   0  0  0  0  0
    9.6060  -30.3150   18.6660 C   0  0  0  0  0
   10.0140  -29.1290   19.5140 C   0  0  0  0  0
    8.5670  -27.6930   18.3280 C   0  0  0  0  0
    8.1140  -28.8220   17.4280 C   0  0  0  0  0
   12.8320  -32.2540   14.2980 O   0  0  0  0  0
   11.7760  -31.8500   13.4140 S   0  0  0  0  0
   11.4800  -32.6930   12.2920 O   0  0  0  0  0
   12.1330  -30.2410   12.8230 C   0  0  0  0  0
    9.1620  -29.8450   17.3520 N   0  0  0  0  0
    8.9570  -28.1670   19.6250 O   0  0  0  0  0
    9.1390  -32.3140   13.9970 C   0  0  0  0  0
    6.8560  -32.9750   14.4870 N   0  0  0  0  0
    4.8130  -34.0200   14.3990 N   0  0  0  0  0
    5.4240  -32.6640   16.2770 N   0  0  0  0  0
    3.9920  -32.2360   18.0370 N   0  0  0  0  0
    2.8420  -32.5450   18.8960 C   0  0  0  0  0
    3.9500  -34.7080   19.7020 C   0  0  0  0  0
    1.7860  -31.6330   18.9690 C   0  0  0  0  0
    0.6980  -31.8520   19.8100 C   0  0  0  0  0
   -0.3480  -30.7900   20.0030 C   0  0  0  0  0
    0.1560  -29.6470   20.6770 O   0  0  0  0  0
    1.6153  -34.8714   21.0285 H   0  0  0  0  0
   -0.1971  -33.2318   21.1829 H   0  0  0  0  0
    4.3245  -30.2460   18.6125 H   0  0  0  0  0
    5.2990  -31.4570   19.4815 H   0  0  0  0  0
    5.6964  -31.0363   17.7974 H   0  0  0  0  0
    2.2715  -33.8453   16.6312 H   0  0  0  0  0
    2.8869  -34.8343   14.4479 H   0  0  0  0  0
    7.1191  -31.3359   16.5583 H   0  0  0  0  0
   11.2350  -30.3483   15.7896 H   0  0  0  0  0
    8.7915  -30.8489   19.1555 H   0  0  0  0  0
   10.4573  -30.9848   18.5440 H   0  0  0  0  0
   10.8689  -28.6464   19.0404 H   0  0  0  0  0
   10.2565  -29.4892   20.5138 H   0  0  0  0  0
    7.7347  -27.0004   18.4530 H   0  0  0  0  0
    9.4293  -27.2123   17.8660 H   0  0  0  0  0
    7.9176  -28.4313   16.4296 H   0  0  0  0  0
    7.2052  -29.2656   17.8346 H   0  0  0  0  0
   12.1984  -29.5522   13.6652 H   0  0  0  0  0
   13.0827  -30.2542   12.2881 H   0  0  0  0  0
   11.3394  -29.9185   12.1490 H   0  0  0  0  0
    9.1166  -32.9121   13.0860 H   0  0  0  0  0
    6.9483  -33.4558   13.5921 H   0  0  0  0  0
    4.3444  -34.7604   20.7168 H   0  0  0  0  0
    3.5933  -35.6922   19.3982 H   0  0  0  0  0
    4.7358  -34.3791   19.0220 H   0  0  0  0  0
    1.8144  -30.7324   18.3556 H   0  0  0  0  0
   -1.1485  -31.2127   20.6101 H   0  0  0  0  0
   -0.6931  -30.4749   19.0183 H   0  0  0  0  0
   -0.5461  -28.9998   20.7761 H   0  0  0  0  0
  1  2  4  0  0  0
 29  1  4  0  0  0
  1 30  1  0  0  0
  2  3  4  0  0  0
  3 32  4  0  0  0
 28  4  1  0  0  0
  5  6  4  0  0  0
  5 27  4  0  0  0
 28  5  1  0  0  0
  6  7  4  0  0  0
  7 26  4  0  0  0
  8 25  1  0  0  0
  8 26  4  0  0  0
 27  8  4  0  0  0
  9 10  4  0  0  0
  9 24  4  0  0  0
 25  9  1  0  0  0
 10 11  4  0  0  0
 11 12  4  0  0  0
 11 22  1  0  0  0
 13 12  4  0  0  0
 13 19  1  0  0  0
 24 13  4  0  0  0
 14 15  1  0  0  0
 22 14  1  0  0  0
 15 23  1  0  0  0
 17 16  1  0  0  0
 16 23  1  0  0  0
 22 17  1  0  0  0
 19 18  2  0  0  0
 19 20  2  0  0  0
 19 21  1  0  0  0
 28 29  1  0  0  0
 29 31  4  0  0  0
 31 32  4  0  0  0
 32 33  1  0  0  0
 33 34  1  0  0  0
  2 35  1  0  0  0
  3 36  1  0  0  0
  4 37  1  0  0  0
  4 38  1  0  0  0
  4 39  1  0  0  0
  6 40  1  0  0  0
  7 41  1  0  0  0
 10 42  1  0  0  0
 12 43  1  0  0  0
 14 44  1  0  0  0
 14 45  1  0  0  0
 15 46  1  0  0  0
 15 47  1  0  0  0
 16 48  1  0  0  0
 16 49  1  0  0  0
 17 50  1  0  0  0
 17 51  1  0  0  0
 21 52  1  0  0  0
 21 53  1  0  0  0
 21 54  1  0  0  0
 24 55  1  0  0  0
 25 56  1  0  0  0
 30 57  1  0  0  0
 30 58  1  0  0  0
 30 59  1  0  0  0
 31 60  1  0  0  0
 33 61  1  0  0  0
 33 62  1  0  0  0
 34 63  1  0  0  0
M  END
$$$$
