### 
### Created by X-TOOL on Mon Sep 10 21:13:03 2018
### 

@<TRIPOS>MOLECULE
3oap_ligand
  210   211     1     0     0
SMALL
GAST_HUCK


@<TRIPOS>ATOM
      1 N          67.0730   44.4430    5.8810 N.4       1 LYS         0.2379
      2 CA         67.3310   44.2130    7.3330 C.3       1 LYS         0.0650
      3 C          66.0910   44.5530    8.1550 C.2       1 LYS         0.2268
      4 O          65.1010   45.0530    7.6170 O.2       1 LYS        -0.3907
      5 CB         68.5180   45.0660    7.7970 C.3       1 LYS         0.0080
      6 CG         68.3450   46.5590    7.5510 C.3       1 LYS        -0.0410
      7 CD         69.5210   47.3540    8.0990 C.3       1 LYS        -0.0123
      8 CE         70.8000   47.0610    7.3330 C.3       1 LYS        -0.0354
      9 NZ         70.6960   47.4810    5.9070 N.4       1 LYS         0.2185
     10 N          66.1510   44.2770    9.4570 N.am      1 HIS        -0.2598
     11 CA         65.0370   44.5450   10.3630 C.3       1 HIS         0.1370
     12 C          63.7390   43.9550    9.8090 C.2       1 HIS         0.2054
     13 O          62.7620   44.6760    9.5850 O.2       1 HIS        -0.3942
     14 CB         64.8710   46.0540   10.5760 C.3       1 HIS         0.0145
     15 CG         66.1610   46.7760   10.8100 C.2       1 HIS        -0.0027
     16 ND1        67.0910   46.3590   11.7400 N.2       1 HIS        -0.3252
     17 CD2        66.6850   47.8780   10.2220 C.2       1 HIS         0.0291
     18 CE1        68.1330   47.1710   11.7120 C.2       1 HIS         0.0907
     19 NE2        67.9120   48.1010   10.8000 N.pl3     1 HIS        -0.2752
     20 N          63.7410   42.6390    9.6010 N.am      1 LYS        -0.2636
     21 CA         62.5880   41.9110    9.0650 C.3       1 LYS         0.1310
     22 C          61.2500   42.1190    9.7760 C.2       1 LYS         0.2039
     23 O          60.2640   42.5070    9.1530 O.2       1 LYS        -0.3944
     24 CB         62.8720   40.4050    9.0490 C.3       1 LYS        -0.0122
     25 CG         63.6050   39.8880    7.8290 C.3       1 LYS        -0.0440
     26 CD         63.6750   38.3650    7.8600 C.3       1 LYS        -0.0124
     27 CE         64.3020   37.8150    6.5920 C.3       1 LYS        -0.0354
     28 NZ         64.5250   36.3460    6.6740 N.4       1 LYS         0.2185
     29 N          61.2190   41.8330   11.0740 N.am      1 ILE        -0.2635
     30 CA         59.9970   41.9390   11.8650 C.3       1 ILE         0.1335
     31 C          59.3470   43.3250   11.8430 C.2       1 ILE         0.2042
     32 O          58.1580   43.4570   11.5170 O.2       1 ILE        -0.3944
     33 CB         60.2680   41.5160   13.3240 C.3       1 ILE        -0.0037
     34 CG1        60.8840   40.1080   13.3420 C.3       1 ILE        -0.0491
     35 CG2        58.9730   41.5410   14.1300 C.3       1 ILE        -0.0582
     36 CD1        61.4940   39.7070   14.6770 C.3       1 ILE        -0.0648
     37 N          60.1250   44.3520   12.1760 N.am      1 LEU        -0.2637
     38 CA         59.6120   45.7180   12.2020 C.3       1 LEU         0.1312
     39 C          58.9870   46.1410   10.8690 C.2       1 LEU         0.2040
     40 O          57.8790   46.6760   10.8460 O.2       1 LEU        -0.3944
     41 CB         60.7250   46.6920   12.6020 C.3       1 LEU        -0.0101
     42 CG         60.3100   48.1610   12.7240 C.3       1 LEU        -0.0425
     43 CD1        59.0940   48.2850   13.6330 C.3       1 LEU        -0.0625
     44 CD2        61.4730   48.9740   13.2740 C.3       1 LEU        -0.0625
     45 N          59.6800   45.8990    9.7590 N.am      1 HIS        -0.2625
     46 CA         59.1380   46.2630    8.4480 C.3       1 HIS         0.1369
     47 C          57.8070   45.5590    8.1750 C.2       1 HIS         0.2054
     48 O          56.8400   46.1870    7.7320 O.2       1 HIS        -0.3942
     49 CB         60.1160   45.9050    7.3220 C.3       1 HIS         0.0145
     50 CG         61.1740   46.9350    7.0810 C.2       1 HIS        -0.0027
     51 ND1        62.3850   46.9300    7.7410 N.2       1 HIS        -0.3252
     52 CD2        61.2020   48.0040    6.2500 C.2       1 HIS         0.0291
     53 CE1        63.1140   47.9500    7.3240 C.2       1 HIS         0.0907
     54 NE2        62.4190   48.6170    6.4200 N.pl3     1 HIS        -0.2752
     55 N          57.7720   44.2530    8.4240 N.am      1 ARG        -0.2636
     56 CA         56.5680   43.4520    8.2070 C.3       1 ARG         0.1311
     57 C          55.3830   43.9590    9.0120 C.2       1 ARG         0.2039
     58 O          54.2710   44.0770    8.4920 O.2       1 ARG        -0.3944
     59 CB         56.8400   41.9910    8.5710 C.3       1 ARG        -0.0092
     60 CG         57.7080   41.2880    7.5550 C.3       1 ARG        -0.0156
     61 CD         58.0740   39.8880    7.9800 C.3       1 ARG         0.0627
     62 NE         58.8620   39.2370    6.9420 N.pl3     1 ARG        -0.2723
     63 CZ         59.4330   38.0450    7.0670 C.cat     1 ARG         0.2882
     64 NH1        59.3080   37.3570    8.1960 N.pl3     1 ARG        -0.2849
     65 NH2        60.1380   37.5460    6.0600 N.pl3     1 ARG        -0.2849
     66 N          55.6270   44.2640   10.2830 N.am      1 LEU        -0.2637
     67 CA         54.5750   44.7530   11.1670 C.3       1 LEU         0.1312
     68 C          54.0680   46.1370   10.7780 C.2       1 LEU         0.2039
     69 O          52.8920   46.4350   10.9610 O.2       1 LEU        -0.3944
     70 CB         55.0680   44.7690   12.6190 C.3       1 LEU        -0.0101
     71 CG         55.3540   43.3860   13.2180 C.3       1 LEU        -0.0425
     72 CD1        55.9970   43.5320   14.5810 C.3       1 LEU        -0.0625
     73 CD2        54.0550   42.5990   13.3240 C.3       1 LEU        -0.0625
     74 N          54.9480   46.9790   10.2470 N.am      1 LEU        -0.2637
     75 CA         54.5570   48.3270    9.8430 C.3       1 LEU         0.1312
     76 C          53.7800   48.3460    8.5290 C.2       1 LEU         0.2039
     77 O          52.9100   49.1920    8.3240 O.2       1 LEU        -0.3944
     78 CB         55.7930   49.2240    9.6990 C.3       1 LEU        -0.0101
     79 CG         56.5120   49.6560   10.9780 C.3       1 LEU        -0.0425
     80 CD1        57.7640   50.4440   10.6120 C.3       1 LEU        -0.0625
     81 CD2        55.5740   50.4950   11.8340 C.3       1 LEU        -0.0625
     82 N          54.1070   47.4170    7.6390 N.am      1 GLN        -0.2636
     83 CA         53.4550   47.3300    6.3380 C.3       1 GLN         0.1330
     84 C          52.0170   46.8430    6.4350 C.2       1 GLN         0.2036
     85 O          51.1080   47.4580    5.8750 O.2       1 GLN        -0.3944
     86 CB         54.2670   46.4100    5.4160 C.3       1 GLN         0.0045
     87 CG         53.5880   46.0210    4.1030 C.3       1 GLN         0.0412
     88 CD         52.6360   44.8400    4.2520 C.2       1 GLN         0.1737
     89 OE1        52.9990   43.7980    4.8080 O.2       1 GLN        -0.3973
     90 NE2        51.4160   44.9950    3.7450 N.am      1 GLN        -0.3009
     91 N          51.8090   45.7430    7.1490 N.am      1 ASP        -0.2679
     92 CA         50.4740   45.1740    7.2960 C.3       1 ASP         0.1057
     93 C          49.4420   46.2150    7.7300 C.2       1 ASP         0.0618
     94 O          48.4520   46.4120    6.9940 O.co2     1 ASP        -0.5665
     95 CB         50.5000   44.0150    8.2990 C.3       1 ASP         0.0351
     96 CG         49.1750   43.2740    8.3640 C.2       1 ASP         0.0387
     97 OD1        48.6310   42.9430    7.2880 O.co2     1 ASP        -0.5688
     98 OD2        48.6790   43.0180    9.4820 O.co2     1 ASP        -0.5688
     99 OXT        49.6340   46.8240    8.8020 O.co2     1 ASP        -0.5665
    100 H          66.2825   43.8716    5.5827 H         1 LYS         0.2015
    101 H          66.8592   45.4284    5.7268 H         1 LYS         0.2015
    102 H          67.9016   44.1857    5.3447 H         1 LYS         0.2015
    103 H          67.5696   43.1599    7.4816 H         1 LYS         0.1098
    104 H          69.3890   44.7440    7.2262 H         1 LYS         0.0346
    105 H          68.6145   44.9257    8.8736 H         1 LYS         0.0346
    106 H          67.4384   46.8898    8.0577 H         1 LYS         0.0270
    107 H          68.2854   46.7273    6.4757 H         1 LYS         0.0270
    108 H          69.6715   47.0720    9.1411 H         1 LYS         0.0317
    109 H          69.2953   48.4157    7.9990 H         1 LYS         0.0317
    110 H          70.9798   45.9863    7.3625 H         1 LYS         0.0813
    111 H          71.6138   47.6183    7.7970 H         1 LYS         0.0813
    112 H          71.5705   47.2691    5.4267 H         1 LYS         0.1994
    113 H          69.9304   46.9764    5.4602 H         1 LYS         0.1994
    114 H          70.5161   48.4840    5.8615 H         1 LYS         0.1994
    115 H          67.0042   43.8644    9.8341 H         1 HIS         0.1886
    116 H          65.2575   44.0736   11.3207 H         1 HIS         0.0817
    117 H          64.2556   46.1912   11.4651 H         1 HIS         0.0420
    118 H          64.4289   46.4639    9.6679 H         1 HIS         0.0420
    119 H          66.2208   48.4758    9.4376 H         1 HIS         0.0729
    120 H          69.0234   47.0877   12.3352 H         1 HIS         0.1199
    121 H          68.5490   48.8616   10.5631 H         1 HIS         0.2361
    122 H          64.5856   42.1132    9.8257 H         1 LYS         0.1883
    123 H          62.4697   42.3360    8.0683 H         1 LYS         0.0800
    124 H          61.9021   39.9078    9.0601 H         1 LYS         0.0312
    125 H          63.5163   40.2033    9.9047 H         1 LYS         0.0312
    126 H          64.6178   40.2909    7.8249 H         1 LYS         0.0269
    127 H          63.0698   40.2016    6.9327 H         1 LYS         0.0269
    128 H          62.6614   37.9730    7.9438 H         1 LYS         0.0317
    129 H          64.2884   38.0634    8.7091 H         1 LYS         0.0317
    130 H          65.2681   38.2996    6.4509 H         1 LYS         0.0813
    131 H          63.6229   38.0114    5.7624 H         1 LYS         0.0813
    132 H          64.9462   36.0182    5.8048 H         1 LYS         0.1994
    133 H          65.1493   36.1411    7.4542 H         1 LYS         0.1994
    134 H          63.6318   35.8753    6.8191 H         1 LYS         0.1994
    135 H          62.0781   41.5293   11.5324 H         1 ILE         0.1883
    136 H          59.2843   41.2624   11.3935 H         1 ILE         0.0803
    137 H          60.9674   42.2175   13.7787 H         1 ILE         0.0345
    138 H          61.6890   40.1012   12.6071 H         1 ILE         0.0267
    139 H          60.0789   39.4035   13.1333 H         1 ILE         0.0267
    140 H          58.5607   42.5500   14.1215 H         1 ILE         0.0235
    141 H          58.2564   40.8505   13.6853 H         1 ILE         0.0235
    142 H          59.1799   41.2403   15.1571 H         1 ILE         0.0235
    143 H          62.2888   40.4063   14.9365 H         1 ILE         0.0230
    144 H          60.7237   39.7281   15.4479 H         1 ILE         0.0230
    145 H          61.9049   38.7004   14.5995 H         1 ILE         0.0230
    146 H          61.1009   44.1808   12.4183 H         1 LEU         0.1883
    147 H          58.8164   45.7467   12.9465 H         1 LEU         0.0800
    148 H          61.4732   46.6474   11.8106 H         1 LEU         0.0315
    149 H          61.0640   46.3839   13.5911 H         1 LEU         0.0315
    150 H          60.0445   48.5461   11.7395 H         1 LEU         0.0298
    151 H          58.2676   47.7120   13.2124 H         1 LEU         0.0232
    152 H          59.3401   47.8979   14.6218 H         1 LEU         0.0232
    153 H          58.8072   49.3335   13.7130 H         1 LEU         0.0232
    154 H          61.7495   48.5915   14.2565 H         1 LEU         0.0232
    155 H          62.3241   48.8916   12.5980 H         1 LEU         0.0232
    156 H          61.1755   50.0191   13.3600 H         1 LEU         0.0232
    157 H          60.5967   45.4561    9.8218 H         1 HIS         0.1885
    158 H          58.9801   47.3413    8.4679 H         1 HIS         0.0817
    159 H          59.5339   45.8199    6.4044 H         1 HIS         0.0420
    160 H          60.6223   44.9853    7.6150 H         1 HIS         0.0420
    161 H          60.4076   48.3187    5.5732 H         1 HIS         0.0729
    162 H          64.1181   48.1988    7.6675 H         1 HIS         0.1199
    163 H          62.7353   49.4525    5.9277 H         1 HIS         0.2361
    164 H          58.6121   43.7953    8.7778 H         1 ARG         0.1883
    165 H          56.3128   43.5367    7.1507 H         1 ARG         0.0800
    166 H          55.8822   41.4720    8.6086 H         1 ARG         0.0313
    167 H          57.3650   41.9767    9.5262 H         1 ARG         0.0313
    168 H          58.6301   41.8591    7.4471 H         1 ARG         0.0301
    169 H          57.1480   41.2212    6.6223 H         1 ARG         0.0301
    170 H          57.1615   39.3157    8.1469 H         1 ARG         0.0689
    171 H          58.6615   39.9356    8.8969 H         1 ARG         0.0689
    172 H          58.9834   39.7312    6.0580 H         1 ARG         0.2642
    173 H          58.7713   37.7440    8.9723 H         1 ARG         0.2615
    174 H          59.7487   36.4416    8.2869 H         1 ARG         0.2615
    175 H          60.2391   38.0777    5.1954 H         1 ARG         0.2615
    176 H          60.5789   36.6307    6.1504 H         1 ARG         0.2615
    177 H          56.5728   44.1533   10.6486 H         1 LEU         0.1883
    178 H          53.7362   44.0643   11.0659 H         1 LEU         0.0800
    179 H          54.2734   45.2144   13.2176 H         1 LEU         0.0315
    180 H          56.0098   45.3176   12.6269 H         1 LEU         0.0315
    181 H          56.0435   42.8467   12.5685 H         1 LEU         0.0298
    182 H          56.9338   44.0805   14.4825 H         1 LEU         0.0232
    183 H          55.3234   44.0767   15.2426 H         1 LEU         0.0232
    184 H          56.1950   42.5436   14.9956 H         1 LEU         0.0232
    185 H          53.3575   43.1363   13.9666 H         1 LEU         0.0232
    186 H          53.6203   42.4824   12.3313 H         1 LEU         0.0232
    187 H          54.2604   41.6168   13.7498 H         1 LEU         0.0232
    188 H          55.9143   46.6785   10.1192 H         1 LEU         0.1883
    189 H          53.9027   48.7045   10.6288 H         1 LEU         0.0800
    190 H          55.4325   50.1456    9.2420 H         1 LEU         0.0315
    191 H          56.5194   48.6320    9.1422 H         1 LEU         0.0315
    192 H          56.8079   48.7780   11.5522 H         1 LEU         0.0298
    193 H          58.4257   49.8158   10.0157 H         1 LEU         0.0232
    194 H          57.4816   51.3256   10.0365 H         1 LEU         0.0232
    195 H          58.2770   50.7522   11.5230 H         1 LEU         0.0232
    196 H          55.2668   51.3788   11.2749 H         1 LEU         0.0232
    197 H          54.6955   49.9044   12.0940 H         1 LEU         0.0232
    198 H          56.0903   50.8005   12.7440 H         1 LEU         0.0232
    199 H          54.8366   46.7436    7.8725 H         1 GLN         0.1883
    200 H          53.4187   48.3367    5.9218 H         1 GLN         0.0801
    201 H          54.4267   45.4834    5.9673 H         1 GLN         0.0337
    202 H          55.1682   46.9607    5.1462 H         1 GLN         0.0337
    203 H          54.3680   45.7319    3.3987 H         1 GLN         0.0504
    204 H          53.0046   46.8772    3.7645 H         1 GLN         0.0504
    205 H          50.7377   44.2358    3.8070 H         1 GLN         0.1814
    206 H          51.1588   45.8731    3.2942 H         1 GLN         0.1814
    207 H          52.5993   45.2863    7.6042 H         1 ASP         0.1876
    208 H          50.1729   44.8052    6.3155 H         1 ASP         0.0745
    209 H          50.7034   44.4288    9.2867 H         1 ASP         0.0471
    210 H          51.2656   43.3087    7.9779 H         1 ASP         0.0471
@<TRIPOS>BOND
     1    1    2 1  
     2    2    3 1  
     3    2    5 1  
     4    3    4 2  
     5    3   10 am 
     6    5    6 1  
     7    6    7 1  
     8    7    8 1  
     9    8    9 1  
    10   10   11 1  
    11   11   12 1  
    12   11   14 1  
    13   12   13 2  
    14   12   20 am 
    15   14   15 1  
    16   15   16 1  
    17   15   17 2  
    18   16   18 2  
    19   17   19 1  
    20   18   19 1  
    21   20   21 1  
    22   21   22 1  
    23   21   24 1  
    24   22   23 2  
    25   22   29 am 
    26   24   25 1  
    27   25   26 1  
    28   26   27 1  
    29   27   28 1  
    30   29   30 1  
    31   30   31 1  
    32   30   33 1  
    33   31   32 2  
    34   31   37 am 
    35   33   34 1  
    36   33   35 1  
    37   34   36 1  
    38   37   38 1  
    39   38   39 1  
    40   38   41 1  
    41   39   40 2  
    42   39   45 am 
    43   41   42 1  
    44   42   43 1  
    45   42   44 1  
    46   45   46 1  
    47   46   47 1  
    48   46   49 1  
    49   47   48 2  
    50   47   55 am 
    51   49   50 1  
    52   50   51 1  
    53   50   52 2  
    54   51   53 2  
    55   52   54 1  
    56   53   54 1  
    57   55   56 1  
    58   56   57 1  
    59   56   59 1  
    60   57   58 2  
    61   57   66 am 
    62   59   60 1  
    63   60   61 1  
    64   61   62 1  
    65   62   63 ar 
    66   63   64 ar 
    67   63   65 ar 
    68   66   67 1  
    69   67   68 1  
    70   67   70 1  
    71   68   69 2  
    72   68   74 am 
    73   70   71 1  
    74   71   72 1  
    75   71   73 1  
    76   74   75 1  
    77   75   76 1  
    78   75   78 1  
    79   76   77 2  
    80   76   82 am 
    81   78   79 1  
    82   79   80 1  
    83   79   81 1  
    84   82   83 1  
    85   83   84 1  
    86   83   86 1  
    87   84   85 2  
    88   84   91 am 
    89   86   87 1  
    90   87   88 1  
    91   88   89 2  
    92   88   90 am 
    93   91   92 1  
    94   92   93 1  
    95   92   95 1  
    96   93   94 ar 
    97   93   99 ar 
    98   95   96 1  
    99   96   97 ar 
   100   96   98 ar 
   101    1  100 1  
   102    1  101 1  
   103    1  102 1  
   104    2  103 1  
   105    5  104 1  
   106    5  105 1  
   107    6  106 1  
   108    6  107 1  
   109    7  108 1  
   110    7  109 1  
   111    8  110 1  
   112    8  111 1  
   113    9  112 1  
   114    9  113 1  
   115    9  114 1  
   116   10  115 1  
   117   11  116 1  
   118   14  117 1  
   119   14  118 1  
   120   17  119 1  
   121   18  120 1  
   122   19  121 1  
   123   20  122 1  
   124   21  123 1  
   125   24  124 1  
   126   24  125 1  
   127   25  126 1  
   128   25  127 1  
   129   26  128 1  
   130   26  129 1  
   131   27  130 1  
   132   27  131 1  
   133   28  132 1  
   134   28  133 1  
   135   28  134 1  
   136   29  135 1  
   137   30  136 1  
   138   33  137 1  
   139   34  138 1  
   140   34  139 1  
   141   35  140 1  
   142   35  141 1  
   143   35  142 1  
   144   36  143 1  
   145   36  144 1  
   146   36  145 1  
   147   37  146 1  
   148   38  147 1  
   149   41  148 1  
   150   41  149 1  
   151   42  150 1  
   152   43  151 1  
   153   43  152 1  
   154   43  153 1  
   155   44  154 1  
   156   44  155 1  
   157   44  156 1  
   158   45  157 1  
   159   46  158 1  
   160   49  159 1  
   161   49  160 1  
   162   52  161 1  
   163   53  162 1  
   164   54  163 1  
   165   55  164 1  
   166   56  165 1  
   167   59  166 1  
   168   59  167 1  
   169   60  168 1  
   170   60  169 1  
   171   61  170 1  
   172   61  171 1  
   173   62  172 1  
   174   64  173 1  
   175   64  174 1  
   176   65  175 1  
   177   65  176 1  
   178   66  177 1  
   179   67  178 1  
   180   70  179 1  
   181   70  180 1  
   182   71  181 1  
   183   72  182 1  
   184   72  183 1  
   185   72  184 1  
   186   73  185 1  
   187   73  186 1  
   188   73  187 1  
   189   74  188 1  
   190   75  189 1  
   191   78  190 1  
   192   78  191 1  
   193   79  192 1  
   194   80  193 1  
   195   80  194 1  
   196   80  195 1  
   197   81  196 1  
   198   81  197 1  
   199   81  198 1  
   200   82  199 1  
   201   83  200 1  
   202   86  201 1  
   203   86  202 1  
   204   87  203 1  
   205   87  204 1  
   206   90  205 1  
   207   90  206 1  
   208   91  207 1  
   209   92  208 1  
   210   95  209 1  
   211   95  210 1  
@<TRIPOS>SUBSTRUCTURE
     1 LYS         1

