3oap_ligand
  -I-interpret- 

209210  0  0  0  0  0  0  0  0999 V2000
   67.0730   44.4430    5.8810 N   0  3  0  0  0
   67.3310   44.2130    7.3330 C   0  0  0  0  0
   66.0910   44.5530    8.1550 C   0  0  0  0  0
   65.1010   45.0530    7.6170 O   0  0  0  0  0
   68.5180   45.0660    7.7970 C   0  0  0  0  0
   68.3450   46.5590    7.5510 C   0  0  0  0  0
   69.5210   47.3540    8.0990 C   0  0  0  0  0
   70.8000   47.0610    7.3330 C   0  0  0  0  0
   70.6960   47.4810    5.9070 N   0  3  0  0  0
   66.1510   44.2770    9.4570 N   0  0  0  0  0
   65.0370   44.5450   10.3630 C   0  0  0  0  0
   63.7390   43.9550    9.8090 C   0  0  0  0  0
   62.7620   44.6760    9.5850 O   0  0  0  0  0
   64.8710   46.0540   10.5760 C   0  0  0  0  0
   66.1610   46.7760   10.8100 C   0  0  0  0  0
   67.0910   46.3590   11.7400 N   0  0  0  0  0
   66.6850   47.8780   10.2220 C   0  0  0  0  0
   68.1330   47.1710   11.7120 C   0  0  0  0  0
   67.9120   48.1010   10.8000 N   0  0  0  0  0
   63.7410   42.6390    9.6010 N   0  0  0  0  0
   62.5880   41.9110    9.0650 C   0  0  0  0  0
   61.2500   42.1190    9.7760 C   0  0  0  0  0
   60.2640   42.5070    9.1530 O   0  0  0  0  0
   62.8720   40.4050    9.0490 C   0  0  0  0  0
   63.6050   39.8880    7.8290 C   0  0  0  0  0
   63.6750   38.3650    7.8600 C   0  0  0  0  0
   64.3020   37.8150    6.5920 C   0  0  0  0  0
   64.5250   36.3460    6.6740 N   0  3  0  0  0
   61.2190   41.8330   11.0740 N   0  0  0  0  0
   59.9970   41.9390   11.8650 C   0  0  0  0  0
   59.3470   43.3250   11.8430 C   0  0  0  0  0
   58.1580   43.4570   11.5170 O   0  0  0  0  0
   60.2680   41.5160   13.3240 C   0  0  0  0  0
   60.8840   40.1080   13.3420 C   0  0  0  0  0
   58.9730   41.5410   14.1300 C   0  0  0  0  0
   61.4940   39.7070   14.6770 C   0  0  0  0  0
   60.1250   44.3520   12.1760 N   0  0  0  0  0
   59.6120   45.7180   12.2020 C   0  0  0  0  0
   58.9870   46.1410   10.8690 C   0  0  0  0  0
   57.8790   46.6760   10.8460 O   0  0  0  0  0
   60.7250   46.6920   12.6020 C   0  0  0  0  0
   60.3100   48.1610   12.7240 C   0  0  0  0  0
   59.0940   48.2850   13.6330 C   0  0  0  0  0
   61.4730   48.9740   13.2740 C   0  0  0  0  0
   59.6800   45.8990    9.7590 N   0  0  0  0  0
   59.1380   46.2630    8.4480 C   0  0  0  0  0
   57.8070   45.5590    8.1750 C   0  0  0  0  0
   56.8400   46.1870    7.7320 O   0  0  0  0  0
   60.1160   45.9050    7.3220 C   0  0  0  0  0
   61.1740   46.9350    7.0810 C   0  0  0  0  0
   62.3850   46.9300    7.7410 N   0  0  0  0  0
   61.2020   48.0040    6.2500 C   0  0  0  0  0
   63.1140   47.9500    7.3240 C   0  0  0  0  0
   62.4190   48.6170    6.4200 N   0  0  0  0  0
   57.7720   44.2530    8.4240 N   0  0  0  0  0
   56.5680   43.4520    8.2070 C   0  0  0  0  0
   55.3830   43.9590    9.0120 C   0  0  0  0  0
   54.2710   44.0770    8.4920 O   0  0  0  0  0
   56.8400   41.9910    8.5710 C   0  0  0  0  0
   57.7080   41.2880    7.5550 C   0  0  0  0  0
   58.0740   39.8880    7.9800 C   0  0  0  0  0
   58.8620   39.2370    6.9420 N   0  0  0  0  0
   59.4330   38.0450    7.0670 C   0  0  0  0  0
   59.3080   37.3570    8.1960 N   0  0  0  0  0
   60.1380   37.5460    6.0600 N   0  0  0  0  0
   55.6270   44.2640   10.2830 N   0  0  0  0  0
   54.5750   44.7530   11.1670 C   0  0  0  0  0
   54.0680   46.1370   10.7780 C   0  0  0  0  0
   52.8920   46.4350   10.9610 O   0  0  0  0  0
   55.0680   44.7690   12.6190 C   0  0  0  0  0
   55.3540   43.3860   13.2180 C   0  0  0  0  0
   55.9970   43.5320   14.5810 C   0  0  0  0  0
   54.0550   42.5990   13.3240 C   0  0  0  0  0
   54.9480   46.9790   10.2470 N   0  0  0  0  0
   54.5570   48.3270    9.8430 C   0  0  0  0  0
   53.7800   48.3460    8.5290 C   0  0  0  0  0
   52.9100   49.1920    8.3240 O   0  0  0  0  0
   55.7930   49.2240    9.6990 C   0  0  0  0  0
   56.5120   49.6560   10.9780 C   0  0  0  0  0
   57.7640   50.4440   10.6120 C   0  0  0  0  0
   55.5740   50.4950   11.8340 C   0  0  0  0  0
   54.1070   47.4170    7.6390 N   0  0  0  0  0
   53.4550   47.3300    6.3380 C   0  0  0  0  0
   52.0170   46.8430    6.4350 C   0  0  0  0  0
   51.1080   47.4580    5.8750 O   0  0  0  0  0
   54.2670   46.4100    5.4160 C   0  0  0  0  0
   53.5880   46.0210    4.1030 C   0  0  0  0  0
   52.6360   44.8400    4.2520 C   0  0  0  0  0
   52.9990   43.7980    4.8080 O   0  0  0  0  0
   51.4160   44.9950    3.7450 N   0  0  0  0  0
   51.8090   45.7430    7.1490 N   0  0  0  0  0
   50.4740   45.1740    7.2960 C   0  0  0  0  0
   49.4420   46.2150    7.7300 C   0  0  0  0  0
   48.4520   46.4120    6.9940 O   0  0  0  0  0
   50.5000   44.0150    8.2990 C   0  0  0  0  0
   49.1750   43.2740    8.3640 C   0  0  0  0  0
   48.6310   42.9430    7.2880 O   0  0  0  0  0
   48.6790   43.0180    9.4820 O   0  0  0  0  0
   49.6340   46.8240    8.8020 O   0  0  0  0  0
   66.2825   43.8716    5.5827 H   0  0  0  0  0
   66.8592   45.4284    5.7268 H   0  0  0  0  0
   67.9016   44.1857    5.3447 H   0  0  0  0  0
   67.5696   43.1599    7.4816 H   0  0  0  0  0
   69.3890   44.7440    7.2262 H   0  0  0  0  0
   68.6145   44.9257    8.8736 H   0  0  0  0  0
   67.4384   46.8898    8.0577 H   0  0  0  0  0
   68.2854   46.7273    6.4757 H   0  0  0  0  0
   69.6715   47.0720    9.1411 H   0  0  0  0  0
   69.2953   48.4157    7.9990 H   0  0  0  0  0
   70.9798   45.9863    7.3625 H   0  0  0  0  0
   71.6138   47.6183    7.7970 H   0  0  0  0  0
   71.5705   47.2691    5.4267 H   0  0  0  0  0
   69.9304   46.9764    5.4602 H   0  0  0  0  0
   70.5161   48.4840    5.8615 H   0  0  0  0  0
   67.0042   43.8644    9.8341 H   0  0  0  0  0
   65.2575   44.0736   11.3207 H   0  0  0  0  0
   64.2556   46.1912   11.4651 H   0  0  0  0  0
   64.4289   46.4639    9.6679 H   0  0  0  0  0
   66.2208   48.4758    9.4376 H   0  0  0  0  0
   69.0234   47.0877   12.3352 H   0  0  0  0  0
   64.5856   42.1132    9.8257 H   0  0  0  0  0
   62.4697   42.3360    8.0683 H   0  0  0  0  0
   61.9021   39.9078    9.0601 H   0  0  0  0  0
   63.5163   40.2033    9.9047 H   0  0  0  0  0
   64.6178   40.2909    7.8249 H   0  0  0  0  0
   63.0698   40.2016    6.9327 H   0  0  0  0  0
   62.6614   37.9730    7.9438 H   0  0  0  0  0
   64.2884   38.0634    8.7091 H   0  0  0  0  0
   65.2681   38.2996    6.4509 H   0  0  0  0  0
   63.6229   38.0114    5.7624 H   0  0  0  0  0
   64.9462   36.0182    5.8048 H   0  0  0  0  0
   65.1493   36.1411    7.4542 H   0  0  0  0  0
   63.6318   35.8753    6.8191 H   0  0  0  0  0
   62.0781   41.5293   11.5324 H   0  0  0  0  0
   59.2843   41.2624   11.3935 H   0  0  0  0  0
   60.9674   42.2175   13.7787 H   0  0  0  0  0
   61.6890   40.1012   12.6071 H   0  0  0  0  0
   60.0789   39.4035   13.1333 H   0  0  0  0  0
   58.5607   42.5500   14.1215 H   0  0  0  0  0
   58.2564   40.8505   13.6853 H   0  0  0  0  0
   59.1799   41.2403   15.1571 H   0  0  0  0  0
   62.2888   40.4063   14.9365 H   0  0  0  0  0
   60.7237   39.7281   15.4479 H   0  0  0  0  0
   61.9049   38.7004   14.5995 H   0  0  0  0  0
   61.1009   44.1808   12.4183 H   0  0  0  0  0
   58.8164   45.7467   12.9465 H   0  0  0  0  0
   61.4732   46.6474   11.8106 H   0  0  0  0  0
   61.0640   46.3839   13.5911 H   0  0  0  0  0
   60.0445   48.5461   11.7395 H   0  0  0  0  0
   58.2676   47.7120   13.2124 H   0  0  0  0  0
   59.3401   47.8979   14.6218 H   0  0  0  0  0
   58.8072   49.3335   13.7130 H   0  0  0  0  0
   61.7495   48.5915   14.2565 H   0  0  0  0  0
   62.3241   48.8916   12.5980 H   0  0  0  0  0
   61.1755   50.0191   13.3600 H   0  0  0  0  0
   60.5967   45.4561    9.8218 H   0  0  0  0  0
   58.9801   47.3413    8.4679 H   0  0  0  0  0
   59.5339   45.8199    6.4044 H   0  0  0  0  0
   60.6223   44.9853    7.6150 H   0  0  0  0  0
   60.4076   48.3187    5.5732 H   0  0  0  0  0
   64.1181   48.1988    7.6675 H   0  0  0  0  0
   58.6121   43.7953    8.7778 H   0  0  0  0  0
   56.3128   43.5367    7.1507 H   0  0  0  0  0
   55.8822   41.4720    8.6086 H   0  0  0  0  0
   57.3650   41.9767    9.5262 H   0  0  0  0  0
   58.6301   41.8591    7.4471 H   0  0  0  0  0
   57.1480   41.2212    6.6223 H   0  0  0  0  0
   57.1615   39.3157    8.1469 H   0  0  0  0  0
   58.6615   39.9356    8.8969 H   0  0  0  0  0
   58.9834   39.7312    6.0580 H   0  0  0  0  0
   59.7541   36.4445    8.2892 H   0  0  0  0  0
   58.7659   37.7411    8.9699 H   0  0  0  0  0
   60.2391   38.0777    5.1954 H   0  0  0  0  0
   56.5728   44.1533   10.6486 H   0  0  0  0  0
   53.7362   44.0643   11.0659 H   0  0  0  0  0
   54.2734   45.2144   13.2176 H   0  0  0  0  0
   56.0098   45.3176   12.6269 H   0  0  0  0  0
   56.0435   42.8467   12.5685 H   0  0  0  0  0
   56.9338   44.0805   14.4825 H   0  0  0  0  0
   55.3234   44.0767   15.2426 H   0  0  0  0  0
   56.1950   42.5436   14.9956 H   0  0  0  0  0
   53.3575   43.1363   13.9666 H   0  0  0  0  0
   53.6203   42.4824   12.3313 H   0  0  0  0  0
   54.2604   41.6168   13.7498 H   0  0  0  0  0
   55.9143   46.6785   10.1192 H   0  0  0  0  0
   53.9027   48.7045   10.6288 H   0  0  0  0  0
   55.4325   50.1456    9.2420 H   0  0  0  0  0
   56.5194   48.6320    9.1422 H   0  0  0  0  0
   56.8079   48.7780   11.5522 H   0  0  0  0  0
   58.4257   49.8158   10.0157 H   0  0  0  0  0
   57.4816   51.3256   10.0365 H   0  0  0  0  0
   58.2770   50.7522   11.5230 H   0  0  0  0  0
   55.2668   51.3788   11.2749 H   0  0  0  0  0
   54.6955   49.9044   12.0940 H   0  0  0  0  0
   56.0903   50.8005   12.7440 H   0  0  0  0  0
   54.8366   46.7436    7.8725 H   0  0  0  0  0
   53.4187   48.3367    5.9218 H   0  0  0  0  0
   54.4267   45.4834    5.9673 H   0  0  0  0  0
   55.1682   46.9607    5.1462 H   0  0  0  0  0
   54.3680   45.7319    3.3987 H   0  0  0  0  0
   53.0046   46.8772    3.7645 H   0  0  0  0  0
   50.7377   44.2358    3.8070 H   0  0  0  0  0
   51.1588   45.8731    3.2942 H   0  0  0  0  0
   52.5993   45.2863    7.6042 H   0  0  0  0  0
   50.1729   44.8052    6.3155 H   0  0  0  0  0
   48.5063   45.8383    6.2262 H   0  0  0  0  0
   50.7034   44.4288    9.2867 H   0  0  0  0  0
   51.2656   43.3087    7.9779 H   0  0  0  0  0
   49.1751   43.2345    6.5527 H   0  0  0  0  0
  1  2  1  0  0  0
  2  3  1  0  0  0
  2  5  1  0  0  0
  3  4  2  0  0  0
  3 10  1  0  0  0
  5  6  1  0  0  0
  6  7  1  0  0  0
  7  8  1  0  0  0
  8  9  1  0  0  0
 10 11  1  0  0  0
 11 12  1  0  0  0
 11 14  1  0  0  0
 12 13  2  0  0  0
 12 20  1  0  0  0
 14 15  1  0  0  0
 15 16  4  0  0  0
 15 17  4  0  0  0
 16 18  4  0  0  0
 17 19  4  0  0  0
 18 19  4  0  0  0
 20 21  1  0  0  0
 21 22  1  0  0  0
 21 24  1  0  0  0
 22 23  2  0  0  0
 22 29  1  0  0  0
 24 25  1  0  0  0
 25 26  1  0  0  0
 26 27  1  0  0  0
 27 28  1  0  0  0
 29 30  1  0  0  0
 30 31  1  0  0  0
 30 33  1  0  0  0
 31 32  2  0  0  0
 31 37  1  0  0  0
 33 34  1  0  0  0
 33 35  1  0  0  0
 34 36  1  0  0  0
 37 38  1  0  0  0
 38 39  1  0  0  0
 38 41  1  0  0  0
 39 40  2  0  0  0
 39 45  1  0  0  0
 41 42  1  0  0  0
 42 43  1  0  0  0
 42 44  1  0  0  0
 45 46  1  0  0  0
 46 47  1  0  0  0
 46 49  1  0  0  0
 47 48  2  0  0  0
 47 55  1  0  0  0
 49 50  1  0  0  0
 50 51  4  0  0  0
 50 52  4  0  0  0
 51 53  4  0  0  0
 52 54  4  0  0  0
 53 54  4  0  0  0
 55 56  1  0  0  0
 56 57  1  0  0  0
 56 59  1  0  0  0
 57 58  2  0  0  0
 57 66  1  0  0  0
 59 60  1  0  0  0
 60 61  1  0  0  0
 61 62  1  0  0  0
 62 63  1  0  0  0
 63 64  1  0  0  0
 63 65  2  0  0  0
 66 67  1  0  0  0
 67 68  1  0  0  0
 67 70  1  0  0  0
 68 69  2  0  0  0
 68 74  1  0  0  0
 70 71  1  0  0  0
 71 72  1  0  0  0
 71 73  1  0  0  0
 74 75  1  0  0  0
 75 76  1  0  0  0
 75 78  1  0  0  0
 76 77  2  0  0  0
 76 82  1  0  0  0
 78 79  1  0  0  0
 79 80  1  0  0  0
 79 81  1  0  0  0
 82 83  1  0  0  0
 83 84  1  0  0  0
 83 86  1  0  0  0
 84 85  2  0  0  0
 84 91  1  0  0  0
 86 87  1  0  0  0
 87 88  1  0  0  0
 88 89  2  0  0  0
 88 90  1  0  0  0
 91 92  1  0  0  0
 92 93  1  0  0  0
 92 95  1  0  0  0
 93 94  1  0  0  0
 93 99  2  0  0  0
 95 96  1  0  0  0
 96 97  1  0  0  0
 96 98  2  0  0  0
  1100  1  0  0  0
  1101  1  0  0  0
  1102  1  0  0  0
  2103  1  0  0  0
  5104  1  0  0  0
  5105  1  0  0  0
  6106  1  0  0  0
  6107  1  0  0  0
  7108  1  0  0  0
  7109  1  0  0  0
  8110  1  0  0  0
  8111  1  0  0  0
  9112  1  0  0  0
  9113  1  0  0  0
  9114  1  0  0  0
 10115  1  0  0  0
 11116  1  0  0  0
 14117  1  0  0  0
 14118  1  0  0  0
 17119  1  0  0  0
 18120  1  0  0  0
 20121  1  0  0  0
 21122  1  0  0  0
 24123  1  0  0  0
 24124  1  0  0  0
 25125  1  0  0  0
 25126  1  0  0  0
 26127  1  0  0  0
 26128  1  0  0  0
 27129  1  0  0  0
 27130  1  0  0  0
 28131  1  0  0  0
 28132  1  0  0  0
 28133  1  0  0  0
 29134  1  0  0  0
 30135  1  0  0  0
 33136  1  0  0  0
 34137  1  0  0  0
 34138  1  0  0  0
 35139  1  0  0  0
 35140  1  0  0  0
 35141  1  0  0  0
 36142  1  0  0  0
 36143  1  0  0  0
 36144  1  0  0  0
 37145  1  0  0  0
 38146  1  0  0  0
 41147  1  0  0  0
 41148  1  0  0  0
 42149  1  0  0  0
 43150  1  0  0  0
 43151  1  0  0  0
 43152  1  0  0  0
 44153  1  0  0  0
 44154  1  0  0  0
 44155  1  0  0  0
 45156  1  0  0  0
 46157  1  0  0  0
 49158  1  0  0  0
 49159  1  0  0  0
 52160  1  0  0  0
 53161  1  0  0  0
 55162  1  0  0  0
 56163  1  0  0  0
 59164  1  0  0  0
 59165  1  0  0  0
 60166  1  0  0  0
 60167  1  0  0  0
 61168  1  0  0  0
 61169  1  0  0  0
 62170  1  0  0  0
 64171  1  0  0  0
 64172  1  0  0  0
 65173  1  0  0  0
 66174  1  0  0  0
 67175  1  0  0  0
 70176  1  0  0  0
 70177  1  0  0  0
 71178  1  0  0  0
 72179  1  0  0  0
 72180  1  0  0  0
 72181  1  0  0  0
 73182  1  0  0  0
 73183  1  0  0  0
 73184  1  0  0  0
 74185  1  0  0  0
 75186  1  0  0  0
 78187  1  0  0  0
 78188  1  0  0  0
 79189  1  0  0  0
 80190  1  0  0  0
 80191  1  0  0  0
 80192  1  0  0  0
 81193  1  0  0  0
 81194  1  0  0  0
 81195  1  0  0  0
 82196  1  0  0  0
 83197  1  0  0  0
 86198  1  0  0  0
 86199  1  0  0  0
 87200  1  0  0  0
 87201  1  0  0  0
 90202  1  0  0  0
 90203  1  0  0  0
 91204  1  0  0  0
 92205  1  0  0  0
 94206  1  0  0  0
 95207  1  0  0  0
 95208  1  0  0  0
 97209  1  0  0  0
M  END
$$$$
