1n9a_ligand
  -I-interpret- 

 58 62  0  0  0  0  0  0  0  0999 V2000
   48.5240   51.5150   -2.6380 C   0  0  0  0  0
   48.1480   50.2160   -1.9380 C   0  0  0  0  0
   48.8390   49.9400   -0.5970 N   0  0  0  0  0
   49.6840   50.9510    0.0500 C   0  0  0  0  0
   50.2940   51.9450   -0.9140 C   0  0  0  0  0
   51.5490   52.5590   -0.4830 C   0  0  0  0  0
   52.7710   51.8790   -0.5450 C   0  0  0  0  0
   54.0280   52.5210   -0.1070 C   0  0  0  0  0
   53.9920   53.8130    0.3690 C   0  0  0  0  0
   52.7310   54.5040    0.4570 C   0  0  0  0  0
   51.4900   53.9250    0.0420 C   0  0  0  0  0
   55.2740   51.8460   -0.1900 C   0  0  0  0  0
   48.6000   48.8260    0.1630 C   0  0  0  0  0
   52.8090   50.5130   -1.0300 C   0  0  0  0  0
   55.2790   50.5170   -0.6580 C   0  0  0  0  0
   54.0530   49.8620   -1.0830 C   0  0  0  0  0
   51.2410   46.1560    0.5010 C   0  0  0  0  0
   50.7040   46.0350   -3.1260 N   0  0  0  0  0
   51.4210   45.8860   -2.0050 C   0  0  0  0  0
   50.7830   46.3160   -0.8880 N   0  0  0  0  0
   49.4550   46.8320   -1.3490 C   0  0  0  0  0
   49.4320   46.6510   -2.6940 C   0  0  0  0  0
   48.3120   47.4090   -0.5190 C   0  0  0  0  0
   51.5350   48.1280    1.9960 C   0  0  0  0  0
   52.0970   47.1960    1.1070 C   0  0  0  0  0
   53.4550   47.2100    0.8430 C   0  0  0  0  0
   54.3120   48.1580    1.4810 C   0  0  0  0  0
   53.7640   49.1200    2.3700 C   0  0  0  0  0
   52.3540   49.1100    2.6470 C   0  0  0  0  0
   54.6130   50.1100    2.9700 C   0  0  0  0  0
   55.2660   50.9510    3.4180 N   0  0  0  0  0
   49.7420   52.2080   -2.1700 C   0  0  0  0  0
   48.5630   48.8690    1.4030 O   0  0  0  0  0
   50.3290   53.1240   -3.1160 C   0  0  0  0  0
   50.7780   53.9700   -3.7570 N   0  0  0  0  0
   47.7006   52.2030   -2.4461 H   0  0  0  0  0
   48.7179   51.2456   -3.6762 H   0  0  0  0  0
   48.4535   49.4118   -2.6073 H   0  0  0  0  0
   47.0822   50.2865   -1.7207 H   0  0  0  0  0
   50.5050   50.4249    0.5371 H   0  0  0  0  0
   49.0510   51.5118    0.7378 H   0  0  0  0  0
   54.9120   54.3096    0.6772 H   0  0  0  0  0
   52.7218   55.5170    0.8592 H   0  0  0  0  0
   50.5499   54.4720    0.1129 H   0  0  0  0  0
   56.2005   52.3417    0.1000 H   0  0  0  0  0
   51.8974   50.0051   -1.3449 H   0  0  0  0  0
   56.2205   49.9695   -0.7022 H   0  0  0  0  0
   54.1000   48.8378   -1.4529 H   0  0  0  0  0
   51.8613   45.2598    0.4870 H   0  0  0  0  0
   50.3283   46.1662    1.0968 H   0  0  0  0  0
   52.4238   45.4590   -1.9914 H   0  0  0  0  0
   48.6052   46.9181   -3.3521 H   0  0  0  0  0
   47.4774   47.5591   -1.2039 H   0  0  0  0  0
   48.1337   46.7049    0.2938 H   0  0  0  0  0
   50.4633   48.1046    2.1935 H   0  0  0  0  0
   53.8753   46.4901    0.1408 H   0  0  0  0  0
   55.3843   48.1430    1.2858 H   0  0  0  0  0
   51.9164   49.8322    3.3362 H   0  0  0  0  0
  2  1  1  0  0  0
  1 32  1  0  0  0
  3  2  1  0  0  0
  3  4  1  0  0  0
 13  3  1  0  0  0
  4  5  1  0  0  0
  5  6  1  0  0  0
  5 32  2  0  0  0
  6  7  4  0  0  0
  6 11  4  0  0  0
  7  8  4  0  0  0
  7 14  4  0  0  0
  8  9  4  0  0  0
  8 12  4  0  0  0
 10  9  4  0  0  0
 11 10  4  0  0  0
 12 15  4  0  0  0
 23 13  1  0  0  0
 13 33  2  0  0  0
 14 16  4  0  0  0
 16 15  4  0  0  0
 20 17  1  0  0  0
 17 25  1  0  0  0
 18 19  4  0  0  0
 22 18  4  0  0  0
 20 19  4  0  0  0
 21 20  4  0  0  0
 21 22  4  0  0  0
 21 23  1  0  0  0
 25 24  4  0  0  0
 24 29  4  0  0  0
 25 26  4  0  0  0
 26 27  4  0  0  0
 27 28  4  0  0  0
 28 29  4  0  0  0
 28 30  1  0  0  0
 30 31  3  0  0  0
 32 34  1  0  0  0
 34 35  3  0  0  0
  1 36  1  0  0  0
  1 37  1  0  0  0
  2 38  1  0  0  0
  2 39  1  0  0  0
  4 40  1  0  0  0
  4 41  1  0  0  0
  9 42  1  0  0  0
 10 43  1  0  0  0
 11 44  1  0  0  0
 12 45  1  0  0  0
 14 46  1  0  0  0
 15 47  1  0  0  0
 16 48  1  0  0  0
 17 49  1  0  0  0
 17 50  1  0  0  0
 19 51  1  0  0  0
 22 52  1  0  0  0
 23 53  1  0  0  0
 23 54  1  0  0  0
 24 55  1  0  0  0
 26 56  1  0  0  0
 27 57  1  0  0  0
 29 58  1  0  0  0
M  END
$$$$
