4mdn_ligand
  -I-interpret- 

 64 69  0  0  0  0  0  0  0  0999 V2000
  -13.1880   -6.2280    1.8050 O   0  0  0  0  0
  -14.1100   -6.0900    2.6450 C   0  0  0  0  0
  -14.2200   -6.8240    3.6440 O   0  0  0  0  0
  -15.0950   -5.0130    2.3690 C   0  0  0  0  0
  -14.9960   -4.1770    1.3290 N   0  0  0  0  0
  -16.0330   -3.3190    1.3500 C   0  0  0  0  0
  -16.3620   -2.2970    0.4990 C   0  0  0  0  0
  -17.4970   -1.5640    0.7400 C   0  0  0  0  0
  -17.8630   -0.2830   -0.4230 Cl  0  0  0  0  0
  -18.3130   -1.8200    1.8370 C   0  0  0  0  0
  -17.9770   -2.8500    2.7070 C   0  0  0  0  0
  -16.8360   -3.5940    2.4470 C   0  0  0  0  0
  -16.2250   -4.6420    3.1080 C   0  0  0  0  0
  -16.9830   -5.1890    4.2730 C   0  0  0  0  0
  -17.2880   -4.3250    5.4830 C   0  0  0  0  0
  -16.3530   -3.4710    5.9300 N   0  0  0  0  0
  -16.5340   -2.5430    7.0520 C   0  0  0  0  0
  -17.7190   -1.6160    6.8130 C   0  0  0  0  0
  -15.3260   -1.6260    7.1190 C   0  0  0  0  0
  -16.7190   -3.2360    8.3990 C   0  0  0  0  0
  -18.3970   -4.4160    5.9590 O   0  0  0  0  0
  -16.8790   -6.6630    4.2830 N   0  0  0  0  0
  -18.0330   -7.4270    4.3640 C   0  0  0  0  0
  -18.4310   -8.5570    4.4220 O   0  0  0  0  0
  -18.2140   -6.0670    3.8220 C   0  0  0  0  0
  -18.5580   -6.2190    2.3090 C   0  0  0  0  0
  -17.6600   -6.7370    1.3750 C   0  0  0  0  0
  -17.9620   -6.8750    0.0110 C   0  0  0  0  0
  -19.8160   -5.8910    1.7720 C   0  0  0  0  0
  -20.1340   -6.0200    0.3950 C   0  0  0  0  0
  -19.1950   -6.5120   -0.5250 C   0  0  0  0  0
  -19.3820   -6.7240   -1.9000 O   0  0  0  0  0
  -20.5000   -6.3390   -2.7440 C   0  0  0  0  0
  -20.0780   -6.6080   -4.1800 C   0  0  0  0  0
  -19.9180   -7.9220   -4.6250 C   0  0  0  0  0
  -19.8310   -5.5550   -5.0530 C   0  0  0  0  0
  -19.4170   -5.8030   -6.3570 C   0  0  0  0  0
  -19.2500   -7.1220   -6.7800 C   0  0  0  0  0
  -18.7030   -7.4320   -8.4520 Cl  0  0  0  0  0
  -19.4990   -8.1910   -5.9250 C   0  0  0  0  0
  -13.2828   -5.5664    1.1159 H   0  0  0  0  0
  -15.7299   -2.0688   -0.3592 H   0  0  0  0  0
  -19.2057   -1.2196    2.0121 H   0  0  0  0  0
  -18.5975   -3.0687    3.5760 H   0  0  0  0  0
  -15.4506   -3.4672    5.4546 H   0  0  0  0  0
  -17.5484   -1.0369    5.9055 H   0  0  0  0  0
  -18.6263   -2.2096    6.7015 H   0  0  0  0  0
  -17.8272   -0.9405    7.6616 H   0  0  0  0  0
  -14.4265   -2.2227    7.2706 H   0  0  0  0  0
  -15.2415   -1.0697    6.1855 H   0  0  0  0  0
  -15.4457   -0.9296    7.9489 H   0  0  0  0  0
  -17.6019   -3.8741    8.3597 H   0  0  0  0  0
  -15.8402   -3.8426    8.6178 H   0  0  0  0  0
  -16.8466   -2.4846    9.1782 H   0  0  0  0  0
  -16.6752   -7.0500    1.7217 H   0  0  0  0  0
  -17.2013   -7.2824   -0.6549 H   0  0  0  0  0
  -20.5858   -5.5188    2.4480 H   0  0  0  0  0
  -21.1254   -5.7318    0.0455 H   0  0  0  0  0
  -20.7482   -5.2870   -2.6032 H   0  0  0  0  0
  -21.3932   -6.9093   -2.4888 H   0  0  0  0  0
  -20.1241   -8.7485   -3.9449 H   0  0  0  0  0
  -19.9627   -4.5278   -4.7130 H   0  0  0  0  0
  -19.2251   -4.9763   -7.0410 H   0  0  0  0  0
  -19.3687   -9.2180   -6.2661 H   0  0  0  0  0
  1  2  1  0  0  0
  2  3  2  0  0  0
  2  4  1  0  0  0
  4  5  4  0  0  0
  4 13  4  0  0  0
  5  6  4  0  0  0
  6  7  4  0  0  0
  6 12  4  0  0  0
  7  8  4  0  0  0
  8  9  1  0  0  0
  8 10  4  0  0  0
 10 11  4  0  0  0
 11 12  4  0  0  0
 12 13  4  0  0  0
 13 14  1  0  0  0
 14 15  1  0  0  0
 14 22  1  0  0  0
 14 25  1  0  0  0
 15 16  1  0  0  0
 15 21  2  0  0  0
 16 17  1  0  0  0
 17 18  1  0  0  0
 17 19  1  0  0  0
 17 20  1  0  0  0
 22 23  1  0  0  0
 22 25  1  0  0  0
 23 24  2  0  0  0
 23 25  1  0  0  0
 25 26  1  0  0  0
 26 27  4  0  0  0
 26 29  4  0  0  0
 27 28  4  0  0  0
 28 31  4  0  0  0
 29 30  4  0  0  0
 30 31  4  0  0  0
 31 32  1  0  0  0
 32 33  1  0  0  0
 33 34  1  0  0  0
 34 35  4  0  0  0
 34 36  4  0  0  0
 35 40  4  0  0  0
 36 37  4  0  0  0
 37 38  4  0  0  0
 38 39  1  0  0  0
 38 40  4  0  0  0
  1 41  1  0  0  0
  7 42  1  0  0  0
 10 43  1  0  0  0
 11 44  1  0  0  0
 16 45  1  0  0  0
 18 46  1  0  0  0
 18 47  1  0  0  0
 18 48  1  0  0  0
 19 49  1  0  0  0
 19 50  1  0  0  0
 19 51  1  0  0  0
 20 52  1  0  0  0
 20 53  1  0  0  0
 20 54  1  0  0  0
 27 55  1  0  0  0
 28 56  1  0  0  0
 29 57  1  0  0  0
 30 58  1  0  0  0
 33 59  1  0  0  0
 33 60  1  0  0  0
 35 61  1  0  0  0
 36 62  1  0  0  0
 37 63  1  0  0  0
 40 64  1  0  0  0
M  END
$$$$
