4ztn_ligand
  -I-interpret- 

 54 58  0  0  0  0  0  0  0  0999 V2000
   29.6130    7.9170   -6.5220 C   0  0  0  0  0
   28.8570    7.4810   -5.4810 N   0  0  0  0  0
   28.6570    6.1740   -5.2590 C   0  0  0  0  0
   29.2200    5.2430   -6.0920 N   0  0  0  0  0
   30.0090    5.5390   -7.1930 C   0  0  0  0  0
   30.2260    6.9480   -7.4350 C   0  0  0  0  0
   29.7890    9.2690   -6.6720 N   0  0  0  0  0
   27.8500    5.7790   -4.1380 N   0  0  0  0  0
   30.4660    4.6150   -7.8720 O   0  0  0  0  0
   31.0470    7.3790   -8.5690 C   0  0  0  0  0
   29.0690   10.3990   -6.0870 C   0  0  0  0  0
   29.0880   10.3430   -4.5140 C   0  0  0  0  0
   28.5500   11.5590   -3.9090 N   0  3  0  0  0
   28.9970   12.8600   -4.4260 C   0  0  0  0  0
   29.0690   12.9210   -5.9260 C   0  0  0  0  0
   29.7450   11.6960   -6.5300 C   0  0  0  0  0
   26.6650    6.5880   -3.8020 C   0  0  0  0  0
   26.2100    6.2980   -2.3920 C   0  0  0  0  0
   25.9830    4.9060   -2.1860 O   0  0  0  0  0
   27.1870    4.1860   -2.4070 C   0  0  0  0  0
   27.6740    4.3510   -3.8210 C   0  0  0  0  0
   32.0930    6.3400   -9.5140 S   0  0  0  0  0
   32.5510    7.7240  -10.4640 C   0  0  0  0  0
   31.8580    8.8510  -10.0140 C   0  0  0  0  0
   31.0180    8.6280   -8.9290 N   0  0  0  0  0
   33.4550    7.8130  -11.5170 C   0  0  0  0  0
   33.6570    9.0440  -12.1290 C   0  0  0  0  0
   32.9770   10.1680  -11.6890 C   0  0  0  0  0
   32.0880   10.0850  -10.6260 C   0  0  0  0  0
   30.5520    7.7422   -8.1066 H   0  0  0  0  0
   30.5512    9.5302   -7.2975 H   0  0  0  0  0
   28.0337   10.3550   -6.4252 H   0  0  0  0  0
   30.1238   10.2350   -4.1921 H   0  0  0  0  0
   28.4668    9.5049   -4.1981 H   0  0  0  0  0
   28.8661   11.5356   -2.9395 H   0  0  0  0  0
   27.5480   11.5284   -4.0972 H   0  0  0  0  0
   30.0028   13.0347   -4.0439 H   0  0  0  0  0
   28.2706   13.6060   -4.1038 H   0  0  0  0  0
   29.6571   13.7974   -6.1984 H   0  0  0  0  0
   28.0496   12.9650   -6.3094 H   0  0  0  0  0
   29.6744   11.7659   -7.6155 H   0  0  0  0  0
   30.7812   11.6750   -6.1925 H   0  0  0  0  0
   25.8590    6.3397   -4.4925 H   0  0  0  0  0
   26.9230    7.6441   -3.8809 H   0  0  0  0  0
   25.2734    6.8277   -2.2180 H   0  0  0  0  0
   26.9917    6.6234   -1.7055 H   0  0  0  0  0
   26.9953    3.1280   -2.2283 H   0  0  0  0  0
   27.9500    4.5719   -1.7310 H   0  0  0  0  0
   28.6317    3.8419   -3.9292 H   0  0  0  0  0
   26.9389    3.9232   -4.5027 H   0  0  0  0  0
   33.9969    6.9305  -11.8571 H   0  0  0  0  0
   34.3557    9.1260  -12.9616 H   0  0  0  0  0
   33.1415   11.1262  -12.1819 H   0  0  0  0  0
   31.5727   10.9775  -10.2712 H   0  0  0  0  0
  1  2  2  0  0  0
  1  6  1  0  0  0
  1  7  1  0  0  0
  2  3  4  0  0  0
  3  4  4  0  0  0
  3  8  1  0  0  0
  4  5  1  0  0  0
  5  6  1  0  0  0
  5  9  2  0  0  0
  6 10  1  0  0  0
  7 11  1  0  0  0
  8 17  1  0  0  0
  8 21  1  0  0  0
 10 22  4  0  0  0
 10 25  4  0  0  0
 11 12  1  0  0  0
 11 16  1  0  0  0
 12 13  1  0  0  0
 13 14  1  0  0  0
 14 15  1  0  0  0
 15 16  1  0  0  0
 17 18  1  0  0  0
 18 19  1  0  0  0
 19 20  1  0  0  0
 20 21  1  0  0  0
 22 23  4  0  0  0
 23 24  4  0  0  0
 23 26  4  0  0  0
 24 25  4  0  0  0
 24 29  4  0  0  0
 26 27  4  0  0  0
 27 28  4  0  0  0
 28 29  4  0  0  0
  6 30  1  0  0  0
  7 31  1  0  0  0
 11 32  1  0  0  0
 12 33  1  0  0  0
 12 34  1  0  0  0
 13 35  1  0  0  0
 13 36  1  0  0  0
 14 37  1  0  0  0
 14 38  1  0  0  0
 15 39  1  0  0  0
 15 40  1  0  0  0
 16 41  1  0  0  0
 16 42  1  0  0  0
 17 43  1  0  0  0
 17 44  1  0  0  0
 18 45  1  0  0  0
 18 46  1  0  0  0
 20 47  1  0  0  0
 20 48  1  0  0  0
 21 49  1  0  0  0
 21 50  1  0  0  0
 26 51  1  0  0  0
 27 52  1  0  0  0
 28 53  1  0  0  0
 29 54  1  0  0  0
M  END
$$$$
