5v88_ligand
  -I-interpret- 

 75 77  0  0  0  0  0  0  0  0999 V2000
    3.4210   10.1830   -3.6050 F   0  0  0  0  0
    2.2620   10.7220   -3.1580 C   0  0  0  0  0
    2.1280   12.0070   -3.6040 F   0  0  0  0  0
    2.3240   10.8200   -1.8800 F   0  0  0  0  0
    1.0760    9.9650   -3.6640 C   0  0  0  0  0
    0.9250    9.8340   -5.0040 C   0  0  0  0  0
    0.1020    9.4290   -2.7810 C   0  0  0  0  0
   -0.9810    8.7760   -3.2780 C   0  0  0  0  0
   -1.1420    8.6330   -4.6740 C   0  0  0  0  0
   -0.2040    9.1170   -5.5100 C   0  0  0  0  0
   -0.4320    8.9900   -6.9420 N   0  0  0  0  0
    0.6070    8.7140   -7.8540 C   0  0  0  0  0
    1.7220    8.4470   -7.4970 O   0  0  0  0  0
    0.2380    8.7260   -9.2600 N   0  0  0  0  0
    1.3240    8.2800  -10.2920 C   0  0  0  0  0
    1.5100    9.1010  -11.3760 C   0  0  0  0  0
    2.5330    8.3860  -12.2710 C   0  0  0  0  0
    0.8500    6.9450  -10.6730 C   0  0  0  0  0
    1.5740    6.2960  -11.8360 C   0  0  0  0  0
    1.9620    7.2170  -12.8340 N   0  3  0  0  0
    2.8000    6.7390  -13.7270 C   0  0  0  0  0
    2.1480    5.7450  -14.7540 C   0  0  0  0  0
    4.0190    6.0840  -12.9940 C   0  0  0  0  0
    5.1290    5.5410  -13.9660 C   0  0  0  0  0
    5.4800    4.1360  -13.5510 C   0  0  0  0  0
   -1.1080    9.0970   -9.6030 C   0  0  0  0  0
   -1.1370   10.6390  -10.0640 C   0  0  0  0  0
   -0.0350   11.4290   -9.9830 C   0  0  0  0  0
   -0.0890   12.7920  -10.4210 C   0  0  0  0  0
   -1.2190   13.3120  -10.8920 C   0  0  0  0  0
   -2.3730   12.5100  -10.9620 C   0  0  0  0  0
   -2.3050   11.1900  -10.5670 C   0  0  0  0  0
   -3.4790   10.3170  -10.5910 N   0  0  0  0  0
   -3.6530    9.3680  -11.6340 C   0  0  0  0  0
   -2.8160    9.3110  -12.5480 O   0  0  0  0  0
   -4.7730    8.4640  -11.5270 C   0  0  0  0  0
   -4.3740    7.1870  -10.9400 C   0  0  0  0  0
    1.6543   10.2693   -5.6872 H   0  0  0  0  0
    0.2231    9.5414   -1.7036 H   0  0  0  0  0
   -1.7263    8.3621   -2.5988 H   0  0  0  0  0
   -2.0237    8.1319   -5.0736 H   0  0  0  0  0
   -1.3803    9.1052   -7.2995 H   0  0  0  0  0
    2.3209    8.3100   -9.8522 H   0  0  0  0  0
    1.8679   10.0846  -11.0719 H   0  0  0  0  0
    0.5738    9.2768  -11.9058 H   0  0  0  0  0
    3.3976    8.1055  -11.6694 H   0  0  0  0  0
    2.8335    9.0579  -13.0749 H   0  0  0  0  0
   -0.1880    7.0636  -10.9837 H   0  0  0  0  0
    1.0153    6.3011   -9.8091 H   0  0  0  0  0
    0.8896    5.5818  -12.2939 H   0  0  0  0  0
    2.4795    5.8328  -11.4442 H   0  0  0  0  0
    1.0905    7.4345  -13.3172 H   0  0  0  0  0
    3.1358    7.5813  -14.3319 H   0  0  0  0  0
    1.7302    4.8929  -14.2179 H   0  0  0  0  0
    1.3552    6.2567  -15.2998 H   0  0  0  0  0
    2.9077    5.3982  -15.4545 H   0  0  0  0  0
    3.6387    5.2334  -12.4284 H   0  0  0  0  0
    4.4783    6.8551  -12.3755 H   0  0  0  0  0
    6.0130    6.1766  -13.9143 H   0  0  0  0  0
    4.7606    5.5455  -14.9919 H   0  0  0  0  0
    5.8522    4.1434  -12.5265 H   0  0  0  0  0
    4.5912    3.5079  -13.6115 H   0  0  0  0  0
    6.2496    3.7437  -14.2157 H   0  0  0  0  0
   -1.7543    8.9644   -8.7353 H   0  0  0  0  0
   -1.4625    8.4667  -10.4185 H   0  0  0  0  0
    0.8946   11.0241   -9.5830 H   0  0  0  0  0
    0.8070   13.4105  -10.3676 H   0  0  0  0  0
   -1.2508   14.3507  -11.2210 H   0  0  0  0  0
   -3.3120   12.9278  -11.3250 H   0  0  0  0  0
   -4.1787   10.3904   -9.8524 H   0  0  0  0  0
   -5.1640    8.2778  -12.5273 H   0  0  0  0  0
   -5.5255    8.9202  -10.8839 H   0  0  0  0  0
   -3.6128    6.7225  -11.5668 H   0  0  0  0  0
   -3.9702    7.3577   -9.9420 H   0  0  0  0  0
   -5.2424    6.5314  -10.8748 H   0  0  0  0  0
  1  2  1  0  0  0
  2  3  1  0  0  0
  2  4  1  0  0  0
  2  5  1  0  0  0
  5  6  4  0  0  0
  5  7  4  0  0  0
  6 10  4  0  0  0
  7  8  4  0  0  0
  8  9  4  0  0  0
  9 10  4  0  0  0
 10 11  1  0  0  0
 11 12  1  0  0  0
 12 13  2  0  0  0
 12 14  1  0  0  0
 14 15  1  0  0  0
 14 26  1  0  0  0
 15 16  1  0  0  0
 15 18  1  0  0  0
 16 17  1  0  0  0
 17 20  1  0  0  0
 18 19  1  0  0  0
 19 20  1  0  0  0
 20 21  1  0  0  0
 21 22  1  0  0  0
 21 23  1  0  0  0
 23 24  1  0  0  0
 24 25  1  0  0  0
 26 27  1  0  0  0
 27 28  4  0  0  0
 27 32  4  0  0  0
 28 29  4  0  0  0
 29 30  4  0  0  0
 30 31  4  0  0  0
 31 32  4  0  0  0
 32 33  1  0  0  0
 33 34  1  0  0  0
 34 35  2  0  0  0
 34 36  1  0  0  0
 36 37  1  0  0  0
  6 38  1  0  0  0
  7 39  1  0  0  0
  8 40  1  0  0  0
  9 41  1  0  0  0
 11 42  1  0  0  0
 15 43  1  0  0  0
 16 44  1  0  0  0
 16 45  1  0  0  0
 17 46  1  0  0  0
 17 47  1  0  0  0
 18 48  1  0  0  0
 18 49  1  0  0  0
 19 50  1  0  0  0
 19 51  1  0  0  0
 20 52  1  0  0  0
 21 53  1  0  0  0
 22 54  1  0  0  0
 22 55  1  0  0  0
 22 56  1  0  0  0
 23 57  1  0  0  0
 23 58  1  0  0  0
 24 59  1  0  0  0
 24 60  1  0  0  0
 25 61  1  0  0  0
 25 62  1  0  0  0
 25 63  1  0  0  0
 26 64  1  0  0  0
 26 65  1  0  0  0
 28 66  1  0  0  0
 29 67  1  0  0  0
 30 68  1  0  0  0
 31 69  1  0  0  0
 33 70  1  0  0  0
 36 71  1  0  0  0
 36 72  1  0  0  0
 37 73  1  0  0  0
 37 74  1  0  0  0
 37 75  1  0  0  0
M  END
$$$$
