3wk8_ligand
  -I-interpret- 

 19 20  0  0  0  0  0  0  0  0999 V2000
  -17.3380  -12.3710   70.8450 C   0  0  0  0  0
  -16.8620  -11.4770   71.7690 C   0  0  0  0  0
  -17.2270  -10.7550   69.0340 C   0  0  0  0  0
  -17.5220  -12.0150   69.5330 C   0  0  0  0  0
  -16.5570  -10.2060   71.2950 C   0  0  0  0  0
  -16.7340   -9.8560   69.9590 C   0  0  0  0  0
  -15.8350   -8.0690   71.4020 C   0  0  0  0  0
  -18.0770  -13.0430   68.6200 C   0  0  0  0  0
  -16.0530   -9.1940   72.0640 N   0  0  0  0  0
  -15.3490   -6.9170   71.8940 N   0  0  0  0  0
  -17.4910  -14.2410   68.7310 F   0  0  0  0  0
  -19.3960  -13.2510   68.8750 F   0  0  0  0  0
  -18.0500  -12.6560   67.3170 F   0  0  0  0  0
  -16.2440   -8.2050   69.7420 S   0  0  0  0  0
  -17.5755  -13.3872   71.1598 H   0  0  0  0  0
  -16.7300  -11.7475   72.8166 H   0  0  0  0  0
  -17.3739  -10.4930   67.9862 H   0  0  0  0  0
  -15.1044   -6.8472   72.8818 H   0  0  0  0  0
  -15.2247   -6.1123   71.2797 H   0  0  0  0  0
  1  2  4  0  0  0
  1  4  4  0  0  0
  2  5  4  0  0  0
  4  3  4  0  0  0
  3  6  4  0  0  0
  4  8  1  0  0  0
  5  6  4  0  0  0
  5  9  4  0  0  0
  6 14  4  0  0  0
  9  7  4  0  0  0
  7 10  1  0  0  0
  7 14  4  0  0  0
  8 11  1  0  0  0
  8 12  1  0  0  0
  8 13  1  0  0  0
  1 15  1  0  0  0
  2 16  1  0  0  0
  3 17  1  0  0  0
 10 18  1  0  0  0
 10 19  1  0  0  0
M  END
$$$$
