6oxy_ligand
  -I-interpret- 

 81 84  0  0  0  0  0  0  0  0999 V2000
   73.3730   54.6920   15.8490 C   0  0  0  0  0
   70.1880   56.5740   14.3960 C   0  0  0  0  0
   72.6050   58.7120   17.8880 C   0  0  0  0  0
   75.5720   60.0080   18.8910 C   0  0  0  0  0
   74.0410   60.6930   20.4280 C   0  0  0  0  0
   72.4660   60.8480   20.4660 C   0  0  0  0  0
   67.1370   51.4410   13.3800 C   0  0  0  0  0
   66.7880   52.9120   13.2000 C   0  0  0  0  0
   67.4690   53.9520   14.0630 C   0  0  0  0  0
   68.4820   53.4710   15.0880 C   0  0  0  0  0
   68.8430   52.0110   15.2580 C   0  0  0  0  0
   68.1620   50.9770   14.3920 C   0  0  0  0  0
   71.3560   54.3540   14.3740 C   0  0  0  0  0
   72.8340   54.7320   14.4190 C   0  0  0  0  0
   73.6210   53.7480   13.5490 C   0  0  0  0  0
   71.0520   57.7130   14.9400 C   0  0  0  0  0
   70.6730   58.0620   16.3750 C   0  0  0  0  0
   74.4710   59.6320   19.2750 C   0  0  0  0  0
   74.5000   61.8030   20.0760 C   0  0  0  0  0
   72.1910   61.9740   19.4930 C   0  0  0  0  0
   69.3020   58.7340   16.4360 C   0  0  0  0  0
   69.0500   59.1420   17.8830 C   0  0  0  0  0
   68.6630   58.0980   18.9240 C   0  0  0  0  0
   68.4350   58.5300   20.3670 C   0  0  0  0  0
   68.5870   59.9920   20.7610 C   0  0  0  0  0
   68.9790   61.0270   19.7220 C   0  0  0  0  0
   69.2130   60.6000   18.2810 C   0  0  0  0  0
   66.4670   50.4100   12.4940 C   0  0  0  0  0
   65.0120   50.2290   12.8700 C   0  0  0  0  0
   70.5280   55.3300   15.0720 N   0  0  0  0  0
   71.6330   59.0240   16.8700 N   0  0  0  0  0
   69.9910   53.9710   17.2160 O   0  0  0  0  0
   68.4510   55.6690   16.6590 O   0  0  0  0  0
   70.8850   58.8500   14.1480 O   0  0  0  0  0
   72.6380   57.6600   18.4600 O   0  0  0  0  0
   73.5150   59.7430   18.1310 O   0  0  0  0  0
   75.4860   61.5330   18.9670 O   0  0  0  0  0
   73.2530   62.7090   19.4970 O   0  0  0  0  0
   66.5530   50.9010   11.1860 O   0  0  0  0  0
   64.4950   49.1720   12.1010 O   0  0  0  0  0
   69.3470   54.6620   16.1060 S   0  0  0  0  0
   72.8149   55.3962   16.4661 H   0  0  0  0  0
   73.2591   53.6852   16.2508 H   0  0  0  0  0
   74.4279   54.9662   15.8461 H   0  0  0  0  0
   70.3688   56.4639   13.3267 H   0  0  0  0  0
   69.1370   56.8037   14.5716 H   0  0  0  0  0
   75.8026   59.6557   17.8856 H   0  0  0  0  0
   76.3822   59.6079   19.5006 H   0  0  0  0  0
   74.4063   60.3597   21.3994 H   0  0  0  0  0
   72.0942   61.0646   21.4675 H   0  0  0  0  0
   71.9514   59.9271   20.1915 H   0  0  0  0  0
   66.0525   53.2141   12.4544 H   0  0  0  0  0
   67.2401   55.0120   13.9528 H   0  0  0  0  0
   69.5856   51.7090   15.9966 H   0  0  0  0  0
   68.4039   49.9191   14.4940 H   0  0  0  0  0
   71.2337   53.3876   14.8632 H   0  0  0  0  0
   71.0418   54.3207   13.3308 H   0  0  0  0  0
   72.9470   55.7492   14.0441 H   0  0  0  0  0
   73.4856   52.7369   13.9329 H   0  0  0  0  0
   73.2566   53.8003   12.5230 H   0  0  0  0  0
   74.6790   54.0088   13.5739 H   0  0  0  0  0
   72.0899   57.3805   14.9199 H   0  0  0  0  0
   70.6572   57.1433   16.9613 H   0  0  0  0  0
   74.4764   58.6054   19.6413 H   0  0  0  0  0
   74.9810   62.3302   20.8999 H   0  0  0  0  0
   71.3112   62.5464   19.7870 H   0  0  0  0  0
   71.9764   61.5923   18.4948 H   0  0  0  0  0
   68.5273   58.0471   16.0951 H   0  0  0  0  0
   69.2789   59.6085   15.7857 H   0  0  0  0  0
   68.5504   57.0521   18.6386 H   0  0  0  0  0
   68.1623   57.7899   21.1193 H   0  0  0  0  0
   68.4138   60.2971   21.7930 H   0  0  0  0  0
   69.0924   62.0728   20.0077 H   0  0  0  0  0
   69.4978   61.3401   17.5331 H   0  0  0  0  0
   66.9538   49.4407   12.6019 H   0  0  0  0  0
   64.4550   51.1454   12.6748 H   0  0  0  0  0
   64.9222   50.0019   13.9323 H   0  0  0  0  0
   71.6218   59.9668   16.4808 H   0  0  0  0  0
   71.1206   58.6439   13.2405 H   0  0  0  0  0
   66.1393   50.2783   10.5838 H   0  0  0  0  0
   63.5706   49.0385   12.3231 H   0  0  0  0  0
 14  1  1  0  0  0
  2 16  1  0  0  0
 30  2  1  0  0  0
 31  3  1  0  0  0
  3 35  2  0  0  0
  3 36  1  0  0  0
 18  4  1  0  0  0
  4 37  1  0  0  0
  5  6  1  0  0  0
 18  5  1  0  0  0
  5 19  1  0  0  0
  6 20  1  0  0  0
  8  7  4  0  0  0
 12  7  4  0  0  0
  7 28  1  0  0  0
  9  8  4  0  0  0
 10  9  4  0  0  0
 10 11  4  0  0  0
 41 10  1  0  0  0
 11 12  4  0  0  0
 13 14  1  0  0  0
 30 13  1  0  0  0
 14 15  1  0  0  0
 16 17  1  0  0  0
 16 34  1  0  0  0
 17 21  1  0  0  0
 17 31  1  0  0  0
 36 18  1  0  0  0
 19 37  1  0  0  0
 19 38  1  0  0  0
 38 20  1  0  0  0
 21 22  1  0  0  0
 22 23  4  0  0  0
 22 27  4  0  0  0
 23 24  4  0  0  0
 24 25  4  0  0  0
 26 25  4  0  0  0
 27 26  4  0  0  0
 28 29  1  0  0  0
 28 39  1  0  0  0
 29 40  1  0  0  0
 30 41  1  0  0  0
 41 32  2  0  0  0
 41 33  2  0  0  0
  1 42  1  0  0  0
  1 43  1  0  0  0
  1 44  1  0  0  0
  2 45  1  0  0  0
  2 46  1  0  0  0
  4 47  1  0  0  0
  4 48  1  0  0  0
  5 49  1  0  0  0
  6 50  1  0  0  0
  6 51  1  0  0  0
  8 52  1  0  0  0
  9 53  1  0  0  0
 11 54  1  0  0  0
 12 55  1  0  0  0
 13 56  1  0  0  0
 13 57  1  0  0  0
 14 58  1  0  0  0
 15 59  1  0  0  0
 15 60  1  0  0  0
 15 61  1  0  0  0
 16 62  1  0  0  0
 17 63  1  0  0  0
 18 64  1  0  0  0
 19 65  1  0  0  0
 20 66  1  0  0  0
 20 67  1  0  0  0
 21 68  1  0  0  0
 21 69  1  0  0  0
 23 70  1  0  0  0
 24 71  1  0  0  0
 25 72  1  0  0  0
 26 73  1  0  0  0
 27 74  1  0  0  0
 28 75  1  0  0  0
 29 76  1  0  0  0
 29 77  1  0  0  0
 31 78  1  0  0  0
 34 79  1  0  0  0
 39 80  1  0  0  0
 40 81  1  0  0  0
M  END
$$$$
