4b9w_ligand
  -I-interpret- 

137137  0  0  0  0  0  0  0  0999 V2000
   32.6690   21.8530   43.5440 N   0  3  0  0  0
   33.9450   22.2290   42.8360 C   0  0  0  0  0
   33.6790   22.7030   41.3870 C   0  0  0  0  0
   34.3110   23.6490   40.9050 O   0  0  0  0  0
   34.9340   21.0640   42.8670 C   0  0  0  0  0
   32.7560   22.0180   40.7040 N   0  0  0  0  0
   32.1090   22.5140   39.4790 C   0  0  0  0  0
   30.8020   23.1690   39.9080 C   0  0  0  0  0
   30.8270   24.1800   40.6090 O   0  0  0  0  0
   29.6560   22.5990   39.5160 N   0  0  0  0  0
   28.3500   23.0790   40.0290 C   0  0  0  0  0
   27.2460   23.0680   38.9680 C   0  0  0  0  0
   27.3310   24.3700   38.1700 C   0  0  0  0  0
   26.5940   24.3110   36.8460 C   0  0  0  0  0
   26.9580   25.4450   35.9990 N   0  0  0  0  0
   27.5750   25.3530   34.8210 C   0  0  0  0  0
   27.8570   26.4840   34.1440 N   0  0  0  0  0
   27.5140   27.8240   34.6090 C   0  0  0  0  0
   27.9200   24.2140   34.3380 N   0  0  0  0  0
   28.6110   23.9020   33.0730 C   0  0  0  0  0
   27.9720   22.1800   41.1590 C   0  0  0  0  0
   27.1730   21.2700   40.9910 O   0  0  0  0  0
   28.5640   22.4220   42.3180 N   0  0  0  0  0
   28.3610   21.5580   43.4700 C   0  0  0  0  0
   27.1330   21.9970   44.2240 C   0  0  0  0  0
   26.7730   23.1700   44.2210 O   0  0  0  0  0
   26.5040   21.0570   44.9050 N   0  0  0  0  0
   25.3400   21.3650   45.7190 C   0  0  0  0  0
   25.7320   22.4280   46.7660 C   0  0  0  0  0
   26.8330   22.3980   47.3170 O   0  0  0  0  0
   24.8270   20.0800   46.3440 C   0  0  0  0  0
   23.6950   20.0400   47.3690 C   0  0  0  0  0
   23.1120   18.6310   47.4560 C   0  0  0  0  0
   24.1970   20.4940   48.7220 C   0  0  0  0  0
   24.8510   23.3990   46.9830 N   0  0  0  0  0
   25.0210   24.4020   48.0320 C   0  0  0  0  0
   23.8290   24.2770   48.9660 C   0  0  0  0  0
   22.7010   24.4570   48.5500 O   0  0  0  0  0
   25.0830   25.8340   47.4340 C   0  0  0  0  0
   24.9080   26.8850   48.5210 C   0  0  0  0  0
   26.3750   26.0490   46.6350 C   0  0  0  0  0
   24.0600   23.9650   50.2280 N   0  0  0  0  0
   22.9540   23.8700   51.1750 C   0  0  0  0  0
   22.3320   25.2560   51.4310 C   0  0  0  0  0
   23.0360   26.2130   51.8100 O   0  0  0  0  0
   23.4030   23.2210   52.4890 C   0  0  0  0  0
   23.8430   21.7860   52.3380 C   0  0  0  0  0
   22.9100   20.7630   52.2730 C   0  0  0  0  0
   25.1870   21.4590   52.2770 C   0  0  0  0  0
   23.3080   19.4460   52.1230 C   0  0  0  0  0
   25.5910   20.1450   52.1390 C   0  0  0  0  0
   24.6430   19.1340   52.0660 C   0  0  0  0  0
   21.0220   25.3410   51.1930 N   0  0  0  0  0
   20.2110   26.5260   51.5000 C   0  0  0  0  0
   18.9370   26.1340   52.2340 C   0  0  0  0  0
   18.2180   27.0180   52.6960 O   0  0  0  0  0
   19.7770   27.2190   50.2110 C   0  0  0  0  0
   20.5060   28.4900   49.8840 C   0  0  0  0  0
   19.9760   29.0570   48.5800 C   0  0  0  0  0
   21.0040   29.8560   47.9600 N   0  0  0  0  0
   20.9900   30.2960   46.7080 C   0  0  0  0  0
   19.9750   30.0360   45.8820 N   0  0  0  0  0
   22.0250   31.0030   46.2920 N   0  0  0  0  0
   18.5720   24.9410   52.3420 O   0  0  0  0  0
   32.0206   22.6399   43.5145 H   0  0  0  0  0
   32.2491   21.0473   43.0804 H   0  0  0  0  0
   32.8766   21.6182   44.5147 H   0  0  0  0  0
   34.3883   23.0706   43.3683 H   0  0  0  0  0
   34.5271   20.2284   42.2975 H   0  0  0  0  0
   35.8794   21.3798   42.4259 H   0  0  0  0  0
   35.0983   20.7559   43.8996 H   0  0  0  0  0
   32.4847   21.0985   41.0522 H   0  0  0  0  0
   31.9234   21.6982   38.7804 H   0  0  0  0  0
   32.7504   23.2287   38.9633 H   0  0  0  0  0
   29.6814   21.8229   38.8546 H   0  0  0  0  0
   28.4542   24.1177   40.3427 H   0  0  0  0  0
   26.2698   22.9864   39.4461 H   0  0  0  0  0
   27.3757   22.2139   38.3034 H   0  0  0  0  0
   28.3830   24.5557   37.9535 H   0  0  0  0  0
   26.8693   25.1546   38.7694 H   0  0  0  0  0
   25.5217   24.3458   37.0386 H   0  0  0  0  0
   26.8651   23.3880   36.3335 H   0  0  0  0  0
   27.6508   25.9291   36.5700 H   0  0  0  0  0
   26.9613   24.4803   34.5976 H   0  0  0  0  0
   27.2903   26.3876   33.3014 H   0  0  0  0  0
   26.4333   27.9002   34.7286 H   0  0  0  0  0
   28.0008   28.0107   35.5662 H   0  0  0  0  0
   27.8526   28.5585   33.8783 H   0  0  0  0  0
   27.0038   23.8048   34.1549 H   0  0  0  0  0
   28.0144   24.2640   32.2357 H   0  0  0  0  0
   29.5861   24.3891   33.0634 H   0  0  0  0  0
   28.7415   22.8232   32.9883 H   0  0  0  0  0
   29.1765   23.2330   42.4050 H   0  0  0  0  0
   29.2293   21.6206   44.1260 H   0  0  0  0  0
   28.2291   20.5302   43.1319 H   0  0  0  0  0
   26.8416   20.0956   44.8590 H   0  0  0  0  0
   24.5303   21.7819   45.1202 H   0  0  0  0  0
   25.6859   19.7229   46.9121 H   0  0  0  0  0
   24.4075   19.5431   45.4932 H   0  0  0  0  0
   22.9061   20.7206   47.0490 H   0  0  0  0  0
   22.7217   18.3398   46.4808 H   0  0  0  0  0
   23.8933   17.9340   47.7589 H   0  0  0  0  0
   22.3064   18.6172   48.1901 H   0  0  0  0  0
   24.9995   19.8336   49.0507 H   0  0  0  0  0
   24.5728   21.5143   48.6450 H   0  0  0  0  0
   23.3791   20.4601   49.4417 H   0  0  0  0  0
   24.0209   23.4462   46.3922 H   0  0  0  0  0
   25.9580   24.2351   48.5634 H   0  0  0  0  0
   24.2533   25.9444   46.7357 H   0  0  0  0  0
   23.9407   26.7482   49.0045 H   0  0  0  0  0
   25.7029   26.7783   49.2591 H   0  0  0  0  0
   24.9555   27.8785   48.0751 H   0  0  0  0  0
   27.2340   25.9091   47.2912 H   0  0  0  0  0
   26.4194   25.3291   45.8178 H   0  0  0  0  0
   26.3863   27.0610   46.2304 H   0  0  0  0  0
   25.0146   23.7898   50.5419 H   0  0  0  0  0
   22.1898   23.2308   50.7329 H   0  0  0  0  0
   22.5484   23.2301   53.1655 H   0  0  0  0  0
   24.2590   23.7872   52.8561 H   0  0  0  0  0
   21.8480   20.9991   52.3410 H   0  0  0  0  0
   25.9360   22.2484   52.3386 H   0  0  0  0  0
   22.5605   18.6561   52.0501 H   0  0  0  0  0
   26.6525   19.9028   52.0875 H   0  0  0  0  0
   24.9579   18.0955   51.9637 H   0  0  0  0  0
   20.5568   24.5361   50.7734 H   0  0  0  0  0
   20.8244   27.1840   52.1155 H   0  0  0  0  0
   18.7284   27.4869   50.3404 H   0  0  0  0  0
   19.9864   26.5231   49.3986 H   0  0  0  0  0
   21.5712   28.2819   49.7830 H   0  0  0  0  0
   20.3508   29.2137   50.6842 H   0  0  0  0  0
   19.1006   29.6755   48.7782 H   0  0  0  0  0
   19.6936   28.2418   47.9138 H   0  0  0  0  0
   21.8108   30.1042   48.5326 H   0  0  0  0  0
   19.9956   30.3838   44.9234 H   0  0  0  0  0
   19.1784   29.4894   46.2092 H   0  0  0  0  0
   22.8002   31.1943   46.9267 H   0  0  0  0  0
   19.2286   24.3688   51.9382 H   0  0  0  0  0
  1  2  1  0  0  0
  2  3  1  0  0  0
  2  5  1  0  0  0
  3  4  2  0  0  0
  3  6  1  0  0  0
  6  7  1  0  0  0
  7  8  1  0  0  0
  8  9  2  0  0  0
  8 10  1  0  0  0
 10 11  1  0  0  0
 11 12  1  0  0  0
 11 21  1  0  0  0
 12 13  1  0  0  0
 13 14  1  0  0  0
 14 15  1  0  0  0
 15 16  1  0  0  0
 16 17  1  0  0  0
 16 19  1  0  0  0
 17 18  1  0  0  0
 19 20  1  0  0  0
 21 22  2  0  0  0
 21 23  1  0  0  0
 23 24  1  0  0  0
 24 25  1  0  0  0
 25 26  2  0  0  0
 25 27  1  0  0  0
 27 28  1  0  0  0
 28 29  1  0  0  0
 28 31  1  0  0  0
 29 30  2  0  0  0
 29 35  1  0  0  0
 31 32  1  0  0  0
 32 33  1  0  0  0
 32 34  1  0  0  0
 35 36  1  0  0  0
 36 37  1  0  0  0
 36 39  1  0  0  0
 37 38  2  0  0  0
 37 42  1  0  0  0
 39 40  1  0  0  0
 39 41  1  0  0  0
 42 43  1  0  0  0
 43 44  1  0  0  0
 43 46  1  0  0  0
 44 45  2  0  0  0
 44 53  1  0  0  0
 46 47  1  0  0  0
 47 48  4  0  0  0
 47 49  4  0  0  0
 48 50  4  0  0  0
 49 51  4  0  0  0
 50 52  4  0  0  0
 51 52  4  0  0  0
 53 54  1  0  0  0
 54 55  1  0  0  0
 54 57  1  0  0  0
 55 56  2  0  0  0
 55 64  1  0  0  0
 57 58  1  0  0  0
 58 59  1  0  0  0
 59 60  1  0  0  0
 60 61  1  0  0  0
 61 62  1  0  0  0
 61 63  2  0  0  0
  1 65  1  0  0  0
  1 66  1  0  0  0
  1 67  1  0  0  0
  2 68  1  0  0  0
  5 69  1  0  0  0
  5 70  1  0  0  0
  5 71  1  0  0  0
  6 72  1  0  0  0
  7 73  1  0  0  0
  7 74  1  0  0  0
 10 75  1  0  0  0
 11 76  1  0  0  0
 12 77  1  0  0  0
 12 78  1  0  0  0
 13 79  1  0  0  0
 13 80  1  0  0  0
 14 81  1  0  0  0
 14 82  1  0  0  0
 15 83  1  0  0  0
 16 84  1  0  0  0
 17 85  1  0  0  0
 18 86  1  0  0  0
 18 87  1  0  0  0
 18 88  1  0  0  0
 19 89  1  0  0  0
 20 90  1  0  0  0
 20 91  1  0  0  0
 20 92  1  0  0  0
 23 93  1  0  0  0
 24 94  1  0  0  0
 24 95  1  0  0  0
 27 96  1  0  0  0
 28 97  1  0  0  0
 31 98  1  0  0  0
 31 99  1  0  0  0
 32100  1  0  0  0
 33101  1  0  0  0
 33102  1  0  0  0
 33103  1  0  0  0
 34104  1  0  0  0
 34105  1  0  0  0
 34106  1  0  0  0
 35107  1  0  0  0
 36108  1  0  0  0
 39109  1  0  0  0
 40110  1  0  0  0
 40111  1  0  0  0
 40112  1  0  0  0
 41113  1  0  0  0
 41114  1  0  0  0
 41115  1  0  0  0
 42116  1  0  0  0
 43117  1  0  0  0
 46118  1  0  0  0
 46119  1  0  0  0
 48120  1  0  0  0
 49121  1  0  0  0
 50122  1  0  0  0
 51123  1  0  0  0
 52124  1  0  0  0
 53125  1  0  0  0
 54126  1  0  0  0
 57127  1  0  0  0
 57128  1  0  0  0
 58129  1  0  0  0
 58130  1  0  0  0
 59131  1  0  0  0
 59132  1  0  0  0
 60133  1  0  0  0
 62134  1  0  0  0
 62135  1  0  0  0
 63136  1  0  0  0
 64137  1  0  0  0
M  END
$$$$
