### 
### Created by X-TOOL on Mon Sep 10 21:13:11 2018
### 

@<TRIPOS>MOLECULE
4b9w_ligand
  136   136     1     0     0
SMALL
GAST_HUCK


@<TRIPOS>ATOM
      1 N          32.6690   21.8530   43.5440 N.4       1 ALA         0.2377
      2 CA         33.9450   22.2290   42.8360 C.3       1 ALA         0.0621
      3 C          33.6790   22.7030   41.3870 C.2       1 ALA         0.2262
      4 O          34.3110   23.6490   40.9050 O.2       1 ALA        -0.3907
      5 CB         34.9340   21.0640   42.8670 C.3       1 ALA        -0.0040
      6 N          32.7560   22.0180   40.7040 N.am      1 GLY        -0.2637
      7 CA         32.1090   22.5140   39.4790 C.3       1 GLY         0.1202
      8 C          30.8020   23.1690   39.9080 C.2       1 GLY         0.2007
      9 O          30.8270   24.1800   40.6090 O.2       1 GLY        -0.3947
     10 N          29.6560   22.5990   39.5160 N.am      1 2MR        -0.2640
     11 CA         28.3500   23.0790   40.0290 C.3       1 2MR         0.1311
     12 CB         27.2460   23.0680   38.9680 C.3       1 2MR        -0.0092
     13 CG         27.3310   24.3700   38.1700 C.3       1 2MR        -0.0156
     14 CD         26.5940   24.3110   36.8460 C.3       1 2MR         0.0627
     15 NE         26.9580   25.4450   35.9990 N.pl3     1 2MR        -0.2721
     16 CZ         27.5750   25.3530   34.8210 C.cat     1 2MR         0.2920
     17 NH1        27.8570   26.4840   34.1440 N.pl3     1 2MR        -0.2748
     18 CQ1        27.5140   27.8240   34.6090 C.3       1 2MR         0.0514
     19 NH2        27.9200   24.2140   34.3380 N.pl3     1 2MR        -0.2748
     20 CQ2        28.6110   23.9020   33.0730 C.3       1 2MR         0.0514
     21 C          27.9720   22.1800   41.1590 C.2       1 2MR         0.2037
     22 O          27.1730   21.2700   40.9910 O.2       1 2MR        -0.3944
     23 N          28.5640   22.4220   42.3180 N.am      1 GLY        -0.2664
     24 CA         28.3610   21.5580   43.4700 C.3       1 GLY         0.1201
     25 C          27.1330   21.9970   44.2240 C.2       1 GLY         0.2007
     26 O          26.7730   23.1700   44.2210 O.2       1 GLY        -0.3947
     27 N          26.5040   21.0570   44.9050 N.am      1 LEU        -0.2640
     28 CA         25.3400   21.3650   45.7190 C.3       1 LEU         0.1312
     29 C          25.7320   22.4280   46.7660 C.2       1 LEU         0.2039
     30 O          26.8330   22.3980   47.3170 O.2       1 LEU        -0.3944
     31 CB         24.8270   20.0800   46.3440 C.3       1 LEU        -0.0101
     32 CG         23.6950   20.0400   47.3690 C.3       1 LEU        -0.0425
     33 CD1        23.1120   18.6310   47.4560 C.3       1 LEU        -0.0625
     34 CD2        24.1970   20.4940   48.7220 C.3       1 LEU        -0.0625
     35 N          24.8510   23.3990   46.9830 N.am      1 VAL        -0.2635
     36 CA         25.0210   24.4020   48.0320 C.3       1 VAL         0.1333
     37 C          23.8290   24.2770   48.9660 C.2       1 VAL         0.2043
     38 O          22.7010   24.4570   48.5500 O.2       1 VAL        -0.3944
     39 CB         25.0830   25.8340   47.4340 C.3       1 VAL        -0.0063
     40 CG1        24.9080   26.8850   48.5210 C.3       1 VAL        -0.0584
     41 CG2        26.3750   26.0490   46.6350 C.3       1 VAL        -0.0584
     42 N          24.0600   23.9650   50.2280 N.am      1 PHE        -0.2619
     43 CA         22.9540   23.8700   51.1750 C.3       1 PHE         0.1404
     44 C          22.3320   25.2560   51.4310 C.2       1 PHE         0.2054
     45 O          23.0360   26.2130   51.8100 O.2       1 PHE        -0.3942
     46 CB         23.4030   23.2210   52.4890 C.3       1 PHE         0.0214
     47 CG         23.8430   21.7860   52.3380 C.ar      1 PHE        -0.0386
     48 CD1        22.9100   20.7630   52.2730 C.ar      1 PHE        -0.0601
     49 CD2        25.1870   21.4590   52.2770 C.ar      1 PHE        -0.0601
     50 CE1        23.3080   19.4460   52.1230 C.ar      1 PHE        -0.0686
     51 CE2        25.5910   20.1450   52.1390 C.ar      1 PHE        -0.0686
     52 CZ         24.6430   19.1340   52.0660 C.ar      1 PHE        -0.0687
     53 N          21.0220   25.3410   51.1930 N.am      1 ARG        -0.2693
     54 CA         20.2110   26.5260   51.5000 C.3       1 ARG         0.0945
     55 C          18.9370   26.1340   52.2340 C.2       1 ARG         0.0601
     56 O          18.2180   27.0180   52.6960 O.co2     1 ARG        -0.5666
     57 CB         19.7770   27.2190   50.2110 C.3       1 ARG        -0.0148
     58 CG         20.5060   28.4900   49.8840 C.3       1 ARG        -0.0162
     59 CD         19.9760   29.0570   48.5800 C.3       1 ARG         0.0627
     60 NE         21.0040   29.8560   47.9600 N.pl3     1 ARG        -0.2723
     61 CZ         20.9900   30.2960   46.7080 C.cat     1 ARG         0.2882
     62 NH1        19.9750   30.0360   45.8820 N.pl3     1 ARG        -0.2849
     63 NH2        22.0250   31.0030   46.2920 N.pl3     1 ARG        -0.2849
     64 OXT        18.5720   24.9410   52.3420 O.co2     1 ARG        -0.5666
     65 H1         32.8817   21.5504   44.4817 H         1 ALA         0.2015
     66 H2         32.2154   21.1044   43.0442 H         1 ALA         0.2015
     67 H3         32.0564   22.6527   43.5798 H         1 ALA         0.2015
     68 H4         34.3970   23.0696   43.3828 H         1 ALA         0.1095
     69 H5         35.8588   21.3542   42.3468 H         1 ALA         0.0310
     70 H6         34.4893   20.1920   42.3652 H         1 ALA         0.0310
     71 H7         35.1658   20.8074   43.9112 H         1 ALA         0.0310
     72 H8         32.4900   21.1165   41.0454 H         1 GLY         0.1882
     73 H9         31.9068   21.6788   38.7923 H         1 GLY         0.0763
     74 H10        32.7561   23.2505   38.9801 H         1 GLY         0.0763
     75 H11        29.6809   21.8381   38.8675 H         1 2MR         0.1883
     76 H12        28.4671   24.1086   40.3981 H         1 2MR         0.0800
     77 H13        26.2627   22.9946   39.4556 H         1 2MR         0.0313
     78 H14        27.3864   22.2097   38.2946 H         1 2MR         0.0313
     79 H15        28.3904   24.5887   37.9704 H         1 2MR         0.0301
     80 H16        26.8971   25.1795   38.7753 H         1 2MR         0.0301
     81 H17        25.5106   24.3350   37.0348 H         1 2MR         0.0689
     82 H18        26.8555   23.3760   36.3289 H         1 2MR         0.0689
     83 H19        26.7194   26.3878   36.3384 H         1 2MR         0.2642
     84 H20        28.3455   26.3969   33.2414 H         1 2MR         0.2639
     85 H21        27.8553   28.5662   33.8724 H         1 2MR         0.0652
     86 H22        28.0047   28.0137   35.5750 H         1 2MR         0.0652
     87 H23        26.4235   27.9022   34.7300 H         1 2MR         0.0652
     88 H24        27.6786   23.3988   34.9195 H         1 2MR         0.2639
     89 H25        28.7433   22.8134   32.9863 H         1 2MR         0.0652
     90 H26        29.5953   24.3930   33.0621 H         1 2MR         0.0652
     91 H27        28.0098   24.2668   32.2271 H         1 2MR         0.0652
     92 H28        29.1645   23.2171   42.4033 H         1 GLY         0.1881
     93 H29        29.2376   21.6190   44.1318 H         1 GLY         0.0763
     94 H30        28.2297   20.5201   43.1300 H         1 GLY         0.0763
     95 H31        26.8350   20.1144   44.8599 H         1 LEU         0.1883
     96 H32        24.5484   21.7816   45.0789 H         1 LEU         0.0800
     97 H33        25.6950   19.6158   46.8350 H         1 LEU         0.0315
     98 H34        24.4979   19.4475   45.5064 H         1 LEU         0.0315
     99 H35        22.9009   20.7275   47.0422 H         1 LEU         0.0298
    100 H36        22.2988   18.6158   48.1966 H         1 LEU         0.0232
    101 H37        23.8995   17.9265   47.7617 H         1 LEU         0.0232
    102 H38        22.7177   18.3359   46.4724 H         1 LEU         0.0232
    103 H39        24.6120   21.5092   48.6373 H         1 LEU         0.0232
    104 H40        24.9803   19.8057   49.0724 H         1 LEU         0.0232
    105 H41        23.3637   20.4973   49.4401 H         1 LEU         0.0232
    106 H42        24.0371   23.4452   46.4038 H         1 VAL         0.1883
    107 H43        25.9510   24.2040   48.5851 H         1 VAL         0.0802
    108 H44        24.2413   25.9390   46.7337 H         1 VAL         0.0343
    109 H45        24.9558   27.8881   48.0722 H         1 VAL         0.0234
    110 H46        25.7097   26.7784   49.2666 H         1 VAL         0.0234
    111 H47        23.9321   26.7481   49.0097 H         1 VAL         0.0234
    112 H48        26.4622   25.2707   45.8626 H         1 VAL         0.0234
    113 H49        27.2393   25.9912   47.3129 H         1 VAL         0.0234
    114 H50        26.3498   27.0391   46.1565 H         1 VAL         0.0234
    115 H51        24.9958   23.7933   50.5357 H         1 PHE         0.1885
    116 H52        22.1804   23.2282   50.7283 H         1 PHE         0.0823
    117 H53        22.5621   23.2535   53.1974 H         1 PHE         0.0474
    118 H54        24.2454   23.8017   52.8929 H         1 PHE         0.0474
    119 H55        21.8539   20.9978   52.3406 H         1 PHE         0.0557
    120 H56        25.9319   22.2441   52.3383 H         1 PHE         0.0557
    121 H57        22.5646   18.6604   52.0505 H         1 PHE         0.0599
    122 H58        26.6467   19.9041   52.0878 H         1 PHE         0.0599
    123 H59        24.9562   18.1012   51.9643 H         1 PHE         0.0559
    124 H60        20.5659   24.5518   50.7816 H         1 ARG         0.1875
    125 H61        20.8017   27.2177   52.1185 H         1 ARG         0.0726
    126 H62        18.7061   27.4550   50.2970 H         1 ARG         0.0307
    127 H63        19.9319   26.5159   49.3794 H         1 ARG         0.0307
    128 H64        21.5810   28.2802   49.7823 H         1 ARG         0.0301
    129 H65        20.3497   29.2203   50.6916 H         1 ARG         0.0301
    130 H66        19.0945   29.6833   48.7820 H         1 ARG         0.0689
    131 H67        19.6943   28.2332   47.9077 H         1 ARG         0.0689
    132 H68        21.8187   30.1066   48.5382 H         1 ARG         0.2642
    133 H69        19.9934   30.3917   44.9155 H         1 ARG         0.2615
    134 H70        19.1730   29.4796   46.2108 H         1 ARG         0.2615
    135 H71        22.8055   31.2004   46.9344 H         1 ARG         0.2615
    136 H72        22.0517   31.3570   45.3251 H         1 ARG         0.2615
@<TRIPOS>BOND
     1    1    2 1  
     2    2    3 1  
     3    2    5 1  
     4    3    4 2  
     5    3    6 am 
     6    6    7 1  
     7    7    8 1  
     8    8    9 2  
     9    8   10 am 
    10   10   11 1  
    11   11   12 1  
    12   11   21 1  
    13   12   13 1  
    14   13   14 1  
    15   14   15 1  
    16   15   16 ar 
    17   16   17 ar 
    18   16   19 ar 
    19   17   18 1  
    20   19   20 1  
    21   21   22 2  
    22   21   23 am 
    23   23   24 1  
    24   24   25 1  
    25   25   26 2  
    26   25   27 am 
    27   27   28 1  
    28   28   29 1  
    29   28   31 1  
    30   29   30 2  
    31   29   35 am 
    32   31   32 1  
    33   32   33 1  
    34   32   34 1  
    35   35   36 1  
    36   36   37 1  
    37   36   39 1  
    38   37   38 2  
    39   37   42 am 
    40   39   40 1  
    41   39   41 1  
    42   42   43 1  
    43   43   44 1  
    44   43   46 1  
    45   44   45 2  
    46   44   53 am 
    47   46   47 1  
    48   47   48 ar 
    49   47   49 ar 
    50   48   50 ar 
    51   49   51 ar 
    52   50   52 ar 
    53   51   52 ar 
    54   53   54 1  
    55   54   55 1  
    56   54   57 1  
    57   55   56 ar 
    58   55   64 ar 
    59   57   58 1  
    60   58   59 1  
    61   59   60 1  
    62   60   61 ar 
    63   61   62 ar 
    64   61   63 ar 
    65    1   65 1  
    66    1   66 1  
    67    1   67 1  
    68    2   68 1  
    69    5   69 1  
    70    5   70 1  
    71    5   71 1  
    72    6   72 1  
    73    7   73 1  
    74    7   74 1  
    75   10   75 1  
    76   11   76 1  
    77   12   77 1  
    78   12   78 1  
    79   13   79 1  
    80   13   80 1  
    81   14   81 1  
    82   14   82 1  
    83   15   83 1  
    84   17   84 1  
    85   18   85 1  
    86   18   86 1  
    87   18   87 1  
    88   19   88 1  
    89   20   89 1  
    90   20   90 1  
    91   20   91 1  
    92   23   92 1  
    93   24   93 1  
    94   24   94 1  
    95   27   95 1  
    96   28   96 1  
    97   31   97 1  
    98   31   98 1  
    99   32   99 1  
   100   33  100 1  
   101   33  101 1  
   102   33  102 1  
   103   34  103 1  
   104   34  104 1  
   105   34  105 1  
   106   35  106 1  
   107   36  107 1  
   108   39  108 1  
   109   40  109 1  
   110   40  110 1  
   111   40  111 1  
   112   41  112 1  
   113   41  113 1  
   114   41  114 1  
   115   42  115 1  
   116   43  116 1  
   117   46  117 1  
   118   46  118 1  
   119   48  119 1  
   120   49  120 1  
   121   50  121 1  
   122   51  122 1  
   123   52  123 1  
   124   53  124 1  
   125   54  125 1  
   126   57  126 1  
   127   57  127 1  
   128   58  128 1  
   129   58  129 1  
   130   59  130 1  
   131   59  131 1  
   132   60  132 1  
   133   62  133 1  
   134   62  134 1  
   135   63  135 1  
   136   63  136 1  
@<TRIPOS>SUBSTRUCTURE
     1 ALA         1

