5tkj_ligand
  -I-interpret- 

109109  0  0  0  0  0  0  0  0999 V2000
   -6.9310  108.1570   65.6660 N   0  3  0  0  0
   -5.8500  107.3540   66.2250 C   0  0  0  0  0
   -6.2830  106.7900   67.5770 C   0  0  0  0  0
   -7.2760  107.2430   68.1590 O   0  0  0  0  0
   -4.5520  108.1910   66.3850 C   0  0  0  0  0
   -5.5080  105.8300   68.0830 N   0  0  0  0  0
   -5.7560  105.2840   69.4180 C   0  0  0  0  0
   -5.5580  106.3580   70.4830 C   0  0  0  0  0
   -6.4190  106.5700   71.3460 O   0  0  0  0  0
   -4.8510  104.0680   69.6630 C   0  0  0  0  0
   -4.8140  103.6990   71.1580 C   0  0  0  0  0
   -5.3710  102.8830   68.8380 C   0  0  0  0  0
   -4.4550  107.0710   70.4090 N   0  0  0  0  0
   -4.0120  108.0380   71.3930 C   0  0  0  0  0
   -2.8860  107.4850   72.2450 C   0  0  0  0  0
   -2.8110  106.2840   72.5270 O   0  0  0  0  0
   -1.9820  108.3740   72.6600 N   0  0  0  0  0
   -0.7880  107.9110   73.3670 C   0  0  0  0  0
   -1.1020  107.5450   74.8050 C   0  0  0  0  0
   -0.3610  106.7640   75.4160 O   0  0  0  0  0
    0.3380  108.9610   73.3050 C   0  0  0  0  0
    0.0070  110.1770   74.1660 C   0  0  0  0  0
    0.5640  109.4520   71.8530 C   0  0  0  0  0
    1.1560  111.1850   74.2800 C   0  0  0  0  0
   -2.1780  108.0750   75.3760 N   0  0  0  0  0
   -2.5050  107.7640   76.7540 C   0  0  0  0  0
   -3.6110  106.7480   76.9480 C   0  0  0  0  0
   -4.0230  106.5220   78.0930 O   0  0  0  0  0
   -4.1040  106.1260   75.8760 N   0  0  0  0  0
   -5.1430  105.1130   76.0110 C   0  0  0  0  0
   -4.5510  103.8600   76.6390 C   0  0  0  0  0
   -3.4360  103.4460   76.3100 O   0  0  0  0  0
   -5.7550  104.7810   74.6490 C   0  0  0  0  0
   -5.2920  103.2460   77.5420 N   0  0  0  0  0
   -4.8750  101.9780   78.1200 C   0  0  0  0  0
   -6.0480  101.0070   78.1340 C   0  0  0  0  0
   -7.1990  101.4210   78.3130 O   0  0  0  0  0
   -4.2900  102.2070   79.5360 C   0  0  0  0  0
   -5.3400  102.7990   80.4800 C   0  0  0  0  0
   -3.6960  100.9250   80.0960 C   0  0  0  0  0
   -5.7570   99.7290   77.8660 N   0  0  0  0  0
   -6.5830   98.5740   78.2800 C   0  0  0  0  0
   -5.9700   97.2800   77.7450 C   0  0  0  0  0
   -6.3220   96.8100   76.6610 O   0  0  0  0  0
   -8.0440   98.6820   77.8150 C   0  0  0  0  0
   -9.0430   98.1300   78.8120 C   0  0  0  0  0
   -8.6790   97.1290   79.7040 C   0  0  0  0  0
  -10.3420   98.6200   78.8640 C   0  0  0  0  0
   -9.5900   96.6260   80.6200 C   0  0  0  0  0
  -11.2580   98.1170   79.7820 C   0  0  0  0  0
  -10.8800   97.1190   80.6590 C   0  0  0  0  0
   -5.1080   96.6730   78.3840 O   0  0  0  0  0
   -7.7677  107.5811   65.5732 H   0  0  0  0  0
   -7.1249  108.9430   66.2864 H   0  0  0  0  0
   -6.6539  108.5066   64.7487 H   0  0  0  0  0
   -5.6354  106.5354   65.5380 H   0  0  0  0  0
   -4.7354  109.0152   67.0743 H   0  0  0  0  0
   -3.7581  107.5563   66.7786 H   0  0  0  0  0
   -4.2546  108.5870   65.4140 H   0  0  0  0  0
   -4.7296  105.4704   67.5306 H   0  0  0  0  0
   -6.7921  104.9515   69.4815 H   0  0  0  0  0
   -3.8348  104.3150   69.3557 H   0  0  0  0  0
   -4.4284  104.5431   71.7298 H   0  0  0  0  0
   -5.8219  103.4591   71.4967 H   0  0  0  0  0
   -4.1656  102.8347   71.3016 H   0  0  0  0  0
   -6.3912  102.6497   69.1427 H   0  0  0  0  0
   -5.3572  103.1447   67.7800 H   0  0  0  0  0
   -4.7326  102.0160   69.0075 H   0  0  0  0  0
   -3.8622  106.9315   69.5908 H   0  0  0  0  0
   -4.8523  108.2788   72.0441 H   0  0  0  0  0
   -3.6478  108.9221   70.8697 H   0  0  0  0  0
   -2.1223  109.3691   72.4856 H   0  0  0  0  0
   -0.4398  107.0102   72.8616 H   0  0  0  0  0
    1.2392  108.4752   73.6791 H   0  0  0  0  0
   -0.2087  109.8147   75.1712 H   0  0  0  0  0
   -0.8308  110.6908   73.6947 H   0  0  0  0  0
    0.8405  108.6061   71.2236 H   0  0  0  0  0
   -0.3543  109.9022   71.4760 H   0  0  0  0  0
    1.3643  110.1919   71.8414 H   0  0  0  0  0
    2.0224  110.6974   74.7268 H   0  0  0  0  0
    1.4158  111.5517   73.2870 H   0  0  0  0  0
    0.8440  112.0202   74.9070 H   0  0  0  0  0
   -2.7775  108.7042   74.8421 H   0  0  0  0  0
   -2.8529  108.6921   77.2076 H   0  0  0  0  0
   -1.6068  107.3335   77.1967 H   0  0  0  0  0
   -3.7491  106.3625   74.9494 H   0  0  0  0  0
   -5.9333  105.5020   76.6531 H   0  0  0  0  0
   -6.1941  105.6818   74.2201 H   0  0  0  0  0
   -4.9775  104.4027   73.9853 H   0  0  0  0  0
   -6.5280  104.0228   74.7745 H   0  0  0  0  0
   -6.1718  103.6676   77.8396 H   0  0  0  0  0
   -4.0874  101.5352   77.5103 H   0  0  0  0  0
   -3.4819  102.9335   79.4508 H   0  0  0  0  0
   -5.6828  103.7557   80.0859 H   0  0  0  0  0
   -6.1838  102.1135   80.5585 H   0  0  0  0  0
   -4.8982  102.9478   81.4653 H   0  0  0  0  0
   -4.4728  100.1629   80.1579 H   0  0  0  0  0
   -2.8974  100.5791   79.4397 H   0  0  0  0  0
   -3.2933  101.1168   81.0906 H   0  0  0  0  0
   -4.9051   99.5375   77.3388 H   0  0  0  0  0
   -6.5935   98.5686   79.3699 H   0  0  0  0  0
   -6.9926   97.3755   76.2709 H   0  0  0  0  0
   -8.1390   98.0968   76.9003 H   0  0  0  0  0
   -8.2665   99.7408   77.6828 H   0  0  0  0  0
   -7.6634   96.7338   79.6834 H   0  0  0  0  0
  -10.6473   99.4088   78.1765 H   0  0  0  0  0
   -9.2877   95.8394   81.3113 H   0  0  0  0  0
  -12.2742   98.5104   79.8093 H   0  0  0  0  0
  -11.5962   96.7222   81.3785 H   0  0  0  0  0
  1  2  1  0  0  0
  2  3  1  0  0  0
  2  5  1  0  0  0
  3  4  2  0  0  0
  3  6  1  0  0  0
  6  7  1  0  0  0
  7  8  1  0  0  0
  7 10  1  0  0  0
  8  9  2  0  0  0
  8 13  1  0  0  0
 10 11  1  0  0  0
 10 12  1  0  0  0
 13 14  1  0  0  0
 14 15  1  0  0  0
 15 16  2  0  0  0
 15 17  1  0  0  0
 17 18  1  0  0  0
 18 19  1  0  0  0
 18 21  1  0  0  0
 19 20  2  0  0  0
 19 25  1  0  0  0
 21 22  1  0  0  0
 21 23  1  0  0  0
 22 24  1  0  0  0
 25 26  1  0  0  0
 26 27  1  0  0  0
 27 28  2  0  0  0
 27 29  1  0  0  0
 29 30  1  0  0  0
 30 31  1  0  0  0
 30 33  1  0  0  0
 31 32  2  0  0  0
 31 34  1  0  0  0
 34 35  1  0  0  0
 35 36  1  0  0  0
 35 38  1  0  0  0
 36 37  2  0  0  0
 36 41  1  0  0  0
 38 39  1  0  0  0
 38 40  1  0  0  0
 41 42  1  0  0  0
 42 43  1  0  0  0
 42 45  1  0  0  0
 43 44  1  0  0  0
 43 52  2  0  0  0
 45 46  1  0  0  0
 46 47  4  0  0  0
 46 48  4  0  0  0
 47 49  4  0  0  0
 48 50  4  0  0  0
 49 51  4  0  0  0
 50 51  4  0  0  0
  1 53  1  0  0  0
  1 54  1  0  0  0
  1 55  1  0  0  0
  2 56  1  0  0  0
  5 57  1  0  0  0
  5 58  1  0  0  0
  5 59  1  0  0  0
  6 60  1  0  0  0
  7 61  1  0  0  0
 10 62  1  0  0  0
 11 63  1  0  0  0
 11 64  1  0  0  0
 11 65  1  0  0  0
 12 66  1  0  0  0
 12 67  1  0  0  0
 12 68  1  0  0  0
 13 69  1  0  0  0
 14 70  1  0  0  0
 14 71  1  0  0  0
 17 72  1  0  0  0
 18 73  1  0  0  0
 21 74  1  0  0  0
 22 75  1  0  0  0
 22 76  1  0  0  0
 23 77  1  0  0  0
 23 78  1  0  0  0
 23 79  1  0  0  0
 24 80  1  0  0  0
 24 81  1  0  0  0
 24 82  1  0  0  0
 25 83  1  0  0  0
 26 84  1  0  0  0
 26 85  1  0  0  0
 29 86  1  0  0  0
 30 87  1  0  0  0
 33 88  1  0  0  0
 33 89  1  0  0  0
 33 90  1  0  0  0
 34 91  1  0  0  0
 35 92  1  0  0  0
 38 93  1  0  0  0
 39 94  1  0  0  0
 39 95  1  0  0  0
 39 96  1  0  0  0
 40 97  1  0  0  0
 40 98  1  0  0  0
 40 99  1  0  0  0
 41100  1  0  0  0
 42101  1  0  0  0
 44102  1  0  0  0
 45103  1  0  0  0
 45104  1  0  0  0
 47105  1  0  0  0
 48106  1  0  0  0
 49107  1  0  0  0
 50108  1  0  0  0
 51109  1  0  0  0
M  END
$$$$
