3qi1_ligand
  -I-interpret- 

 75 78  0  0  0  0  0  0  0  0999 V2000
    4.7970   14.7730  -13.3930 C   0  0  0  0  0
    4.2110   13.5420  -13.0750 C   0  0  0  0  0
    4.9710   12.3710  -13.1780 C   0  0  0  0  0
    6.3070   12.4130  -13.5780 C   0  0  0  0  0
    6.9010   13.6130  -13.8820 C   0  0  0  0  0
    6.1480   14.7680  -13.7620 C   0  0  0  0  0
    6.7640   15.9010  -14.0600 F   0  0  0  0  0
    7.0320   11.2940  -13.6740 F   0  0  0  0  0
    2.7600   13.4490  -12.5890 C   0  0  0  0  0
    2.6430   14.2730  -11.2960 C   0  0  0  0  0
    1.2550   14.2230  -10.6820 C   0  0  0  0  0
    1.1110   15.1180   -9.4720 C   0  0  0  0  0
   -0.3040   15.1370   -9.0640 N   0  3  0  0  0
   -0.7650   16.2590   -8.2730 C   0  0  0  0  0
   -0.3960   17.6300   -8.8040 C   0  0  0  0  0
    0.1700   18.6920   -7.9210 C   0  0  0  0  0
    0.3560   18.3570   -6.6090 O   0  0  0  0  0
   -0.3390   17.2890   -5.9910 C   0  0  0  0  0
   -0.1850   16.0580   -6.8700 C   0  0  0  0  0
   -0.5870   17.9560  -10.1270 C   0  0  0  0  0
   -0.2940   19.2090  -10.6280 C   0  0  0  0  0
    0.2860   20.2020   -9.8140 C   0  0  0  0  0
    0.5230   19.9820   -8.4360 C   0  0  0  0  0
   -0.5780   19.3680  -12.1280 C   0  0  0  0  0
   -1.8210   20.1890  -12.4860 C   0  0  0  0  0
   -1.7610   20.5230  -13.9960 C   0  0  0  0  0
   -1.8910   21.5070  -11.7260 C   0  0  0  0  0
   -3.0590   19.3540  -12.1280 C   0  0  0  0  0
   -1.7770   17.6960   -5.6800 C   0  0  0  0  0
   -1.8370   18.9600   -4.8330 C   0  0  0  0  0
   -1.9860   17.5950   -4.1660 C   0  0  0  0  0
    0.3090   14.5410  -11.6920 O   0  0  0  0  0
    3.5440   13.8110  -10.2720 N   0  0  0  0  0
    4.3300   14.6870   -9.6470 C   0  0  0  0  0
    5.3510   14.0890   -8.7020 C   0  0  0  0  0
    4.2350   15.9010   -9.8770 O   0  0  0  0  0
    4.2240   15.6994  -13.3549 H   0  0  0  0  0
    4.5118   11.4111  -12.9420 H   0  0  0  0  0
    7.9397   13.6549  -14.2097 H   0  0  0  0  0
    2.4900   12.4098  -12.4010 H   0  0  0  0  0
    2.0813   13.8379  -13.3480 H   0  0  0  0  0
    2.8853   15.2885  -11.6094 H   0  0  0  0  0
    1.0739   13.2154  -10.3077 H   0  0  0  0  0
    1.4390   16.1281   -9.7176 H   0  0  0  0  0
    1.7264   14.7391   -8.6560 H   0  0  0  0  0
   -0.4265   14.3170   -8.4698 H   0  0  0  0  0
   -0.8368   15.1798   -9.9328 H   0  0  0  0  0
   -1.8548   16.2608   -8.2957 H   0  0  0  0  0
    0.0811   17.0355   -5.0177 H   0  0  0  0  0
    0.8802   15.8516   -6.9741 H   0  0  0  0  0
   -0.7270   15.2388   -6.3975 H   0  0  0  0  0
   -0.9835   17.1987  -10.8033 H   0  0  0  0  0
    0.5582   21.1608  -10.2552 H   0  0  0  0  0
    0.9524   20.7549   -7.7985 H   0  0  0  0  0
   -0.7484   18.3644  -12.5178 H   0  0  0  0  0
    0.2750   19.9004  -12.5487 H   0  0  0  0  0
   -0.8587   21.0980  -14.2040 H   0  0  0  0  0
   -1.7442   19.5973  -14.5712 H   0  0  0  0  0
   -2.6381   21.1081  -14.2725 H   0  0  0  0  0
   -1.9186   21.3063  -10.6550 H   0  0  0  0  0
   -1.0128   22.1080  -11.9618 H   0  0  0  0  0
   -2.7915   22.0466  -12.0192 H   0  0  0  0  0
   -3.0448   18.4236  -12.6957 H   0  0  0  0  0
   -3.0488   19.1303  -11.0612 H   0  0  0  0  0
   -3.9592   19.9174  -12.3738 H   0  0  0  0  0
   -2.2917   17.3618   -6.5808 H   0  0  0  0  0
   -2.3474   19.9231   -4.8413 H   0  0  0  0  0
   -1.2632   19.8764   -4.6947 H   0  0  0  0  0
   -1.5762   17.0486   -3.3165 H   0  0  0  0  0
   -2.6509   17.0949   -3.4618 H   0  0  0  0  0
   -0.5757   14.5139  -11.3202 H   0  0  0  0  0
    3.5802   12.8215  -10.0271 H   0  0  0  0  0
    6.3542   14.3332   -9.0512 H   0  0  0  0  0
    5.2030   14.4986   -7.7028 H   0  0  0  0  0
    5.2281   13.0063   -8.6742 H   0  0  0  0  0
  1  2  4  0  0  0
  1  6  4  0  0  0
  2  3  4  0  0  0
  2  9  1  0  0  0
  3  4  4  0  0  0
  4  5  4  0  0  0
  4  8  1  0  0  0
  5  6  4  0  0  0
  6  7  1  0  0  0
  9 10  1  0  0  0
 10 11  1  0  0  0
 10 33  1  0  0  0
 11 12  1  0  0  0
 11 32  1  0  0  0
 12 13  1  0  0  0
 13 14  1  0  0  0
 14 15  1  0  0  0
 14 19  1  0  0  0
 15 16  4  0  0  0
 15 20  4  0  0  0
 16 17  1  0  0  0
 16 23  4  0  0  0
 17 18  1  0  0  0
 18 19  1  0  0  0
 18 29  1  0  0  0
 20 21  4  0  0  0
 21 22  4  0  0  0
 21 24  1  0  0  0
 22 23  4  0  0  0
 24 25  1  0  0  0
 25 26  1  0  0  0
 25 27  1  0  0  0
 25 28  1  0  0  0
 29 30  1  0  0  0
 29 31  1  0  0  0
 30 31  1  0  0  0
 33 34  1  0  0  0
 34 35  1  0  0  0
 34 36  2  0  0  0
  1 37  1  0  0  0
  3 38  1  0  0  0
  5 39  1  0  0  0
  9 40  1  0  0  0
  9 41  1  0  0  0
 10 42  1  0  0  0
 11 43  1  0  0  0
 12 44  1  0  0  0
 12 45  1  0  0  0
 13 46  1  0  0  0
 13 47  1  0  0  0
 14 48  1  0  0  0
 18 49  1  0  0  0
 19 50  1  0  0  0
 19 51  1  0  0  0
 20 52  1  0  0  0
 22 53  1  0  0  0
 23 54  1  0  0  0
 24 55  1  0  0  0
 24 56  1  0  0  0
 26 57  1  0  0  0
 26 58  1  0  0  0
 26 59  1  0  0  0
 27 60  1  0  0  0
 27 61  1  0  0  0
 27 62  1  0  0  0
 28 63  1  0  0  0
 28 64  1  0  0  0
 28 65  1  0  0  0
 29 66  1  0  0  0
 30 67  1  0  0  0
 30 68  1  0  0  0
 31 69  1  0  0  0
 31 70  1  0  0  0
 32 71  1  0  0  0
 33 72  1  0  0  0
 35 73  1  0  0  0
 35 74  1  0  0  0
 35 75  1  0  0  0
M  END
$$$$
