### 
### Created by X-TOOL on Mon Sep 10 21:13:19 2018
### 

@<TRIPOS>MOLECULE
4nw2_ligand
  203   202     2     0     0
SMALL
GAST_HUCK


@<TRIPOS>ATOM
      1 N          49.3530   -2.3500  -11.9420 N.4       1 PRO         0.2461
      2 CA         48.7420   -3.6220  -11.5570 C.3       1 PRO         0.0669
      3 C          47.9580   -4.2530  -12.6930 C.2       1 PRO         0.2268
      4 O          47.0080   -3.6540  -13.1800 O.2       1 PRO        -0.3907
      5 CB         47.8180   -3.2190  -10.4140 C.3       1 PRO         0.0127
      6 CG         48.5550   -2.1080   -9.7500 C.3       1 PRO        -0.0053
      7 CD         49.3870   -1.4070  -10.8110 C.3       1 PRO        -0.0313
      8 N          48.3540   -5.4540  -13.1010 N.am      1 LYS        -0.2613
      9 CA         47.6930   -6.1340  -14.2030 C.3       1 LYS         0.1283
     10 C          46.2800   -6.5540  -13.8200 C.2       1 LYS         0.2036
     11 O          46.0620   -7.1760  -12.7790 O.2       1 LYS        -0.3944
     12 CB         48.5050   -7.3520  -14.6460 C.3       1 LYS        -0.0244
     13 N          45.3210   -6.2010  -14.6670 N.am      1 GLN        -0.2637
     14 CA         43.9410   -6.6160  -14.4740 C.3       1 GLN         0.1307
     15 C          43.7270   -7.9850  -15.1100 C.2       1 GLN         0.2039
     16 O          43.9100   -8.1530  -16.3180 O.2       1 GLN        -0.3944
     17 CB         42.9770   -5.5830  -15.0650 C.3       1 GLN        -0.0152
     18 CG         43.1280   -4.1890  -14.4680 C.3       1 GLN        -0.0610
     19 N          43.3540   -8.9600  -14.2860 N.am      1 LYS        -0.2640
     20 CA         43.1660  -10.3310  -14.7450 C.3       1 LYS         0.1282
     21 C          41.6930  -10.6310  -15.0120 C.2       1 LYS         0.2037
     22 O          40.8310   -9.7740  -14.8110 O.2       1 LYS        -0.3944
     23 CB         43.7250  -11.3180  -13.7160 C.3       1 LYS        -0.0244
     24 N          41.4120  -11.8480  -15.4670 N.am      1 ARG        -0.2650
     25 CA         40.0380  -12.2710  -15.7120 C.3       1 ARG         0.1129
     26 C          39.3610  -12.6830  -14.4070 C.2       1 ARG         0.1245
     27 O          38.2020  -12.3490  -14.1630 O.2       1 ARG        -0.3725
     28 CB         39.9950  -13.4260  -16.7130 C.3       1 ARG        -0.0105
     29 CG         38.5830  -13.8810  -17.0680 C.3       1 ARG        -0.0155
     30 CD         38.5800  -15.2140  -17.8010 C.3       1 ARG         0.0627
     31 NE         39.3490  -15.1700  -19.0430 N.pl3     1 ARG        -0.2723
     32 CZ         38.8510  -14.8010  -20.2210 C.cat     1 ARG         0.2882
     33 NH1        39.6280  -14.7950  -21.2980 N.pl3     1 ARG        -0.2849
     34 NH2        37.5790  -14.4370  -20.3230 N.pl3     1 ARG        -0.2849
     35 N          34.4960  -18.9280  -13.1360 N.4       2 ARG         0.2379
     36 CA         33.4510  -19.6970  -13.8000 C.3       2 ARG         0.0651
     37 C          32.3150  -18.7820  -14.2430 C.2       2 ARG         0.2267
     38 O          32.1030  -17.7140  -13.6670 O.2       2 ARG        -0.3907
     39 CB         32.9220  -20.8010  -12.8790 C.3       2 ARG         0.0110
     40 CG         32.2830  -20.2920  -11.5960 C.3       2 ARG        -0.0125
     41 CD         32.1110  -21.4050  -10.5720 C.3       2 ARG         0.0629
     42 NE         30.8780  -22.1720  -10.7530 N.pl3     2 ARG        -0.2723
     43 CZ         29.8540  -22.1510   -9.9010 C.cat     2 ARG         0.2882
     44 NH1        29.9140  -21.4030   -8.8060 N.pl3     2 ARG        -0.2849
     45 NH2        28.7730  -22.8850  -10.1320 N.pl3     2 ARG        -0.2849
     46 N          31.5830  -19.2040  -15.2670 N.am      2 THR        -0.2613
     47 CA         30.5270  -18.3780  -15.8360 C.3       2 THR         0.1283
     48 C          29.1790  -18.5830  -15.1340 C.2       2 THR         0.2036
     49 O          28.2530  -17.7950  -15.3290 O.2       2 THR        -0.3944
     50 CB         30.3590  -18.6530  -17.3490 C.3       2 THR        -0.0244
     51 N          29.0660  -19.6290  -14.3170 N.am      2 ALA        -0.2640
     52 CA         27.7950  -19.9180  -13.6490 C.3       2 ALA         0.1282
     53 C          27.6680  -19.2020  -12.3040 C.2       2 ALA         0.2036
     54 O          28.5860  -19.2150  -11.4910 O.2       2 ALA        -0.3944
     55 CB         27.6090  -21.4290  -13.4650 C.3       2 ALA        -0.0244
     56 N          26.5110  -18.5820  -12.0940 N.am      2 ARG        -0.2637
     57 CA         26.1840  -17.8610  -10.8690 C.3       2 ARG         0.1311
     58 C          24.7710  -18.2070  -10.3990 C.2       2 ARG         0.2040
     59 O          23.9930  -18.8280  -11.1240 O.2       2 ARG        -0.3944
     60 CB         26.2660  -16.3450  -11.0790 C.3       2 ARG        -0.0092
     61 CG         27.5180  -15.8150  -11.7530 C.3       2 ARG        -0.0156
     62 CD         27.3250  -14.3580  -12.1880 C.3       2 ARG         0.0627
     63 NE         26.5870  -14.2510  -13.4470 N.pl3     2 ARG        -0.2723
     64 CZ         26.3340  -13.1030  -14.0710 C.cat     2 ARG         0.2882
     65 NH1        25.6680  -13.0950  -15.2200 N.pl3     2 ARG        -0.2849
     66 NH2        26.7490  -11.9580  -13.5480 N.pl3     2 ARG        -0.2849
     67 N          24.4290  -17.7720   -9.1940 N.am      2 SER        -0.2616
     68 CA         23.0380  -17.8160   -8.7530 C.3       2 SER         0.1539
     69 C          22.7300  -16.5830   -7.9090 C.2       2 SER         0.2062
     70 O          23.6370  -15.9590   -7.3590 O.2       2 SER        -0.3943
     71 CB         22.7440  -19.0960   -7.9640 C.3       2 SER         0.0843
     72 OG         23.4910  -19.1510   -6.7650 O.3       2 SER        -0.3903
     73 N          21.4540  -16.2250   -7.8290 N.am      2 M3L        -0.2637
     74 CA         21.0370  -15.1060   -7.0250 C.3       2 M3L         0.1309
     75 CB         19.6160  -14.6240   -7.3480 C.3       2 M3L        -0.0122
     76 CG         19.5220  -14.1680   -8.7860 C.3       2 M3L        -0.0440
     77 CD         19.3030  -12.6660   -8.8340 C.3       2 M3L        -0.0123
     78 CE         20.2550  -12.0820   -9.8630 C.3       2 M3L        -0.0309
     79 NZ         20.4790  -10.5860   -9.8660 N.4       2 M3L         0.2369
     80 C          21.0860  -15.4500   -5.5370 C.2       2 M3L         0.2033
     81 O          20.3920  -16.3240   -5.0220 O.2       2 M3L        -0.3944
     82 CM1        19.3050   -9.8390   -9.3290 C.3       2 M3L        -0.0418
     83 CM2        20.7860  -10.1230  -11.2570 C.3       2 M3L        -0.0418
     84 CM3        21.6630  -10.3000   -8.9970 C.3       2 M3L        -0.0418
     85 N          21.9520  -14.7380   -4.8250 N.am      2 VAL        -0.2692
     86 CA         22.1630  -15.0070   -3.4040 C.3       2 VAL         0.0967
     87 C          21.7580  -13.8240   -2.5240 C.2       2 VAL         0.0603
     88 O          21.3000  -14.0140   -1.3940 O.co2     2 VAL        -0.5666
     89 CB         23.6400  -15.3720   -3.1100 C.3       2 VAL        -0.0118
     90 CG1        24.0170  -16.6690   -3.8130 C.3       2 VAL        -0.0590
     91 CG2        24.5700  -14.2400   -3.5290 C.3       2 VAL        -0.0590
     92 OXT        21.8730  -12.6590   -2.9130 O.co2     2 VAL        -0.5666
     93 H          48.8176   -1.9427  -12.6927 H         1 PRO         0.2035
     94 H          50.2957   -2.5204  -12.2555 H         1 PRO         0.2035
     95 H          49.5081   -4.3318  -11.2117 H         1 PRO         0.1099
     96 H          47.6616   -4.0578   -9.7198 H         1 PRO         0.0347
     97 H          46.8463   -2.8735  -10.7965 H         1 PRO         0.0347
     98 H          49.2115   -2.5106   -8.9645 H         1 PRO         0.0320
     99 H          47.8419   -1.3990   -9.3042 H         1 PRO         0.0320
    100 H          48.9395   -0.4413  -11.0889 H         1 PRO         0.0814
    101 H          50.4177   -1.2467  -10.4618 H         1 PRO         0.0814
    102 H          49.1222   -5.8991  -12.6408 H         1 LYS         0.1884
    103 H          47.6275   -5.4342  -15.0492 H         1 LYS         0.0797
    104 H          47.9900   -7.8527  -15.4791 H         1 LYS         0.0277
    105 H          48.6055   -8.0519  -13.8034 H         1 LYS         0.0277
    106 H          49.5035   -7.0274  -14.9742 H         1 LYS         0.0277
    107 H          45.5536   -5.6352  -15.4581 H         1 GLN         0.1883
    108 H          43.7451   -6.6956  -13.3945 H         1 GLN         0.0800
    109 H          41.9476   -5.9271  -14.8864 H         1 GLN         0.0310
    110 H          43.1593   -5.5181  -16.1478 H         1 GLN         0.0310
    111 H          42.4056   -3.5074  -14.9409 H         1 GLN         0.0232
    112 H          44.1495   -3.8222  -14.6469 H         1 GLN         0.0232
    113 H          42.9378   -4.2312  -13.3854 H         1 GLN         0.0232
    114 H          43.1976   -8.7461  -13.3217 H         1 LYS         0.1883
    115 H          43.7202  -10.4577  -15.6867 H         1 LYS         0.0797
    116 H          43.5760  -12.3467  -14.0760 H         1 LYS         0.0277
    117 H          43.2008  -11.1853  -12.7581 H         1 LYS         0.0277
    118 H          44.7998  -11.1311  -13.5748 H         1 LYS         0.0277
    119 H          42.1596  -12.4878  -15.6453 H         1 ARG         0.1884
    120 H          39.4852  -11.4208  -16.1381 H         1 ARG         0.0790
    121 H          39.9114  -13.2808  -13.6820 H         1 ARG         0.1373
    122 H          40.5360  -14.2803  -16.2802 H         1 ARG         0.0314
    123 H          40.4978  -13.1033  -17.6366 H         1 ARG         0.0314
    124 H          38.1165  -13.1209  -17.7119 H         1 ARG         0.0301
    125 H          37.9998  -13.9844  -16.1411 H         1 ARG         0.0301
    126 H          37.5405  -15.4837  -18.0389 H         1 ARG         0.0689
    127 H          39.0161  -15.9798  -17.1428 H         1 ARG         0.0689
    128 H          40.3416  -15.4424  -19.0043 H         1 ARG         0.2642
    129 H          39.2426  -14.5095  -22.2095 H         1 ARG         0.2615
    130 H          40.6160  -15.0759  -21.2218 H         1 ARG         0.2615
    131 H          36.9739  -14.4406  -19.4895 H         1 ARG         0.2615
    132 H          37.1968  -14.1508  -21.2357 H         1 ARG         0.2615
    133 H          35.2383  -19.5470  -12.8499 H         2 ARG         0.2015
    134 H          34.1113  -18.4678  -12.3259 H         2 ARG         0.2015
    135 H          34.8612  -18.2374  -13.7730 H         2 ARG         0.2015
    136 H          33.8842  -20.1699  -14.6937 H         2 ARG         0.1098
    137 H          33.7629  -21.4566  -12.6086 H         2 ARG         0.0347
    138 H          32.1686  -21.3804  -13.4329 H         2 ARG         0.0347
    139 H          31.2952  -19.8700  -11.8329 H         2 ARG         0.0302
    140 H          32.9232  -19.5078  -11.1658 H         2 ARG         0.0302
    141 H          32.0991  -20.9567   -9.5676 H         2 ARG         0.0689
    142 H          32.9655  -22.0925  -10.6566 H         2 ARG         0.0689
    143 H          30.7967  -22.7650  -11.5912 H         2 ARG         0.2642
    144 H          29.1213  -21.3880   -8.1485 H         2 ARG         0.2615
    145 H          30.7532  -20.8376   -8.6139 H         2 ARG         0.2615
    146 H          28.7179  -23.4683  -10.9791 H         2 ARG         0.2615
    147 H          27.9889  -22.8714   -9.4642 H         2 ARG         0.2615
    148 H          31.7604  -20.1081  -15.6558 H         2 THR         0.1884
    149 H          30.8210  -17.3259  -15.7071 H         2 THR         0.0797
    150 H          29.5566  -18.0166  -17.7504 H         2 THR         0.0277
    151 H          30.0995  -19.7108  -17.5028 H         2 THR         0.0277
    152 H          31.3013  -18.4271  -17.8696 H         2 THR         0.0277
    153 H          29.8555  -20.2219  -14.1584 H         2 ALA         0.1883
    154 H          26.9869  -19.5526  -14.2998 H         2 ALA         0.0797
    155 H          26.6498  -21.6218  -12.9623 H         2 ALA         0.0277
    156 H          28.4308  -21.8277  -12.8520 H         2 ALA         0.0277
    157 H          27.6130  -21.9214  -14.4486 H         2 ALA         0.0277
    158 H          25.8235  -18.6117  -12.8196 H         2 ARG         0.1883
    159 H          26.9033  -18.1530  -10.0897 H         2 ARG         0.0800
    160 H          26.1925  -15.8675  -10.0908 H         2 ARG         0.0313
    161 H          25.4048  -16.0472  -11.6951 H         2 ARG         0.0313
    162 H          27.7391  -16.4296  -12.6381 H         2 ARG         0.0301
    163 H          28.3597  -15.8724  -11.0472 H         2 ARG         0.0301
    164 H          28.3134  -13.8924  -12.3159 H         2 ARG         0.0689
    165 H          26.7673  -13.8249  -11.4039 H         2 ARG         0.0689
    166 H          26.2410  -15.1201  -13.8781 H         2 ARG         0.2642
    167 H          25.4757  -12.2029  -15.6976 H         2 ARG         0.2615
    168 H          25.3438  -13.9809  -15.6335 H         2 ARG         0.2615
    169 H          27.2661  -11.9562  -12.6572 H         2 ARG         0.2615
    170 H          26.5544  -11.0701  -14.0324 H         2 ARG         0.2615
    171 H          25.1312  -17.4100   -8.5809 H         2 SER         0.1884
    172 H          22.3904  -17.8031   -9.6421 H         2 SER         0.0823
    173 H          23.0022  -19.9659   -8.5857 H         2 SER         0.0606
    174 H          21.6722  -19.1259   -7.7185 H         2 SER         0.0606
    175 H          23.2855  -19.9546   -6.3017 H         2 SER         0.2097
    176 H          20.7676  -16.7440   -8.3384 H         2 M3L         0.1883
    177 H          21.7346  -14.2779   -7.2190 H         2 M3L         0.0800
    178 H          19.3598  -13.7843   -6.6852 H         2 M3L         0.0312
    179 H          18.9082  -15.4499   -7.1839 H         2 M3L         0.0312
    180 H          18.6786  -14.6762   -9.2763 H         2 M3L         0.0269
    181 H          20.4559  -14.4181   -9.3106 H         2 M3L         0.0269
    182 H          19.5077  -12.2278   -7.8460 H         2 M3L         0.0317
    183 H          18.2638  -12.4499   -9.1229 H         2 M3L         0.0317
    184 H          19.8687  -12.3553  -10.8560 H         2 M3L         0.0815
    185 H          21.2346  -12.5575   -9.7071 H         2 M3L         0.0815
    186 H          19.5156   -8.7596   -9.3517 H         2 M3L         0.0778
    187 H          19.1132  -10.1534   -8.2925 H         2 M3L         0.0778
    188 H          18.4204  -10.0530   -9.9468 H         2 M3L         0.0778
    189 H          21.6524  -10.6784  -11.6454 H         2 M3L         0.0778
    190 H          21.0163   -9.0475  -11.2430 H         2 M3L         0.0778
    191 H          19.9149  -10.3032  -11.9041 H         2 M3L         0.0778
    192 H          21.4536  -10.6346   -7.9703 H         2 M3L         0.0778
    193 H          21.8647   -9.2187   -8.9963 H         2 M3L         0.0778
    194 H          22.5412  -10.8366   -9.3855 H         2 M3L         0.0778
    195 H          22.4684  -14.0055   -5.2686 H         2 VAL         0.1875
    196 H          21.5343  -15.8673   -3.1309 H         2 VAL         0.0729
    197 H          23.7489  -15.5229   -2.0259 H         2 VAL         0.0336
    198 H          25.0670  -16.9129   -3.5940 H         2 VAL         0.0234
    199 H          23.8873  -16.5487   -4.8987 H         2 VAL         0.0234
    200 H          23.3691  -17.4823   -3.4542 H         2 VAL         0.0234
    201 H          24.2790  -13.3151   -3.0095 H         2 VAL         0.0234
    202 H          24.4967  -14.0885   -4.6160 H         2 VAL         0.0234
    203 H          25.6056  -14.4991   -3.2639 H         2 VAL         0.0234
@<TRIPOS>BOND
     1    1    2 1  
     2    1    7 1  
     3    2    3 1  
     4    2    5 1  
     5    3    4 2  
     6    3    8 am 
     7    5    6 1  
     8    6    7 1  
     9    8    9 1  
    10    9   10 1  
    11    9   12 1  
    12   10   11 2  
    13   10   13 am 
    14   13   14 1  
    15   14   15 1  
    16   14   17 1  
    17   15   16 2  
    18   15   19 am 
    19   17   18 1  
    20   19   20 1  
    21   20   21 1  
    22   20   23 1  
    23   21   22 2  
    24   21   24 am 
    25   24   25 1  
    26   25   26 1  
    27   25   28 1  
    28   26   27 2  
    29   28   29 1  
    30   29   30 1  
    31   30   31 1  
    32   31   32 ar 
    33   32   33 ar 
    34   32   34 ar 
    35   35   36 1  
    36   36   37 1  
    37   36   39 1  
    38   37   38 2  
    39   37   46 am 
    40   39   40 1  
    41   40   41 1  
    42   41   42 1  
    43   42   43 ar 
    44   43   44 ar 
    45   43   45 ar 
    46   46   47 1  
    47   47   48 1  
    48   47   50 1  
    49   48   49 2  
    50   48   51 am 
    51   51   52 1  
    52   52   53 1  
    53   52   55 1  
    54   53   54 2  
    55   53   56 am 
    56   56   57 1  
    57   57   58 1  
    58   57   60 1  
    59   58   59 2  
    60   58   67 am 
    61   60   61 1  
    62   61   62 1  
    63   62   63 1  
    64   63   64 ar 
    65   64   65 ar 
    66   64   66 ar 
    67   67   68 1  
    68   68   69 1  
    69   68   71 1  
    70   69   70 2  
    71   69   73 am 
    72   71   72 1  
    73   73   74 1  
    74   74   75 1  
    75   74   80 1  
    76   75   76 1  
    77   76   77 1  
    78   77   78 1  
    79   78   79 1  
    80   79   82 1  
    81   79   83 1  
    82   79   84 1  
    83   80   81 2  
    84   80   85 am 
    85   85   86 1  
    86   86   87 1  
    87   86   89 1  
    88   87   88 ar 
    89   87   92 ar 
    90   89   90 1  
    91   89   91 1  
    92    1   93 1  
    93    1   94 1  
    94    2   95 1  
    95    5   96 1  
    96    5   97 1  
    97    6   98 1  
    98    6   99 1  
    99    7  100 1  
   100    7  101 1  
   101    8  102 1  
   102    9  103 1  
   103   12  104 1  
   104   12  105 1  
   105   12  106 1  
   106   13  107 1  
   107   14  108 1  
   108   17  109 1  
   109   17  110 1  
   110   18  111 1  
   111   18  112 1  
   112   18  113 1  
   113   19  114 1  
   114   20  115 1  
   115   23  116 1  
   116   23  117 1  
   117   23  118 1  
   118   24  119 1  
   119   25  120 1  
   120   26  121 1  
   121   28  122 1  
   122   28  123 1  
   123   29  124 1  
   124   29  125 1  
   125   30  126 1  
   126   30  127 1  
   127   31  128 1  
   128   33  129 1  
   129   33  130 1  
   130   34  131 1  
   131   34  132 1  
   132   35  133 1  
   133   35  134 1  
   134   35  135 1  
   135   36  136 1  
   136   39  137 1  
   137   39  138 1  
   138   40  139 1  
   139   40  140 1  
   140   41  141 1  
   141   41  142 1  
   142   42  143 1  
   143   44  144 1  
   144   44  145 1  
   145   45  146 1  
   146   45  147 1  
   147   46  148 1  
   148   47  149 1  
   149   50  150 1  
   150   50  151 1  
   151   50  152 1  
   152   51  153 1  
   153   52  154 1  
   154   55  155 1  
   155   55  156 1  
   156   55  157 1  
   157   56  158 1  
   158   57  159 1  
   159   60  160 1  
   160   60  161 1  
   161   61  162 1  
   162   61  163 1  
   163   62  164 1  
   164   62  165 1  
   165   63  166 1  
   166   65  167 1  
   167   65  168 1  
   168   66  169 1  
   169   66  170 1  
   170   67  171 1  
   171   68  172 1  
   172   71  173 1  
   173   71  174 1  
   174   72  175 1  
   175   73  176 1  
   176   74  177 1  
   177   75  178 1  
   178   75  179 1  
   179   76  180 1  
   180   76  181 1  
   181   77  182 1  
   182   77  183 1  
   183   78  184 1  
   184   78  185 1  
   185   82  186 1  
   186   82  187 1  
   187   82  188 1  
   188   83  189 1  
   189   83  190 1  
   190   83  191 1  
   191   84  192 1  
   192   84  193 1  
   193   84  194 1  
   194   85  195 1  
   195   86  196 1  
   196   89  197 1  
   197   90  198 1  
   198   90  199 1  
   199   90  200 1  
   200   91  201 1  
   201   91  202 1  
   202   91  203 1  
@<TRIPOS>SUBSTRUCTURE
     1 PRO         1
     2 ARG        35

