4nw2_ligand
  -I-interpret- 

201200  0  0  0  0  0  0  0  0999 V2000
   49.3530   -2.3500  -11.9420 N   0  3  0  0  0
   48.7420   -3.6220  -11.5570 C   0  0  0  0  0
   47.9580   -4.2530  -12.6930 C   0  0  0  0  0
   47.0080   -3.6540  -13.1800 O   0  0  0  0  0
   47.8180   -3.2190  -10.4140 C   0  0  0  0  0
   48.5550   -2.1080   -9.7500 C   0  0  0  0  0
   49.3870   -1.4070  -10.8110 C   0  0  0  0  0
   48.3540   -5.4540  -13.1010 N   0  0  0  0  0
   47.6930   -6.1340  -14.2030 C   0  0  0  0  0
   46.2800   -6.5540  -13.8200 C   0  0  0  0  0
   46.0620   -7.1760  -12.7790 O   0  0  0  0  0
   48.5050   -7.3520  -14.6460 C   0  0  0  0  0
   45.3210   -6.2010  -14.6670 N   0  0  0  0  0
   43.9410   -6.6160  -14.4740 C   0  0  0  0  0
   43.7270   -7.9850  -15.1100 C   0  0  0  0  0
   43.9100   -8.1530  -16.3180 O   0  0  0  0  0
   42.9770   -5.5830  -15.0650 C   0  0  0  0  0
   43.1280   -4.1890  -14.4680 C   0  0  0  0  0
   43.3540   -8.9600  -14.2860 N   0  0  0  0  0
   43.1660  -10.3310  -14.7450 C   0  0  0  0  0
   41.6930  -10.6310  -15.0120 C   0  0  0  0  0
   40.8310   -9.7740  -14.8110 O   0  0  0  0  0
   43.7250  -11.3180  -13.7160 C   0  0  0  0  0
   41.4120  -11.8480  -15.4670 N   0  0  0  0  0
   40.0380  -12.2710  -15.7120 C   0  0  0  0  0
   39.3610  -12.6830  -14.4070 C   0  0  0  0  0
   38.2020  -12.3490  -14.1630 O   0  0  0  0  0
   39.9950  -13.4260  -16.7130 C   0  0  0  0  0
   38.5830  -13.8810  -17.0680 C   0  0  0  0  0
   38.5800  -15.2140  -17.8010 C   0  0  0  0  0
   39.3490  -15.1700  -19.0430 N   0  0  0  0  0
   38.8510  -14.8010  -20.2210 C   0  0  0  0  0
   39.6280  -14.7950  -21.2980 N   0  0  0  0  0
   37.5790  -14.4370  -20.3230 N   0  0  0  0  0
   34.4960  -18.9280  -13.1360 N   0  3  0  0  0
   33.4510  -19.6970  -13.8000 C   0  0  0  0  0
   32.3150  -18.7820  -14.2430 C   0  0  0  0  0
   32.1030  -17.7140  -13.6670 O   0  0  0  0  0
   32.9220  -20.8010  -12.8790 C   0  0  0  0  0
   32.2830  -20.2920  -11.5960 C   0  0  0  0  0
   32.1110  -21.4050  -10.5720 C   0  0  0  0  0
   30.8780  -22.1720  -10.7530 N   0  0  0  0  0
   29.8540  -22.1510   -9.9010 C   0  0  0  0  0
   29.9140  -21.4030   -8.8060 N   0  0  0  0  0
   28.7730  -22.8850  -10.1320 N   0  0  0  0  0
   31.5830  -19.2040  -15.2670 N   0  0  0  0  0
   30.5270  -18.3780  -15.8360 C   0  0  0  0  0
   29.1790  -18.5830  -15.1340 C   0  0  0  0  0
   28.2530  -17.7950  -15.3290 O   0  0  0  0  0
   30.3590  -18.6530  -17.3490 C   0  0  0  0  0
   29.0660  -19.6290  -14.3170 N   0  0  0  0  0
   27.7950  -19.9180  -13.6490 C   0  0  0  0  0
   27.6680  -19.2020  -12.3040 C   0  0  0  0  0
   28.5860  -19.2150  -11.4910 O   0  0  0  0  0
   27.6090  -21.4290  -13.4650 C   0  0  0  0  0
   26.5110  -18.5820  -12.0940 N   0  0  0  0  0
   26.1840  -17.8610  -10.8690 C   0  0  0  0  0
   24.7710  -18.2070  -10.3990 C   0  0  0  0  0
   23.9930  -18.8280  -11.1240 O   0  0  0  0  0
   26.2660  -16.3450  -11.0790 C   0  0  0  0  0
   27.5180  -15.8150  -11.7530 C   0  0  0  0  0
   27.3250  -14.3580  -12.1880 C   0  0  0  0  0
   26.5870  -14.2510  -13.4470 N   0  0  0  0  0
   26.3340  -13.1030  -14.0710 C   0  0  0  0  0
   25.6680  -13.0950  -15.2200 N   0  0  0  0  0
   26.7490  -11.9580  -13.5480 N   0  0  0  0  0
   24.4290  -17.7720   -9.1940 N   0  0  0  0  0
   23.0380  -17.8160   -8.7530 C   0  0  0  0  0
   22.7300  -16.5830   -7.9090 C   0  0  0  0  0
   23.6370  -15.9590   -7.3590 O   0  0  0  0  0
   22.7440  -19.0960   -7.9640 C   0  0  0  0  0
   23.4910  -19.1510   -6.7650 O   0  0  0  0  0
   21.4540  -16.2250   -7.8290 N   0  0  0  0  0
   21.0370  -15.1060   -7.0250 C   0  0  0  0  0
   19.6160  -14.6240   -7.3480 C   0  0  0  0  0
   19.5220  -14.1680   -8.7860 C   0  0  0  0  0
   19.3030  -12.6660   -8.8340 C   0  0  0  0  0
   20.2550  -12.0820   -9.8630 C   0  0  0  0  0
   20.4790  -10.5860   -9.8660 N   0  3  0  0  0
   21.0860  -15.4500   -5.5370 C   0  0  0  0  0
   20.3920  -16.3240   -5.0220 O   0  0  0  0  0
   19.3050   -9.8390   -9.3290 C   0  0  0  0  0
   20.7860  -10.1230  -11.2570 C   0  0  0  0  0
   21.6630  -10.3000   -8.9970 C   0  0  0  0  0
   21.9520  -14.7380   -4.8250 N   0  0  0  0  0
   22.1630  -15.0070   -3.4040 C   0  0  0  0  0
   21.7580  -13.8240   -2.5240 C   0  0  0  0  0
   21.3000  -14.0140   -1.3940 O   0  0  0  0  0
   23.6400  -15.3720   -3.1100 C   0  0  0  0  0
   24.0170  -16.6690   -3.8130 C   0  0  0  0  0
   24.5700  -14.2400   -3.5290 C   0  0  0  0  0
   21.8730  -12.6590   -2.9130 O   0  0  0  0  0
   48.7978   -1.9374  -12.6916 H   0  0  0  0  0
   50.3107   -2.5286  -12.2441 H   0  0  0  0  0
   49.4810   -4.3748  -11.2827 H   0  0  0  0  0
   47.6061   -4.0454   -9.7355 H   0  0  0  0  0
   46.8297   -2.9175  -10.7609 H   0  0  0  0  0
   49.1973   -2.4974   -8.9601 H   0  0  0  0  0
   47.8553   -1.4083   -9.2929 H   0  0  0  0  0
   48.9951   -0.4237  -11.0712 H   0  0  0  0  0
   50.4008   -1.1896  -10.4749 H   0  0  0  0  0
   49.1375   -5.9080  -12.6316 H   0  0  0  0  0
   47.6261   -5.4344  -15.0362 H   0  0  0  0  0
   49.4941   -7.0291  -14.9709 H   0  0  0  0  0
   48.6039   -8.0447  -13.8102 H   0  0  0  0  0
   47.9937   -7.8472  -15.4715 H   0  0  0  0  0
   45.5582   -5.6239  -15.4739 H   0  0  0  0  0
   43.7362   -6.6868  -13.4057 H   0  0  0  0  0
   41.9641   -5.9218  -14.8476 H   0  0  0  0  0
   43.1959   -5.5060  -16.1300 H   0  0  0  0  0
   42.9394   -4.2322  -13.3953 H   0  0  0  0  0
   44.1405   -3.8267  -14.6459 H   0  0  0  0  0
   42.4117   -3.5146  -14.9373 H   0  0  0  0  0
   43.1945   -8.7419  -13.3024 H   0  0  0  0  0
   43.7098  -10.4458  -15.6827 H   0  0  0  0  0
   44.7899  -11.1317  -13.5770 H   0  0  0  0  0
   43.2048  -11.1854  -12.7674 H   0  0  0  0  0
   43.5767  -12.3368  -14.0739 H   0  0  0  0  0
   42.1745  -12.5006  -15.6489 H   0  0  0  0  0
   39.4965  -11.4251  -16.1355 H   0  0  0  0  0
   39.9119  -13.2813  -13.6813 H   0  0  0  0  0
   40.5036  -14.2735  -16.2534 H   0  0  0  0  0
   40.4647  -13.0768  -17.6325 H   0  0  0  0  0
   38.1383  -13.1315  -17.7227 H   0  0  0  0  0
   38.0209  -14.0005  -16.1418 H   0  0  0  0  0
   37.5478  -15.4577  -18.0525 H   0  0  0  0  0
   39.0365  -15.9582  -17.1484 H   0  0  0  0  0
   40.3319  -15.4398  -19.0046 H   0  0  0  0  0
   39.2466  -14.5111  -22.2004 H   0  0  0  0  0
   40.6061  -15.0743  -21.2228 H   0  0  0  0  0
   36.9800  -14.4395  -19.4974 H   0  0  0  0  0
   35.2465  -19.5553  -12.8470 H   0  0  0  0  0
   34.8647  -18.2296  -13.7815 H   0  0  0  0  0
   34.1055  -18.4628  -12.3165 H   0  0  0  0  0
   33.8820  -20.1668  -14.6841 H   0  0  0  0  0
   33.7753  -21.4150  -12.5910 H   0  0  0  0  0
   32.1502  -21.3373  -13.4312 H   0  0  0  0  0
   31.2979  -19.8930  -11.8380 H   0  0  0  0  0
   32.9333  -19.5292  -11.1678 H   0  0  0  0  0
   32.0695  -20.9422   -9.5860 H   0  0  0  0  0
   32.9478  -22.0935  -10.6899 H   0  0  0  0  0
   30.7975  -22.7592  -11.5831 H   0  0  0  0  0
   29.1329  -21.3955   -8.1500 H   0  0  0  0  0
   30.7412  -20.8357   -8.6206 H   0  0  0  0  0
   28.7224  -23.4700  -10.9660 H   0  0  0  0  0
   31.7640  -20.1261  -15.6636 H   0  0  0  0  0
   30.8360  -17.3439  -15.6834 H   0  0  0  0  0
   31.2933  -18.4288  -17.8637 H   0  0  0  0  0
   30.1020  -19.7014  -17.5001 H   0  0  0  0  0
   29.5637  -18.0218  -17.7456 H   0  0  0  0  0
   29.8713  -20.2337  -14.1553 H   0  0  0  0  0
   27.0050  -19.5373  -14.2963 H   0  0  0  0  0
   27.6131  -21.9157  -14.4403 H   0  0  0  0  0
   28.4239  -21.8228  -12.8575 H   0  0  0  0  0
   26.6582  -21.6187  -12.9669 H   0  0  0  0  0
   25.8097  -18.6123  -12.8341 H   0  0  0  0  0
   26.9116  -18.1631  -10.1157 H   0  0  0  0  0
   26.2525  -15.9034  -10.0825 H   0  0  0  0  0
   25.4385  -16.0891  -11.7407 H   0  0  0  0  0
   27.7264  -16.4209  -12.6348 H   0  0  0  0  0
   28.3462  -15.8645  -11.0460 H   0  0  0  0  0
   28.3098  -13.9138  -12.3330 H   0  0  0  0  0
   26.7527  -13.8458  -11.4145 H   0  0  0  0  0
   26.2444  -15.1117  -13.8739 H   0  0  0  0  0
   25.4790  -12.2117  -15.6938 H   0  0  0  0  0
   25.3454  -13.9721  -15.6286 H   0  0  0  0  0
   27.2626  -11.9563  -12.6668 H   0  0  0  0  0
   25.1453  -17.4028   -8.5687 H   0  0  0  0  0
   22.3955  -17.8193   -9.6335 H   0  0  0  0  0
   23.0189  -19.9517   -8.5807 H   0  0  0  0  0
   21.6840  -19.1086   -7.7104 H   0  0  0  0  0
   23.2834  -19.9630   -6.2969 H   0  0  0  0  0
   20.7538  -16.7544   -8.3486 H   0  0  0  0  0
   21.7386  -14.3065   -7.2630 H   0  0  0  0  0
   19.3707  -13.7862   -6.6954 H   0  0  0  0  0
   18.9200  -15.4484   -7.1930 H   0  0  0  0  0
   18.6848  -14.6707   -9.2702 H   0  0  0  0  0
   20.4486  -14.4146   -9.3043 H   0  0  0  0  0
   19.4939  -12.2274   -7.8546 H   0  0  0  0  0
   18.2716  -12.4457   -9.1093 H   0  0  0  0  0
   19.8043  -12.3060  -10.8298 H   0  0  0  0  0
   21.2276  -12.5168   -9.6326 H   0  0  0  0  0
   18.4292  -10.0519   -9.9420 H   0  0  0  0  0
   19.1160  -10.1515   -8.3020 H   0  0  0  0  0
   19.5149   -8.7697   -9.3520 H   0  0  0  0  0
   21.6854  -10.6239  -11.6151 H   0  0  0  0  0
   19.9489  -10.3645  -11.9120 H   0  0  0  0  0
   20.9463   -9.0449  -11.2526 H   0  0  0  0  0
   21.4625  -10.6513   -7.9848 H   0  0  0  0  0
   22.5372  -10.8150   -9.3952 H   0  0  0  0  0
   21.8488   -9.2261   -8.9801 H   0  0  0  0  0
   22.4787  -13.9909   -5.2775 H   0  0  0  0  0
   21.5238  -15.8557   -3.1607 H   0  0  0  0  0
   21.2644  -14.9572   -1.2188 H   0  0  0  0  0
   23.7505  -15.5189   -2.0356 H   0  0  0  0  0
   23.3743  -17.4740   -3.4566 H   0  0  0  0  0
   23.8881  -16.5485   -4.8886 H   0  0  0  0  0
   25.0576  -16.9096   -3.5952 H   0  0  0  0  0
   24.4585  -14.0566   -4.5976 H   0  0  0  0  0
   24.3134  -13.3369   -2.9753 H   0  0  0  0  0
   25.6011  -14.5197   -3.3127 H   0  0  0  0  0
  1  2  1  0  0  0
  1  7  1  0  0  0
  2  3  1  0  0  0
  2  5  1  0  0  0
  3  4  2  0  0  0
  3  8  1  0  0  0
  5  6  1  0  0  0
  6  7  1  0  0  0
  8  9  1  0  0  0
  9 10  1  0  0  0
  9 12  1  0  0  0
 10 11  2  0  0  0
 10 13  1  0  0  0
 13 14  1  0  0  0
 14 15  1  0  0  0
 14 17  1  0  0  0
 15 16  2  0  0  0
 15 19  1  0  0  0
 17 18  1  0  0  0
 19 20  1  0  0  0
 20 21  1  0  0  0
 20 23  1  0  0  0
 21 22  2  0  0  0
 21 24  1  0  0  0
 24 25  1  0  0  0
 25 26  1  0  0  0
 25 28  1  0  0  0
 26 27  2  0  0  0
 28 29  1  0  0  0
 29 30  1  0  0  0
 30 31  1  0  0  0
 31 32  1  0  0  0
 32 33  1  0  0  0
 32 34  2  0  0  0
 35 36  1  0  0  0
 36 37  1  0  0  0
 36 39  1  0  0  0
 37 38  2  0  0  0
 37 46  1  0  0  0
 39 40  1  0  0  0
 40 41  1  0  0  0
 41 42  1  0  0  0
 42 43  1  0  0  0
 43 44  1  0  0  0
 43 45  2  0  0  0
 46 47  1  0  0  0
 47 48  1  0  0  0
 47 50  1  0  0  0
 48 49  2  0  0  0
 48 51  1  0  0  0
 51 52  1  0  0  0
 52 53  1  0  0  0
 52 55  1  0  0  0
 53 54  2  0  0  0
 53 56  1  0  0  0
 56 57  1  0  0  0
 57 58  1  0  0  0
 57 60  1  0  0  0
 58 59  2  0  0  0
 58 67  1  0  0  0
 60 61  1  0  0  0
 61 62  1  0  0  0
 62 63  1  0  0  0
 63 64  1  0  0  0
 64 65  1  0  0  0
 64 66  2  0  0  0
 67 68  1  0  0  0
 68 69  1  0  0  0
 68 71  1  0  0  0
 69 70  2  0  0  0
 69 73  1  0  0  0
 71 72  1  0  0  0
 73 74  1  0  0  0
 74 75  1  0  0  0
 74 80  1  0  0  0
 75 76  1  0  0  0
 76 77  1  0  0  0
 77 78  1  0  0  0
 78 79  1  0  0  0
 79 82  1  0  0  0
 79 83  1  0  0  0
 79 84  1  0  0  0
 80 81  2  0  0  0
 80 85  1  0  0  0
 85 86  1  0  0  0
 86 87  1  0  0  0
 86 89  1  0  0  0
 87 88  1  0  0  0
 87 92  2  0  0  0
 89 90  1  0  0  0
 89 91  1  0  0  0
  1 93  1  0  0  0
  1 94  1  0  0  0
  2 95  1  0  0  0
  5 96  1  0  0  0
  5 97  1  0  0  0
  6 98  1  0  0  0
  6 99  1  0  0  0
  7100  1  0  0  0
  7101  1  0  0  0
  8102  1  0  0  0
  9103  1  0  0  0
 12104  1  0  0  0
 12105  1  0  0  0
 12106  1  0  0  0
 13107  1  0  0  0
 14108  1  0  0  0
 17109  1  0  0  0
 17110  1  0  0  0
 18111  1  0  0  0
 18112  1  0  0  0
 18113  1  0  0  0
 19114  1  0  0  0
 20115  1  0  0  0
 23116  1  0  0  0
 23117  1  0  0  0
 23118  1  0  0  0
 24119  1  0  0  0
 25120  1  0  0  0
 26121  1  0  0  0
 28122  1  0  0  0
 28123  1  0  0  0
 29124  1  0  0  0
 29125  1  0  0  0
 30126  1  0  0  0
 30127  1  0  0  0
 31128  1  0  0  0
 33129  1  0  0  0
 33130  1  0  0  0
 34131  1  0  0  0
 35132  1  0  0  0
 35133  1  0  0  0
 35134  1  0  0  0
 36135  1  0  0  0
 39136  1  0  0  0
 39137  1  0  0  0
 40138  1  0  0  0
 40139  1  0  0  0
 41140  1  0  0  0
 41141  1  0  0  0
 42142  1  0  0  0
 44143  1  0  0  0
 44144  1  0  0  0
 45145  1  0  0  0
 46146  1  0  0  0
 47147  1  0  0  0
 50148  1  0  0  0
 50149  1  0  0  0
 50150  1  0  0  0
 51151  1  0  0  0
 52152  1  0  0  0
 55153  1  0  0  0
 55154  1  0  0  0
 55155  1  0  0  0
 56156  1  0  0  0
 57157  1  0  0  0
 60158  1  0  0  0
 60159  1  0  0  0
 61160  1  0  0  0
 61161  1  0  0  0
 62162  1  0  0  0
 62163  1  0  0  0
 63164  1  0  0  0
 65165  1  0  0  0
 65166  1  0  0  0
 66167  1  0  0  0
 67168  1  0  0  0
 68169  1  0  0  0
 71170  1  0  0  0
 71171  1  0  0  0
 72172  1  0  0  0
 73173  1  0  0  0
 74174  1  0  0  0
 75175  1  0  0  0
 75176  1  0  0  0
 76177  1  0  0  0
 76178  1  0  0  0
 77179  1  0  0  0
 77180  1  0  0  0
 78181  1  0  0  0
 78182  1  0  0  0
 82183  1  0  0  0
 82184  1  0  0  0
 82185  1  0  0  0
 83186  1  0  0  0
 83187  1  0  0  0
 83188  1  0  0  0
 84189  1  0  0  0
 84190  1  0  0  0
 84191  1  0  0  0
 85192  1  0  0  0
 86193  1  0  0  0
 88194  1  0  0  0
 89195  1  0  0  0
 90196  1  0  0  0
 90197  1  0  0  0
 90198  1  0  0  0
 91199  1  0  0  0
 91200  1  0  0  0
 91201  1  0  0  0
M  END
$$$$
