### 
### Created by X-TOOL on Mon Sep 10 21:12:49 2018
### 

@<TRIPOS>MOLECULE
1klg_ligand
  216   216     1     0     0
SMALL
GAST_HUCK


@<TRIPOS>ATOM
      1 N         123.5620   51.4380  -17.7730 N.4       1 GLY         0.2357
      2 CA        124.2760   52.5390  -18.4910 C.3       1 GLY         0.0545
      3 C         125.7420   52.2350  -18.7720 C.2       1 GLY         0.2236
      4 O         126.1860   51.0910  -18.6280 O.2       1 GLY        -0.3910
      5 N         126.4900   53.2650  -19.1740 N.am      1 GLU        -0.2612
      6 CA        127.9230   53.1500  -19.4860 C.3       1 GLU         0.1326
      7 C         128.7470   52.8300  -18.2310 C.2       1 GLU         0.2040
      8 O         128.4480   53.3330  -17.1410 O.2       1 GLU        -0.3944
      9 CB        128.4090   54.4480  -20.1420 C.3       1 GLU        -0.0008
     10 CG        127.3310   55.5330  -20.2400 C.3       1 GLU         0.0044
     11 CD        127.7040   56.6630  -21.1930 C.2       1 GLU         0.0350
     12 OE1       126.9000   57.6150  -21.3320 O.co2     1 GLU        -0.5690
     13 OE2       128.7980   56.5970  -21.8030 O.co2     1 GLU        -0.5690
     14 N         129.7900   52.0130  -18.3850 N.am      1 LEU        -0.2637
     15 CA        130.5990   51.5950  -17.2390 C.3       1 LEU         0.1312
     16 C         131.6810   52.5590  -16.7480 C.2       1 LEU         0.2039
     17 O         132.5510   52.9940  -17.5050 O.2       1 LEU        -0.3944
     18 CB        131.2450   50.2280  -17.5220 C.3       1 LEU        -0.0101
     19 CG        131.7350   49.3940  -16.3270 C.3       1 LEU        -0.0425
     20 CD1       130.5450   48.7880  -15.6090 C.3       1 LEU        -0.0625
     21 CD2       132.6490   48.2750  -16.8030 C.3       1 LEU        -0.0625
     22 N         131.5990   52.8900  -15.4620 N.am      1 ILE        -0.2635
     23 CA        132.5930   53.7420  -14.8320 C.3       1 ILE         0.1335
     24 C         133.7350   52.8330  -14.4410 C.2       1 ILE         0.2040
     25 O         133.5590   51.8440  -13.7230 O.2       1 ILE        -0.3944
     26 CB        132.0680   54.4420  -13.5780 C.3       1 ILE        -0.0037
     27 CG1       131.0740   55.5410  -13.9800 C.3       1 ILE        -0.0491
     28 CG2       133.2330   55.0620  -12.8000 C.3       1 ILE        -0.0582
     29 CD1       131.6160   56.7300  -14.8240 C.3       1 ILE        -0.0648
     30 N         134.9200   53.1790  -14.9250 N.am      1 GLY        -0.2664
     31 CA        136.0910   52.3640  -14.6550 C.3       1 GLY         0.1201
     32 C         136.7140   52.6290  -13.2970 C.2       1 GLY         0.2008
     33 O         136.6010   53.7120  -12.7160 O.2       1 GLY        -0.3947
     34 N         137.3570   51.4070  -12.5810 N.am      1 ILE        -0.2637
     35 CA        137.9670   51.5830  -11.2950 C.3       1 ILE         0.1335
     36 C         139.4890   51.6090  -11.4020 C.2       1 ILE         0.2042
     37 O         140.0390   51.3970  -12.4760 O.2       1 ILE        -0.3944
     38 CB        137.5620   50.4200  -10.3800 C.3       1 ILE        -0.0037
     39 CG1       137.4760   50.9190   -8.9530 C.3       1 ILE        -0.0491
     40 CG2       138.5550   49.2290  -10.5380 C.3       1 ILE        -0.0582
     41 CD1       137.1370   49.7940   -7.9540 C.3       1 ILE        -0.0648
     42 N         140.3130   51.9570  -10.6710 N.am      1 LEU        -0.2637
     43 CA        141.7730   51.8630  -10.6670 C.3       1 LEU         0.1312
     44 C         142.0550   50.9120   -9.5050 C.2       1 LEU         0.2040
     45 O         141.5510   51.1140   -8.4040 O.2       1 LEU        -0.3944
     46 CB        142.3860   53.2500  -10.4200 C.3       1 LEU        -0.0101
     47 CG        143.5520   53.6340  -11.3410 C.3       1 LEU        -0.0425
     48 CD1       143.1650   53.3270  -12.7810 C.3       1 LEU        -0.0625
     49 CD2       143.9000   55.1180  -11.1880 C.3       1 LEU        -0.0625
     50 N         142.8340   49.8680   -9.7480 N.am      1 ASN        -0.2616
     51 CA        143.1260   48.8910   -8.7020 C.3       1 ASN         0.1476
     52 C         144.1030   49.3710   -7.6460 C.2       1 ASN         0.2062
     53 O         145.1050   50.0050   -7.9600 O.2       1 ASN        -0.3942
     54 CB        143.6520   47.5950   -9.3220 C.3       1 ASN         0.0773
     55 CG        142.6250   46.9190  -10.2270 C.2       1 ASN         0.1780
     56 OD1       141.4700   46.7190   -9.8410 O.2       1 ASN        -0.3970
     57 ND2       143.0490   46.5530  -11.4290 N.am      1 ASN        -0.3007
     58 N         143.8020   49.0630   -6.3880 N.am      1 ALA        -0.2639
     59 CA        144.6690   49.4580   -5.2770 C.3       1 ALA         0.1282
     60 C         145.9990   48.7220   -5.3900 C.2       1 ALA         0.2036
     61 O         146.0350   47.5440   -5.7560 O.2       1 ALA        -0.3944
     62 CB        143.9980   49.1340   -3.9330 C.3       1 ALA        -0.0244
     63 N         147.0910   49.4110   -5.0800 N.am      1 ALA        -0.2640
     64 CA        148.4170   48.8030   -5.1520 C.3       1 ALA         0.1282
     65 C         148.8130   48.2470   -3.7890 C.2       1 ALA         0.2036
     66 O         148.7030   48.9410   -2.7850 O.2       1 ALA        -0.3944
     67 CB        149.4430   49.8380   -5.6040 C.3       1 ALA        -0.0244
     68 N         149.2710   47.0000   -3.7560 N.am      1 LYS        -0.2637
     69 CA        149.6950   46.3740   -2.5070 C.3       1 LYS         0.1310
     70 C         151.0400   46.9760   -2.0810 C.2       1 LYS         0.2039
     71 O         151.9550   47.0570   -2.9040 O.2       1 LYS        -0.3944
     72 CB        149.8580   44.8560   -2.7050 C.3       1 LYS        -0.0122
     73 CG        148.6200   44.1280   -3.2470 C.3       1 LYS        -0.0440
     74 CD        148.7880   42.6050   -3.2450 C.3       1 LYS        -0.0124
     75 CE        149.1130   42.0490   -1.8440 C.3       1 LYS        -0.0354
     76 NZ        148.0850   42.3320   -0.7880 N.4       1 LYS         0.2185
     77 N         151.1750   47.4080   -0.8220 N.am      1 VAL        -0.2635
     78 CA        152.4570   47.9680   -0.3820 C.3       1 VAL         0.1334
     79 C         153.3970   46.7890   -0.0980 C.2       1 VAL         0.2066
     80 O         152.9370   45.6590    0.1000 O.2       1 VAL        -0.3942
     81 CB        152.3320   48.8320    0.9130 C.3       1 VAL        -0.0062
     82 CG1       151.1220   49.7410    0.8320 C.3       1 VAL        -0.0584
     83 CG2       152.2650   47.9470    2.1400 C.3       1 VAL        -0.0584
     84 N         154.7180   47.0330   -0.0690 N.am      1 PRO        -0.2498
     85 CA        155.6820   45.9560    0.1950 C.3       1 PRO         0.1338
     86 C         155.4390   45.2450    1.5310 C.2       1 PRO         0.2041
     87 O         155.1710   45.8860    2.5370 O.2       1 PRO        -0.3944
     88 CB        157.0240   46.6790    0.1410 C.3       1 PRO        -0.0104
     89 CG        156.6880   48.0730    0.5960 C.3       1 PRO        -0.0281
     90 CD        155.3870   48.3460   -0.1310 C.3       1 PRO         0.0369
     91 N         155.5490   43.9190    1.5180 N.am      1 ALA        -0.2640
     92 CA        155.3270   43.0820    2.7000 C.3       1 ALA         0.1282
     93 C         156.3170   43.3230    3.8320 C.2       1 ALA         0.2031
     94 O         157.4040   43.8410    3.6090 O.2       1 ALA        -0.3944
     95 CB        155.3560   41.6060    2.3130 C.3       1 ALA        -0.0244
     96 N         155.9560   42.9300    5.0550 N.am      1 ASP        -0.2679
     97 CA        156.8340   43.1010    6.2400 C.3       1 ASP         0.1057
     98 C         158.0470   42.1730    6.1820 C.2       1 ASP         0.0618
     99 O         159.1560   42.6650    6.4580 O.co2     1 ASP        -0.5665
    100 CB        156.0790   42.7930    7.5520 C.3       1 ASP         0.0351
    101 CG        155.0210   43.8230    7.8900 C.2       1 ASP         0.0387
    102 OD1       155.2390   45.0230    7.6260 O.co2     1 ASP        -0.5688
    103 OD2       153.9740   43.4190    8.4330 O.co2     1 ASP        -0.5688
    104 OXT       157.8550   40.9680    5.9010 O.co2     1 ASP        -0.5665
    105 H1        122.6018   51.7040  -17.6201 H         1 GLY         0.2012
    106 H2        124.0095   51.2700  -16.8856 H         1 GLY         0.2012
    107 H3        123.5934   50.5982  -18.3295 H         1 GLY         0.2012
    108 H4        124.2216   53.4484  -17.8746 H         1 GLY         0.1061
    109 H5        123.7676   52.7153  -19.4504 H         1 GLY         0.1061
    110 H6        126.0541   54.1601  -19.2678 H         1 GLU         0.1884
    111 H7        128.0569   52.3258  -20.2021 H         1 GLU         0.0801
    112 H8        128.7581   54.2133  -21.1584 H         1 GLU         0.0330
    113 H9        129.2465   54.8439  -19.5488 H         1 GLU         0.0330
    114 H10       127.1706   55.9585  -19.2384 H         1 GLU         0.0433
    115 H11       126.3989   55.0692  -20.5950 H         1 GLU         0.0433
    116 H12       130.0232   51.6804  -19.2988 H         1 LEU         0.1883
    117 H13       129.8970   51.4677  -16.4018 H         1 LEU         0.0800
    118 H14       132.1135   50.4063  -18.1731 H         1 LEU         0.0315
    119 H15       130.5018   49.6213  -18.0601 H         1 LEU         0.0315
    120 H16       132.2881   50.0452  -15.6342 H         1 LEU         0.0298
    121 H17       130.8972   48.1917  -14.7544 H         1 LEU         0.0232
    122 H18       129.9885   48.1410  -16.3030 H         1 LEU         0.0232
    123 H19       129.8860   49.5916  -15.2486 H         1 LEU         0.0232
    124 H20       133.5155   48.7066  -17.3254 H         1 LEU         0.0232
    125 H21       132.0965   47.6177  -17.4905 H         1 LEU         0.0232
    126 H22       132.9960   47.6917  -15.9374 H         1 LEU         0.0232
    127 H23       130.8355   52.5444  -14.9164 H         1 ILE         0.1883
    128 H24       132.9357   54.5016  -15.5500 H         1 ILE         0.0803
    129 H25       131.5573   53.7062  -12.9395 H         1 ILE         0.0345
    130 H26       130.6542   55.9598  -13.0535 H         1 ILE         0.0267
    131 H27       130.2726   55.0627  -14.5623 H         1 ILE         0.0267
    132 H28       133.9436   54.2728  -12.5132 H         1 ILE         0.0235
    133 H29       132.8484   55.5555  -11.8953 H         1 ILE         0.0235
    134 H30       133.7436   55.8028  -13.4329 H         1 ILE         0.0235
    135 H31       130.7969   57.4333  -15.0350 H         1 ILE         0.0230
    136 H32       132.0263   56.3503  -15.7713 H         1 ILE         0.0230
    137 H33       132.4079   57.2473  -14.2625 H         1 ILE         0.0230
    138 H34       135.0078   54.0065  -15.4795 H         1 GLY         0.1881
    139 H35       136.8444   52.5698  -15.4296 H         1 GLY         0.0763
    140 H36       135.7965   51.3052  -14.7021 H         1 GLY         0.0763
    141 H37       137.3452   50.5057  -13.0140 H         1 ILE         0.1883
    142 H38       137.6196   52.5319  -10.8604 H         1 ILE         0.0803
    143 H39       136.5638   50.0692  -10.6809 H         1 ILE         0.0345
    144 H40       136.6934   51.6898   -8.8952 H         1 ILE         0.0267
    145 H41       138.4449   51.3586   -8.6739 H         1 ILE         0.0267
    146 H42       138.5780   48.9079  -11.5898 H         1 ILE         0.0235
    147 H43       138.2261   48.3910   -9.9059 H         1 ILE         0.0235
    148 H44       139.5617   49.5476  -10.2299 H         1 ILE         0.0235
    149 H45       137.0870   50.2097   -6.9368 H         1 ILE         0.0230
    150 H46       137.9169   49.0194   -7.9956 H         1 ILE         0.0230
    151 H47       136.1653   49.3506   -8.2170 H         1 ILE         0.0230
    152 H48       139.9491   52.4244   -9.8653 H         1 LEU         0.1883
    153 H49       142.1517   51.4529  -11.6149 H         1 LEU         0.0800
    154 H50       142.7507   53.2788   -9.3826 H         1 LEU         0.0315
    155 H51       141.5912   53.9992  -10.5502 H         1 LEU         0.0315
    156 H52       144.4341   53.0352  -11.0703 H         1 LEU         0.0298
    157 H53       143.9950   53.5990  -13.4497 H         1 LEU         0.0232
    158 H54       142.2706   53.9072  -13.0520 H         1 LEU         0.0232
    159 H55       142.9498   52.2530  -12.8819 H         1 LEU         0.0232
    160 H56       144.1771   55.3238  -10.1436 H         1 LEU         0.0232
    161 H57       143.0280   55.7294  -11.4632 H         1 LEU         0.0232
    162 H58       144.7448   55.3664  -11.8472 H         1 LEU         0.0232
    163 H59       143.2272   49.7473  -10.6595 H         1 ASN         0.1885
    164 H60       142.1768   48.6678   -8.1929 H         1 ASN         0.0826
    165 H61       143.9197   46.9002   -8.5123 H         1 ASN         0.0551
    166 H62       144.5475   47.8271   -9.9171 H         1 ASN         0.0551
    167 H63       142.4211   46.1055  -12.0658 H         1 ASN         0.1814
    168 H64       143.9966   46.7245  -11.6986 H         1 ASN         0.1814
    169 H65       142.9650   48.5503   -6.1968 H         1 ALA         0.1883
    170 H66       144.8514   50.5414   -5.3317 H         1 ALA         0.0797
    171 H67       144.6616   49.4366   -3.1095 H         1 ALA         0.0277
    172 H68       143.8056   48.0528   -3.8704 H         1 ALA         0.0277
    173 H69       143.0466   49.6808   -3.8569 H         1 ALA         0.0277
    174 H70       147.0038   50.3646   -4.7917 H         1 ALA         0.1883
    175 H71       148.3932   47.9799   -5.8814 H         1 ALA         0.0797
    176 H72       150.4374   49.3705   -5.6550 H         1 ALA         0.0277
    177 H73       149.4655   50.6702   -4.8851 H         1 ALA         0.0277
    178 H74       149.1658   50.2194   -6.5978 H         1 ALA         0.0277
    179 H75       149.3266   46.4778   -4.6070 H         1 LYS         0.1883
    180 H76       148.9418   46.5624   -1.7278 H         1 LYS         0.0800
    181 H77       150.1142   44.4120   -1.7318 H         1 LYS         0.0312
    182 H78       150.6848   44.6924   -3.4118 H         1 LYS         0.0312
    183 H79       148.4382   44.4616   -4.2793 H         1 LYS         0.0269
    184 H80       147.7547   44.3883   -2.6197 H         1 LYS         0.0269
    185 H81       149.6077   42.3395   -3.9288 H         1 LYS         0.0317
    186 H82       147.8527   42.1464   -3.5983 H         1 LYS         0.0317
    187 H83       150.0666   42.4887   -1.5165 H         1 LYS         0.0813
    188 H84       149.2222   40.9577   -1.9283 H         1 LYS         0.0813
    189 H85       148.3838   41.9318    0.0876 H         1 LYS         0.1994
    190 H86       147.2035   41.9256   -1.0597 H         1 LYS         0.1994
    191 H87       147.9773   43.3286   -0.6824 H         1 LYS         0.1994
    192 H88       150.4064   47.3494   -0.1849 H         1 VAL         0.1883
    193 H89       152.8715   48.5930   -1.1867 H         1 VAL         0.0803
    194 H90       153.2296   49.4626    0.9941 H         1 VAL         0.0343
    195 H91       151.0514   50.3403    1.7517 H         1 VAL         0.0234
    196 H92       150.2127   49.1321    0.7205 H         1 VAL         0.0234
    197 H93       151.2237   50.4105   -0.0349 H         1 VAL         0.0234
    198 H94       153.1534   47.2992    2.1737 H         1 VAL         0.0234
    199 H95       151.3590   47.3248    2.0943 H         1 VAL         0.0234
    200 H96       152.2340   48.5741    3.0432 H         1 VAL         0.0234
    201 H97       155.6297   45.2023   -0.6045 H         1 PRO         0.0802
    202 H98       157.4266   46.6855   -0.8826 H         1 PRO         0.0313
    203 H99       157.7520   46.2087    0.8184 H         1 PRO         0.0313
    204 H100      157.4686   48.7883    0.2976 H         1 PRO         0.0287
    205 H101      156.5508   48.1137    1.6866 H         1 PRO         0.0287
    206 H102      154.7972   49.1195    0.3826 H         1 PRO         0.0524
    207 H103      155.5679   48.6534   -1.1716 H         1 PRO         0.0524
    208 H104      155.7955   43.4713    0.6585 H         1 ALA         0.1883
    209 H105      154.3234   43.3182    3.0835 H         1 ALA         0.0797
    210 H106      155.1883   40.9889    3.2080 H         1 ALA         0.0277
    211 H107      156.3354   41.3605    1.8767 H         1 ALA         0.0277
    212 H108      154.5651   41.4047    1.5755 H         1 ALA         0.0277
    213 H109      155.0597   42.5040    5.1781 H         1 ASP         0.1876
    214 H110      157.1818   44.1443    6.2624 H         1 ASP         0.0745
    215 H111      156.8083   42.7586    8.3748 H         1 ASP         0.0471
    216 H112      155.5919   41.8118    7.4525 H         1 ASP         0.0471
@<TRIPOS>BOND
     1    1    2 1  
     2    2    3 1  
     3    3    4 2  
     4    3    5 am 
     5    5    6 1  
     6    6    7 1  
     7    6    9 1  
     8    7    8 2  
     9    7   14 am 
    10    9   10 1  
    11   10   11 1  
    12   11   12 ar 
    13   11   13 ar 
    14   14   15 1  
    15   15   16 1  
    16   15   18 1  
    17   16   17 2  
    18   16   22 am 
    19   18   19 1  
    20   19   20 1  
    21   19   21 1  
    22   22   23 1  
    23   23   24 1  
    24   23   26 1  
    25   24   25 2  
    26   24   30 am 
    27   26   27 1  
    28   26   28 1  
    29   27   29 1  
    30   30   31 1  
    31   31   32 1  
    32   32   33 2  
    33   32   34 am 
    34   34   35 1  
    35   35   36 1  
    36   35   38 1  
    37   36   37 2  
    38   36   42 am 
    39   38   39 1  
    40   38   40 1  
    41   39   41 1  
    42   42   43 1  
    43   43   44 1  
    44   43   46 1  
    45   44   45 2  
    46   44   50 am 
    47   46   47 1  
    48   47   48 1  
    49   47   49 1  
    50   50   51 1  
    51   51   52 1  
    52   51   54 1  
    53   52   53 2  
    54   52   58 am 
    55   54   55 1  
    56   55   56 2  
    57   55   57 am 
    58   58   59 1  
    59   59   60 1  
    60   59   62 1  
    61   60   61 2  
    62   60   63 am 
    63   63   64 1  
    64   64   65 1  
    65   64   67 1  
    66   65   66 2  
    67   65   68 am 
    68   68   69 1  
    69   69   70 1  
    70   69   72 1  
    71   70   71 2  
    72   70   77 am 
    73   72   73 1  
    74   73   74 1  
    75   74   75 1  
    76   75   76 1  
    77   77   78 1  
    78   78   79 1  
    79   78   81 1  
    80   79   80 2  
    81   79   84 am 
    82   81   82 1  
    83   81   83 1  
    84   84   85 1  
    85   84   90 1  
    86   85   86 1  
    87   85   88 1  
    88   86   87 2  
    89   86   91 am 
    90   88   89 1  
    91   89   90 1  
    92   91   92 1  
    93   92   93 1  
    94   92   95 1  
    95   93   94 2  
    96   93   96 am 
    97   96   97 1  
    98   97   98 1  
    99   97  100 1  
   100   98   99 ar 
   101   98  104 ar 
   102  100  101 1  
   103  101  102 ar 
   104  101  103 ar 
   105    1  105 1  
   106    1  106 1  
   107    1  107 1  
   108    2  108 1  
   109    2  109 1  
   110    5  110 1  
   111    6  111 1  
   112    9  112 1  
   113    9  113 1  
   114   10  114 1  
   115   10  115 1  
   116   14  116 1  
   117   15  117 1  
   118   18  118 1  
   119   18  119 1  
   120   19  120 1  
   121   20  121 1  
   122   20  122 1  
   123   20  123 1  
   124   21  124 1  
   125   21  125 1  
   126   21  126 1  
   127   22  127 1  
   128   23  128 1  
   129   26  129 1  
   130   27  130 1  
   131   27  131 1  
   132   28  132 1  
   133   28  133 1  
   134   28  134 1  
   135   29  135 1  
   136   29  136 1  
   137   29  137 1  
   138   30  138 1  
   139   31  139 1  
   140   31  140 1  
   141   34  141 1  
   142   35  142 1  
   143   38  143 1  
   144   39  144 1  
   145   39  145 1  
   146   40  146 1  
   147   40  147 1  
   148   40  148 1  
   149   41  149 1  
   150   41  150 1  
   151   41  151 1  
   152   42  152 1  
   153   43  153 1  
   154   46  154 1  
   155   46  155 1  
   156   47  156 1  
   157   48  157 1  
   158   48  158 1  
   159   48  159 1  
   160   49  160 1  
   161   49  161 1  
   162   49  162 1  
   163   50  163 1  
   164   51  164 1  
   165   54  165 1  
   166   54  166 1  
   167   57  167 1  
   168   57  168 1  
   169   58  169 1  
   170   59  170 1  
   171   62  171 1  
   172   62  172 1  
   173   62  173 1  
   174   63  174 1  
   175   64  175 1  
   176   67  176 1  
   177   67  177 1  
   178   67  178 1  
   179   68  179 1  
   180   69  180 1  
   181   72  181 1  
   182   72  182 1  
   183   73  183 1  
   184   73  184 1  
   185   74  185 1  
   186   74  186 1  
   187   75  187 1  
   188   75  188 1  
   189   76  189 1  
   190   76  190 1  
   191   76  191 1  
   192   77  192 1  
   193   78  193 1  
   194   81  194 1  
   195   82  195 1  
   196   82  196 1  
   197   82  197 1  
   198   83  198 1  
   199   83  199 1  
   200   83  200 1  
   201   85  201 1  
   202   88  202 1  
   203   88  203 1  
   204   89  204 1  
   205   89  205 1  
   206   90  206 1  
   207   90  207 1  
   208   91  208 1  
   209   92  209 1  
   210   95  210 1  
   211   95  211 1  
   212   95  212 1  
   213   96  213 1  
   214   97  214 1  
   215  100  215 1  
   216  100  216 1  
@<TRIPOS>SUBSTRUCTURE
     1 GLY         1

