1klg_ligand
  -I-interpret- 

219219  0  0  0  0  0  0  0  0999 V2000
  123.5620   51.4380  -17.7730 N   0  3  0  0  0
  124.2760   52.5390  -18.4910 C   0  0  0  0  0
  125.7420   52.2350  -18.7720 C   0  0  0  0  0
  126.1860   51.0910  -18.6280 O   0  0  0  0  0
  126.4900   53.2650  -19.1740 N   0  0  0  0  0
  127.9230   53.1500  -19.4860 C   0  0  0  0  0
  128.7470   52.8300  -18.2310 C   0  0  0  0  0
  128.4480   53.3330  -17.1410 O   0  0  0  0  0
  128.4090   54.4480  -20.1420 C   0  0  0  0  0
  127.3310   55.5330  -20.2400 C   0  0  0  0  0
  127.7040   56.6630  -21.1930 C   0  0  0  0  0
  126.9000   57.6150  -21.3320 O   0  0  0  0  0
  128.7980   56.5970  -21.8030 O   0  0  0  0  0
  129.7900   52.0130  -18.3850 N   0  0  0  0  0
  130.5990   51.5950  -17.2390 C   0  0  0  0  0
  131.6810   52.5590  -16.7480 C   0  0  0  0  0
  132.5510   52.9940  -17.5050 O   0  0  0  0  0
  131.2450   50.2280  -17.5220 C   0  0  0  0  0
  131.7350   49.3940  -16.3270 C   0  0  0  0  0
  130.5450   48.7880  -15.6090 C   0  0  0  0  0
  132.6490   48.2750  -16.8030 C   0  0  0  0  0
  131.5990   52.8900  -15.4620 N   0  0  0  0  0
  132.5930   53.7420  -14.8320 C   0  0  0  0  0
  133.7350   52.8330  -14.4410 C   0  0  0  0  0
  133.5590   51.8440  -13.7230 O   0  0  0  0  0
  132.0680   54.4420  -13.5780 C   0  0  0  0  0
  131.0740   55.5410  -13.9800 C   0  0  0  0  0
  133.2330   55.0620  -12.8000 C   0  0  0  0  0
  131.6160   56.7300  -14.8240 C   0  0  0  0  0
  134.9200   53.1790  -14.9250 N   0  0  0  0  0
  136.0910   52.3640  -14.6550 C   0  0  0  0  0
  136.7140   52.6290  -13.2970 C   0  0  0  0  0
  136.6010   53.7120  -12.7160 O   0  0  0  0  0
  137.3570   51.4070  -12.5810 N   0  0  0  0  0
  137.9670   51.5830  -11.2950 C   0  0  0  0  0
  139.4890   51.6090  -11.4020 C   0  0  0  0  0
  140.0390   51.3970  -12.4760 O   0  0  0  0  0
  137.5620   50.4200  -10.3800 C   0  0  0  0  0
  137.4760   50.9190   -8.9530 C   0  0  0  0  0
  138.5550   49.2290  -10.5380 C   0  0  0  0  0
  137.1370   49.7940   -7.9540 C   0  0  0  0  0
  140.3130   51.9570  -10.6710 N   0  0  0  0  0
  141.7730   51.8630  -10.6670 C   0  0  0  0  0
  142.0550   50.9120   -9.5050 C   0  0  0  0  0
  141.5510   51.1140   -8.4040 O   0  0  0  0  0
  142.3860   53.2500  -10.4200 C   0  0  0  0  0
  143.5520   53.6340  -11.3410 C   0  0  0  0  0
  143.1650   53.3270  -12.7810 C   0  0  0  0  0
  143.9000   55.1180  -11.1880 C   0  0  0  0  0
  142.8340   49.8680   -9.7480 N   0  0  0  0  0
  143.1260   48.8910   -8.7020 C   0  0  0  0  0
  144.1030   49.3710   -7.6460 C   0  0  0  0  0
  145.1050   50.0050   -7.9600 O   0  0  0  0  0
  143.6520   47.5950   -9.3220 C   0  0  0  0  0
  142.6250   46.9190  -10.2270 C   0  0  0  0  0
  141.4700   46.7190   -9.8410 O   0  0  0  0  0
  143.0490   46.5530  -11.4290 N   0  0  0  0  0
  143.8020   49.0630   -6.3880 N   0  0  0  0  0
  144.6690   49.4580   -5.2770 C   0  0  0  0  0
  145.9990   48.7220   -5.3900 C   0  0  0  0  0
  146.0350   47.5440   -5.7560 O   0  0  0  0  0
  143.9980   49.1340   -3.9330 C   0  0  0  0  0
  147.0910   49.4110   -5.0800 N   0  0  0  0  0
  148.4170   48.8030   -5.1520 C   0  0  0  0  0
  148.8130   48.2470   -3.7890 C   0  0  0  0  0
  148.7030   48.9410   -2.7850 O   0  0  0  0  0
  149.4430   49.8380   -5.6040 C   0  0  0  0  0
  149.2710   47.0000   -3.7560 N   0  0  0  0  0
  149.6950   46.3740   -2.5070 C   0  0  0  0  0
  151.0400   46.9760   -2.0810 C   0  0  0  0  0
  151.9550   47.0570   -2.9040 O   0  0  0  0  0
  149.8580   44.8560   -2.7050 C   0  0  0  0  0
  148.6200   44.1280   -3.2470 C   0  0  0  0  0
  148.7880   42.6050   -3.2450 C   0  0  0  0  0
  149.1130   42.0490   -1.8440 C   0  0  0  0  0
  148.0850   42.3320   -0.7880 N   0  3  0  0  0
  151.1750   47.4080   -0.8220 N   0  0  0  0  0
  152.4570   47.9680   -0.3820 C   0  0  0  0  0
  153.3970   46.7890   -0.0980 C   0  0  0  0  0
  152.9370   45.6590    0.1000 O   0  0  0  0  0
  152.3320   48.8320    0.9130 C   0  0  0  0  0
  151.1220   49.7410    0.8320 C   0  0  0  0  0
  152.2650   47.9470    2.1400 C   0  0  0  0  0
  154.7180   47.0330   -0.0690 N   0  0  0  0  0
  155.6820   45.9560    0.1950 C   0  0  0  0  0
  155.4390   45.2450    1.5310 C   0  0  0  0  0
  155.1710   45.8860    2.5370 O   0  0  0  0  0
  157.0240   46.6790    0.1410 C   0  0  0  0  0
  156.6880   48.0730    0.5960 C   0  0  0  0  0
  155.3870   48.3460   -0.1310 C   0  0  0  0  0
  155.5490   43.9190    1.5180 N   0  0  0  0  0
  155.3270   43.0820    2.7000 C   0  0  0  0  0
  156.3170   43.3230    3.8320 C   0  0  0  0  0
  157.4040   43.8410    3.6090 O   0  0  0  0  0
  155.3560   41.6060    2.3130 C   0  0  0  0  0
  155.9560   42.9300    5.0550 N   0  0  0  0  0
  156.8340   43.1010    6.2400 C   0  0  0  0  0
  158.0470   42.1730    6.1820 C   0  0  0  0  0
  159.1560   42.6650    6.4580 O   0  0  0  0  0
  156.0790   42.7930    7.5520 C   0  0  0  0  0
  155.0210   43.8230    7.8900 C   0  0  0  0  0
  155.2390   45.0230    7.6260 O   0  0  0  0  0
  153.9740   43.4190    8.4330 O   0  0  0  0  0
  157.8550   40.9680    5.9010 O   0  0  0  0  0
  122.5906   51.7082  -17.6188 H   0  0  0  0  0
  123.5945   50.5888  -18.3371 H   0  0  0  0  0
  124.0157   51.2689  -16.8753 H   0  0  0  0  0
  124.2423   53.4212  -17.8518 H   0  0  0  0  0
  123.7810   52.6766  -19.4524 H   0  0  0  0  0
  126.0454   54.1780  -19.2697 H   0  0  0  0  0
  128.0621   52.3223  -20.1815 H   0  0  0  0  0
  128.7168   54.2029  -21.1585 H   0  0  0  0  0
  129.2133   54.8441  -19.5221 H   0  0  0  0  0
  127.2051   55.9652  -19.2473 H   0  0  0  0  0
  126.4235   55.0646  -20.6210 H   0  0  0  0  0
  129.2550   55.7910  -21.5518 H   0  0  0  0  0
  130.0279   51.6738  -19.3171 H   0  0  0  0  0
  129.8751   51.5611  -16.4248 H   0  0  0  0  0
  132.1395   50.4481  -18.1047 H   0  0  0  0  0
  130.4609   49.6305  -17.9870 H   0  0  0  0  0
  132.2873   50.0453  -15.6496 H   0  0  0  0  0
  129.8928   49.5853  -15.2524 H   0  0  0  0  0
  129.9945   48.1472  -16.2978 H   0  0  0  0  0
  130.8952   48.1974  -14.7625 H   0  0  0  0  0
  132.1022   47.6279  -17.4888 H   0  0  0  0  0
  133.5102   48.7041  -17.3151 H   0  0  0  0  0
  132.9872   47.6940  -15.9450 H   0  0  0  0  0
  130.8203   52.5375  -14.9055 H   0  0  0  0  0
  132.8858   54.5288  -15.5272 H   0  0  0  0  0
  131.5647   53.7112  -12.9450 H   0  0  0  0  0
  130.7294   55.9802  -13.0438 H   0  0  0  0  0
  130.3332   55.0489  -14.6102 H   0  0  0  0  0
  133.9318   54.2779  -12.5087 H   0  0  0  0  0
  133.7435   55.7893  -13.4312 H   0  0  0  0  0
  132.8496   55.5584  -11.9085 H   0  0  0  0  0
  132.4006   57.2417  -14.2666 H   0  0  0  0  0
  132.0223   56.3524  -15.7623 H   0  0  0  0  0
  130.8035   57.4261  -15.0324 H   0  0  0  0  0
  135.0095   54.0231  -15.4906 H   0  0  0  0  0
  136.8387   52.6048  -15.4107 H   0  0  0  0  0
  135.7748   51.3210  -14.6721 H   0  0  0  0  0
  137.3449   50.4877  -13.0226 H   0  0  0  0  0
  137.6275   52.5349  -10.8868 H   0  0  0  0  0
  136.5795   50.0435  -10.6647 H   0  0  0  0  0
  136.6812   51.6633   -8.9041 H   0  0  0  0  0
  138.4485   51.3291   -8.6807 H   0  0  0  0  0
  138.5468   48.8856  -11.5725 H   0  0  0  0  0
  139.5595   49.5572  -10.2707 H   0  0  0  0  0
  138.2507   48.4143   -9.8810 H   0  0  0  0  0
  136.1740   49.3555   -8.2157 H   0  0  0  0  0
  137.9104   49.0271   -7.9962 H   0  0  0  0  0
  137.0878   50.2071   -6.9465 H   0  0  0  0  0
  139.9418   52.4337   -9.8492 H   0  0  0  0  0
  142.1971   51.5104  -11.6072 H   0  0  0  0  0
  142.7848   53.2357   -9.4057 H   0  0  0  0  0
  141.5939   53.9756  -10.6049 H   0  0  0  0  0
  144.4335   53.0550  -11.0655 H   0  0  0  0  0
  142.9520   52.2626  -12.8796 H   0  0  0  0  0
  142.2787   53.9025  -13.0483 H   0  0  0  0  0
  143.9882   53.5969  -13.4425 H   0  0  0  0  0
  143.0313   55.7224  -11.4492 H   0  0  0  0  0
  144.1863   55.3182  -10.1555 H   0  0  0  0  0
  144.7291   55.3657  -11.8508 H   0  0  0  0  0
  143.2351   49.7449  -10.6777 H   0  0  0  0  0
  142.1778   48.7247   -8.1907 H   0  0  0  0  0
  143.8891   46.9068   -8.5107 H   0  0  0  0  0
  144.5229   47.8425   -9.9289 H   0  0  0  0  0
  142.4116   46.0868  -12.0746 H   0  0  0  0  0
  144.0126   46.7377  -11.7080 H   0  0  0  0  0
  142.9482   48.5400   -6.1930 H   0  0  0  0  0
  144.8436   50.5329   -5.3231 H   0  0  0  0  0
  143.0554   49.6763   -3.8589 H   0  0  0  0  0
  143.8079   48.0624   -3.8723 H   0  0  0  0  0
  144.6565   49.4342   -3.1179 H   0  0  0  0  0
  147.0020   50.3836   -4.7859 H   0  0  0  0  0
  148.3899   47.9877   -5.8750 H   0  0  0  0  0
  149.1672   50.2151   -6.5888 H   0  0  0  0  0
  149.4643   50.6621   -4.8909 H   0  0  0  0  0
  150.4278   49.3736   -5.6541 H   0  0  0  0  0
  149.3277   46.4674   -4.6241 H   0  0  0  0  0
  148.9424   46.5532   -1.7391 H   0  0  0  0  0
  150.0627   44.4333   -1.7214 H   0  0  0  0  0
  150.6478   44.7208   -3.4440 H   0  0  0  0  0
  148.4655   44.4482   -4.2774 H   0  0  0  0  0
  147.7759   44.3743   -2.6029 H   0  0  0  0  0
  149.6184   42.3573   -3.9062 H   0  0  0  0  0
  147.8474   42.1623   -3.5727 H   0  0  0  0  0
  150.0340   42.5345   -1.5213 H   0  0  0  0  0
  149.1684   40.9650   -1.9434 H   0  0  0  0  0
  148.3884   41.9266    0.0974 H   0  0  0  0  0
  147.9769   43.3407   -0.6821 H   0  0  0  0  0
  147.1935   41.9204   -1.0641 H   0  0  0  0  0
  150.3911   47.3482   -0.1722 H   0  0  0  0  0
  152.8325   48.6243   -1.1671 H   0  0  0  0  0
  153.2201   49.4584    0.9973 H   0  0  0  0  0
  151.2239   50.4038   -0.0273 H   0  0  0  0  0
  150.2218   49.1365    0.7214 H   0  0  0  0  0
  151.0531   50.3342    1.7438 H   0  0  0  0  0
  151.3970   47.2918    2.0668 H   0  0  0  0  0
  153.1718   47.3454    2.2024 H   0  0  0  0  0
  152.1782   48.5691    3.0308 H   0  0  0  0  0
  155.6105   45.1409   -0.5251 H   0  0  0  0  0
  157.4703   46.6594   -0.8533 H   0  0  0  0  0
  157.7802   46.2052    0.7670 H   0  0  0  0  0
  157.4681   48.7987    0.3658 H   0  0  0  0  0
  156.6004   48.1609    1.6789 H   0  0  0  0  0
  154.8026   49.1492    0.3178 H   0  0  0  0  0
  155.5298   48.7095   -1.1486 H   0  0  0  0  0
  155.8005   43.4623    0.6413 H   0  0  0  0  0
  154.3454   43.3663    3.0792 H   0  0  0  0  0
  154.5720   41.4079    1.5822 H   0  0  0  0  0
  156.3269   41.3640    1.8808 H   0  0  0  0  0
  155.1897   40.9956    3.2006 H   0  0  0  0  0
  155.0418   42.4954    5.1806 H   0  0  0  0  0
  157.1575   44.1418    6.2250 H   0  0  0  0  0
  156.8098   42.7936    8.3607 H   0  0  0  0  0
  155.5768   41.8339    7.4258 H   0  0  0  0  0
  156.1013   45.1070    7.2124 H   0  0  0  0  0
  156.9219   40.8263    5.7255 H   0  0  0  0  0
  1  2  1  0  0  0
  2  3  1  0  0  0
  3  4  2  0  0  0
  3  5  1  0  0  0
  5  6  1  0  0  0
  6  7  1  0  0  0
  6  9  1  0  0  0
  7  8  2  0  0  0
  7 14  1  0  0  0
  9 10  1  0  0  0
 10 11  1  0  0  0
 11 12  2  0  0  0
 11 13  1  0  0  0
 14 15  1  0  0  0
 15 16  1  0  0  0
 15 18  1  0  0  0
 16 17  2  0  0  0
 16 22  1  0  0  0
 18 19  1  0  0  0
 19 20  1  0  0  0
 19 21  1  0  0  0
 22 23  1  0  0  0
 23 24  1  0  0  0
 23 26  1  0  0  0
 24 25  2  0  0  0
 24 30  1  0  0  0
 26 27  1  0  0  0
 26 28  1  0  0  0
 27 29  1  0  0  0
 30 31  1  0  0  0
 31 32  1  0  0  0
 32 33  2  0  0  0
 32 34  1  0  0  0
 34 35  1  0  0  0
 35 36  1  0  0  0
 35 38  1  0  0  0
 36 37  2  0  0  0
 36 42  1  0  0  0
 38 39  1  0  0  0
 38 40  1  0  0  0
 39 41  1  0  0  0
 42 43  1  0  0  0
 43 44  1  0  0  0
 43 46  1  0  0  0
 44 45  2  0  0  0
 44 50  1  0  0  0
 46 47  1  0  0  0
 47 48  1  0  0  0
 47 49  1  0  0  0
 50 51  1  0  0  0
 51 52  1  0  0  0
 51 54  1  0  0  0
 52 53  2  0  0  0
 52 58  1  0  0  0
 54 55  1  0  0  0
 55 56  2  0  0  0
 55 57  1  0  0  0
 58 59  1  0  0  0
 59 60  1  0  0  0
 59 62  1  0  0  0
 60 61  2  0  0  0
 60 63  1  0  0  0
 63 64  1  0  0  0
 64 65  1  0  0  0
 64 67  1  0  0  0
 65 66  2  0  0  0
 65 68  1  0  0  0
 68 69  1  0  0  0
 69 70  1  0  0  0
 69 72  1  0  0  0
 70 71  2  0  0  0
 70 77  1  0  0  0
 72 73  1  0  0  0
 73 74  1  0  0  0
 74 75  1  0  0  0
 75 76  1  0  0  0
 77 78  1  0  0  0
 78 79  1  0  0  0
 78 81  1  0  0  0
 79 80  2  0  0  0
 79 84  1  0  0  0
 81 82  1  0  0  0
 81 83  1  0  0  0
 84 85  1  0  0  0
 84 90  1  0  0  0
 85 86  1  0  0  0
 85 88  1  0  0  0
 86 87  2  0  0  0
 86 91  1  0  0  0
 88 89  1  0  0  0
 89 90  1  0  0  0
 91 92  1  0  0  0
 92 93  1  0  0  0
 92 95  1  0  0  0
 93 94  2  0  0  0
 93 96  1  0  0  0
 96 97  1  0  0  0
 97 98  1  0  0  0
 97100  1  0  0  0
 98 99  2  0  0  0
 98104  1  0  0  0
100101  1  0  0  0
101102  1  0  0  0
101103  2  0  0  0
  1105  1  0  0  0
  1106  1  0  0  0
  1107  1  0  0  0
  2108  1  0  0  0
  2109  1  0  0  0
  5110  1  0  0  0
  6111  1  0  0  0
  9112  1  0  0  0
  9113  1  0  0  0
 10114  1  0  0  0
 10115  1  0  0  0
 13116  1  0  0  0
 14117  1  0  0  0
 15118  1  0  0  0
 18119  1  0  0  0
 18120  1  0  0  0
 19121  1  0  0  0
 20122  1  0  0  0
 20123  1  0  0  0
 20124  1  0  0  0
 21125  1  0  0  0
 21126  1  0  0  0
 21127  1  0  0  0
 22128  1  0  0  0
 23129  1  0  0  0
 26130  1  0  0  0
 27131  1  0  0  0
 27132  1  0  0  0
 28133  1  0  0  0
 28134  1  0  0  0
 28135  1  0  0  0
 29136  1  0  0  0
 29137  1  0  0  0
 29138  1  0  0  0
 30139  1  0  0  0
 31140  1  0  0  0
 31141  1  0  0  0
 34142  1  0  0  0
 35143  1  0  0  0
 38144  1  0  0  0
 39145  1  0  0  0
 39146  1  0  0  0
 40147  1  0  0  0
 40148  1  0  0  0
 40149  1  0  0  0
 41150  1  0  0  0
 41151  1  0  0  0
 41152  1  0  0  0
 42153  1  0  0  0
 43154  1  0  0  0
 46155  1  0  0  0
 46156  1  0  0  0
 47157  1  0  0  0
 48158  1  0  0  0
 48159  1  0  0  0
 48160  1  0  0  0
 49161  1  0  0  0
 49162  1  0  0  0
 49163  1  0  0  0
 50164  1  0  0  0
 51165  1  0  0  0
 54166  1  0  0  0
 54167  1  0  0  0
 57168  1  0  0  0
 57169  1  0  0  0
 58170  1  0  0  0
 59171  1  0  0  0
 62172  1  0  0  0
 62173  1  0  0  0
 62174  1  0  0  0
 63175  1  0  0  0
 64176  1  0  0  0
 67177  1  0  0  0
 67178  1  0  0  0
 67179  1  0  0  0
 68180  1  0  0  0
 69181  1  0  0  0
 72182  1  0  0  0
 72183  1  0  0  0
 73184  1  0  0  0
 73185  1  0  0  0
 74186  1  0  0  0
 74187  1  0  0  0
 75188  1  0  0  0
 75189  1  0  0  0
 76190  1  0  0  0
 76191  1  0  0  0
 76192  1  0  0  0
 77193  1  0  0  0
 78194  1  0  0  0
 81195  1  0  0  0
 82196  1  0  0  0
 82197  1  0  0  0
 82198  1  0  0  0
 83199  1  0  0  0
 83200  1  0  0  0
 83201  1  0  0  0
 85202  1  0  0  0
 88203  1  0  0  0
 88204  1  0  0  0
 89205  1  0  0  0
 89206  1  0  0  0
 90207  1  0  0  0
 90208  1  0  0  0
 91209  1  0  0  0
 92210  1  0  0  0
 95211  1  0  0  0
 95212  1  0  0  0
 95213  1  0  0  0
 96214  1  0  0  0
 97215  1  0  0  0
100216  1  0  0  0
100217  1  0  0  0
102218  1  0  0  0
104219  1  0  0  0
M  END
$$$$
