4gtp_ligand
  -I-interpret- 

 78 83  0  0  0  0  0  0  0  0999 V2000
   45.5410   50.7560   -4.1330 C   0  0  0  0  0
   46.1320   52.0790   -3.8240 O   0  0  0  0  0
   47.4250   52.0550   -3.2990 C   0  0  0  0  0
   48.1640   53.2280   -3.2240 C   0  0  0  0  0
   49.4660   53.2550   -2.7060 C   0  0  0  0  0
   48.0300   50.8850   -2.8350 C   0  0  0  0  0
   49.3370   50.9000   -2.3230 C   0  0  0  0  0
   50.0810   52.0900   -2.2510 C   0  0  0  0  0
   51.7770   52.0380   -1.6390 S   0  0  0  0  0
   51.7880   50.9710   -0.6220 O   0  0  0  0  0
   52.3520   53.3670   -1.0790 O   0  0  0  0  0
   52.9520   51.6720   -2.7750 N   0  0  0  0  0
   52.9190   52.5570   -3.9270 C   0  0  0  0  0
   51.7210   52.3690   -4.8120 C   0  0  0  0  0
   51.3820   53.5800   -5.2850 C   0  0  0  0  0
   50.3150   53.6060   -6.1390 C   0  0  0  0  0
   49.9250   54.8340   -6.5490 C   0  0  0  0  0
   50.7830   55.8000   -6.8890 O   0  0  0  0  0
   48.6660   55.2480   -6.5210 C   0  0  0  0  0
   48.6810   56.5080   -6.9190 C   0  0  0  0  0
   49.9700   56.8170   -7.1190 C   0  0  0  0  0
   50.3950   58.1450   -7.6550 C   0  0  0  0  0
   49.9240   58.4300   -8.7740 O   0  0  0  0  0
   49.5740   52.5080   -6.5050 C   0  0  0  0  0
   49.9110   51.2940   -6.0140 C   0  0  0  0  0
   50.9950   51.2430   -5.1590 C   0  0  0  0  0
   51.2890   50.0230   -4.7890 N   0  0  0  0  0
   50.2940   48.9450   -4.9020 C   0  0  0  0  0
   50.6240   48.2100   -6.1920 C   0  0  0  0  0
   51.6050   48.5550   -7.0520 C   0  0  0  0  0
   51.5930   47.6980   -8.0680 N   0  0  0  0  0
   50.6040   46.8210   -7.8470 C   0  0  0  0  0
   49.9960   47.1430   -6.6900 N   0  0  0  0  0
   48.8020   46.4050   -6.0970 C   0  0  0  0  0
   52.6740   49.6810   -4.4190 C   0  0  0  0  0
   53.2380   50.2520   -3.1030 C   0  0  0  0  0
   54.7970   50.0800   -3.1710 C   0  0  0  0  0
   55.4980   50.5500   -1.9100 C   0  0  0  0  0
   55.6920   49.6850   -0.8350 C   0  0  0  0  0
   56.3020   50.1110    0.3470 C   0  0  0  0  0
   56.7110   51.4440    0.4240 C   0  0  0  0  0
   57.3310   51.9390    1.5490 O   0  0  0  0  0
   56.5080   52.3040   -0.6700 C   0  0  0  0  0
   55.8930   51.8610   -1.8370 C   0  0  0  0  0
   46.1616   50.2452   -4.8692 H   0  0  0  0  0
   45.4911   50.1600   -3.2217 H   0  0  0  0  0
   44.5369   50.8929   -4.5346 H   0  0  0  0  0
   47.7176   54.1569   -3.5791 H   0  0  0  0  0
   50.0055   54.2009   -2.6583 H   0  0  0  0  0
   47.4787   49.9454   -2.8710 H   0  0  0  0  0
   49.7841   49.9692   -1.9740 H   0  0  0  0  0
   53.8011   52.3362   -4.5280 H   0  0  0  0  0
   52.8819   53.5782   -3.5476 H   0  0  0  0  0
   51.9232   54.4839   -5.0056 H   0  0  0  0  0
   47.7926   54.6653   -6.2281 H   0  0  0  0  0
   47.8205   57.1627   -7.0566 H   0  0  0  0  0
   51.4787   58.1102   -7.7663 H   0  0  0  0  0
   50.0330   58.8997   -6.9567 H   0  0  0  0  0
   50.2443   59.2937   -9.0442 H   0  0  0  0  0
   48.7262   52.6143   -7.1818 H   0  0  0  0  0
   49.3528   50.3965   -6.2806 H   0  0  0  0  0
   49.2792   49.3424   -4.9206 H   0  0  0  0  0
   50.3352   48.2757   -4.0427 H   0  0  0  0  0
   52.2908   49.3939   -6.9336 H   0  0  0  0  0
   50.3367   45.9867   -8.4955 H   0  0  0  0  0
   49.0662   46.0220   -5.1113 H   0  0  0  0  0
   47.9600   47.0914   -6.0077 H   0  0  0  0  0
   48.5287   45.5756   -6.7493 H   0  0  0  0  0
   53.2956   50.1064   -5.2069 H   0  0  0  0  0
   52.6779   48.5989   -4.2881 H   0  0  0  0  0
   52.7310   49.6965   -2.3140 H   0  0  0  0  0
   55.1630   50.6848   -4.0007 H   0  0  0  0  0
   55.0099   49.0181   -3.2944 H   0  0  0  0  0
   55.3595   48.6503   -0.9186 H   0  0  0  0  0
   56.4537   49.4261    1.1812 H   0  0  0  0  0
   57.5367   52.8674    1.4173 H   0  0  0  0  0
   56.8396   53.3401   -0.6024 H   0  0  0  0  0
   55.7291   52.5403   -2.6735 H   0  0  0  0  0
  1  2  1  0  0  0
  2  3  1  0  0  0
  3  4  4  0  0  0
  3  6  4  0  0  0
  4  5  4  0  0  0
  5  8  4  0  0  0
  6  7  4  0  0  0
  7  8  4  0  0  0
  8  9  1  0  0  0
  9 10  2  0  0  0
  9 11  2  0  0  0
  9 12  1  0  0  0
 12 13  1  0  0  0
 12 36  1  0  0  0
 13 14  1  0  0  0
 14 15  4  0  0  0
 14 26  4  0  0  0
 15 16  4  0  0  0
 16 17  1  0  0  0
 16 24  4  0  0  0
 17 18  4  0  0  0
 17 19  4  0  0  0
 18 21  4  0  0  0
 19 20  4  0  0  0
 20 21  4  0  0  0
 21 22  1  0  0  0
 22 23  1  0  0  0
 24 25  4  0  0  0
 25 26  4  0  0  0
 26 27  1  0  0  0
 27 28  1  0  0  0
 27 35  1  0  0  0
 28 29  1  0  0  0
 29 30  4  0  0  0
 29 33  4  0  0  0
 30 31  4  0  0  0
 31 32  4  0  0  0
 32 33  4  0  0  0
 33 34  1  0  0  0
 35 36  1  0  0  0
 36 37  1  0  0  0
 37 38  1  0  0  0
 38 39  4  0  0  0
 38 44  4  0  0  0
 39 40  4  0  0  0
 40 41  4  0  0  0
 41 42  1  0  0  0
 41 43  4  0  0  0
 43 44  4  0  0  0
  1 45  1  0  0  0
  1 46  1  0  0  0
  1 47  1  0  0  0
  4 48  1  0  0  0
  5 49  1  0  0  0
  6 50  1  0  0  0
  7 51  1  0  0  0
 13 52  1  0  0  0
 13 53  1  0  0  0
 15 54  1  0  0  0
 19 55  1  0  0  0
 20 56  1  0  0  0
 22 57  1  0  0  0
 22 58  1  0  0  0
 23 59  1  0  0  0
 24 60  1  0  0  0
 25 61  1  0  0  0
 28 62  1  0  0  0
 28 63  1  0  0  0
 30 64  1  0  0  0
 32 65  1  0  0  0
 34 66  1  0  0  0
 34 67  1  0  0  0
 34 68  1  0  0  0
 35 69  1  0  0  0
 35 70  1  0  0  0
 36 71  1  0  0  0
 37 72  1  0  0  0
 37 73  1  0  0  0
 39 74  1  0  0  0
 40 75  1  0  0  0
 42 76  1  0  0  0
 43 77  1  0  0  0
 44 78  1  0  0  0
M  END
$$$$
