1ag9_ligand
  -I-interpret- 

 54 56  0  0  0  0  0  0  0  0999 V2000
   -0.0430   61.5430   24.7750 N   0  0  0  0  0
   -0.1900   62.2760   25.9270 C   0  0  0  0  0
    0.7360   62.4200   26.6830 O   0  0  0  0  0
   -1.4260   62.8660   26.2360 N   0  0  0  0  0
   -2.5260   62.7340   25.4120 C   0  0  0  0  0
   -3.5770   63.2580   25.6800 O   0  0  0  0  0
   -2.3780   61.9190   24.1540 C   0  0  0  0  0
   -3.4100   61.7410   23.3360 N   0  0  0  0  0
   -3.2040   61.0560   22.1390 C   0  0  0  0  0
   -4.2620   60.9870   21.1630 C   0  0  0  0  0
   -4.0280   60.4080   19.9180 C   0  0  0  0  0
   -5.0580   60.4770   18.8490 C   0  0  0  0  0
   -2.7780   59.7630   19.6320 C   0  0  0  0  0
   -2.5700   59.0880   18.3040 C   0  0  0  0  0
   -1.7550   59.7920   20.5790 C   0  0  0  0  0
   -1.9440   60.4450   21.8320 C   0  0  0  0  0
   -0.9340   60.5620   22.7950 N   0  0  0  0  0
   -1.0570   61.3520   23.9270 C   0  0  0  0  0
    0.2820   59.8130   22.5530 C   0  0  0  0  0
    0.2420   58.3750   23.0800 C   0  0  0  0  0
    0.0230   58.3150   24.4910 O   0  0  0  0  0
    1.5730   57.6900   22.7570 C   0  0  0  0  0
    1.7030   57.5240   21.3380 O   0  0  0  0  0
    1.9130   56.3790   23.4820 C   0  0  0  0  0
    3.2480   55.9870   23.1630 O   0  0  0  0  0
    0.8900   55.2850   23.1870 C   0  0  0  0  0
    1.1590   54.1790   24.0620 O   0  0  0  0  0
    0.5590   52.8830   23.7940 P   0  0  0  0  0
    1.2460   52.3190   22.6330 O   0  0  0  0  0
   -0.9140   52.9300   23.7380 O   0  0  0  0  0
    0.9770   52.0670   24.9160 O   0  0  0  0  0
    0.8661   61.1329   24.5610 H   0  0  0  0  0
   -1.5140   63.4086   27.0952 H   0  0  0  0  0
   -4.3341   62.0982   23.5788 H   0  0  0  0  0
   -5.2473   61.3887   21.3995 H   0  0  0  0  0
   -5.9707   59.9909   19.1937 H   0  0  0  0  0
   -5.2670   61.5207   18.6145 H   0  0  0  0  0
   -4.6891   59.9698   17.9575 H   0  0  0  0  0
   -3.3109   58.2983   18.1793 H   0  0  0  0  0
   -2.6798   59.8206   17.5044 H   0  0  0  0  0
   -1.5691   58.6577   18.2694 H   0  0  0  0  0
   -0.8019   59.3109   20.3592 H   0  0  0  0  0
    1.0884   60.3271   23.0759 H   0  0  0  0  0
    0.4191   59.7583   21.4730 H   0  0  0  0  0
   -0.5925   57.8697   22.5937 H   0  0  0  0  0
    0.0061   57.3973   24.7723 H   0  0  0  0  0
    2.3114   58.3815   23.1629 H   0  0  0  0  0
    2.5389   57.0943   21.1425 H   0  0  0  0  0
    1.8600   56.5459   24.5578 H   0  0  0  0  0
    3.4570   55.1677   23.6176 H   0  0  0  0  0
    0.9656   54.9692   22.1465 H   0  0  0  0  0
   -0.1202   55.6593   23.3526 H   0  0  0  0  0
    1.0096   52.8193   21.8485 H   0  0  0  0  0
   -1.1877   53.4712   22.9938 H   0  0  0  0  0
  1  2  1  0  0  0
  1 18  1  0  0  0
  2  3  2  0  0  0
  2  4  1  0  0  0
  4  5  1  0  0  0
  5  6  2  0  0  0
  5  7  1  0  0  0
  7  8  1  0  0  0
  7 18  2  0  0  0
  8  9  1  0  0  0
  9 10  4  0  0  0
  9 16  4  0  0  0
 10 11  4  0  0  0
 11 12  1  0  0  0
 11 13  4  0  0  0
 13 14  1  0  0  0
 13 15  4  0  0  0
 15 16  4  0  0  0
 16 17  1  0  0  0
 17 18  1  0  0  0
 17 19  1  0  0  0
 19 20  1  0  0  0
 20 21  1  0  0  0
 20 22  1  0  0  0
 22 23  1  0  0  0
 22 24  1  0  0  0
 24 25  1  0  0  0
 24 26  1  0  0  0
 26 27  1  0  0  0
 27 28  1  0  0  0
 28 29  1  0  0  0
 28 30  1  0  0  0
 28 31  2  0  0  0
  1 32  1  0  0  0
  4 33  1  0  0  0
  8 34  1  0  0  0
 10 35  1  0  0  0
 12 36  1  0  0  0
 12 37  1  0  0  0
 12 38  1  0  0  0
 14 39  1  0  0  0
 14 40  1  0  0  0
 14 41  1  0  0  0
 15 42  1  0  0  0
 19 43  1  0  0  0
 19 44  1  0  0  0
 20 45  1  0  0  0
 21 46  1  0  0  0
 22 47  1  0  0  0
 23 48  1  0  0  0
 24 49  1  0  0  0
 25 50  1  0  0  0
 26 51  1  0  0  0
 26 52  1  0  0  0
 29 53  1  0  0  0
 30 54  1  0  0  0
M  END
$$$$
