5kez_ligand
  -I-interpret- 

163169  0  0  0  0  0  0  0  0999 V2000
  -10.1190    1.8720  -25.7410 C   0  0  0  0  0
   -9.3750    1.1810  -25.0150 O   0  0  0  0  0
  -10.0890    1.5730  -27.2290 C   0  0  0  0  0
  -10.9410    2.8580  -25.3000 N   0  0  0  0  0
  -11.0130    3.2110  -23.7840 C   0  0  0  0  0
  -10.1240    4.3040  -23.6680 C   0  0  0  0  0
   -9.8460    5.3480  -24.1840 O   0  0  0  0  0
  -12.4100    3.6260  -23.4020 C   0  0  0  0  0
  -12.4080    4.0190  -21.9730 C   0  0  0  0  0
  -12.4180    3.0360  -20.9790 C   0  0  0  0  0
  -12.3520    5.3620  -21.5940 C   0  0  0  0  0
  -12.3940    3.3760  -19.6220 C   0  0  0  0  0
  -12.3230    5.7270  -20.2500 C   0  0  0  0  0
  -12.3470    4.7260  -19.2630 C   0  0  0  0  0
  -12.3230    5.0800  -17.9240 O   0  0  0  0  0
   -9.2700    4.0990  -22.4820 N   0  0  0  0  0
   -8.5670    5.2360  -21.8640 C   0  0  0  0  0
   -7.3830    5.7300  -22.6810 C   0  0  0  0  0
   -6.8490    4.9730  -23.4790 O   0  0  0  0  0
   -8.0760    4.6600  -20.5270 C   0  0  0  0  0
   -7.9290    3.1860  -20.7870 C   0  0  0  0  0
   -9.0670    2.8470  -21.7250 C   0  0  0  0  0
   -6.9770    6.9770  -22.4580 N   0  0  0  0  0
   -5.8000    7.5610  -23.1010 C   0  0  0  0  0
   -5.8620    7.4280  -24.6260 C   0  0  0  0  0
   -4.9320    6.9220  -25.2780 O   0  0  0  0  0
   -4.5250    6.9500  -22.5250 C   0  0  0  0  0
   -4.5720    6.9070  -21.0150 C   0  0  0  0  0
   -4.7250    8.0800  -20.2680 C   0  0  0  0  0
   -4.4890    5.7100  -20.3350 C   0  0  0  0  0
   -4.7770    8.0480  -18.8820 C   0  0  0  0  0
   -4.5430    5.6670  -18.9580 C   0  0  0  0  0
   -4.6880    6.8280  -18.2370 C   0  0  0  0  0
   -4.7410    6.7540  -16.8640 O   0  0  0  0  0
   -6.9700    7.9240  -25.1850 N   0  0  0  0  0
   -7.2230    7.9240  -26.6230 C   0  0  0  0  0
   -7.0560    6.5100  -27.1700 C   0  0  0  0  0
   -6.4190    6.2760  -28.2030 O   0  0  0  0  0
   -6.3160    8.9320  -27.3480 C   0  0  0  0  0
   -6.7530    9.1570  -28.6780 O   0  0  0  0  0
   -7.6390    5.5590  -26.4370 N   0  0  0  0  0
   -7.5770    4.1290  -26.7490 C   0  0  0  0  0
   -6.1390    3.6740  -26.9950 C   0  0  0  0  0
   -5.8090    3.1000  -28.0370 O   0  0  0  0  0
   -8.4640    3.7850  -27.9430 C   0  0  0  0  0
   -8.5930    1.9880  -28.1680 S   0  0  0  0  0
   -5.2910    3.9340  -25.9900 N   0  0  0  0  0
   -3.8610    3.6510  -26.0850 C   0  0  0  0  0
   -3.5770    2.1680  -26.3030 C   0  0  0  0  0
   -2.5590    1.8090  -26.9130 O   0  0  0  0  0
   -3.1450    4.1150  -24.8070 C   0  0  0  0  0
   -3.2980    3.1180  -23.6760 C   0  0  0  0  0
   -4.3590    3.0130  -22.8070 C   0  0  0  0  0
   -2.4020    2.0360  -23.3430 C   0  0  0  0  0
   -4.1660    1.9500  -21.9560 N   0  0  0  0  0
   -2.9720    1.3420  -22.2530 C   0  0  0  0  0
   -1.1720    1.6020  -23.8530 C   0  0  0  0  0
   -2.3590    0.2280  -21.6670 C   0  0  0  0  0
   -0.5550    0.4930  -23.2650 C   0  0  0  0  0
   -1.1520   -0.1800  -22.1790 C   0  0  0  0  0
   -4.4270    1.2890  -25.7710 N   0  0  0  0  0
   -4.0620   -0.1190  -25.7430 C   0  0  0  0  0
   -4.0670   -0.7250  -27.1450 C   0  0  0  0  0
   -3.3900   -1.7320  -27.3820 O   0  0  0  0  0
   -4.9970   -0.8720  -24.7770 C   0  0  0  0  0
   -6.3620   -1.0810  -25.4070 C   0  0  0  0  0
   -4.3500   -2.1860  -24.2980 C   0  0  0  0  0
   -4.7770   -0.1090  -28.0970 N   0  0  0  0  0
   -4.8030   -0.6150  -29.4670 C   0  0  0  0  0
   -3.4640   -0.4610  -30.1750 C   0  0  0  0  0
   -3.2760   -1.0720  -31.2300 O   0  0  0  0  0
   -5.9010    0.0870  -30.2710 C   0  0  0  0  0
   -5.5100    1.4370  -30.8840 C   0  0  0  0  0
   -6.7690    2.1940  -31.3210 C   0  0  0  0  0
   -6.5150    3.2930  -32.2580 N   0  0  0  0  0
   -6.2210    4.5410  -31.9040 C   0  0  0  0  0
   -6.1240    4.8640  -30.6190 N   0  0  0  0  0
   -6.0250    5.4690  -32.8380 N   0  0  0  0  0
   -2.5600    0.2560  -29.7440 N   0  0  0  0  0
   -1.1600    0.4930  -30.1760 C   0  0  0  0  0
   -0.2760   -0.5240  -29.5360 C   0  0  0  0  0
    0.8600   -0.3740  -29.3480 O   0  0  0  0  0
   -0.7170    1.8930  -29.9070 C   0  0  0  0  0
   -1.5340    2.8960  -30.6650 C   0  0  0  0  0
   -1.6210    3.0240  -31.9690 N   0  0  0  0  0
   -2.3180    3.8670  -30.1340 C   0  0  0  0  0
   -2.4130    4.0340  -32.2340 C   0  0  0  0  0
   -2.8660    4.5580  -31.1010 N   0  0  0  0  0
   -0.8950   -1.6900  -29.1160 N   0  0  0  0  0
  -10.8757    2.1927  -27.6593 H   0  0  0  0  0
  -10.1795    0.4893  -27.3030 H   0  0  0  0  0
  -11.5166    3.3723  -25.9668 H   0  0  0  0  0
  -10.7562    2.3738  -23.1350 H   0  0  0  0  0
  -13.1010    2.7979  -23.5598 H   0  0  0  0  0
  -12.7312    4.4653  -24.0188 H   0  0  0  0  0
  -12.4450    1.9850  -21.2666 H   0  0  0  0  0
  -12.3307    6.1360  -22.3612 H   0  0  0  0  0
  -12.4117    2.6001  -18.8567 H   0  0  0  0  0
  -12.2821    6.7786  -19.9662 H   0  0  0  0  0
  -12.2914    6.0364  -17.8475 H   0  0  0  0  0
   -9.2214    6.1029  -21.7727 H   0  0  0  0  0
   -8.7709    4.8651  -19.7126 H   0  0  0  0  0
   -7.1393    5.1145  -20.2044 H   0  0  0  0  0
   -7.9732    2.6040  -19.8665 H   0  0  0  0  0
   -6.9586    2.9439  -21.2203 H   0  0  0  0  0
   -8.8392    1.9991  -22.3709 H   0  0  0  0  0
   -9.9647    2.5269  -21.1961 H   0  0  0  0  0
   -7.5117    7.5532  -21.8079 H   0  0  0  0  0
   -5.7880    8.6295  -22.8857 H   0  0  0  0  0
   -3.6773    7.5641  -22.8289 H   0  0  0  0  0
   -4.4285    5.9307  -22.8988 H   0  0  0  0  0
   -4.8048    9.0366  -20.7844 H   0  0  0  0  0
   -4.3788    4.7819  -20.8959 H   0  0  0  0  0
   -4.8863    8.9698  -18.3106 H   0  0  0  0  0
   -4.4706    4.7105  -18.4403 H   0  0  0  0  0
   -4.6648    5.8368  -16.5909 H   0  0  0  0  0
   -7.6795    8.3255  -24.5720 H   0  0  0  0  0
   -8.2492    8.2433  -26.8050 H   0  0  0  0  0
   -5.3044    8.5274  -27.3796 H   0  0  0  0  0
   -6.3487    9.8782  -26.8079 H   0  0  0  0  0
   -6.1685    9.7888  -29.1031 H   0  0  0  0  0
   -8.1600    5.8457  -25.6083 H   0  0  0  0  0
   -7.9550    3.5899  -25.8803 H   0  0  0  0  0
   -8.0224    4.2175  -28.8408 H   0  0  0  0  0
   -9.4615    4.1858  -27.7626 H   0  0  0  0  0
   -5.6564    4.3432  -25.1301 H   0  0  0  0  0
   -3.4859    4.1977  -26.9502 H   0  0  0  0  0
   -3.5892    5.0590  -24.4913 H   0  0  0  0  0
   -2.0829    4.2172  -25.0296 H   0  0  0  0  0
   -5.2251    3.6747  -22.7946 H   0  0  0  0  0
   -0.7048    2.1183  -24.6916 H   0  0  0  0  0
   -2.8240   -0.2975  -20.8329 H   0  0  0  0  0
    0.4021    0.1435  -23.6522 H   0  0  0  0  0
   -0.6464   -1.0392  -21.7383 H   0  0  0  0  0
   -5.3204    1.5994  -25.3891 H   0  0  0  0  0
   -3.0407   -0.2167  -25.3750 H   0  0  0  0  0
   -5.1519   -0.2615  -23.8874 H   0  0  0  0  0
   -6.8037   -0.1130  -25.6435 H   0  0  0  0  0
   -6.2534   -1.6652  -26.3208 H   0  0  0  0  0
   -7.0057   -1.6144  -24.7076 H   0  0  0  0  0
   -4.1464   -2.8239  -25.1581 H   0  0  0  0  0
   -3.4169   -1.9626  -23.7807 H   0  0  0  0  0
   -5.0306   -2.6977  -23.6176 H   0  0  0  0  0
   -5.3095    0.7286  -27.8620 H   0  0  0  0  0
   -5.0153   -1.6823  -29.4055 H   0  0  0  0  0
   -6.7158    0.2866  -29.5750 H   0  0  0  0  0
   -6.1458   -0.5726  -31.1036 H   0  0  0  0  0
   -4.8725    1.2673  -31.7517 H   0  0  0  0  0
   -4.9741    2.0280  -30.1413 H   0  0  0  0  0
   -7.2088    2.6310  -30.4245 H   0  0  0  0  0
   -7.4134    1.4784  -31.8318 H   0  0  0  0  0
   -6.5677    3.0850  -33.2552 H   0  0  0  0  0
   -6.2751    4.1545  -29.9020 H   0  0  0  0  0
   -5.8007    6.4263  -32.5666 H   0  0  0  0  0
   -6.0991    5.2228  -33.8251 H   0  0  0  0  0
   -2.8283    0.7975  -28.9223 H   0  0  0  0  0
   -1.0952    0.3772  -31.2579 H   0  0  0  0  0
    0.3212    1.9890  -30.2248 H   0  0  0  0  0
   -0.8378    2.0900  -28.8418 H   0  0  0  0  0
   -2.4681    4.0441  -29.0690 H   0  0  0  0  0
   -2.6623    4.3902  -33.2336 H   0  0  0  0  0
   -0.3531   -2.4134  -28.6433 H   0  0  0  0  0
   -1.8927   -1.8252  -29.2795 H   0  0  0  0  0
  1  2  2  0  0  0
  1  3  1  0  0  0
  1  4  1  0  0  0
  3 46  1  0  0  0
  4  5  1  0  0  0
  5  6  1  0  0  0
  5  8  1  0  0  0
  6  7  2  0  0  0
  6 16  1  0  0  0
  8  9  1  0  0  0
  9 10  4  0  0  0
  9 11  4  0  0  0
 10 12  4  0  0  0
 11 13  4  0  0  0
 12 14  4  0  0  0
 13 14  4  0  0  0
 14 15  1  0  0  0
 16 17  1  0  0  0
 16 22  1  0  0  0
 17 18  1  0  0  0
 17 20  1  0  0  0
 18 19  2  0  0  0
 18 23  1  0  0  0
 20 21  1  0  0  0
 21 22  1  0  0  0
 23 24  1  0  0  0
 24 25  1  0  0  0
 24 27  1  0  0  0
 25 26  2  0  0  0
 25 35  1  0  0  0
 27 28  1  0  0  0
 28 29  4  0  0  0
 28 30  4  0  0  0
 29 31  4  0  0  0
 30 32  4  0  0  0
 31 33  4  0  0  0
 32 33  4  0  0  0
 33 34  1  0  0  0
 35 36  1  0  0  0
 36 37  1  0  0  0
 36 39  1  0  0  0
 37 38  2  0  0  0
 37 41  1  0  0  0
 39 40  1  0  0  0
 41 42  1  0  0  0
 42 43  1  0  0  0
 42 45  1  0  0  0
 43 44  2  0  0  0
 43 47  1  0  0  0
 45 46  1  0  0  0
 47 48  1  0  0  0
 48 49  1  0  0  0
 48 51  1  0  0  0
 49 50  2  0  0  0
 49 61  1  0  0  0
 51 52  1  0  0  0
 52 53  4  0  0  0
 52 54  4  0  0  0
 53 55  4  0  0  0
 54 56  4  0  0  0
 54 57  4  0  0  0
 55 56  4  0  0  0
 56 58  4  0  0  0
 57 59  4  0  0  0
 58 60  4  0  0  0
 59 60  4  0  0  0
 61 62  1  0  0  0
 62 63  1  0  0  0
 62 65  1  0  0  0
 63 64  2  0  0  0
 63 68  1  0  0  0
 65 66  1  0  0  0
 65 67  1  0  0  0
 68 69  1  0  0  0
 69 70  1  0  0  0
 69 72  1  0  0  0
 70 71  2  0  0  0
 70 79  1  0  0  0
 72 73  1  0  0  0
 73 74  1  0  0  0
 74 75  1  0  0  0
 75 76  1  0  0  0
 76 77  2  0  0  0
 76 78  1  0  0  0
 79 80  1  0  0  0
 80 81  1  0  0  0
 80 83  1  0  0  0
 81 82  2  0  0  0
 81 89  1  0  0  0
 83 84  1  0  0  0
 84 85  4  0  0  0
 84 86  4  0  0  0
 85 87  4  0  0  0
 86 88  4  0  0  0
 87 88  4  0  0  0
  3 90  1  0  0  0
  3 91  1  0  0  0
  4 92  1  0  0  0
  5 93  1  0  0  0
  8 94  1  0  0  0
  8 95  1  0  0  0
 10 96  1  0  0  0
 11 97  1  0  0  0
 12 98  1  0  0  0
 13 99  1  0  0  0
 15100  1  0  0  0
 17101  1  0  0  0
 20102  1  0  0  0
 20103  1  0  0  0
 21104  1  0  0  0
 21105  1  0  0  0
 22106  1  0  0  0
 22107  1  0  0  0
 23108  1  0  0  0
 24109  1  0  0  0
 27110  1  0  0  0
 27111  1  0  0  0
 29112  1  0  0  0
 30113  1  0  0  0
 31114  1  0  0  0
 32115  1  0  0  0
 34116  1  0  0  0
 35117  1  0  0  0
 36118  1  0  0  0
 39119  1  0  0  0
 39120  1  0  0  0
 40121  1  0  0  0
 41122  1  0  0  0
 42123  1  0  0  0
 45124  1  0  0  0
 45125  1  0  0  0
 47126  1  0  0  0
 48127  1  0  0  0
 51128  1  0  0  0
 51129  1  0  0  0
 53130  1  0  0  0
 57131  1  0  0  0
 58132  1  0  0  0
 59133  1  0  0  0
 60134  1  0  0  0
 61135  1  0  0  0
 62136  1  0  0  0
 65137  1  0  0  0
 66138  1  0  0  0
 66139  1  0  0  0
 66140  1  0  0  0
 67141  1  0  0  0
 67142  1  0  0  0
 67143  1  0  0  0
 68144  1  0  0  0
 69145  1  0  0  0
 72146  1  0  0  0
 72147  1  0  0  0
 73148  1  0  0  0
 73149  1  0  0  0
 74150  1  0  0  0
 74151  1  0  0  0
 75152  1  0  0  0
 77153  1  0  0  0
 78154  1  0  0  0
 78155  1  0  0  0
 79156  1  0  0  0
 80157  1  0  0  0
 83158  1  0  0  0
 83159  1  0  0  0
 86160  1  0  0  0
 87161  1  0  0  0
 89162  1  0  0  0
 89163  1  0  0  0
M  END
$$$$
