### 
### Created by X-TOOL on Mon Sep 10 21:13:31 2018
### 

@<TRIPOS>MOLECULE
5kez_ligand
  166   172     1     0     0
SMALL
GAST_HUCK


@<TRIPOS>ATOM
      1 C         -10.1190    1.8720  -25.7410 C.2       1 ACE         0.1883
      2 O          -9.3750    1.1810  -25.0150 O.2       1 ACE        -0.3960
      3 CH3       -10.0890    1.5730  -27.2290 C.3       1 ACE         0.0836
      4 N         -10.9410    2.8580  -25.3000 N.am      1 DTY        -0.2633
      5 CA        -11.0130    3.2110  -23.7840 C.3       1 DTY         0.1392
      6 C         -10.1240    4.3040  -23.6680 C.2       1 DTY         0.2082
      7 O          -9.8460    5.3480  -24.1840 O.2       1 DTY        -0.3940
      8 CB        -12.4100    3.6260  -23.4020 C.3       1 DTY         0.0164
      9 CG        -12.4080    4.0190  -21.9730 C.ar      1 DTY        -0.0493
     10 CD1       -12.4180    3.0360  -20.9790 C.ar      1 DTY        -0.0685
     11 CD2       -12.3520    5.3620  -21.5940 C.ar      1 DTY        -0.0685
     12 CE1       -12.3940    3.3760  -19.6220 C.ar      1 DTY        -0.0398
     13 CE2       -12.3230    5.7270  -20.2500 C.ar      1 DTY        -0.0398
     14 CZ        -12.3470    4.7260  -19.2630 C.ar      1 DTY         0.0805
     15 OH        -12.3230    5.0800  -17.9240 O.3       1 DTY        -0.3376
     16 N          -9.2700    4.0990  -22.4820 N.am      1 PRO        -0.2497
     17 CA         -8.5670    5.2360  -21.8640 C.3       1 PRO         0.1338
     18 C          -7.3830    5.7300  -22.6810 C.2       1 PRO         0.2042
     19 O          -6.8490    4.9730  -23.4790 O.2       1 PRO        -0.3944
     20 CB         -8.0760    4.6600  -20.5270 C.3       1 PRO        -0.0104
     21 CG         -7.9290    3.1860  -20.7870 C.3       1 PRO        -0.0281
     22 CD         -9.0670    2.8470  -21.7250 C.3       1 PRO         0.0369
     23 N          -6.9770    6.9770  -22.4580 N.am      1 TYR        -0.2621
     24 CA         -5.8000    7.5610  -23.1010 C.3       1 TYR         0.1390
     25 C          -5.8620    7.4280  -24.6260 C.2       1 TYR         0.2058
     26 O          -4.9320    6.9220  -25.2780 O.2       1 TYR        -0.3942
     27 CB         -4.5250    6.9500  -22.5250 C.3       1 TYR         0.0163
     28 CG         -4.5720    6.9070  -21.0150 C.ar      1 TYR        -0.0493
     29 CD1        -4.7250    8.0800  -20.2680 C.ar      1 TYR        -0.0685
     30 CD2        -4.4890    5.7100  -20.3350 C.ar      1 TYR        -0.0685
     31 CE1        -4.7770    8.0480  -18.8820 C.ar      1 TYR        -0.0398
     32 CE2        -4.5430    5.6670  -18.9580 C.ar      1 TYR        -0.0398
     33 CZ         -4.6880    6.8280  -18.2370 C.ar      1 TYR         0.0805
     34 OH         -4.7410    6.7540  -16.8640 O.3       1 TYR        -0.3376
     35 N          -6.9700    7.9240  -25.1850 N.am      1 SER        -0.2614
     36 CA         -7.2230    7.9240  -26.6230 C.3       1 SER         0.1539
     37 C          -7.0560    6.5100  -27.1700 C.2       1 SER         0.2062
     38 O          -6.4190    6.2760  -28.2030 O.2       1 SER        -0.3943
     39 CB         -6.3160    8.9320  -27.3480 C.3       1 SER         0.0843
     40 OG         -6.7530    9.1570  -28.6780 O.3       1 SER        -0.3903
     41 N          -7.6390    5.5590  -26.4370 N.am      1 CYS        -0.2628
     42 CA         -7.5770    4.1290  -26.7490 C.3       1 CYS         0.1400
     43 C          -6.1390    3.6740  -26.9950 C.2       1 CYS         0.2048
     44 O          -5.8090    3.1000  -28.0370 O.2       1 CYS        -0.3944
     45 CB         -8.4640    3.7850  -27.9430 C.3       1 CYS         0.0364
     46 SG         -8.5930    1.9880  -28.1680 S.3       1 CYS        -0.1344
     47 N          -5.2910    3.9340  -25.9900 N.am      1 TRP        -0.2626
     48 CA         -3.8610    3.6510  -26.0850 C.3       1 TRP         0.1352
     49 C          -3.5770    2.1680  -26.3030 C.2       1 TRP         0.2052
     50 O          -2.5590    1.8090  -26.9130 O.2       1 TRP        -0.3942
     51 CB         -3.1450    4.1150  -24.8070 C.3       1 TRP         0.0042
     52 CG         -3.2980    3.1180  -23.6760 C.2       1 TRP        -0.0418
     53 CD1        -4.3590    3.0130  -22.8070 C.2       1 TRP         0.0167
     54 CD2        -2.4020    2.0360  -23.3430 C.ar      1 TRP        -0.0214
     55 NE1        -4.1660    1.9500  -21.9560 N.pl3     1 TRP        -0.2890
     56 CE2        -2.9720    1.3420  -22.2530 C.ar      1 TRP         0.0603
     57 CE3        -1.1720    1.6020  -23.8530 C.ar      1 TRP        -0.0747
     58 CZ2        -2.3590    0.2280  -21.6670 C.ar      1 TRP        -0.0443
     59 CZ3        -0.5550    0.4930  -23.2650 C.ar      1 TRP        -0.0792
     60 CH2        -1.1520   -0.1800  -22.1790 C.ar      1 TRP        -0.0768
     61 N          -4.4270    1.2890  -25.7710 N.am      1 VAL        -0.2634
     62 CA         -4.0620   -0.1190  -25.7430 C.3       1 VAL         0.1333
     63 C          -4.0670   -0.7250  -27.1450 C.2       1 VAL         0.2041
     64 O          -3.3900   -1.7320  -27.3820 O.2       1 VAL        -0.3944
     65 CB         -4.9970   -0.8720  -24.7770 C.3       1 VAL        -0.0063
     66 CG1        -6.3620   -1.0810  -25.4070 C.3       1 VAL        -0.0584
     67 CG2        -4.3500   -2.1860  -24.2980 C.3       1 VAL        -0.0584
     68 N          -4.7770   -0.1090  -28.0970 N.am      1 ARG        -0.2637
     69 CA         -4.8030   -0.6150  -29.4670 C.3       1 ARG         0.1311
     70 C          -3.4640   -0.4610  -30.1750 C.2       1 ARG         0.2040
     71 O          -3.2760   -1.0720  -31.2300 O.2       1 ARG        -0.3944
     72 CB         -5.9010    0.0870  -30.2710 C.3       1 ARG        -0.0092
     73 CG         -5.5100    1.4370  -30.8840 C.3       1 ARG        -0.0156
     74 CD         -6.7690    2.1940  -31.3210 C.3       1 ARG         0.0627
     75 NE         -6.5150    3.2930  -32.2580 N.pl3     1 ARG        -0.2723
     76 CZ         -6.2210    4.5410  -31.9040 C.cat     1 ARG         0.2882
     77 NH1        -6.1240    4.8640  -30.6190 N.pl3     1 ARG        -0.2849
     78 NH2        -6.0250    5.4690  -32.8380 N.pl3     1 ARG        -0.2849
     79 N          -2.5600    0.2560  -29.7440 N.am      1 HIS        -0.2625
     80 CA         -1.1600    0.4930  -30.1760 C.3       1 HIS         0.1366
     81 C          -0.2760   -0.5240  -29.5360 C.2       1 HIS         0.2006
     82 O           0.8600   -0.3740  -29.3480 O.2       1 HIS        -0.3946
     83 CB         -0.7170    1.8930  -29.9070 C.3       1 HIS         0.0145
     84 CG         -1.5340    2.8960  -30.6650 C.2       1 HIS        -0.0027
     85 ND1        -1.6210    3.0240  -31.9690 N.2       1 HIS        -0.3252
     86 CD2        -2.3180    3.8670  -30.1340 C.2       1 HIS         0.0291
     87 CE1        -2.4130    4.0340  -32.2340 C.2       1 HIS         0.0907
     88 NE2        -2.8660    4.5580  -31.1010 N.pl3     1 HIS        -0.2752
     89 N          -0.8950   -1.6900  -29.1160 N.am      1 NH2        -0.2989
     90 H1        -10.9230    2.1245  -27.6875 H         1 ACE         0.0616
     91 H2        -10.2558    0.4921  -27.3460 H         1 ACE         0.0616
     92 H3        -11.5053    3.3623  -25.9537 H         1 DTY         0.1884
     93 H4        -10.6908    2.3643  -23.1601 H         1 DTY         0.0821
     94 H5        -13.1021    2.7848  -23.5548 H         1 DTY         0.0453
     95 H6        -12.7265    4.4784  -24.0210 H         1 DTY         0.0453
     96 H7        -12.4449    1.9907  -21.2650 H         1 DTY         0.0530
     97 H8        -12.3308    6.1317  -22.3570 H         1 DTY         0.0530
     98 H9        -12.4116    2.6044  -18.8609 H         1 DTY         0.0525
     99 H10       -12.2823    6.7728  -19.9678 H         1 DTY         0.0525
    100 H11       -12.3440    4.2949  -17.3896 H         1 DTY         0.2458
    101 H12        -9.2632    6.0720  -21.7014 H         1 PRO         0.0802
    102 H13        -8.8120    4.8433  -19.7303 H         1 PRO         0.0313
    103 H14        -7.1102    5.1035  -20.2432 H         1 PRO         0.0313
    104 H15        -8.0155    2.6161  -19.8501 H         1 PRO         0.0287
    105 H16        -6.9594    2.9700  -21.2594 H         1 PRO         0.0287
    106 H17        -8.7907    2.0210  -22.3968 H         1 PRO         0.0524
    107 H18        -9.9728    2.5753  -21.1631 H         1 PRO         0.0524
    108 H19        -7.5012    7.5419  -21.8207 H         1 TYR         0.1885
    109 H20        -5.7898    8.6355  -22.8660 H         1 TYR         0.0821
    110 H21        -3.6629    7.5563  -22.8398 H         1 TYR         0.0453
    111 H22        -4.4128    5.9255  -22.9095 H         1 TYR         0.0453
    112 H23        -4.8044    9.0313  -20.7816 H         1 TYR         0.0530
    113 H24        -4.3794    4.7870  -20.8928 H         1 TYR         0.0530
    114 H25        -4.8857    8.9647  -18.3137 H         1 TYR         0.0525
    115 H26        -4.4710    4.7158  -18.4431 H         1 TYR         0.0525
    116 H27        -4.8421    7.6275  -16.5046 H         1 TYR         0.2458
    117 H28        -7.6656    8.3177  -24.5840 H         1 SER         0.1884
    118 H29        -8.2658    8.2326  -26.7885 H         1 SER         0.0823
    119 H30        -5.2892    8.5381  -27.3704 H         1 SER         0.0606
    120 H31        -6.3310    9.8857  -26.8001 H         1 SER         0.0606
    121 H32        -6.7380    8.3373  -29.1580 H         1 SER         0.2097
    122 H33        -8.1498    5.8401  -25.6245 H         1 CYS         0.1884
    123 H34        -7.9590    3.5793  -25.8761 H         1 CYS         0.0808
    124 H35        -8.0319    4.2303  -28.8513 H         1 CYS         0.0426
    125 H36        -9.4692    4.1986  -27.7744 H         1 CYS         0.0426
    126 H37        -5.6493    4.3351  -25.1469 H         1 TRP         0.1884
    127 H38        -3.4569    4.2109  -26.9412 H         1 TRP         0.0815
    128 H39        -3.5714    5.0785  -24.4910 H         1 TRP         0.0397
    129 H40        -2.0745    4.2419  -25.0259 H         1 TRP         0.0397
    130 H41        -5.2243    3.6741  -22.7947 H         1 TRP         0.0795
    131 H42        -4.8155    1.6563  -21.2125 H         1 TRP         0.2216
    132 H43        -0.7073    2.1154  -24.6870 H         1 TRP         0.0540
    133 H44        -2.8214   -0.2946  -20.8375 H         1 TRP         0.0541
    134 H45         0.3968    0.1454  -23.6500 H         1 TRP         0.0510
    135 H46        -0.6492   -1.0345  -21.7407 H         1 TRP         0.0530
    136 H47        -5.3029    1.5933  -25.3966 H         1 VAL         0.1883
    137 H48        -3.0370   -0.1982  -25.3519 H         1 VAL         0.0802
    138 H49        -5.1408   -0.2379  -23.8898 H         1 VAL         0.0343
    139 H50        -7.0126   -1.6193  -24.7021 H         1 VAL         0.0234
    140 H51        -6.2538   -1.6705  -26.3293 H         1 VAL         0.0234
    141 H52        -6.8089   -0.1047  -25.6461 H         1 VAL         0.0234
    142 H53        -3.3675   -1.9700  -23.8529 H         1 VAL         0.0234
    143 H54        -4.2234   -2.8656  -25.1536 H         1 VAL         0.0234
    144 H55        -4.9971   -2.6603  -23.5455 H         1 VAL         0.0234
    145 H56        -5.2990    0.7122  -27.8666 H         1 ARG         0.1883
    146 H57        -5.0394   -1.6884  -29.4236 H         1 ARG         0.0800
    147 H58        -6.7572    0.2544  -29.6010 H         1 ARG         0.0313
    148 H59        -6.2019   -0.5826  -31.0902 H         1 ARG         0.0313
    149 H60        -4.8641    1.2676  -31.7582 H         1 ARG         0.0301
    150 H61        -4.9665    2.0336  -30.1366 H         1 ARG         0.0301
    151 H62        -7.2502    2.6101  -30.4236 H         1 ARG         0.0689
    152 H63        -7.4509    1.4791  -31.8046 H         1 ARG         0.0689
    153 H64        -6.5682    3.0830  -33.2650 H         1 ARG         0.2642
    154 H65        -5.8963    5.8309  -30.3468 H         1 ARG         0.2615
    155 H66        -6.2765    4.1475  -29.8949 H         1 ARG         0.2615
    156 H67        -6.0998    5.2203  -33.8347 H         1 ARG         0.2615
    157 H68        -5.7985    6.4357  -32.5640 H         1 ARG         0.2615
    158 H69        -2.8231    0.7869  -28.9384 H         1 HIS         0.1885
    159 H70        -1.1124    0.3415  -31.2645 H         1 HIS         0.0817
    160 H71         0.3369    1.9955  -30.2049 H         1 HIS         0.0420
    161 H72        -0.8151    2.0959  -28.8303 H         1 HIS         0.0420
    162 H73        -2.4680    4.0439  -29.0700 H         1 HIS         0.0729
    163 H74        -2.6620    4.3898  -33.2326 H         1 HIS         0.1199
    164 H75        -3.5178    5.3494  -31.0029 H         1 HIS         0.2361
    165 H76        -0.3581   -2.4117  -28.6792 H         1 NH2         0.1815
    166 H77        -1.8788   -1.8099  -29.2496 H         1 NH2         0.1815
@<TRIPOS>BOND
     1    1    2 2  
     2    1    3 1  
     3    1    4 am 
     4    3   46 1  
     5    4    5 1  
     6    5    6 1  
     7    5    8 1  
     8    6    7 2  
     9    6   16 am 
    10    8    9 1  
    11    9   10 ar 
    12    9   11 ar 
    13   10   12 ar 
    14   11   13 ar 
    15   12   14 ar 
    16   13   14 ar 
    17   14   15 1  
    18   16   17 1  
    19   16   22 1  
    20   17   18 1  
    21   17   20 1  
    22   18   19 2  
    23   18   23 am 
    24   20   21 1  
    25   21   22 1  
    26   23   24 1  
    27   24   25 1  
    28   24   27 1  
    29   25   26 2  
    30   25   35 am 
    31   27   28 1  
    32   28   29 ar 
    33   28   30 ar 
    34   29   31 ar 
    35   30   32 ar 
    36   31   33 ar 
    37   32   33 ar 
    38   33   34 1  
    39   35   36 1  
    40   36   37 1  
    41   36   39 1  
    42   37   38 2  
    43   37   41 am 
    44   39   40 1  
    45   41   42 1  
    46   42   43 1  
    47   42   45 1  
    48   43   44 2  
    49   43   47 am 
    50   45   46 1  
    51   47   48 1  
    52   48   49 1  
    53   48   51 1  
    54   49   50 2  
    55   49   61 am 
    56   51   52 1  
    57   52   53 2  
    58   52   54 1  
    59   53   55 1  
    60   54   56 ar 
    61   54   57 ar 
    62   55   56 1  
    63   56   58 ar 
    64   57   59 ar 
    65   58   60 ar 
    66   59   60 ar 
    67   61   62 1  
    68   62   63 1  
    69   62   65 1  
    70   63   64 2  
    71   63   68 am 
    72   65   66 1  
    73   65   67 1  
    74   68   69 1  
    75   69   70 1  
    76   69   72 1  
    77   70   71 2  
    78   70   79 am 
    79   72   73 1  
    80   73   74 1  
    81   74   75 1  
    82   75   76 ar 
    83   76   77 ar 
    84   76   78 ar 
    85   79   80 1  
    86   80   81 1  
    87   80   83 1  
    88   81   82 2  
    89   81   89 am 
    90   83   84 1  
    91   84   85 1  
    92   84   86 2  
    93   85   87 2  
    94   86   88 1  
    95   87   88 1  
    96    3   90 1  
    97    3   91 1  
    98    4   92 1  
    99    5   93 1  
   100    8   94 1  
   101    8   95 1  
   102   10   96 1  
   103   11   97 1  
   104   12   98 1  
   105   13   99 1  
   106   15  100 1  
   107   17  101 1  
   108   20  102 1  
   109   20  103 1  
   110   21  104 1  
   111   21  105 1  
   112   22  106 1  
   113   22  107 1  
   114   23  108 1  
   115   24  109 1  
   116   27  110 1  
   117   27  111 1  
   118   29  112 1  
   119   30  113 1  
   120   31  114 1  
   121   32  115 1  
   122   34  116 1  
   123   35  117 1  
   124   36  118 1  
   125   39  119 1  
   126   39  120 1  
   127   40  121 1  
   128   41  122 1  
   129   42  123 1  
   130   45  124 1  
   131   45  125 1  
   132   47  126 1  
   133   48  127 1  
   134   51  128 1  
   135   51  129 1  
   136   53  130 1  
   137   55  131 1  
   138   57  132 1  
   139   58  133 1  
   140   59  134 1  
   141   60  135 1  
   142   61  136 1  
   143   62  137 1  
   144   65  138 1  
   145   66  139 1  
   146   66  140 1  
   147   66  141 1  
   148   67  142 1  
   149   67  143 1  
   150   67  144 1  
   151   68  145 1  
   152   69  146 1  
   153   72  147 1  
   154   72  148 1  
   155   73  149 1  
   156   73  150 1  
   157   74  151 1  
   158   74  152 1  
   159   75  153 1  
   160   77  154 1  
   161   77  155 1  
   162   78  156 1  
   163   78  157 1  
   164   79  158 1  
   165   80  159 1  
   166   83  160 1  
   167   83  161 1  
   168   86  162 1  
   169   87  163 1  
   170   88  164 1  
   171   89  165 1  
   172   89  166 1  
@<TRIPOS>SUBSTRUCTURE
     1 ACE         1

