2ftd_ligand
  -I-interpret- 

 72 75  0  0  0  0  0  0  0  0999 V2000
   85.4710  -24.4740 -102.1030 N   0  0  0  0  0
   85.1060  -24.7850 -100.8030 C   0  0  0  0  0
   84.8840  -23.8180  -99.7910 C   0  0  0  0  0
   85.0510  -22.4570 -100.1470 C   0  0  0  0  0
   83.3540  -27.6300 -104.8420 C   0  0  0  0  0
   82.4240  -25.6830 -103.1940 C   0  0  0  0  0
   82.4820  -29.2960 -106.4190 C   0  0  0  0  0
   81.4810  -30.4480 -106.6640 C   0  0  0  0  0
   81.3160  -33.0330 -106.7540 C   0  0  0  0  0
   80.1120  -33.1050 -105.7800 C   0  0  0  0  0
   80.0600  -29.2920 -108.3640 C   0  0  0  0  0
   85.4230  -22.1000 -101.4670 C   0  0  0  0  0
   85.6210  -23.1360 -102.4070 C   0  0  0  0  0
   84.9240  -26.5510 -100.4950 S   0  0  0  0  0
   84.2860  -26.6790  -99.1810 O   0  0  0  0  0
   86.2580  -27.1320 -100.6920 O   0  0  0  0  0
   83.8840  -27.0700 -101.7040 N   0  0  0  0  0
   84.2680  -28.2610 -102.5140 C   0  0  0  0  0
   84.6440  -28.0350 -103.9920 C   0  0  0  0  0
   82.3160  -26.5250 -104.4530 C   0  0  0  0  0
   82.5720  -26.3840 -101.8430 C   0  0  0  0  0
   85.5620  -27.0680 -104.0990 O   0  0  0  0  0
   81.3950  -27.3300 -101.5170 C   0  0  0  0  0
   82.4790  -28.7640 -105.1560 N   0  0  0  0  0
   83.2110  -28.8730 -107.3390 O   0  0  0  0  0
   82.2070  -31.7990 -106.5060 C   0  0  0  0  0
   82.1400  -34.2940 -106.5970 C   0  0  0  0  0
   81.0190  -30.2380 -108.0310 N   0  0  0  0  0
   79.5420  -28.5790 -107.5060 O   0  0  0  0  0
   79.7690  -29.1940 -109.7720 C   0  0  0  0  0
   79.6720  -30.1180 -110.7820 C   0  0  0  0  0
   79.3850  -29.4290 -111.9750 C   0  0  0  0  0
   79.3160  -28.0700 -111.6070 C   0  0  0  0  0
   79.5500  -27.9360 -110.2780 O   0  0  0  0  0
   79.1700  -29.7850 -113.3420 C   0  0  0  0  0
   78.8930  -28.7520 -114.2900 C   0  0  0  0  0
   78.8310  -27.3870 -113.8800 C   0  0  0  0  0
   79.0430  -27.0150 -112.5200 C   0  0  0  0  0
   84.5967  -24.1093  -98.7807 H   0  0  0  0  0
   84.8922  -21.6789  -99.4003 H   0  0  0  0  0
   83.9757  -27.1887 -105.6210 H   0  0  0  0  0
   81.4755  -25.1497 -103.1309 H   0  0  0  0  0
   83.3445  -25.1123 -103.3163 H   0  0  0  0  0
   80.6480  -30.4616 -105.9611 H   0  0  0  0  0
   80.9242  -32.9435 -107.7672 H   0  0  0  0  0
   80.4783  -33.1567 -104.7547 H   0  0  0  0  0
   79.4940  -32.2155 -105.9019 H   0  0  0  0  0
   79.5202  -33.9932 -106.0010 H   0  0  0  0  0
   85.5528  -21.0552 -101.7492 H   0  0  0  0  0
   85.9066  -22.8650 -103.4234 H   0  0  0  0  0
   83.3831  -28.8971 -102.5332 H   0  0  0  0  0
   85.1679  -28.6556 -102.0422 H   0  0  0  0  0
   85.0542  -28.9669 -104.3810 H   0  0  0  0  0
   81.4014  -27.0948 -104.2890 H   0  0  0  0  0
   82.4302  -25.7901 -105.2498 H   0  0  0  0  0
   82.5415  -25.5905 -101.0963 H   0  0  0  0  0
   85.7844  -26.9404 -105.0241 H   0  0  0  0  0
   81.4129  -28.1790 -102.2003 H   0  0  0  0  0
   81.4898  -27.6856 -100.4910 H   0  0  0  0  0
   80.4547  -26.7905 -101.6304 H   0  0  0  0  0
   81.8704  -29.1554 -104.4371 H   0  0  0  0  0
   82.5543  -31.8570 -105.4745 H   0  0  0  0  0
   83.0027  -31.8238 -107.2506 H   0  0  0  0  0
   82.4967  -34.3679 -105.5697 H   0  0  0  0  0
   81.5230  -35.1613 -106.8320 H   0  0  0  0  0
   82.9913  -34.2572 -107.2768 H   0  0  0  0  0
   81.4179  -30.8112 -108.7745 H   0  0  0  0  0
   79.7955  -31.1960 -110.6784 H   0  0  0  0  0
   79.2165  -30.8275 -113.6567 H   0  0  0  0  0
   78.7276  -29.0095 -115.3361 H   0  0  0  0  0
   78.6178  -26.6150 -114.6193 H   0  0  0  0  0
   78.9981  -25.9750 -112.1969 H   0  0  0  0  0
  2  1  4  0  0  0
  1 13  4  0  0  0
  2  3  4  0  0  0
 14  2  1  0  0  0
  3  4  4  0  0  0
  4 12  4  0  0  0
  5 19  1  0  0  0
 20  5  1  0  0  0
  5 24  1  0  0  0
  6 20  1  0  0  0
 21  6  1  0  0  0
  7  8  1  0  0  0
 24  7  1  0  0  0
  7 25  2  0  0  0
  8 26  1  0  0  0
  8 28  1  0  0  0
  9 10  1  0  0  0
 26  9  1  0  0  0
  9 27  1  0  0  0
 28 11  1  0  0  0
 11 29  2  0  0  0
 11 30  1  0  0  0
 13 12  4  0  0  0
 14 15  2  0  0  0
 14 16  2  0  0  0
 17 14  1  0  0  0
 17 18  1  0  0  0
 17 21  1  0  0  0
 18 19  1  0  0  0
 19 22  1  0  0  0
 21 23  1  0  0  0
 30 31  4  0  0  0
 30 34  4  0  0  0
 31 32  4  0  0  0
 32 33  4  0  0  0
 32 35  4  0  0  0
 33 34  4  0  0  0
 33 38  4  0  0  0
 35 36  4  0  0  0
 36 37  4  0  0  0
 37 38  4  0  0  0
  3 39  1  0  0  0
  4 40  1  0  0  0
  5 41  1  0  0  0
  6 42  1  0  0  0
  6 43  1  0  0  0
  8 44  1  0  0  0
  9 45  1  0  0  0
 10 46  1  0  0  0
 10 47  1  0  0  0
 10 48  1  0  0  0
 12 49  1  0  0  0
 13 50  1  0  0  0
 18 51  1  0  0  0
 18 52  1  0  0  0
 19 53  1  0  0  0
 20 54  1  0  0  0
 20 55  1  0  0  0
 21 56  1  0  0  0
 22 57  1  0  0  0
 23 58  1  0  0  0
 23 59  1  0  0  0
 23 60  1  0  0  0
 24 61  1  0  0  0
 26 62  1  0  0  0
 26 63  1  0  0  0
 27 64  1  0  0  0
 27 65  1  0  0  0
 27 66  1  0  0  0
 28 67  1  0  0  0
 31 68  1  0  0  0
 35 69  1  0  0  0
 36 70  1  0  0  0
 37 71  1  0  0  0
 38 72  1  0  0  0
M  END
$$$$
