3czv_ligand
  -I-interpret- 

 19 19  0  0  0  0  0  0  0  0999 V2000
   33.8190   59.3640   18.1560 C   0  0  0  0  0
   35.4080   60.0500   19.7330 C   0  0  0  0  0
   36.0940   61.9150   21.1990 C   0  0  0  0  0
   37.3070   62.4470   21.8940 C   0  0  0  0  0
   33.0630   59.1140   15.5560 N   0  0  0  0  0
   35.6360   58.8370   19.2900 N   0  0  0  0  0
   34.6980   58.4400   18.3630 N   0  0  0  0  0
   36.2400   60.6350   20.6680 N   0  0  0  0  0
   31.9450   57.8730   17.3260 O   0  0  0  0  0
   31.6640   60.3250   17.1420 O   0  0  0  0  0
   35.0410   62.5320   21.0950 O   0  0  0  0  0
   32.4740   59.1560   17.0090 S   0  0  0  0  0
   34.0170   60.8120   19.0530 S   0  0  0  0  0
   37.6316   63.3650   21.4040 H   0  0  0  0  0
   37.0648   62.6559   22.9360 H   0  0  0  0  0
   38.1054   61.7065   21.8466 H   0  0  0  0  0
   33.0205   58.2515   15.0132 H   0  0  0  0  0
   33.4885   59.9492   15.1538 H   0  0  0  0  0
   37.0304   60.0815   20.9986 H   0  0  0  0  0
  1  7  4  0  0  0
  1 12  1  0  0  0
 13  1  4  0  0  0
  2  6  4  0  0  0
  8  2  1  0  0  0
  2 13  4  0  0  0
  3  4  1  0  0  0
  3  8  1  0  0  0
  3 11  2  0  0  0
 12  5  1  0  0  0
  6  7  4  0  0  0
 12  9  2  0  0  0
 12 10  2  0  0  0
  4 14  1  0  0  0
  4 15  1  0  0  0
  4 16  1  0  0  0
  5 17  1  0  0  0
  5 18  1  0  0  0
  8 19  1  0  0  0
M  END
$$$$
