2qt9_ligand
  -I-interpret- 

 63 66  0  0  0  0  0  0  0  0999 V2000
   47.8790   52.6120   33.5670 C   0  0  0  0  0
   45.4160   52.4660   33.1680 C   0  0  0  0  0
   45.1830   51.9390   34.4340 C   0  0  0  0  0
   47.6300   52.0450   34.9130 C   0  0  0  0  0
   46.8000   52.8040   32.7380 C   0  0  0  0  0
   46.3710   51.7390   35.3100 N   0  0  0  0  0
   46.3820   51.2820   36.4620 N   0  0  0  0  0
   47.6660   51.2870   36.8440 C   0  0  0  0  0
   48.4960   51.7650   35.8930 N   0  0  0  0  0
   39.4910   51.7900   36.1070 C   0  0  0  0  0
   38.3680   51.3080   35.1480 C   0  0  0  0  0
   36.9530   51.2460   35.7540 C   0  0  0  0  0
   36.1580   50.1610   35.7020 N   0  0  0  0  0
   39.6940   50.6780   37.2370 C   0  0  0  0  0
   38.2000   52.2210   34.0330 N   0  3  0  0  0
   36.5350   52.2770   36.2890 O   0  0  0  0  0
   39.7550   49.4960   36.8020 O   0  0  0  0  0
   39.8250   50.9160   38.6240 N   0  0  0  0  0
   39.7900   52.1870   39.3540 C   0  0  0  0  0
   40.0340   49.7090   39.4580 C   0  0  0  0  0
   36.4860   48.8670   35.1370 C   0  0  0  0  0
   35.2080   48.0510   35.3840 C   0  0  0  0  0
   34.1150   48.9220   36.0450 C   0  0  0  0  0
   34.8540   50.2980   36.2400 C   0  0  0  0  0
   35.4950   47.2440   36.4790 F   0  0  0  0  0
   43.8540   51.5620   35.0070 C   0  0  0  0  0
   43.3240   52.7760   35.7830 C   0  0  0  0  0
   41.9530   52.5130   36.4380 C   0  0  0  0  0
   40.8750   52.0130   35.4060 C   0  0  0  0  0
   41.4640   50.7840   34.6140 C   0  0  0  0  0
   42.7960   51.1480   33.9470 C   0  0  0  0  0
   48.8878   52.8691   33.2440 H   0  0  0  0  0
   44.5808   52.6322   32.4876 H   0  0  0  0  0
   46.9618   53.2139   31.7411 H   0  0  0  0  0
   48.0050   50.9413   37.8206 H   0  0  0  0  0
   39.1710   52.7527   36.5056 H   0  0  0  0  0
   38.7136   50.3098   34.8792 H   0  0  0  0  0
   37.4578   51.8781   33.4232 H   0  0  0  0  0
   37.9517   53.1451   34.3862 H   0  0  0  0  0
   39.0728   52.2794   33.5085 H   0  0  0  0  0
   40.5913   52.8329   38.9950 H   0  0  0  0  0
   38.8284   52.6729   39.1890 H   0  0  0  0  0
   39.9244   51.9968   40.4188 H   0  0  0  0  0
   39.1858   49.0350   39.3384 H   0  0  0  0  0
   40.9476   49.2049   39.1428 H   0  0  0  0  0
   40.1218   50.0025   40.5041 H   0  0  0  0  0
   37.3693   48.4182   35.5915 H   0  0  0  0  0
   36.7561   48.9217   34.0824 H   0  0  0  0  0
   34.9117   47.5913   34.4411 H   0  0  0  0  0
   33.7380   48.5020   36.9775 H   0  0  0  0  0
   33.2096   49.0032   35.4435 H   0  0  0  0  0
   34.3137   51.0964   35.7314 H   0  0  0  0  0
   34.9032   50.5578   37.2974 H   0  0  0  0  0
   44.0090   50.6869   35.6380 H   0  0  0  0  0
   43.2050   53.5979   35.0770 H   0  0  0  0  0
   44.0359   53.0019   36.5769 H   0  0  0  0  0
   41.5993   53.4518   36.8641 H   0  0  0  0  0
   42.0842   51.7345   37.1896 H   0  0  0  0  0
   40.6550   52.7702   34.6535 H   0  0  0  0  0
   40.7533   50.4932   33.8404 H   0  0  0  0  0
   41.6352   49.9662   35.3140 H   0  0  0  0  0
   43.1655   50.2773   33.4053 H   0  0  0  0  0
   42.6311   51.9870   33.2710 H   0  0  0  0  0
  4  1  4  0  0  0
  5  1  4  0  0  0
  3  2  4  0  0  0
  2  5  4  0  0  0
  3  6  4  0  0  0
 26  3  1  0  0  0
  6  4  4  0  0  0
  4  9  4  0  0  0
  6  7  4  0  0  0
  7  8  4  0  0  0
  8  9  4  0  0  0
 10 11  1  0  0  0
 10 14  1  0  0  0
 29 10  1  0  0  0
 11 12  1  0  0  0
 11 15  1  0  0  0
 12 13  1  0  0  0
 12 16  2  0  0  0
 13 21  1  0  0  0
 13 24  1  0  0  0
 14 17  2  0  0  0
 14 18  1  0  0  0
 18 19  1  0  0  0
 18 20  1  0  0  0
 21 22  1  0  0  0
 23 22  1  0  0  0
 22 25  1  0  0  0
 24 23  1  0  0  0
 27 26  1  0  0  0
 26 31  1  0  0  0
 28 27  1  0  0  0
 28 29  1  0  0  0
 29 30  1  0  0  0
 30 31  1  0  0  0
  1 32  1  0  0  0
  2 33  1  0  0  0
  5 34  1  0  0  0
  8 35  1  0  0  0
 10 36  1  0  0  0
 11 37  1  0  0  0
 15 38  1  0  0  0
 15 39  1  0  0  0
 15 40  1  0  0  0
 19 41  1  0  0  0
 19 42  1  0  0  0
 19 43  1  0  0  0
 20 44  1  0  0  0
 20 45  1  0  0  0
 20 46  1  0  0  0
 21 47  1  0  0  0
 21 48  1  0  0  0
 22 49  1  0  0  0
 23 50  1  0  0  0
 23 51  1  0  0  0
 24 52  1  0  0  0
 24 53  1  0  0  0
 26 54  1  0  0  0
 27 55  1  0  0  0
 27 56  1  0  0  0
 28 57  1  0  0  0
 28 58  1  0  0  0
 29 59  1  0  0  0
 30 60  1  0  0  0
 30 61  1  0  0  0
 31 62  1  0  0  0
 31 63  1  0  0  0
M  END
$$$$
