3c8e_ligand
  -I-interpret- 

 38 37  0  0  0  0  0  0  0  0999 V2000
   41.9840   69.0650   14.9060 N   0  3  0  0  0
   41.2340   69.4320   13.7190 C   0  0  0  0  0
   40.2350   70.4880   13.8670 C   0  0  0  0  0
   39.6070   70.2790   14.8900 O   0  0  0  0  0
   39.9660   71.3710   13.0580 O   0  0  0  0  0
   41.0550   68.3100   12.6780 C   0  0  0  0  0
   40.5410   68.9280   11.3700 C   0  0  0  0  0
   40.3570   67.8080   10.3350 C   0  0  0  0  0
   40.6530   66.5260   10.6790 O   0  0  0  0  0
   39.8940   68.1250    9.1160 N   0  0  0  0  0
   39.8400   67.0250    8.1110 C   0  0  0  0  0
   40.6620   67.3870    6.9220 C   0  0  0  0  0
   40.6550   68.6660    6.5050 O   0  0  0  0  0
   38.4090   66.9310    7.6410 C   0  0  0  0  0
   37.2710   66.6760    9.0460 S   0  0  0  0  0
   41.4150   66.4560    6.3270 N   0  0  0  0  0
   42.2810   66.8340    5.2100 C   0  0  0  0  0
   43.4330   65.8800    5.0870 C   0  0  0  0  0
   43.6010   65.0000    5.9630 O   0  0  0  0  0
   44.2400   66.0950    4.1220 O   0  0  0  0  0
   42.0470   69.8699   15.5293 H   0  0  0  0  0
   41.5085   68.2997   15.3841 H   0  0  0  0  0
   42.9218   68.7683   14.6360 H   0  0  0  0  0
   41.9135   70.0520   13.1341 H   0  0  0  0  0
   40.5967   71.3437   12.3347 H   0  0  0  0  0
   40.3394   67.5748   13.0460 H   0  0  0  0  0
   42.0090   67.8128   12.5023 H   0  0  0  0  0
   41.2584   69.6603   10.9995 H   0  0  0  0  0
   39.5893   69.4292   11.5463 H   0  0  0  0  0
   39.5935   69.0727    8.8880 H   0  0  0  0  0
   40.2043   66.0967    8.5510 H   0  0  0  0  0
   38.3200   66.0832    6.9617 H   0  0  0  0  0
   38.1438   67.8631    7.1421 H   0  0  0  0  0
   36.0224   66.5982    8.5946 H   0  0  0  0  0
   41.3859   65.4888    6.6497 H   0  0  0  0  0
   42.6705   67.8362    5.3890 H   0  0  0  0  0
   41.7000   66.8063    4.2881 H   0  0  0  0  0
   43.9056   66.8140    3.5808 H   0  0  0  0  0
  1  2  1  0  0  0
  2  3  1  0  0  0
  2  6  1  0  0  0
  3  4  2  0  0  0
  3  5  1  0  0  0
  6  7  1  0  0  0
  7  8  1  0  0  0
  8  9  2  0  0  0
  8 10  1  0  0  0
 10 11  1  0  0  0
 11 12  1  0  0  0
 11 14  1  0  0  0
 12 13  2  0  0  0
 12 16  1  0  0  0
 14 15  1  0  0  0
 16 17  1  0  0  0
 17 18  1  0  0  0
 18 19  2  0  0  0
 18 20  1  0  0  0
  1 21  1  0  0  0
  1 22  1  0  0  0
  1 23  1  0  0  0
  2 24  1  0  0  0
  5 25  1  0  0  0
  6 26  1  0  0  0
  6 27  1  0  0  0
  7 28  1  0  0  0
  7 29  1  0  0  0
 10 30  1  0  0  0
 11 31  1  0  0  0
 14 32  1  0  0  0
 14 33  1  0  0  0
 15 34  1  0  0  0
 16 35  1  0  0  0
 17 36  1  0  0  0
 17 37  1  0  0  0
 20 38  1  0  0  0
M  END
$$$$
