### 
### Created by X-TOOL on Mon Sep 10 21:12:54 2018
### 

@<TRIPOS>MOLECULE
2fx7_ligand
  315   322     1     0     0
SMALL
GAST_HUCK


@<TRIPOS>ATOM
      1 N          49.5710  -11.8440   70.2610 N.4       1 ASN         0.2396
      2 CA         49.0560  -11.2630   68.9900 C.3       1 ASN         0.0818
      3 C          48.4310   -9.8930   69.2430 C.2       1 ASN         0.2292
      4 O          47.4540   -9.7670   69.9840 O.2       1 ASN        -0.3905
      5 CB         48.0280  -12.2180   68.3730 C.3       1 ASN         0.0972
      6 CG         47.4740  -11.7130   67.0550 C.2       1 ASN         0.1813
      7 OD1        47.9530  -10.7220   66.5040 O.2       1 ASN        -0.3969
      8 ND2        46.4630  -12.4030   66.5390 N.am      1 ASN        -0.3006
      9 N          49.0180   -8.8680   68.6320 N.am      1 TRP        -0.2598
     10 CA         48.5470   -7.4910   68.7590 C.3       1 TRP         0.1353
     11 C          47.0620   -7.3760   68.4180 C.2       1 TRP         0.2053
     12 O          46.3420   -6.5700   69.0070 O.2       1 TRP        -0.3942
     13 CB         49.3590   -6.5940   67.8210 C.3       1 TRP         0.0042
     14 CG         48.9910   -5.1310   67.8160 C.2       1 TRP        -0.0418
     15 CD1        49.4930   -4.1540   68.6310 C.2       1 TRP         0.0167
     16 CD2        48.1060   -4.4700   66.9000 C.ar      1 TRP        -0.0214
     17 NE1        48.9840   -2.9280   68.2720 N.pl3     1 TRP        -0.2890
     18 CE2        48.1310   -3.0930   67.2130 C.ar      1 TRP         0.0603
     19 CE3        47.2970   -4.9090   65.8420 C.ar      1 TRP        -0.0747
     20 CZ2        47.3780   -2.1480   66.5040 C.ar      1 TRP        -0.0443
     21 CZ3        46.5440   -3.9680   65.1370 C.ar      1 TRP        -0.0792
     22 CH2        46.5930   -2.6040   65.4740 C.ar      1 TRP        -0.0768
     23 N          46.6010   -8.1810   67.4650 N.am      1 PHE        -0.2618
     24 CA         45.1990   -8.1280   67.0640 C.3       1 PHE         0.1404
     25 C          44.2190   -8.6470   68.1200 C.2       1 PHE         0.2060
     26 O          43.0090   -8.5790   67.9280 O.2       1 PHE        -0.3942
     27 CB         44.9880   -8.8800   65.7400 C.3       1 PHE         0.0214
     28 CG         45.6170   -8.2010   64.5490 C.ar      1 PHE        -0.0386
     29 CD1        46.9070   -8.5270   64.1380 C.ar      1 PHE        -0.0601
     30 CD2        44.9210   -7.2190   63.8500 C.ar      1 PHE        -0.0601
     31 CE1        47.4950   -7.8840   63.0520 C.ar      1 PHE        -0.0686
     32 CE2        45.5000   -6.5680   62.7610 C.ar      1 PHE        -0.0686
     33 CZ         46.7880   -6.8990   62.3600 C.ar      1 PHE        -0.0687
     34 N          44.7330   -9.1580   69.2350 N.am      1 ASP        -0.2620
     35 CA         43.8640   -9.6590   70.2980 C.3       1 ASP         0.1423
     36 C          43.7760   -8.6930   71.4790 C.2       1 ASP         0.2056
     37 O          42.9680   -8.8880   72.3840 O.2       1 ASP        -0.3943
     38 CB         44.3530  -11.0210   70.8150 C.3       1 ASP         0.0406
     39 CG         44.1570  -12.1410   69.8100 C.2       1 ASP         0.0393
     40 OD1        43.1160  -12.1470   69.1190 O.co2     1 ASP        -0.5688
     41 OD2        45.0370  -13.0260   69.7250 O.co2     1 ASP        -0.5688
     42 N          44.6010   -7.6510   71.4690 N.am      1 ILE        -0.2634
     43 CA         44.6180   -6.6830   72.5650 C.3       1 ILE         0.1335
     44 C          43.2900   -5.9750   72.8320 C.2       1 ILE         0.2042
     45 O          42.8440   -5.8990   73.9810 O.2       1 ILE        -0.3944
     46 CB         45.7210   -5.6190   72.3360 C.3       1 ILE        -0.0037
     47 CG1        47.0920   -6.3060   72.3330 C.3       1 ILE        -0.0491
     48 CG2        45.6640   -4.5410   73.4280 C.3       1 ILE        -0.0582
     49 CD1        48.2520   -5.3790   72.0550 C.3       1 ILE        -0.0648
     50 N          42.6480   -5.4600   71.7890 N.am      1 THR        -0.2613
     51 CA         41.3930   -4.7510   71.9900 C.3       1 THR         0.1565
     52 C          40.2810   -5.6370   72.5480 C.2       1 THR         0.2066
     53 O          39.3940   -5.1510   73.2490 O.2       1 THR        -0.3943
     54 CB         40.9150   -4.0760   70.6900 C.3       1 THR         0.0924
     55 OG1        40.8310   -5.0470   69.6430 O.3       1 THR        -0.3874
     56 CG2        41.8840   -2.9640   70.2900 C.3       1 THR        -0.0346
     57 N          40.3270   -6.9320   72.2470 N.am      1 ASN        -0.2615
     58 CA         39.3150   -7.8490   72.7630 C.3       1 ASN         0.1476
     59 C          39.4940   -7.9250   74.2750 C.2       1 ASN         0.2063
     60 O          38.5280   -7.8720   75.0350 O.2       1 ASN        -0.3942
     61 CB         39.4850   -9.2410   72.1530 C.3       1 ASN         0.0773
     62 CG         38.5190  -10.2520   72.7390 C.2       1 ASN         0.1780
     63 OD1        38.9290  -11.2310   73.3630 O.2       1 ASN        -0.3970
     64 ND2        37.2270  -10.0160   72.5490 N.am      1 ASN        -0.3007
     65 N          40.7470   -8.0360   74.6980 N.am      1 TRP        -0.2625
     66 CA         41.0830   -8.1140   76.1120 C.3       1 TRP         0.1352
     67 C          40.6450   -6.8390   76.8320 C.2       1 TRP         0.2052
     68 O          40.0630   -6.8980   77.9170 O.2       1 TRP        -0.3942
     69 CB         42.5880   -8.3050   76.2700 C.3       1 TRP         0.0042
     70 CG         43.0160   -8.6590   77.6550 C.2       1 TRP        -0.0418
     71 CD1        42.9370   -9.8840   78.2510 C.2       1 TRP         0.0167
     72 CD2        43.6310   -7.7870   78.6080 C.ar      1 TRP        -0.0214
     73 NE1        43.4730   -9.8310   79.5160 N.pl3     1 TRP        -0.2890
     74 CE2        43.9070   -8.5540   79.7600 C.ar      1 TRP         0.0603
     75 CE3        43.9770   -6.4300   78.5990 C.ar      1 TRP        -0.0747
     76 CZ2        44.5180   -8.0100   80.8950 C.ar      1 TRP        -0.0443
     77 CZ3        44.5870   -5.8880   79.7280 C.ar      1 TRP        -0.0792
     78 CH2        44.8510   -6.6800   80.8590 C.ar      1 TRP        -0.0768
     79 N          40.9310   -5.6890   76.2240 N.am      1 LEU        -0.2636
     80 CA         40.5620   -4.4000   76.7970 C.3       1 LEU         0.1312
     81 C          39.0530   -4.3140   76.9860 C.2       1 LEU         0.2040
     82 O          38.5710   -3.7960   77.9930 O.2       1 LEU        -0.3944
     83 CB         41.0270   -3.2550   75.8890 C.3       1 LEU        -0.0101
     84 CG         42.5360   -3.0240   75.7850 C.3       1 LEU        -0.0425
     85 CD1        42.8190   -1.8570   74.8400 C.3       1 LEU        -0.0625
     86 CD2        43.1000   -2.7350   77.1730 C.3       1 LEU        -0.0625
     87 N          38.3170   -4.8210   76.0040 N.am      1 TRP        -0.2627
     88 CA         36.8610   -4.8140   76.0450 C.3       1 TRP         0.1352
     89 C          36.3570   -5.5290   77.2980 C.2       1 TRP         0.2053
     90 O          35.5070   -5.0110   78.0200 O.2       1 TRP        -0.3942
     91 CB         36.3030   -5.5070   74.8010 C.3       1 TRP         0.0042
     92 CG         34.8260   -5.3680   74.6530 C.2       1 TRP        -0.0418
     93 CD1        34.1480   -4.2880   74.1670 C.2       1 TRP         0.0167
     94 CD2        33.8360   -6.3360   75.0170 C.ar      1 TRP        -0.0214
     95 NE1        32.7940   -4.5240   74.2040 N.pl3     1 TRP        -0.2890
     96 CE2        32.5750   -5.7730   74.7210 C.ar      1 TRP         0.0603
     97 CE3        33.8920   -7.6250   75.5640 C.ar      1 TRP        -0.0747
     98 CZ2        31.3760   -6.4570   74.9540 C.ar      1 TRP        -0.0443
     99 CZ3        32.6970   -8.3050   75.7970 C.ar      1 TRP        -0.0792
    100 CH2        31.4570   -7.7180   75.4910 C.ar      1 TRP        -0.0768
    101 N          36.8820   -6.7240   77.5470 N.am      1 TYR        -0.2620
    102 CA         36.4780   -7.5000   78.7150 C.3       1 TYR         0.1390
    103 C          36.8100   -6.7840   80.0170 C.2       1 TYR         0.2057
    104 O          36.1290   -6.9650   81.0230 O.2       1 TYR        -0.3942
    105 CB         37.1490   -8.8750   78.6990 C.3       1 TYR         0.0163
    106 CG         36.4330   -9.8970   77.8460 C.ar      1 TYR        -0.0493
    107 CD1        35.1530  -10.3390   78.1830 C.ar      1 TYR        -0.0685
    108 CD2        37.0360  -10.4320   76.7080 C.ar      1 TYR        -0.0685
    109 CE1        34.4920  -11.2910   77.4080 C.ar      1 TYR        -0.0398
    110 CE2        36.3830  -11.3840   75.9250 C.ar      1 TYR        -0.0398
    111 CZ         35.1130  -11.8090   76.2820 C.ar      1 TYR         0.0805
    112 OH         34.4680  -12.7590   75.5210 O.3       1 TYR        -0.3376
    113 N          37.8570   -5.9670   79.9930 N.am      1 ILE        -0.2633
    114 CA         38.2740   -5.2250   81.1770 C.3       1 ILE         0.1335
    115 C          37.2630   -4.1680   81.6030 C.2       1 ILE         0.2042
    116 O          36.7390   -4.2170   82.7160 O.2       1 ILE        -0.3944
    117 CB         39.6350   -4.5380   80.9510 C.3       1 ILE        -0.0037
    118 CG1        40.7560   -5.5610   81.1090 C.3       1 ILE        -0.0491
    119 CG2        39.8120   -3.3770   81.9200 C.3       1 ILE        -0.0582
    120 CD1        42.1180   -4.9390   81.1490 C.3       1 ILE        -0.0648
    121 N          37.0000   -3.2090   80.7230 N.am      1 LYS        -0.2637
    122 CA         36.0590   -2.1420   81.0340 C.3       1 LYS         0.1310
    123 C          34.6350   -2.6740   81.1570 C.2       1 LYS         0.2039
    124 O          33.7290   -1.9550   81.5770 O.2       1 LYS        -0.3944
    125 CB         36.1200   -1.0520   79.9610 C.3       1 LYS        -0.0122
    126 CG         35.6660   -1.4950   78.5840 C.3       1 LYS        -0.0440
    127 CD         35.8930   -0.3970   77.5530 C.3       1 LYS        -0.0124
    128 CE         35.1570    0.8850   77.9200 C.3       1 LYS        -0.0354
    129 NZ         35.4200    1.9750   76.9380 N.4       1 LYS         0.2185
    130 N          34.4460   -3.9370   80.7910 N.am      1 LYS        -0.2637
    131 CA         33.1340   -4.5650   80.8710 C.3       1 LYS         0.1310
    132 C          32.9500   -5.2500   82.2210 C.2       1 LYS         0.2039
    133 O          31.8250   -5.4320   82.6840 O.2       1 LYS        -0.3944
    134 CB         32.9620   -5.5900   79.7450 C.3       1 LYS        -0.0122
    135 CG         31.6670   -6.3910   79.8270 C.3       1 LYS        -0.0440
    136 CD         30.4400   -5.4930   79.7110 C.3       1 LYS        -0.0124
    137 CE         30.2220   -5.0230   78.2810 C.3       1 LYS        -0.0354
    138 NZ         29.8480   -6.1580   77.3920 N.4       1 LYS         0.2185
    139 N          34.0590   -5.6240   82.8500 N.am      1 LYS        -0.2637
    140 CA         34.0090   -6.2940   84.1440 C.3       1 LYS         0.1309
    141 C          34.0350   -5.3100   85.3090 C.2       1 LYS         0.2033
    142 O          33.2480   -5.4330   86.2470 O.2       1 LYS        -0.3944
    143 CB         35.1680   -7.2880   84.2650 C.3       1 LYS        -0.0122
    144 CG         35.1130   -8.4020   83.2280 C.3       1 LYS        -0.0440
    145 CD         36.2220   -9.4230   83.4160 C.3       1 LYS        -0.0124
    146 CE         36.0560  -10.1840   84.7200 C.3       1 LYS        -0.0354
    147 NZ         37.0140  -11.3170   84.8270 N.4       1 LYS         0.2185
    148 N          34.9390   -4.3380   85.2530 N.am      1 LYS        -0.2695
    149 CA         35.0400   -3.3330   86.3080 C.3       1 LYS         0.0944
    150 C          35.5410   -2.0010   85.7630 C.2       1 LYS         0.0601
    151 O          35.8070   -1.9260   84.5440 O.co2     1 LYS        -0.5666
    152 CB         35.9730   -3.8120   87.4270 C.3       1 LYS        -0.0177
    153 CG         35.4680   -5.0270   88.1870 C.3       1 LYS        -0.0446
    154 CD         36.3870   -5.3890   89.3430 C.3       1 LYS        -0.0125
    155 CE         35.7950   -6.5210   90.1650 C.3       1 LYS        -0.0354
    156 NZ         36.6370   -6.8650   91.3410 N.4       1 LYS         0.2185
    157 OXT        35.6600   -1.0480   86.5630 O.co2     1 LYS        -0.5666
    158 H1         49.9796  -12.7468   70.0764 H         1 ASN         0.2017
    159 H2         48.8114  -11.9465   70.9157 H         1 ASN         0.2017
    160 H3         50.2705  -11.2320   70.6511 H         1 ASN         0.2017
    161 H4         49.8947  -11.1425   68.2886 H         1 ASN         0.1125
    162 H5         47.1946  -12.3419   69.0801 H         1 ASN         0.0585
    163 H6         48.5110  -13.1912   68.2014 H         1 ASN         0.0585
    164 H7         46.0550  -12.1189   65.6713 H         1 ASN         0.1814
    165 H8         46.1099  -13.2065   67.0182 H         1 ASN         0.1814
    166 H9         49.8180   -9.0480   68.0597 H         1 TRP         0.1886
    167 H10        48.6978   -7.1589   69.7968 H         1 TRP         0.0815
    168 H11        49.2314   -6.9758   66.7973 H         1 TRP         0.0397
    169 H12        50.4166   -6.6732   68.1127 H         1 TRP         0.0397
    170 H13        50.1946   -4.3227   69.4466 H         1 TRP         0.0795
    171 H14        49.2079   -2.0309   68.7259 H         1 TRP         0.2216
    172 H15        47.2570   -5.9592   65.5765 H         1 TRP         0.0540
    173 H16        47.4138   -1.0951   66.7593 H         1 TRP         0.0541
    174 H17        45.9127   -4.2938   64.3182 H         1 TRP         0.0510
    175 H18        45.9978   -1.8966   64.9080 H         1 TRP         0.0530
    176 H19        47.2201   -8.8278   67.0197 H         1 PHE         0.1885
    177 H20        44.9556   -7.0692   66.8916 H         1 PHE         0.0823
    178 H21        43.9065   -8.9670   65.5588 H         1 PHE         0.0474
    179 H22        45.4254   -9.8845   65.8378 H         1 PHE         0.0474
    180 H23        47.4608   -9.2916   64.6707 H         1 PHE         0.0557
    181 H24        43.9149   -6.9566   64.1564 H         1 PHE         0.0557
    182 H25        48.5004   -8.1479   62.7442 H         1 PHE         0.0599
    183 H26        44.9453   -5.8043   62.2279 H         1 PHE         0.0599
    184 H27        47.2418   -6.3952   61.5142 H         1 PHE         0.0559
    185 H28        45.7258   -9.2000   69.3474 H         1 ASP         0.1884
    186 H29        42.8553   -9.7849   69.8778 H         1 ASP         0.0819
    187 H30        43.7955  -11.2695   71.7301 H         1 ASP         0.0478
    188 H31        45.4251  -10.9431   71.0485 H         1 ASP         0.0478
    189 H32        45.2230   -7.5264   70.6960 H         1 ILE         0.1883
    190 H33        44.8723   -7.2431   73.4769 H         1 ILE         0.0803
    191 H34        45.5586   -5.1405   71.3590 H         1 ILE         0.0345
    192 H35        47.0835   -7.0883   71.5598 H         1 ILE         0.0267
    193 H36        47.2484   -6.7670   73.3194 H         1 ILE         0.0267
    194 H37        44.6753   -4.0590   73.4161 H         1 ILE         0.0235
    195 H38        46.4419   -3.7865   73.2394 H         1 ILE         0.0235
    196 H39        45.8338   -5.0052   74.4107 H         1 ILE         0.0235
    197 H40        49.1911   -5.9516   72.0716 H         1 ILE         0.0230
    198 H41        48.2873   -4.5945   72.8253 H         1 ILE         0.0230
    199 H42        48.1224   -4.9159   71.0657 H         1 ILE         0.0230
    200 H43        43.0260   -5.5593   70.8685 H         1 THR         0.1884
    201 H44        41.5845   -3.9590   72.7289 H         1 THR         0.0826
    202 H45        39.9188   -3.6404   70.8572 H         1 THR         0.0639
    203 H46        40.5360   -4.6253   68.8444 H         1 THR         0.2101
    204 H47        41.5339   -2.4890   69.3616 H         1 THR         0.0257
    205 H48        42.8851   -3.3904   70.1288 H         1 THR         0.0257
    206 H49        41.9304   -2.2121   71.0916 H         1 THR         0.0257
    207 H50        41.0603   -7.2799   71.6629 H         1 ASN         0.1885
    208 H51        38.3116   -7.4675   72.5231 H         1 ASN         0.0826
    209 H52        40.5128   -9.5853   72.3400 H         1 ASN         0.0551
    210 H53        39.3120   -9.1748   71.0687 H         1 ASN         0.0551
    211 H54        36.5442  -10.6493   72.9133 H         1 ASN         0.1814
    212 H55        36.9362   -9.2049   72.0415 H         1 ASN         0.1814
    213 H56        41.4844   -8.0671   74.0232 H         1 TRP         0.1884
    214 H57        40.5617   -8.9740   76.5577 H         1 TRP         0.0815
    215 H58        43.0870   -7.3675   75.9835 H         1 TRP         0.0397
    216 H59        42.9066   -9.1117   75.5934 H         1 TRP         0.0397
    217 H60        42.5111  -10.7746   77.7913 H         1 TRP         0.0795
    218 H61        43.5378  -10.6217   80.1729 H         1 TRP         0.2216
    219 H62        43.7742   -5.8136   77.7307 H         1 TRP         0.0540
    220 H63        44.7206   -8.6169   81.7700 H         1 TRP         0.0541
    221 H64        44.8623   -4.8396   79.7345 H         1 TRP         0.0510
    222 H65        45.3283   -6.2296   81.7218 H         1 TRP         0.0530
    223 H66        41.4133   -5.7102   75.3482 H         1 LEU         0.1883
    224 H67        41.0503   -4.2976   77.7773 H         1 LEU         0.0800
    225 H68        40.5738   -2.3264   76.2663 H         1 LEU         0.0315
    226 H69        40.6516   -3.4608   74.8757 H         1 LEU         0.0315
    227 H70        43.0134   -3.9309   75.3854 H         1 LEU         0.0298
    228 H71        43.9050   -1.6968   74.7702 H         1 LEU         0.0232
    229 H72        42.3383   -0.9466   75.2274 H         1 LEU         0.0232
    230 H73        42.4175   -2.0875   73.8422 H         1 LEU         0.0232
    231 H74        42.8875   -3.5842   77.8392 H         1 LEU         0.0232
    232 H75        42.6313   -1.8257   77.5772 H         1 LEU         0.0232
    233 H76        44.1877   -2.5869   77.1033 H         1 LEU         0.0232
    234 H77        38.7770   -5.2204   75.2110 H         1 TRP         0.1884
    235 H78        36.5104   -3.7715   76.0634 H         1 TRP         0.0815
    236 H79        36.5474   -6.5779   74.8602 H         1 TRP         0.0397
    237 H80        36.7842   -5.0696   73.9138 H         1 TRP         0.0397
    238 H81        34.6119   -3.3725   73.8029 H         1 TRP         0.0795
    239 H82        32.0632   -3.8680   73.8934 H         1 TRP         0.2216
    240 H83        34.8449   -8.0842   75.8012 H         1 TRP         0.0540
    241 H84        30.4181   -6.0073   74.7189 H         1 TRP         0.0541
    242 H85        32.7248   -9.3023   76.2209 H         1 TRP         0.0510
    243 H86        30.5456   -8.2725   75.6830 H         1 TRP         0.0530
    244 H87        37.5670   -7.0987   76.9221 H         1 TYR         0.1885
    245 H88        35.3882   -7.6425   78.6694 H         1 TYR         0.0821
    246 H89        37.1890   -9.2527   79.7313 H         1 TYR         0.0453
    247 H90        38.1718   -8.7566   78.3119 H         1 TYR         0.0453
    248 H91        34.6643   -9.9353   79.0623 H         1 TYR         0.0530
    249 H92        38.0297  -10.1022   76.4270 H         1 TYR         0.0530
    250 H93        33.4982  -11.6242   77.6843 H         1 TYR         0.0525
    251 H94        36.8658  -11.7888   75.0429 H         1 TYR         0.0525
    252 H95        33.6144  -12.9384   75.8973 H         1 TYR         0.2458
    253 H96        38.3716   -5.8581   79.1425 H         1 ILE         0.1883
    254 H97        38.3808   -5.9465   82.0004 H         1 ILE         0.0803
    255 H98        39.6642   -4.1417   79.9253 H         1 ILE         0.0345
    256 H99        40.7149   -6.2593   80.2601 H         1 ILE         0.0267
    257 H100       40.5960   -6.1137   82.0465 H         1 ILE         0.0267
    258 H101       38.9914   -2.6572   81.7836 H         1 ILE         0.0235
    259 H102       40.7730   -2.8789   81.7239 H         1 ILE         0.0235
    260 H103       39.7994   -3.7560   82.9526 H         1 ILE         0.0235
    261 H104       42.8774   -5.7265   81.2637 H         1 ILE         0.0230
    262 H105       42.1790   -4.2441   81.9995 H         1 ILE         0.0230
    263 H106       42.2979   -4.3897   80.2131 H         1 ILE         0.0230
    264 H107       37.4553   -3.2197   79.8327 H         1 LYS         0.1883
    265 H108       36.3469   -1.6991   81.9989 H         1 LYS         0.0800
    266 H109       37.1608   -0.7047   79.8837 H         1 LYS         0.0312
    267 H110       35.4781   -0.2184   80.2820 H         1 LYS         0.0312
    268 H111       34.5938   -1.7380   78.6200 H         1 LYS         0.0269
    269 H112       36.2349   -2.3888   78.2883 H         1 LYS         0.0269
    270 H113       35.5320   -0.7471   76.5747 H         1 LYS         0.0317
    271 H114       36.9704   -0.1837   77.4914 H         1 LYS         0.0317
    272 H115       35.4902    1.2144   78.9152 H         1 LYS         0.0813
    273 H116       34.0764    0.6807   77.9441 H         1 LYS         0.0813
    274 H117       34.9175    2.8042   77.2138 H         1 LYS         0.1994
    275 H118       35.1123    1.6845   76.0231 H         1 LYS         0.1994
    276 H119       36.4079    2.1736   76.9130 H         1 LYS         0.1994
    277 H120       35.2223   -4.4689   80.4528 H         1 LYS         0.1883
    278 H121       32.3648   -3.7863   80.7616 H         1 LYS         0.0800
    279 H122       33.8067   -6.2934   79.7857 H         1 LYS         0.0312
    280 H123       32.9769   -5.0542   78.7844 H         1 LYS         0.0312
    281 H124       31.6337   -6.9170   80.7925 H         1 LYS         0.0269
    282 H125       31.6497   -7.1256   79.0084 H         1 LYS         0.0269
    283 H126       30.5785   -4.6143   80.3581 H         1 LYS         0.0317
    284 H127       29.5539   -6.0552   80.0407 H         1 LYS         0.0317
    285 H128       31.1505   -4.5660   77.9080 H         1 LYS         0.0813
    286 H129       29.4147   -4.2760   78.2680 H         1 LYS         0.0813
    287 H130       29.7101   -5.8181   76.4531 H         1 LYS         0.1994
    288 H131       28.9951   -6.5791   77.7255 H         1 LYS         0.1994
    289 H132       30.5857   -6.8449   77.3956 H         1 LYS         0.1994
    290 H133       34.9467   -5.4421   82.4270 H         1 LYS         0.1883
    291 H134       33.0647   -6.8555   84.1977 H         1 LYS         0.0800
    292 H135       35.1370   -7.7411   85.2669 H         1 LYS         0.0312
    293 H136       36.1134   -6.7399   84.1395 H         1 LYS         0.0312
    294 H137       35.2082   -7.9574   82.2264 H         1 LYS         0.0269
    295 H138       34.1432   -8.9145   83.3110 H         1 LYS         0.0269
    296 H139       37.1908   -8.9021   83.4260 H         1 LYS         0.0317
    297 H140       36.1979  -10.1365   82.5792 H         1 LYS         0.0317
    298 H141       35.0308  -10.5790   84.7732 H         1 LYS         0.0813
    299 H142       36.2269   -9.4934   85.5590 H         1 LYS         0.0813
    300 H143       36.8724  -11.7951   85.7030 H         1 LYS         0.1994
    301 H144       37.9574  -10.9644   84.7853 H         1 LYS         0.1994
    302 H145       36.8613  -11.9592   84.0652 H         1 LYS         0.1994
    303 H146       35.5629   -4.2936   84.4727 H         1 LYS         0.1875
    304 H147       34.0366   -3.1791   86.7316 H         1 LYS         0.0726
    305 H148       36.1029   -2.9875   88.1434 H         1 LYS         0.0305
    306 H149       36.9453   -4.0656   86.9795 H         1 LYS         0.0305
    307 H150       35.4107   -5.8811   87.4962 H         1 LYS         0.0269
    308 H151       34.4656   -4.8082   88.5836 H         1 LYS         0.0269
    309 H152       36.5219   -4.5074   89.9869 H         1 LYS         0.0317
    310 H153       37.3623   -5.7043   88.9439 H         1 LYS         0.0317
    311 H154       35.7006   -7.4108   89.5253 H         1 LYS         0.0813
    312 H155       34.7991   -6.2172   90.5199 H         1 LYS         0.0813
    313 H156       36.2060   -7.6180   91.8541 H         1 LYS         0.1994
    314 H157       36.7249   -6.0582   91.9389 H         1 LYS         0.1994
    315 H158       37.5510   -7.1521   91.0275 H         1 LYS         0.1994
@<TRIPOS>BOND
     1    1    2 1  
     2    2    3 1  
     3    2    5 1  
     4    3    4 2  
     5    3    9 am 
     6    5    6 1  
     7    6    7 2  
     8    6    8 am 
     9    9   10 1  
    10   10   11 1  
    11   10   13 1  
    12   11   12 2  
    13   11   23 am 
    14   13   14 1  
    15   14   15 2  
    16   14   16 1  
    17   15   17 1  
    18   16   18 ar 
    19   16   19 ar 
    20   17   18 1  
    21   18   20 ar 
    22   19   21 ar 
    23   20   22 ar 
    24   21   22 ar 
    25   23   24 1  
    26   24   25 1  
    27   24   27 1  
    28   25   26 2  
    29   25   34 am 
    30   27   28 1  
    31   28   29 ar 
    32   28   30 ar 
    33   29   31 ar 
    34   30   32 ar 
    35   31   33 ar 
    36   32   33 ar 
    37   34   35 1  
    38   35   36 1  
    39   35   38 1  
    40   36   37 2  
    41   36   42 am 
    42   38   39 1  
    43   39   40 ar 
    44   39   41 ar 
    45   42   43 1  
    46   43   44 1  
    47   43   46 1  
    48   44   45 2  
    49   44   50 am 
    50   46   47 1  
    51   46   48 1  
    52   47   49 1  
    53   50   51 1  
    54   51   52 1  
    55   51   54 1  
    56   52   53 2  
    57   52   57 am 
    58   54   55 1  
    59   54   56 1  
    60   57   58 1  
    61   58   59 1  
    62   58   61 1  
    63   59   60 2  
    64   59   65 am 
    65   61   62 1  
    66   62   63 2  
    67   62   64 am 
    68   65   66 1  
    69   66   67 1  
    70   66   69 1  
    71   67   68 2  
    72   67   79 am 
    73   69   70 1  
    74   70   71 2  
    75   70   72 1  
    76   71   73 1  
    77   72   74 ar 
    78   72   75 ar 
    79   73   74 1  
    80   74   76 ar 
    81   75   77 ar 
    82   76   78 ar 
    83   77   78 ar 
    84   79   80 1  
    85   80   81 1  
    86   80   83 1  
    87   81   82 2  
    88   81   87 am 
    89   83   84 1  
    90   84   85 1  
    91   84   86 1  
    92   87   88 1  
    93   88   89 1  
    94   88   91 1  
    95   89   90 2  
    96   89  101 am 
    97   91   92 1  
    98   92   93 2  
    99   92   94 1  
   100   93   95 1  
   101   94   96 ar 
   102   94   97 ar 
   103   95   96 1  
   104   96   98 ar 
   105   97   99 ar 
   106   98  100 ar 
   107   99  100 ar 
   108  101  102 1  
   109  102  103 1  
   110  102  105 1  
   111  103  104 2  
   112  103  113 am 
   113  105  106 1  
   114  106  107 ar 
   115  106  108 ar 
   116  107  109 ar 
   117  108  110 ar 
   118  109  111 ar 
   119  110  111 ar 
   120  111  112 1  
   121  113  114 1  
   122  114  115 1  
   123  114  117 1  
   124  115  116 2  
   125  115  121 am 
   126  117  118 1  
   127  117  119 1  
   128  118  120 1  
   129  121  122 1  
   130  122  123 1  
   131  122  125 1  
   132  123  124 2  
   133  123  130 am 
   134  125  126 1  
   135  126  127 1  
   136  127  128 1  
   137  128  129 1  
   138  130  131 1  
   139  131  132 1  
   140  131  134 1  
   141  132  133 2  
   142  132  139 am 
   143  134  135 1  
   144  135  136 1  
   145  136  137 1  
   146  137  138 1  
   147  139  140 1  
   148  140  141 1  
   149  140  143 1  
   150  141  142 2  
   151  141  148 am 
   152  143  144 1  
   153  144  145 1  
   154  145  146 1  
   155  146  147 1  
   156  148  149 1  
   157  149  150 1  
   158  149  152 1  
   159  150  151 ar 
   160  150  157 ar 
   161  152  153 1  
   162  153  154 1  
   163  154  155 1  
   164  155  156 1  
   165    1  158 1  
   166    1  159 1  
   167    1  160 1  
   168    2  161 1  
   169    5  162 1  
   170    5  163 1  
   171    8  164 1  
   172    8  165 1  
   173    9  166 1  
   174   10  167 1  
   175   13  168 1  
   176   13  169 1  
   177   15  170 1  
   178   17  171 1  
   179   19  172 1  
   180   20  173 1  
   181   21  174 1  
   182   22  175 1  
   183   23  176 1  
   184   24  177 1  
   185   27  178 1  
   186   27  179 1  
   187   29  180 1  
   188   30  181 1  
   189   31  182 1  
   190   32  183 1  
   191   33  184 1  
   192   34  185 1  
   193   35  186 1  
   194   38  187 1  
   195   38  188 1  
   196   42  189 1  
   197   43  190 1  
   198   46  191 1  
   199   47  192 1  
   200   47  193 1  
   201   48  194 1  
   202   48  195 1  
   203   48  196 1  
   204   49  197 1  
   205   49  198 1  
   206   49  199 1  
   207   50  200 1  
   208   51  201 1  
   209   54  202 1  
   210   55  203 1  
   211   56  204 1  
   212   56  205 1  
   213   56  206 1  
   214   57  207 1  
   215   58  208 1  
   216   61  209 1  
   217   61  210 1  
   218   64  211 1  
   219   64  212 1  
   220   65  213 1  
   221   66  214 1  
   222   69  215 1  
   223   69  216 1  
   224   71  217 1  
   225   73  218 1  
   226   75  219 1  
   227   76  220 1  
   228   77  221 1  
   229   78  222 1  
   230   79  223 1  
   231   80  224 1  
   232   83  225 1  
   233   83  226 1  
   234   84  227 1  
   235   85  228 1  
   236   85  229 1  
   237   85  230 1  
   238   86  231 1  
   239   86  232 1  
   240   86  233 1  
   241   87  234 1  
   242   88  235 1  
   243   91  236 1  
   244   91  237 1  
   245   93  238 1  
   246   95  239 1  
   247   97  240 1  
   248   98  241 1  
   249   99  242 1  
   250  100  243 1  
   251  101  244 1  
   252  102  245 1  
   253  105  246 1  
   254  105  247 1  
   255  107  248 1  
   256  108  249 1  
   257  109  250 1  
   258  110  251 1  
   259  112  252 1  
   260  113  253 1  
   261  114  254 1  
   262  117  255 1  
   263  118  256 1  
   264  118  257 1  
   265  119  258 1  
   266  119  259 1  
   267  119  260 1  
   268  120  261 1  
   269  120  262 1  
   270  120  263 1  
   271  121  264 1  
   272  122  265 1  
   273  125  266 1  
   274  125  267 1  
   275  126  268 1  
   276  126  269 1  
   277  127  270 1  
   278  127  271 1  
   279  128  272 1  
   280  128  273 1  
   281  129  274 1  
   282  129  275 1  
   283  129  276 1  
   284  130  277 1  
   285  131  278 1  
   286  134  279 1  
   287  134  280 1  
   288  135  281 1  
   289  135  282 1  
   290  136  283 1  
   291  136  284 1  
   292  137  285 1  
   293  137  286 1  
   294  138  287 1  
   295  138  288 1  
   296  138  289 1  
   297  139  290 1  
   298  140  291 1  
   299  143  292 1  
   300  143  293 1  
   301  144  294 1  
   302  144  295 1  
   303  145  296 1  
   304  145  297 1  
   305  146  298 1  
   306  146  299 1  
   307  147  300 1  
   308  147  301 1  
   309  147  302 1  
   310  148  303 1  
   311  149  304 1  
   312  152  305 1  
   313  152  306 1  
   314  153  307 1  
   315  153  308 1  
   316  154  309 1  
   317  154  310 1  
   318  155  311 1  
   319  155  312 1  
   320  156  313 1  
   321  156  314 1  
   322  156  315 1  
@<TRIPOS>SUBSTRUCTURE
     1 ASN         1

