2fx7_ligand
  -I-interpret- 

314321  0  0  0  0  0  0  0  0999 V2000
   49.5710  -11.8440   70.2610 N   0  3  0  0  0
   49.0560  -11.2630   68.9900 C   0  0  0  0  0
   48.4310   -9.8930   69.2430 C   0  0  0  0  0
   47.4540   -9.7670   69.9840 O   0  0  0  0  0
   48.0280  -12.2180   68.3730 C   0  0  0  0  0
   47.4740  -11.7130   67.0550 C   0  0  0  0  0
   47.9530  -10.7220   66.5040 O   0  0  0  0  0
   46.4630  -12.4030   66.5390 N   0  0  0  0  0
   49.0180   -8.8680   68.6320 N   0  0  0  0  0
   48.5470   -7.4910   68.7590 C   0  0  0  0  0
   47.0620   -7.3760   68.4180 C   0  0  0  0  0
   46.3420   -6.5700   69.0070 O   0  0  0  0  0
   49.3590   -6.5940   67.8210 C   0  0  0  0  0
   48.9910   -5.1310   67.8160 C   0  0  0  0  0
   49.4930   -4.1540   68.6310 C   0  0  0  0  0
   48.1060   -4.4700   66.9000 C   0  0  0  0  0
   48.9840   -2.9280   68.2720 N   0  0  0  0  0
   48.1310   -3.0930   67.2130 C   0  0  0  0  0
   47.2970   -4.9090   65.8420 C   0  0  0  0  0
   47.3780   -2.1480   66.5040 C   0  0  0  0  0
   46.5440   -3.9680   65.1370 C   0  0  0  0  0
   46.5930   -2.6040   65.4740 C   0  0  0  0  0
   46.6010   -8.1810   67.4650 N   0  0  0  0  0
   45.1990   -8.1280   67.0640 C   0  0  0  0  0
   44.2190   -8.6470   68.1200 C   0  0  0  0  0
   43.0090   -8.5790   67.9280 O   0  0  0  0  0
   44.9880   -8.8800   65.7400 C   0  0  0  0  0
   45.6170   -8.2010   64.5490 C   0  0  0  0  0
   46.9070   -8.5270   64.1380 C   0  0  0  0  0
   44.9210   -7.2190   63.8500 C   0  0  0  0  0
   47.4950   -7.8840   63.0520 C   0  0  0  0  0
   45.5000   -6.5680   62.7610 C   0  0  0  0  0
   46.7880   -6.8990   62.3600 C   0  0  0  0  0
   44.7330   -9.1580   69.2350 N   0  0  0  0  0
   43.8640   -9.6590   70.2980 C   0  0  0  0  0
   43.7760   -8.6930   71.4790 C   0  0  0  0  0
   42.9680   -8.8880   72.3840 O   0  0  0  0  0
   44.3530  -11.0210   70.8150 C   0  0  0  0  0
   44.1570  -12.1410   69.8100 C   0  0  0  0  0
   43.1160  -12.1470   69.1190 O   0  0  0  0  0
   45.0370  -13.0260   69.7250 O   0  0  0  0  0
   44.6010   -7.6510   71.4690 N   0  0  0  0  0
   44.6180   -6.6830   72.5650 C   0  0  0  0  0
   43.2900   -5.9750   72.8320 C   0  0  0  0  0
   42.8440   -5.8990   73.9810 O   0  0  0  0  0
   45.7210   -5.6190   72.3360 C   0  0  0  0  0
   47.0920   -6.3060   72.3330 C   0  0  0  0  0
   45.6640   -4.5410   73.4280 C   0  0  0  0  0
   48.2520   -5.3790   72.0550 C   0  0  0  0  0
   42.6480   -5.4600   71.7890 N   0  0  0  0  0
   41.3930   -4.7510   71.9900 C   0  0  0  0  0
   40.2810   -5.6370   72.5480 C   0  0  0  0  0
   39.3940   -5.1510   73.2490 O   0  0  0  0  0
   40.9150   -4.0760   70.6900 C   0  0  0  0  0
   40.8310   -5.0470   69.6430 O   0  0  0  0  0
   41.8840   -2.9640   70.2900 C   0  0  0  0  0
   40.3270   -6.9320   72.2470 N   0  0  0  0  0
   39.3150   -7.8490   72.7630 C   0  0  0  0  0
   39.4940   -7.9250   74.2750 C   0  0  0  0  0
   38.5280   -7.8720   75.0350 O   0  0  0  0  0
   39.4850   -9.2410   72.1530 C   0  0  0  0  0
   38.5190  -10.2520   72.7390 C   0  0  0  0  0
   38.9290  -11.2310   73.3630 O   0  0  0  0  0
   37.2270  -10.0160   72.5490 N   0  0  0  0  0
   40.7470   -8.0360   74.6980 N   0  0  0  0  0
   41.0830   -8.1140   76.1120 C   0  0  0  0  0
   40.6450   -6.8390   76.8320 C   0  0  0  0  0
   40.0630   -6.8980   77.9170 O   0  0  0  0  0
   42.5880   -8.3050   76.2700 C   0  0  0  0  0
   43.0160   -8.6590   77.6550 C   0  0  0  0  0
   42.9370   -9.8840   78.2510 C   0  0  0  0  0
   43.6310   -7.7870   78.6080 C   0  0  0  0  0
   43.4730   -9.8310   79.5160 N   0  0  0  0  0
   43.9070   -8.5540   79.7600 C   0  0  0  0  0
   43.9770   -6.4300   78.5990 C   0  0  0  0  0
   44.5180   -8.0100   80.8950 C   0  0  0  0  0
   44.5870   -5.8880   79.7280 C   0  0  0  0  0
   44.8510   -6.6800   80.8590 C   0  0  0  0  0
   40.9310   -5.6890   76.2240 N   0  0  0  0  0
   40.5620   -4.4000   76.7970 C   0  0  0  0  0
   39.0530   -4.3140   76.9860 C   0  0  0  0  0
   38.5710   -3.7960   77.9930 O   0  0  0  0  0
   41.0270   -3.2550   75.8890 C   0  0  0  0  0
   42.5360   -3.0240   75.7850 C   0  0  0  0  0
   42.8190   -1.8570   74.8400 C   0  0  0  0  0
   43.1000   -2.7350   77.1730 C   0  0  0  0  0
   38.3170   -4.8210   76.0040 N   0  0  0  0  0
   36.8610   -4.8140   76.0450 C   0  0  0  0  0
   36.3570   -5.5290   77.2980 C   0  0  0  0  0
   35.5070   -5.0110   78.0200 O   0  0  0  0  0
   36.3030   -5.5070   74.8010 C   0  0  0  0  0
   34.8260   -5.3680   74.6530 C   0  0  0  0  0
   34.1480   -4.2880   74.1670 C   0  0  0  0  0
   33.8360   -6.3360   75.0170 C   0  0  0  0  0
   32.7940   -4.5240   74.2040 N   0  0  0  0  0
   32.5750   -5.7730   74.7210 C   0  0  0  0  0
   33.8920   -7.6250   75.5640 C   0  0  0  0  0
   31.3760   -6.4570   74.9540 C   0  0  0  0  0
   32.6970   -8.3050   75.7970 C   0  0  0  0  0
   31.4570   -7.7180   75.4910 C   0  0  0  0  0
   36.8820   -6.7240   77.5470 N   0  0  0  0  0
   36.4780   -7.5000   78.7150 C   0  0  0  0  0
   36.8100   -6.7840   80.0170 C   0  0  0  0  0
   36.1290   -6.9650   81.0230 O   0  0  0  0  0
   37.1490   -8.8750   78.6990 C   0  0  0  0  0
   36.4330   -9.8970   77.8460 C   0  0  0  0  0
   35.1530  -10.3390   78.1830 C   0  0  0  0  0
   37.0360  -10.4320   76.7080 C   0  0  0  0  0
   34.4920  -11.2910   77.4080 C   0  0  0  0  0
   36.3830  -11.3840   75.9250 C   0  0  0  0  0
   35.1130  -11.8090   76.2820 C   0  0  0  0  0
   34.4680  -12.7590   75.5210 O   0  0  0  0  0
   37.8570   -5.9670   79.9930 N   0  0  0  0  0
   38.2740   -5.2250   81.1770 C   0  0  0  0  0
   37.2630   -4.1680   81.6030 C   0  0  0  0  0
   36.7390   -4.2170   82.7160 O   0  0  0  0  0
   39.6350   -4.5380   80.9510 C   0  0  0  0  0
   40.7560   -5.5610   81.1090 C   0  0  0  0  0
   39.8120   -3.3770   81.9200 C   0  0  0  0  0
   42.1180   -4.9390   81.1490 C   0  0  0  0  0
   37.0000   -3.2090   80.7230 N   0  0  0  0  0
   36.0590   -2.1420   81.0340 C   0  0  0  0  0
   34.6350   -2.6740   81.1570 C   0  0  0  0  0
   33.7290   -1.9550   81.5770 O   0  0  0  0  0
   36.1200   -1.0520   79.9610 C   0  0  0  0  0
   35.6660   -1.4950   78.5840 C   0  0  0  0  0
   35.8930   -0.3970   77.5530 C   0  0  0  0  0
   35.1570    0.8850   77.9200 C   0  0  0  0  0
   35.4200    1.9750   76.9380 N   0  3  0  0  0
   34.4460   -3.9370   80.7910 N   0  0  0  0  0
   33.1340   -4.5650   80.8710 C   0  0  0  0  0
   32.9500   -5.2500   82.2210 C   0  0  0  0  0
   31.8250   -5.4320   82.6840 O   0  0  0  0  0
   32.9620   -5.5900   79.7450 C   0  0  0  0  0
   31.6670   -6.3910   79.8270 C   0  0  0  0  0
   30.4400   -5.4930   79.7110 C   0  0  0  0  0
   30.2220   -5.0230   78.2810 C   0  0  0  0  0
   29.8480   -6.1580   77.3920 N   0  3  0  0  0
   34.0590   -5.6240   82.8500 N   0  0  0  0  0
   34.0090   -6.2940   84.1440 C   0  0  0  0  0
   34.0350   -5.3100   85.3090 C   0  0  0  0  0
   33.2480   -5.4330   86.2470 O   0  0  0  0  0
   35.1680   -7.2880   84.2650 C   0  0  0  0  0
   35.1130   -8.4020   83.2280 C   0  0  0  0  0
   36.2220   -9.4230   83.4160 C   0  0  0  0  0
   36.0560  -10.1840   84.7200 C   0  0  0  0  0
   37.0140  -11.3170   84.8270 N   0  3  0  0  0
   34.9390   -4.3380   85.2530 N   0  0  0  0  0
   35.0400   -3.3330   86.3080 C   0  0  0  0  0
   35.5410   -2.0010   85.7630 C   0  0  0  0  0
   35.8070   -1.9260   84.5440 O   0  0  0  0  0
   35.9730   -3.8120   87.4270 C   0  0  0  0  0
   35.4680   -5.0270   88.1870 C   0  0  0  0  0
   36.3870   -5.3890   89.3430 C   0  0  0  0  0
   35.7950   -6.5210   90.1650 C   0  0  0  0  0
   36.6370   -6.8650   91.3410 N   0  3  0  0  0
   35.6600   -1.0480   86.5630 O   0  0  0  0  0
   50.2550  -11.2084   70.6714 H   0  0  0  0  0
   48.7963  -11.9774   70.9109 H   0  0  0  0  0
   50.0131  -12.7427   70.0680 H   0  0  0  0  0
   49.8847  -11.1322   68.2941 H   0  0  0  0  0
   47.1963  -12.3098   69.0715 H   0  0  0  0  0
   48.5270  -13.1683   68.1832 H   0  0  0  0  0
   46.0515  -12.1174   65.6505 H   0  0  0  0  0
   46.0982  -13.2184   67.0313 H   0  0  0  0  0
   49.8340   -9.0516   68.0483 H   0  0  0  0  0
   48.6805   -7.1754   69.7937 H   0  0  0  0  0
   49.1706   -6.9591   66.8114 H   0  0  0  0  0
   50.3915   -6.6473   68.1664 H   0  0  0  0  0
   50.1953   -4.3228   69.4473 H   0  0  0  0  0
   47.2568   -5.9650   65.5750 H   0  0  0  0  0
   47.4140   -1.0893   66.7607 H   0  0  0  0  0
   45.9092   -4.2956   64.3137 H   0  0  0  0  0
   45.9945   -1.8927   64.9049 H   0  0  0  0  0
   47.2325   -8.8407   67.0108 H   0  0  0  0  0
   44.9741   -7.0690   66.9377 H   0  0  0  0  0
   43.9141   -8.9257   65.5591 H   0  0  0  0  0
   45.4578   -9.8582   65.8427 H   0  0  0  0  0
   47.4638   -9.2958   64.6737 H   0  0  0  0  0
   43.9093   -6.9551   64.1580 H   0  0  0  0  0
   48.5059   -8.1493   62.7425 H   0  0  0  0  0
   44.9422   -5.8001   62.2250 H   0  0  0  0  0
   47.2443   -6.3924   61.5096 H   0  0  0  0  0
   45.7456   -9.2008   69.3497 H   0  0  0  0  0
   42.8731   -9.7616   69.8555 H   0  0  0  0  0
   43.7724  -11.2669   71.7041 H   0  0  0  0  0
   45.4213  -10.9367   71.0145 H   0  0  0  0  0
   45.7470  -12.8299   70.3407 H   0  0  0  0  0
   45.2354   -7.5239   70.6805 H   0  0  0  0  0
   44.8250   -7.2819   73.4519 H   0  0  0  0  0
   45.5581   -5.1333   71.3739 H   0  0  0  0  0
   47.0767   -7.0484   71.5351 H   0  0  0  0  0
   47.2448   -6.7207   73.3294 H   0  0  0  0  0
   44.6898   -4.0526   73.4041 H   0  0  0  0  0
   45.8156   -5.0047   74.4027 H   0  0  0  0  0
   46.4462   -3.8032   73.2496 H   0  0  0  0  0
   48.1224   -4.9208   71.0745 H   0  0  0  0  0
   48.2858   -4.6022   72.8189 H   0  0  0  0  0
   49.1818   -5.9475   72.0717 H   0  0  0  0  0
   43.0336   -5.5612   70.8501 H   0  0  0  0  0
   41.6065   -3.9875   72.7381 H   0  0  0  0  0
   39.9289   -3.6426   70.8570 H   0  0  0  0  0
   40.5329   -4.6209   68.8361 H   0  0  0  0  0
   41.9291   -2.2197   71.0851 H   0  0  0  0  0
   42.8755   -3.3878   70.1306 H   0  0  0  0  0
   41.5361   -2.4942   69.3701 H   0  0  0  0  0
   41.0750   -7.2869   71.6512 H   0  0  0  0  0
   38.3188   -7.4902   72.5042 H   0  0  0  0  0
   40.4985   -9.5807   72.3662 H   0  0  0  0  0
   39.2871   -9.1666   71.0837 H   0  0  0  0  0
   36.5303  -10.6584   72.9264 H   0  0  0  0  0
   36.9306   -9.1922   72.0256 H   0  0  0  0  0
   41.4991   -8.0677   74.0097 H   0  0  0  0  0
   40.5607   -8.9627   76.5536 H   0  0  0  0  0
   43.0613   -7.3557   76.0193 H   0  0  0  0  0
   42.8776   -9.1322   75.6220 H   0  0  0  0  0
   42.5107  -10.7754   77.7908 H   0  0  0  0  0
   43.7730   -5.8102   77.7259 H   0  0  0  0  0
   44.7217   -8.6203   81.7749 H   0  0  0  0  0
   44.8638   -4.8338   79.7345 H   0  0  0  0  0
   45.3310   -6.2271   81.7265 H   0  0  0  0  0
   41.4229   -5.7107   75.3307 H   0  0  0  0  0
   41.0512   -4.3088   77.7668 H   0  0  0  0  0
   40.6145   -2.3438   76.3223 H   0  0  0  0  0
   40.6950   -3.5169   74.8844 H   0  0  0  0  0
   43.0162   -3.9170   75.3851 H   0  0  0  0  0
   42.4206   -2.0866   73.8517 H   0  0  0  0  0
   42.3421   -0.9556   75.2249 H   0  0  0  0  0
   43.8954   -1.6993   74.7716 H   0  0  0  0  0
   42.6215   -1.8442   77.5800 H   0  0  0  0  0
   42.9050   -3.5848   77.8272 H   0  0  0  0  0
   44.1750   -2.5703   77.0999 H   0  0  0  0  0
   38.7862   -5.2284   75.1951 H   0  0  0  0  0
   36.5201   -3.7790   76.0691 H   0  0  0  0  0
   36.5239   -6.5705   74.8923 H   0  0  0  0  0
   36.7643   -5.0390   73.9313 H   0  0  0  0  0
   34.6123   -3.3717   73.8025 H   0  0  0  0  0
   34.8501   -8.0867   75.8025 H   0  0  0  0  0
   30.4128   -6.0048   74.7176 H   0  0  0  0  0
   32.7250   -9.3078   76.2233 H   0  0  0  0  0
   30.5405   -8.2756   75.6841 H   0  0  0  0  0
   37.5807   -7.1062   76.9096 H   0  0  0  0  0
   35.3958   -7.6198   78.6636 H   0  0  0  0  0
   37.1462   -9.2487   79.7229 H   0  0  0  0  0
   38.1462   -8.7439   78.2788 H   0  0  0  0  0
   34.6616   -9.9331   79.0672 H   0  0  0  0  0
   38.0351  -10.1004   76.4254 H   0  0  0  0  0
   33.4927  -11.6261   77.6858 H   0  0  0  0  0
   36.8684  -11.7911   75.0380 H   0  0  0  0  0
   35.0286  -13.0114   74.7837 H   0  0  0  0  0
   38.3819   -5.8560   79.1255 H   0  0  0  0  0
   38.3521   -5.9649   81.9735 H   0  0  0  0  0
   39.6717   -4.1344   79.9392 H   0  0  0  0  0
   40.7211   -6.2264   80.2464 H   0  0  0  0  0
   40.6006   -6.0790   82.0554 H   0  0  0  0  0
   39.0161   -2.6492   81.7622 H   0  0  0  0  0
   39.7677   -3.7496   82.9434 H   0  0  0  0  0
   40.7784   -2.9040   81.7457 H   0  0  0  0  0
   42.2950   -4.3950   80.2212 H   0  0  0  0  0
   42.1771   -4.2507   81.9921 H   0  0  0  0  0
   42.8696   -5.7202   81.2627 H   0  0  0  0  0
   37.4644   -3.2199   79.8149 H   0  0  0  0  0
   36.3447   -1.7159   81.9957 H   0  0  0  0  0
   37.1643   -0.7530   79.8705 H   0  0  0  0  0
   35.4456   -0.2563   80.2774 H   0  0  0  0  0
   34.6005   -1.7216   78.6238 H   0  0  0  0  0
   36.2426   -2.3727   78.2919 H   0  0  0  0  0
   35.5148   -0.7460   76.5921 H   0  0  0  0  0
   36.9604   -0.1797   77.5134 H   0  0  0  0  0
   35.5079    1.2133   78.8983 H   0  0  0  0  0
   34.0870    0.6770   77.9224 H   0  0  0  0  0
   34.9111    2.8134   77.2181 H   0  0  0  0  0
   36.4199    2.1750   76.9135 H   0  0  0  0  0
   35.1083    1.6799   76.0127 H   0  0  0  0  0
   35.2378   -4.4796   80.4460 H   0  0  0  0  0
   32.3780   -3.7872   80.7629 H   0  0  0  0  0
   33.7860   -6.2990   79.8248 H   0  0  0  0  0
   32.9413   -5.0376   78.8056 H   0  0  0  0  0
   31.6346   -6.8935   80.7937 H   0  0  0  0  0
   31.6507   -7.1030   79.0018 H   0  0  0  0  0
   30.5939   -4.6171   80.3413 H   0  0  0  0  0
   29.5653   -6.0638   80.0226 H   0  0  0  0  0
   31.1498   -4.5845   77.9137 H   0  0  0  0  0
   29.4116   -4.2941   78.2741 H   0  0  0  0  0
   29.7087   -5.8129   76.4423 H   0  0  0  0  0
   30.5952   -6.8524   77.3965 H   0  0  0  0  0
   28.9849   -6.5833   77.7305 H   0  0  0  0  0
   34.9644   -5.4385   82.4185 H   0  0  0  0  0
   33.0607   -6.8288   84.1964 H   0  0  0  0  0
   35.1055   -7.7502   85.2502 H   0  0  0  0  0
   36.0946   -6.7359   84.1081 H   0  0  0  0  0
   35.2325   -7.9518   82.2425 H   0  0  0  0  0
   34.1584   -8.9169   83.3364 H   0  0  0  0  0
   37.1769   -8.8978   83.4398 H   0  0  0  0  0
   36.1820  -10.1346   82.5913 H   0  0  0  0  0
   35.0441  -10.5878   84.7536 H   0  0  0  0  0
   36.2468   -9.4962   85.5438 H   0  0  0  0  0
   36.8698  -11.8000   85.7137 H   0  0  0  0  0
   36.8586  -11.9661   84.0557 H   0  0  0  0  0
   37.9682  -10.9590   84.7847 H   0  0  0  0  0
   35.5754   -4.2927   84.4571 H   0  0  0  0  0
   34.0383   -3.1872   86.7123 H   0  0  0  0  0
   36.0561   -2.9966   88.1456 H   0  0  0  0  0
   36.9153   -4.0962   86.9585 H   0  0  0  0  0
   35.4321   -5.8718   87.4992 H   0  0  0  0  0
   34.4829   -4.7942   88.5913 H   0  0  0  0  0
   36.5093   -4.5152   89.9830 H   0  0  0  0  0
   37.3483   -5.7100   88.9419 H   0  0  0  0  0
   35.7283   -7.4026   89.5275 H   0  0  0  0  0
   34.8196   -6.1994   90.5301 H   0  0  0  0  0
   36.1999   -7.6270   91.8594 H   0  0  0  0  0
   37.5615   -7.1553   91.0225 H   0  0  0  0  0
   36.7252   -6.0479   91.9451 H   0  0  0  0  0
   35.4001   -1.3348   87.4415 H   0  0  0  0  0
  1  2  1  0  0  0
  2  3  1  0  0  0
  2  5  1  0  0  0
  3  4  2  0  0  0
  3  9  1  0  0  0
  5  6  1  0  0  0
  6  7  2  0  0  0
  6  8  1  0  0  0
  9 10  1  0  0  0
 10 11  1  0  0  0
 10 13  1  0  0  0
 11 12  2  0  0  0
 11 23  1  0  0  0
 13 14  1  0  0  0
 14 15  4  0  0  0
 14 16  4  0  0  0
 15 17  4  0  0  0
 16 18  4  0  0  0
 16 19  4  0  0  0
 17 18  4  0  0  0
 18 20  4  0  0  0
 19 21  4  0  0  0
 20 22  4  0  0  0
 21 22  4  0  0  0
 23 24  1  0  0  0
 24 25  1  0  0  0
 24 27  1  0  0  0
 25 26  2  0  0  0
 25 34  1  0  0  0
 27 28  1  0  0  0
 28 29  4  0  0  0
 28 30  4  0  0  0
 29 31  4  0  0  0
 30 32  4  0  0  0
 31 33  4  0  0  0
 32 33  4  0  0  0
 34 35  1  0  0  0
 35 36  1  0  0  0
 35 38  1  0  0  0
 36 37  2  0  0  0
 36 42  1  0  0  0
 38 39  1  0  0  0
 39 40  2  0  0  0
 39 41  1  0  0  0
 42 43  1  0  0  0
 43 44  1  0  0  0
 43 46  1  0  0  0
 44 45  2  0  0  0
 44 50  1  0  0  0
 46 47  1  0  0  0
 46 48  1  0  0  0
 47 49  1  0  0  0
 50 51  1  0  0  0
 51 52  1  0  0  0
 51 54  1  0  0  0
 52 53  2  0  0  0
 52 57  1  0  0  0
 54 55  1  0  0  0
 54 56  1  0  0  0
 57 58  1  0  0  0
 58 59  1  0  0  0
 58 61  1  0  0  0
 59 60  2  0  0  0
 59 65  1  0  0  0
 61 62  1  0  0  0
 62 63  2  0  0  0
 62 64  1  0  0  0
 65 66  1  0  0  0
 66 67  1  0  0  0
 66 69  1  0  0  0
 67 68  2  0  0  0
 67 79  1  0  0  0
 69 70  1  0  0  0
 70 71  4  0  0  0
 70 72  4  0  0  0
 71 73  4  0  0  0
 72 74  4  0  0  0
 72 75  4  0  0  0
 73 74  4  0  0  0
 74 76  4  0  0  0
 75 77  4  0  0  0
 76 78  4  0  0  0
 77 78  4  0  0  0
 79 80  1  0  0  0
 80 81  1  0  0  0
 80 83  1  0  0  0
 81 82  2  0  0  0
 81 87  1  0  0  0
 83 84  1  0  0  0
 84 85  1  0  0  0
 84 86  1  0  0  0
 87 88  1  0  0  0
 88 89  1  0  0  0
 88 91  1  0  0  0
 89 90  2  0  0  0
 89101  1  0  0  0
 91 92  1  0  0  0
 92 93  4  0  0  0
 92 94  4  0  0  0
 93 95  4  0  0  0
 94 96  4  0  0  0
 94 97  4  0  0  0
 95 96  4  0  0  0
 96 98  4  0  0  0
 97 99  4  0  0  0
 98100  4  0  0  0
 99100  4  0  0  0
101102  1  0  0  0
102103  1  0  0  0
102105  1  0  0  0
103104  2  0  0  0
103113  1  0  0  0
105106  1  0  0  0
106107  4  0  0  0
106108  4  0  0  0
107109  4  0  0  0
108110  4  0  0  0
109111  4  0  0  0
110111  4  0  0  0
111112  1  0  0  0
113114  1  0  0  0
114115  1  0  0  0
114117  1  0  0  0
115116  2  0  0  0
115121  1  0  0  0
117118  1  0  0  0
117119  1  0  0  0
118120  1  0  0  0
121122  1  0  0  0
122123  1  0  0  0
122125  1  0  0  0
123124  2  0  0  0
123130  1  0  0  0
125126  1  0  0  0
126127  1  0  0  0
127128  1  0  0  0
128129  1  0  0  0
130131  1  0  0  0
131132  1  0  0  0
131134  1  0  0  0
132133  2  0  0  0
132139  1  0  0  0
134135  1  0  0  0
135136  1  0  0  0
136137  1  0  0  0
137138  1  0  0  0
139140  1  0  0  0
140141  1  0  0  0
140143  1  0  0  0
141142  2  0  0  0
141148  1  0  0  0
143144  1  0  0  0
144145  1  0  0  0
145146  1  0  0  0
146147  1  0  0  0
148149  1  0  0  0
149150  1  0  0  0
149152  1  0  0  0
150151  2  0  0  0
150157  1  0  0  0
152153  1  0  0  0
153154  1  0  0  0
154155  1  0  0  0
155156  1  0  0  0
  1158  1  0  0  0
  1159  1  0  0  0
  1160  1  0  0  0
  2161  1  0  0  0
  5162  1  0  0  0
  5163  1  0  0  0
  8164  1  0  0  0
  8165  1  0  0  0
  9166  1  0  0  0
 10167  1  0  0  0
 13168  1  0  0  0
 13169  1  0  0  0
 15170  1  0  0  0
 19171  1  0  0  0
 20172  1  0  0  0
 21173  1  0  0  0
 22174  1  0  0  0
 23175  1  0  0  0
 24176  1  0  0  0
 27177  1  0  0  0
 27178  1  0  0  0
 29179  1  0  0  0
 30180  1  0  0  0
 31181  1  0  0  0
 32182  1  0  0  0
 33183  1  0  0  0
 34184  1  0  0  0
 35185  1  0  0  0
 38186  1  0  0  0
 38187  1  0  0  0
 41188  1  0  0  0
 42189  1  0  0  0
 43190  1  0  0  0
 46191  1  0  0  0
 47192  1  0  0  0
 47193  1  0  0  0
 48194  1  0  0  0
 48195  1  0  0  0
 48196  1  0  0  0
 49197  1  0  0  0
 49198  1  0  0  0
 49199  1  0  0  0
 50200  1  0  0  0
 51201  1  0  0  0
 54202  1  0  0  0
 55203  1  0  0  0
 56204  1  0  0  0
 56205  1  0  0  0
 56206  1  0  0  0
 57207  1  0  0  0
 58208  1  0  0  0
 61209  1  0  0  0
 61210  1  0  0  0
 64211  1  0  0  0
 64212  1  0  0  0
 65213  1  0  0  0
 66214  1  0  0  0
 69215  1  0  0  0
 69216  1  0  0  0
 71217  1  0  0  0
 75218  1  0  0  0
 76219  1  0  0  0
 77220  1  0  0  0
 78221  1  0  0  0
 79222  1  0  0  0
 80223  1  0  0  0
 83224  1  0  0  0
 83225  1  0  0  0
 84226  1  0  0  0
 85227  1  0  0  0
 85228  1  0  0  0
 85229  1  0  0  0
 86230  1  0  0  0
 86231  1  0  0  0
 86232  1  0  0  0
 87233  1  0  0  0
 88234  1  0  0  0
 91235  1  0  0  0
 91236  1  0  0  0
 93237  1  0  0  0
 97238  1  0  0  0
 98239  1  0  0  0
 99240  1  0  0  0
100241  1  0  0  0
101242  1  0  0  0
102243  1  0  0  0
105244  1  0  0  0
105245  1  0  0  0
107246  1  0  0  0
108247  1  0  0  0
109248  1  0  0  0
110249  1  0  0  0
112250  1  0  0  0
113251  1  0  0  0
114252  1  0  0  0
117253  1  0  0  0
118254  1  0  0  0
118255  1  0  0  0
119256  1  0  0  0
119257  1  0  0  0
119258  1  0  0  0
120259  1  0  0  0
120260  1  0  0  0
120261  1  0  0  0
121262  1  0  0  0
122263  1  0  0  0
125264  1  0  0  0
125265  1  0  0  0
126266  1  0  0  0
126267  1  0  0  0
127268  1  0  0  0
127269  1  0  0  0
128270  1  0  0  0
128271  1  0  0  0
129272  1  0  0  0
129273  1  0  0  0
129274  1  0  0  0
130275  1  0  0  0
131276  1  0  0  0
134277  1  0  0  0
134278  1  0  0  0
135279  1  0  0  0
135280  1  0  0  0
136281  1  0  0  0
136282  1  0  0  0
137283  1  0  0  0
137284  1  0  0  0
138285  1  0  0  0
138286  1  0  0  0
138287  1  0  0  0
139288  1  0  0  0
140289  1  0  0  0
143290  1  0  0  0
143291  1  0  0  0
144292  1  0  0  0
144293  1  0  0  0
145294  1  0  0  0
145295  1  0  0  0
146296  1  0  0  0
146297  1  0  0  0
147298  1  0  0  0
147299  1  0  0  0
147300  1  0  0  0
148301  1  0  0  0
149302  1  0  0  0
152303  1  0  0  0
152304  1  0  0  0
153305  1  0  0  0
153306  1  0  0  0
154307  1  0  0  0
154308  1  0  0  0
155309  1  0  0  0
155310  1  0  0  0
156311  1  0  0  0
156312  1  0  0  0
156313  1  0  0  0
157314  1  0  0  0
M  END
$$$$
