5y0x_ligand
  -I-interpret- 

 40 42  0  0  0  0  0  0  0  0999 V2000
   -8.1880    5.9540  -18.4450 C   0  0  0  0  0
   -7.1420    6.5670  -16.4070 C   0  0  0  0  0
   -5.3150    7.5690  -21.2570 C   0  0  0  0  0
   -6.2180    7.9550  -22.2570 C   0  0  0  0  0
   -5.5530    6.0620  -23.5960 C   0  0  0  0  0
   -4.5420    6.4300  -21.4340 C   0  0  0  0  0
   -2.3800    4.3250  -19.3920 C   0  0  0  0  0
   -3.6460    6.0360  -20.4460 C   0  0  0  0  0
   -3.5200    6.7860  -19.2670 C   0  0  0  0  0
   -4.2820    7.9080  -19.0870 C   0  0  0  0  0
   -5.1800    8.3100  -20.0710 C   0  0  0  0  0
   -7.5700    8.2110  -18.0820 C   0  0  0  0  0
   -8.1280    7.2510  -18.9000 C   0  0  0  0  0
   -7.7070    5.6130  -17.2020 C   0  0  0  0  0
   -6.6340    6.1210  -15.0660 C   0  0  0  0  0
   -7.0690    7.8930  -16.8520 C   0  0  0  0  0
   -6.3460    7.2200  -23.4150 C   0  0  0  0  0
   -4.6640    5.6710  -22.6190 C   0  0  0  0  0
   -6.5050    8.8880  -16.0740 F   0  0  0  0  0
   -7.4880    9.5480  -18.5820 N   0  0  0  0  0
   -2.8620    4.8820  -20.6030 O   0  0  0  0  0
   -6.6040   10.5160  -20.9170 O   0  0  0  0  0
   -5.1990   10.7740  -19.1560 O   0  0  0  0  0
   -6.6090    6.9230  -14.1090 O   0  0  0  0  0
   -6.2520    4.8990  -14.9370 O   0  0  0  0  0
   -6.1260    9.8120  -19.7180 S   0  0  0  0  0
   -8.6242    5.1832  -19.0804 H   0  0  0  0  0
   -6.8268    8.8482  -22.1166 H   0  0  0  0  0
   -5.6459    5.4776  -24.5114 H   0  0  0  0  0
   -1.7614    5.0596  -18.8766 H   0  0  0  0  0
   -3.2236    4.0502  -18.7588 H   0  0  0  0  0
   -1.7857    3.4383  -19.6126 H   0  0  0  0  0
   -2.8158    6.4751  -18.4953 H   0  0  0  0  0
   -4.1853    8.4889  -18.1698 H   0  0  0  0  0
   -8.5130    7.5140  -19.8852 H   0  0  0  0  0
   -7.7772    4.5828  -16.8530 H   0  0  0  0  0
   -7.0525    7.5279  -24.1858 H   0  0  0  0  0
   -4.0558    4.7775  -22.7601 H   0  0  0  0  0
   -8.1434   10.2833  -18.3171 H   0  0  0  0  0
   -6.3454    4.4453  -15.7778 H   0  0  0  0  0
 13  1  4  0  0  0
  1 14  4  0  0  0
  2 14  4  0  0  0
  2 15  1  0  0  0
 16  2  4  0  0  0
  3  4  4  0  0  0
  3  6  4  0  0  0
 11  3  4  0  0  0
  4 17  4  0  0  0
 17  5  4  0  0  0
 18  5  4  0  0  0
  6  8  4  0  0  0
  6 18  4  0  0  0
 21  7  1  0  0  0
  9  8  4  0  0  0
  8 21  1  0  0  0
 10  9  4  0  0  0
 11 10  4  0  0  0
 26 11  1  0  0  0
 12 13  4  0  0  0
 12 16  4  0  0  0
 20 12  1  0  0  0
 15 24  2  0  0  0
 15 25  1  0  0  0
 16 19  1  0  0  0
 20 26  1  0  0  0
 26 22  2  0  0  0
 26 23  2  0  0  0
  1 27  1  0  0  0
  4 28  1  0  0  0
  5 29  1  0  0  0
  7 30  1  0  0  0
  7 31  1  0  0  0
  7 32  1  0  0  0
  9 33  1  0  0  0
 10 34  1  0  0  0
 13 35  1  0  0  0
 14 36  1  0  0  0
 17 37  1  0  0  0
 18 38  1  0  0  0
 20 39  1  0  0  0
 25 40  1  0  0  0
M  END
$$$$
