5v79_ligand
  -I-interpret- 

 36 38  0  0  0  0  0  0  0  0999 V2000
  -24.0660    3.3480   98.2530 C   0  0  0  0  0
  -23.1920    2.9700   99.2500 C   0  0  0  0  0
  -24.5830    4.6280   98.2550 C   0  0  0  0  0
  -22.8240    3.8620  100.2420 C   0  0  0  0  0
  -24.2250    5.5290   99.2390 C   0  0  0  0  0
  -23.3390    5.1550  100.2410 C   0  0  0  0  0
  -18.2960    9.2080  103.7470 C   0  0  0  0  0
  -17.8770    8.8600  104.9990 C   0  0  0  0  0
  -19.7190    7.7950  104.4350 C   0  0  0  0  0
  -17.5300   10.1660  103.0100 C   0  0  0  0  0
  -16.0930   10.1700  105.0260 C   0  0  0  0  0
  -21.9250    6.0980  102.0770 C   0  0  0  0  0
  -18.7490    7.3170  106.7270 C   0  0  0  0  0
  -22.1300    7.0790  103.1990 C   0  0  0  0  0
  -19.4450    8.5470  103.3860 N   0  0  0  0  0
  -16.8010    9.2980  105.6880 N   0  0  0  0  0
  -18.7940    7.9530  105.4260 N   0  0  0  0  0
  -16.4330   10.5870  103.7330 N   0  0  0  0  0
  -14.9530   10.7420  105.5540 N   0  0  0  0  0
  -23.0190    6.1420  101.2210 N   0  0  0  0  0
  -17.7990   10.5720  101.8870 O   0  0  0  0  0
  -20.9240    5.3950  101.9640 O   0  0  0  0  0
  -21.0710    6.7110  104.6290 S   0  0  0  0  0
  -24.3462    2.6428   97.4705 H   0  0  0  0  0
  -22.7867    1.9582   99.2570 H   0  0  0  0  0
  -25.2798    4.9304   97.4733 H   0  0  0  0  0
  -22.1309    3.5520  101.0240 H   0  0  0  0  0
  -24.6394    6.5371   99.2290 H   0  0  0  0  0
  -17.8166    6.7613  106.8263 H   0  0  0  0  0
  -18.8040    8.0789  107.5046 H   0  0  0  0  0
  -19.5927    6.6340  106.8255 H   0  0  0  0  0
  -23.1697    7.0163  103.5203 H   0  0  0  0  0
  -21.8741    8.0733  102.8328 H   0  0  0  0  0
  -16.5667    8.9797  106.6283 H   0  0  0  0  0
  -14.4217   11.4192  105.0067 H   0  0  0  0  0
  -23.6437    6.9445  101.2995 H   0  0  0  0  0
  2  1  4  0  0  0
  3  1  4  0  0  0
  4  2  4  0  0  0
  5  3  4  0  0  0
  6  4  4  0  0  0
  6  5  4  0  0  0
 20  6  1  0  0  0
  8  7  4  0  0  0
  7 10  1  0  0  0
 15  7  4  0  0  0
  8 16  1  0  0  0
 17  8  4  0  0  0
  9 15  4  0  0  0
  9 17  4  0  0  0
 23  9  1  0  0  0
 10 18  1  0  0  0
 10 21  2  0  0  0
 16 11  1  0  0  0
 11 18  4  0  0  0
 11 19  2  0  0  0
 14 12  1  0  0  0
 12 20  1  0  0  0
 12 22  2  0  0  0
 17 13  1  0  0  0
 14 23  1  0  0  0
  1 24  1  0  0  0
  2 25  1  0  0  0
  3 26  1  0  0  0
  4 27  1  0  0  0
  5 28  1  0  0  0
 13 29  1  0  0  0
 13 30  1  0  0  0
 13 31  1  0  0  0
 14 32  1  0  0  0
 14 33  1  0  0  0
 16 34  1  0  0  0
 19 35  1  0  0  0
 20 36  1  0  0  0
M  END
$$$$
