1rri_ligand
  -I-interpret- 

 28 30  0  0  0  0  0  0  0  0999 V2000
   33.6210   53.8810   59.9950 N   0  0  0  0  0
   33.9020   54.6570   61.0760 C   0  0  0  0  0
   32.8320   55.2340   61.8070 N   0  0  0  0  0
   33.0410   56.0220   62.8790 C   0  0  0  0  0
   31.9550   56.5550   63.5550 O   0  0  0  0  0
   34.4390   56.3120   63.3390 C   0  0  0  0  0
   34.9830   57.0220   64.3210 N   0  0  0  0  0
   36.4280   56.8950   64.2220 N   0  0  0  0  0
   36.6930   56.0340   63.0620 N   0  0  0  0  0
   35.5350   55.6770   62.5290 C   0  0  0  0  0
   35.1740   54.8640   61.4100 N   0  0  0  0  0
   37.3970   57.4810   65.0740 C   0  0  0  0  0
   37.8380   58.8170   64.8420 C   0  0  0  0  0
   38.8160   59.4120   65.7150 C   0  0  0  0  0
   39.3710   58.6590   66.8000 C   0  0  0  0  0
   38.9310   57.3150   67.0280 C   0  0  0  0  0
   37.9480   56.7260   66.1610 C   0  0  0  0  0
   39.4900   56.5200   68.1520 C   0  0  0  0  0
   39.1090   55.3760   68.3510 O   0  0  0  0  0
   40.4020   57.0410   68.9520 O   0  0  0  0  0
   34.3797   53.4672   59.4532 H   0  0  0  0  0
   32.6516   53.7128   59.7261 H   0  0  0  0  0
   31.8740   55.0462   61.5114 H   0  0  0  0  0
   37.4352   59.3870   64.0048 H   0  0  0  0  0
   39.1359   60.4408   65.5496 H   0  0  0  0  0
   40.1241   59.1064   67.4486 H   0  0  0  0  0
   37.6198   55.7005   66.3306 H   0  0  0  0  0
   40.5974   57.9380   68.6713 H   0  0  0  0  0
  1  2  1  0  0  0
  2  3  1  0  0  0
  2 11  2  0  0  0
  3  4  1  0  0  0
  4  5  2  0  0  0
  4  6  1  0  0  0
  6  7  4  0  0  0
  6 10  4  0  0  0
  7  8  4  0  0  0
  8  9  4  0  0  0
  8 12  1  0  0  0
  9 10  4  0  0  0
 10 11  1  0  0  0
 12 13  4  0  0  0
 12 17  4  0  0  0
 13 14  4  0  0  0
 14 15  4  0  0  0
 15 16  4  0  0  0
 16 17  4  0  0  0
 16 18  1  0  0  0
 18 19  2  0  0  0
 18 20  1  0  0  0
  1 21  1  0  0  0
  1 22  1  0  0  0
  3 23  1  0  0  0
 13 24  1  0  0  0
 14 25  1  0  0  0
 15 26  1  0  0  0
 17 27  1  0  0  0
 20 28  1  0  0  0
M  END
$$$$
