5ltn_ligand
  -I-interpret- 

 22 22  0  0  0  0  0  0  0  0999 V2000
  -35.2540  -19.1680    7.1270 O   0  0  0  0  0
  -36.3440  -18.7520    6.8360 C   0  0  0  0  0
  -36.9600  -19.2190    5.5800 C   0  0  0  0  0
  -36.4120  -20.2080    5.2000 O   0  0  0  0  0
  -37.8760  -18.7330    4.8520 O   0  0  0  0  0
  -37.0710  -17.8070    7.7290 C   0  0  0  0  0
  -37.2920  -16.5850    6.8960 C   0  0  0  0  0
  -37.5930  -15.3070    7.5730 C   0  0  0  0  0
  -37.3660  -15.2010    8.9290 C   0  0  0  0  0
  -37.6650  -13.9880    9.5150 C   0  0  0  0  0
  -38.1610  -12.9630    8.7270 C   0  0  0  0  0
  -38.3810  -13.0850    7.3710 C   0  0  0  0  0
  -38.0870  -14.2910    6.7790 C   0  0  0  0  0
  -37.2290  -16.5380    5.6940 O   0  0  0  0  0
  -38.2312  -17.9451    5.2699 H   0  0  0  0  0
  -36.5026  -17.5844    8.6320 H   0  0  0  0  0
  -38.0103  -18.2289    8.0866 H   0  0  0  0  0
  -36.9699  -16.0343    9.5094 H   0  0  0  0  0
  -37.5128  -13.8386   10.5839 H   0  0  0  0  0
  -38.3896  -12.0097    9.2035 H   0  0  0  0  0
  -38.7750  -12.2528    6.7876 H   0  0  0  0  0
  -38.2400  -14.4410    5.7103 H   0  0  0  0  0
  1  2  2  0  0  0
  2  3  1  0  0  0
  2  6  1  0  0  0
  3  4  2  0  0  0
  3  5  1  0  0  0
  6  7  1  0  0  0
  7  8  1  0  0  0
  7 14  2  0  0  0
  8  9  4  0  0  0
  8 13  4  0  0  0
  9 10  4  0  0  0
 10 11  4  0  0  0
 11 12  4  0  0  0
 12 13  4  0  0  0
  5 15  1  0  0  0
  6 16  1  0  0  0
  6 17  1  0  0  0
  9 18  1  0  0  0
 10 19  1  0  0  0
 11 20  1  0  0  0
 12 21  1  0  0  0
 13 22  1  0  0  0
M  END
$$$$
