5j9l_ligand
  -I-interpret- 

 62 66  0  0  0  0  0  0  0  0999 V2000
  -22.0300  -50.8920  -22.2300 C   0  0  0  0  0
  -21.8750  -51.3680  -21.0270 N   0  3  0  0  0
  -22.2680  -50.4780  -20.0610 C   0  0  0  0  0
  -21.2560  -49.3460  -19.8260 C   0  0  0  0  0
  -20.6000  -51.8800  -20.8130 C   0  0  0  0  0
  -19.5440  -50.7870  -20.5850 C   0  0  0  0  0
  -19.9120  -49.8570  -19.5380 N   0  0  0  0  0
  -18.9050  -49.0240  -18.8450 C   0  0  0  0  0
  -19.3230  -48.0820  -17.8690 C   0  0  0  0  0
  -18.3790  -47.2910  -17.2030 C   0  0  0  0  0
  -17.5560  -49.1560  -19.1400 C   0  0  0  0  0
  -16.6100  -48.3630  -18.4770 C   0  0  0  0  0
  -17.0270  -47.4260  -17.5010 C   0  0  0  0  0
  -16.0520  -46.6010  -16.8090 N   0  0  0  0  0
  -14.8480  -47.1980  -16.2240 C   0  0  0  0  0
  -14.0150  -46.4190  -15.5330 N   0  0  0  0  0
  -12.8690  -46.9170  -14.9660 C   0  0  0  0  0
  -12.5880  -48.2480  -15.1250 C   0  0  0  0  0
  -11.3870  -48.4690  -14.4550 C   0  0  0  0  0
  -10.9750  -47.2610  -13.9110 C   0  0  0  0  0
  -11.8790  -46.3410  -14.2280 N   0  0  0  0  0
  -13.5030  -49.0610  -15.8860 C   0  0  0  0  0
  -13.2450  -50.4430  -16.0530 O   0  0  0  0  0
  -13.3370  -50.8950  -17.3910 C   0  0  0  0  0
  -14.4780  -51.5310  -17.8280 C   0  0  0  0  0
  -14.5660  -51.9970  -19.1490 C   0  0  0  0  0
  -13.5040  -51.8190  -20.0200 C   0  0  0  0  0
  -13.5710  -52.3090  -21.4090 N   0  0  0  0  0
  -14.8400  -52.2830  -22.1970 C   0  0  0  0  0
  -14.8320  -52.8220  -23.6480 C   0  0  0  0  0
  -15.9780  -53.0550  -24.2910 C   0  0  0  0  0
  -15.8530  -51.8550  -21.7170 O   0  0  0  0  0
  -12.3580  -51.1940  -19.5780 C   0  0  0  0  0
  -12.2710  -50.7290  -18.2580 C   0  0  0  0  0
  -14.6020  -48.5010  -16.3970 N   0  0  0  0  0
  -21.3140  -50.0871  -22.3959 H   0  0  0  0  0
  -21.8616  -51.6857  -22.9579 H   0  0  0  0  0
  -23.0437  -50.5064  -22.3390 H   0  0  0  0  0
  -22.5059  -52.1654  -20.9471 H   0  0  0  0  0
  -22.3664  -51.0300  -19.1263 H   0  0  0  0  0
  -23.1999  -50.0215  -20.3945 H   0  0  0  0  0
  -21.5899  -48.7651  -18.9662 H   0  0  0  0  0
  -21.2032  -48.7440  -20.7331 H   0  0  0  0  0
  -20.3127  -52.4384  -21.7039 H   0  0  0  0  0
  -20.6368  -52.4982  -19.9160 H   0  0  0  0  0
  -19.4443  -50.2221  -21.5119 H   0  0  0  0  0
  -18.6177  -51.2767  -20.2846 H   0  0  0  0  0
  -20.3826  -47.9740  -17.6372 H   0  0  0  0  0
  -18.7031  -46.5704  -16.4521 H   0  0  0  0  0
  -17.2312  -49.8781  -19.8891 H   0  0  0  0  0
  -15.5510  -48.4677  -18.7131 H   0  0  0  0  0
  -16.2068  -45.5960  -16.7294 H   0  0  0  0  0
  -10.8638  -49.4217  -14.3727 H   0  0  0  0  0
  -10.0696  -47.0961  -13.3268 H   0  0  0  0  0
  -15.3158  -51.6729  -17.1453 H   0  0  0  0  0
  -15.4712  -52.4996  -19.4898 H   0  0  0  0  0
  -12.7255  -52.6768  -21.8451 H   0  0  0  0  0
  -13.8827  -53.0128  -24.1486 H   0  0  0  0  0
  -16.9297  -52.8657  -23.7945 H   0  0  0  0  0
  -15.9623  -53.4346  -25.3127 H   0  0  0  0  0
  -11.5160  -51.0606  -20.2572 H   0  0  0  0  0
  -11.3619  -50.2357  -17.9140 H   0  0  0  0  0
  1  2  1  0  0  0
  2  3  1  0  0  0
  2  5  1  0  0  0
  3  4  1  0  0  0
  4  7  1  0  0  0
  5  6  1  0  0  0
  6  7  1  0  0  0
  7  8  1  0  0  0
  8  9  4  0  0  0
  8 11  4  0  0  0
  9 10  4  0  0  0
 10 13  4  0  0  0
 11 12  4  0  0  0
 12 13  4  0  0  0
 13 14  1  0  0  0
 14 15  1  0  0  0
 15 16  4  0  0  0
 15 35  4  0  0  0
 16 17  4  0  0  0
 17 18  4  0  0  0
 17 21  4  0  0  0
 18 19  4  0  0  0
 18 22  4  0  0  0
 19 20  4  0  0  0
 20 21  4  0  0  0
 22 23  1  0  0  0
 22 35  4  0  0  0
 23 24  1  0  0  0
 24 25  4  0  0  0
 24 34  4  0  0  0
 25 26  4  0  0  0
 26 27  4  0  0  0
 27 28  1  0  0  0
 27 33  4  0  0  0
 28 29  1  0  0  0
 29 30  1  0  0  0
 29 32  2  0  0  0
 30 31  2  0  0  0
 33 34  4  0  0  0
  1 36  1  0  0  0
  1 37  1  0  0  0
  1 38  1  0  0  0
  2 39  1  0  0  0
  3 40  1  0  0  0
  3 41  1  0  0  0
  4 42  1  0  0  0
  4 43  1  0  0  0
  5 44  1  0  0  0
  5 45  1  0  0  0
  6 46  1  0  0  0
  6 47  1  0  0  0
  9 48  1  0  0  0
 10 49  1  0  0  0
 11 50  1  0  0  0
 12 51  1  0  0  0
 14 52  1  0  0  0
 19 53  1  0  0  0
 20 54  1  0  0  0
 25 55  1  0  0  0
 26 56  1  0  0  0
 28 57  1  0  0  0
 30 58  1  0  0  0
 31 59  1  0  0  0
 31 60  1  0  0  0
 33 61  1  0  0  0
 34 62  1  0  0  0
M  END
$$$$
