4x2l_ligand
  -I-interpret- 

 28 29  0  0  0  0  0  0  0  0999 V2000
   16.8600  -42.1070    9.3760 C   0  0  0  0  0
   14.5740  -41.0190    6.3070 N   0  0  0  0  0
   18.7260  -40.1330    6.9010 C   0  0  0  0  0
   18.3890  -39.7500    8.2150 C   0  0  0  0  0
   21.1070  -40.0670    7.3870 C   0  0  0  0  0
   20.0440  -40.2980    6.4890 C   0  0  0  0  0
   16.5890  -38.2240    9.2210 C   0  0  0  0  0
   16.9240  -39.6400    8.7170 C   0  0  0  0  0
   16.6900  -40.6690    9.8350 C   0  0  0  0  0
   15.6870  -42.5820    8.0920 S   0  0  0  0  0
   15.4400  -40.9680    7.3360 C   0  0  0  0  0
   15.9760  -39.8370    7.6160 N   0  0  0  0  0
   20.8460  -39.6540    8.7030 C   0  0  0  0  0
   19.4950  -39.5180    9.0980 C   0  0  0  0  0
   19.3090  -39.1990   10.3800 F   0  0  0  0  0
   22.3810  -40.3120    7.0090 F   0  0  0  0  0
   16.6879  -42.7524   10.2374 H   0  0  0  0  0
   17.8633  -42.2063    8.9616 H   0  0  0  0  0
   14.1464  -41.9068    6.0439 H   0  0  0  0  0
   17.9251  -40.3060    6.1822 H   0  0  0  0  0
   20.2569  -40.6077    5.4659 H   0  0  0  0  0
   15.5439  -38.1870    9.5286 H   0  0  0  0  0
   17.2278  -37.9814   10.0702 H   0  0  0  0  0
   16.7589  -37.5049    8.4197 H   0  0  0  0  0
   17.4300  -40.4827   10.6134 H   0  0  0  0  0
   15.6621  -40.5530   10.1787 H   0  0  0  0  0
   15.7294  -39.0309    7.0417 H   0  0  0  0  0
   21.6589  -39.4448    9.3983 H   0  0  0  0  0
  1  9  1  0  0  0
 10  1  1  0  0  0
 11  2  2  0  0  0
  4  3  4  0  0  0
  3  6  4  0  0  0
  8  4  1  0  0  0
  4 14  4  0  0  0
  6  5  4  0  0  0
  5 13  4  0  0  0
  5 16  1  0  0  0
  8  7  1  0  0  0
  9  8  1  0  0  0
  8 12  1  0  0  0
 10 11  1  0  0  0
 11 12  1  0  0  0
 13 14  4  0  0  0
 14 15  1  0  0  0
  1 17  1  0  0  0
  1 18  1  0  0  0
  2 19  1  0  0  0
  3 20  1  0  0  0
  6 21  1  0  0  0
  7 22  1  0  0  0
  7 23  1  0  0  0
  7 24  1  0  0  0
  9 25  1  0  0  0
  9 26  1  0  0  0
 12 27  1  0  0  0
 13 28  1  0  0  0
M  END
$$$$
