2ovv_ligand
  -I-interpret- 

 53 57  0  0  0  0  0  0  0  0999 V2000
   14.0300   16.0490   44.5000 C   0  0  0  0  0
   11.9630   18.9340   45.6820 C   0  0  0  0  0
   12.5080   17.9450   44.7740 C   0  0  0  0  0
   13.2430   18.0350   47.3940 C   0  0  0  0  0
   11.6520   23.4010   42.9090 C   0  0  0  0  0
    9.6890   21.8050   45.6750 C   0  0  0  0  0
   11.2760   20.7050   44.1440 C   0  0  0  0  0
   10.4610   20.6890   46.4120 C   0  0  0  0  0
   12.8740   23.9740   40.4070 C   0  0  0  0  0
   11.4690   17.4120   40.5380 C   0  0  0  0  0
   12.4910   16.6520   41.2220 O   0  0  0  0  0
   12.7360   16.8470   42.5880 C   0  0  0  0  0
   13.6810   15.9580   43.1560 C   0  0  0  0  0
   14.1790   15.0330   42.2960 O   0  0  0  0  0
   15.3520   14.3720   42.7200 C   0  0  0  0  0
   12.1710   17.8150   43.3970 C   0  0  0  0  0
   13.4460   17.0310   45.3180 C   0  0  0  0  0
   13.7720   17.1170   46.6110 N   0  0  0  0  0
   12.3590   18.9220   46.9600 N   0  0  0  0  0
   10.9920   19.8480   45.3130 N   0  0  0  0  0
   10.3440   21.9620   44.2710 C   0  0  0  0  0
   11.1040   23.1950   44.1640 O   0  0  0  0  0
   12.4780   24.5290   42.7510 C   0  0  0  0  0
   13.0710   24.8060   41.5440 C   0  0  0  0  0
   13.4560   24.2520   39.1570 C   0  0  0  0  0
   12.0410   22.8210   40.5490 C   0  0  0  0  0
   11.4450   22.5700   41.8030 C   0  0  0  0  0
   11.8030   21.9570   39.4600 C   0  0  0  0  0
   12.3650   22.2440   38.2660 C   0  0  0  0  0
   13.1920   23.3850   38.1240 C   0  0  0  0  0
   14.7591   15.3560   44.9198 H   0  0  0  0  0
   13.5445   18.0663   48.4410 H   0  0  0  0  0
    9.7404   22.7411   46.2311 H   0  0  0  0  0
    8.6342   21.5468   45.5814 H   0  0  0  0  0
   11.0833   20.1704   43.2139 H   0  0  0  0  0
   12.3253   20.9993   44.1233 H   0  0  0  0  0
    9.8273   20.1270   47.0980 H   0  0  0  0  0
   11.2492   21.0817   47.0544 H   0  0  0  0  0
   10.5020   17.2182   41.0022 H   0  0  0  0  0
   11.7005   18.4748   40.6079 H   0  0  0  0  0
   11.4366   17.1140   39.4900 H   0  0  0  0  0
   16.1444   15.1043   42.8747 H   0  0  0  0  0
   15.1539   13.8464   43.6541 H   0  0  0  0  0
   15.6603   13.6568   41.9574 H   0  0  0  0  0
   11.4428   18.5020   42.9660 H   0  0  0  0  0
    9.6018   22.0180   43.4747 H   0  0  0  0  0
   12.6496   25.1923   43.5987 H   0  0  0  0  0
   13.7087   25.6855   41.4547 H   0  0  0  0  0
   14.0937   25.1241   39.0128 H   0  0  0  0  0
   10.8006   21.6979   41.9138 H   0  0  0  0  0
   11.1765   21.0731   39.5799 H   0  0  0  0  0
   12.1816   21.5957   37.4092 H   0  0  0  0  0
   13.6397   23.5846   37.1505 H   0  0  0  0  0
  1 13  4  0  0  0
 17  1  4  0  0  0
  2  3  4  0  0  0
  2 19  4  0  0  0
 20  2  1  0  0  0
  3 16  4  0  0  0
  3 17  4  0  0  0
  4 18  4  0  0  0
 19  4  4  0  0  0
  5 22  1  0  0  0
 23  5  4  0  0  0
  5 27  4  0  0  0
  6  8  1  0  0  0
 21  6  1  0  0  0
  7 20  1  0  0  0
 21  7  1  0  0  0
 20  8  1  0  0  0
 24  9  4  0  0  0
  9 25  4  0  0  0
  9 26  4  0  0  0
 11 10  1  0  0  0
 12 11  1  0  0  0
 12 13  4  0  0  0
 16 12  4  0  0  0
 13 14  1  0  0  0
 14 15  1  0  0  0
 17 18  4  0  0  0
 22 21  1  0  0  0
 23 24  4  0  0  0
 25 30  4  0  0  0
 26 27  4  0  0  0
 26 28  4  0  0  0
 28 29  4  0  0  0
 29 30  4  0  0  0
  1 31  1  0  0  0
  4 32  1  0  0  0
  6 33  1  0  0  0
  6 34  1  0  0  0
  7 35  1  0  0  0
  7 36  1  0  0  0
  8 37  1  0  0  0
  8 38  1  0  0  0
 10 39  1  0  0  0
 10 40  1  0  0  0
 10 41  1  0  0  0
 15 42  1  0  0  0
 15 43  1  0  0  0
 15 44  1  0  0  0
 16 45  1  0  0  0
 21 46  1  0  0  0
 23 47  1  0  0  0
 24 48  1  0  0  0
 25 49  1  0  0  0
 27 50  1  0  0  0
 28 51  1  0  0  0
 29 52  1  0  0  0
 30 53  1  0  0  0
M  END
$$$$
