4wr7_ligand
  -I-interpret- 

 27 27  0  0  0  0  0  0  0  0999 V2000
   12.5150   38.1500   15.9040 F   0  0  0  0  0
   12.7170   37.1420   16.7960 C   0  0  0  0  0
   13.4640   37.4030   17.9760 C   0  0  0  0  0
   13.9440   38.6540   18.1480 F   0  0  0  0  0
   12.1740   35.9020   16.5990 C   0  0  0  0  0
   11.2090   35.5760   15.0980 S   0  0  0  0  0
    9.7120   34.8300   15.8920 C   0  0  0  0  0
    8.5890   34.6380   14.8630 C   0  0  0  0  0
    8.0550   36.0070   14.4850 C   0  0  0  0  0
   12.3930   34.8810   17.5020 C   0  0  0  0  0
   11.9290   33.6060   17.3240 F   0  0  0  0  0
   13.1440   35.1360   18.6610 C   0  0  0  0  0
   13.3150   34.1230   19.5270 F   0  0  0  0  0
   13.6650   36.4390   18.9310 C   0  0  0  0  0
   14.5850   36.8940   20.4190 S   0  0  0  0  0
   14.8350   35.5860   21.0950 O   0  0  0  0  0
   13.7730   37.9430   21.0670 O   0  0  0  0  0
   16.0830   37.3620   19.8590 N   0  0  0  0  0
    9.3595   35.4993   16.6767 H   0  0  0  0  0
    9.9805   33.8578   16.3053 H   0  0  0  0  0
    7.7914   34.0283   15.2875 H   0  0  0  0  0
    8.9729   34.1280   13.9795 H   0  0  0  0  0
    7.6681   36.5031   15.3751 H   0  0  0  0  0
    8.8599   36.6037   14.0557 H   0  0  0  0  0
    7.2548   35.8942   13.7536 H   0  0  0  0  0
   16.8971   36.7701   20.0244 H   0  0  0  0  0
   16.1859   38.2404   19.3508 H   0  0  0  0  0
  1  2  1  0  0  0
  2  3  4  0  0  0
  2  5  4  0  0  0
  3  4  1  0  0  0
  3 14  4  0  0  0
  5  6  1  0  0  0
  5 10  4  0  0  0
  6  7  1  0  0  0
  7  8  1  0  0  0
  8  9  1  0  0  0
 10 11  1  0  0  0
 10 12  4  0  0  0
 12 13  1  0  0  0
 12 14  4  0  0  0
 14 15  1  0  0  0
 15 16  2  0  0  0
 15 17  2  0  0  0
 15 18  1  0  0  0
  7 19  1  0  0  0
  7 20  1  0  0  0
  8 21  1  0  0  0
  8 22  1  0  0  0
  9 23  1  0  0  0
  9 24  1  0  0  0
  9 25  1  0  0  0
 18 26  1  0  0  0
 18 27  1  0  0  0
M  END
$$$$
