4zv1_ligand
  -I-interpret- 

 27 26  0  0  0  0  0  0  0  0999 V2000
    3.1820  -24.2100   12.9190 N   0  3  0  0  0
    3.6680  -23.5400   11.6610 C   0  0  0  0  0
    4.9610  -22.8600   11.9240 C   0  0  0  0  0
    5.6710  -22.4530   10.9280 O   0  0  0  0  0
    2.7110  -22.5140   11.1350 C   0  0  0  0  0
    2.3190  -21.4590   12.1860 C   0  0  0  0  0
    1.5890  -20.2800   11.5690 C   0  0  0  0  0
    0.9190  -19.4620   12.5650 N   0  0  0  0  0
    0.1810  -18.3940   12.3150 C   0  0  0  0  0
   -0.4120  -17.7520   13.3000 N   0  0  0  0  0
   -0.0200  -18.0580   11.0640 N   0  0  0  0  0
    5.3750  -22.7000   13.0930 O   0  0  0  0  0
    3.8727  -24.8945   13.2269 H   0  0  0  0  0
    3.0492  -23.5081   13.6471 H   0  0  0  0  0
    2.2960  -24.6797   12.7322 H   0  0  0  0  0
    3.7700  -24.3276   10.9144 H   0  0  0  0  0
    5.2129  -22.6509   10.1079 H   0  0  0  0  0
    1.8019  -23.0335   10.8320 H   0  0  0  0  0
    3.2014  -21.9950   10.3115 H   0  0  0  0  0
    3.2322  -21.0873   12.6508 H   0  0  0  0  0
    1.6526  -21.9306   12.9082 H   0  0  0  0  0
    0.8325  -20.6701   10.8881 H   0  0  0  0  0
    2.3240  -19.6570   11.0594 H   0  0  0  0  0
    1.0273  -19.7352   13.5417 H   0  0  0  0  0
   -1.0423  -16.9762   13.0967 H   0  0  0  0  0
   -0.2410  -18.0305   14.2662 H   0  0  0  0  0
    0.3888  -18.6157   10.3141 H   0  0  0  0  0
  1  2  1  0  0  0
  2  3  1  0  0  0
  2  5  1  0  0  0
  3  4  1  0  0  0
  3 12  2  0  0  0
  5  6  1  0  0  0
  6  7  1  0  0  0
  7  8  1  0  0  0
  8  9  1  0  0  0
  9 10  1  0  0  0
  9 11  2  0  0  0
  1 13  1  0  0  0
  1 14  1  0  0  0
  1 15  1  0  0  0
  2 16  1  0  0  0
  4 17  1  0  0  0
  5 18  1  0  0  0
  5 19  1  0  0  0
  6 20  1  0  0  0
  6 21  1  0  0  0
  7 22  1  0  0  0
  7 23  1  0  0  0
  8 24  1  0  0  0
 10 25  1  0  0  0
 10 26  1  0  0  0
 11 27  1  0  0  0
M  END
$$$$
