3r2b_ligand
  -I-interpret- 

 51 56  0  0  0  0  0  0  0  0999 V2000
   -8.9360  -52.4700   10.6670 C   0  0  0  0  0
   -9.3090  -51.0310   11.0750 C   0  0  0  0  0
   -8.3650  -50.2770   11.8930 N   0  0  0  0  0
   -7.2270  -50.7600   12.4420 C   0  0  0  0  0
  -11.0800  -53.3390    8.9350 N   0  3  0  0  0
  -10.0180  -53.4570   11.1420 C   0  0  0  0  0
   -8.7610  -52.5810    9.1400 C   0  0  0  0  0
  -10.0850  -52.4310    8.3730 C   0  0  0  0  0
  -11.3340  -53.2930   10.3720 C   0  0  0  0  0
   -6.5510  -50.0820   13.1920 O   0  0  0  0  0
   -7.6380  -52.9320   11.2880 C   0  0  0  0  0
   -6.8460  -52.1400   12.1170 C   0  0  0  0  0
   -5.7300  -52.8980   12.4970 C   0  0  0  0  0
   -5.8700  -54.1160   11.9040 C   0  0  0  0  0
   -7.0360  -54.1140   11.1750 N   0  0  0  0  0
   -4.9530  -55.2660   12.0010 C   0  0  0  0  0
   -4.1060  -55.4410   13.1020 C   0  0  0  0  0
   -3.2780  -56.5520   13.1140 C   0  0  0  0  0
   -3.3040  -57.4130   12.1000 N   0  0  0  0  0
   -4.1220  -57.2230   11.0640 C   0  0  0  0  0
   -4.9290  -56.1690   11.0170 N   0  0  0  0  0
   -4.1550  -58.1840    9.9320 C   0  0  0  0  0
   -2.9940  -58.8460    9.5110 C   0  0  0  0  0
   -3.0470  -59.7360    8.4530 C   0  0  0  0  0
   -5.3630  -58.4280    9.2680 C   0  0  0  0  0
   -5.4110  -59.3190    8.2110 C   0  0  0  0  0
   -4.2490  -59.9770    7.8000 C   0  0  0  0  0
   -4.5640  -60.7860    6.7460 O   0  0  0  0  0
   -5.8120  -60.2760    6.2370 C   0  0  0  0  0
   -6.4440  -59.7240    7.4120 O   0  0  0  0  0
  -10.2044  -51.1301   11.6886 H   0  0  0  0  0
   -9.3826  -50.4777   10.1388 H   0  0  0  0  0
   -8.5831  -49.2959   12.0668 H   0  0  0  0  0
  -10.7156  -54.2753    8.7589 H   0  0  0  0  0
  -11.9623  -53.0694    8.4999 H   0  0  0  0  0
  -10.2160  -53.2603   12.1957 H   0  0  0  0  0
   -9.6506  -54.4690   10.9719 H   0  0  0  0  0
   -8.3606  -53.5711    8.9221 H   0  0  0  0  0
   -8.0990  -51.7758    8.8216 H   0  0  0  0  0
  -10.4405  -51.4043    8.4602 H   0  0  0  0  0
   -9.9251  -52.6733    7.3224 H   0  0  0  0  0
  -12.0115  -54.1028   10.6428 H   0  0  0  0  0
  -11.7815  -52.3323   10.6268 H   0  0  0  0  0
   -4.9112  -52.5760   13.1405 H   0  0  0  0  0
   -4.0982  -54.7255   13.9242 H   0  0  0  0  0
   -2.6050  -56.7207   13.9546 H   0  0  0  0  0
   -2.0473  -58.6595   10.0180 H   0  0  0  0  0
   -2.1416  -60.2502    8.1306 H   0  0  0  0  0
   -6.2700  -57.9135    9.5854 H   0  0  0  0  0
   -6.4163  -61.0448    5.7554 H   0  0  0  0  0
   -5.6746  -59.5382    5.4465 H   0  0  0  0  0
  1  2  1  0  0  0
  6  1  1  0  0  0
  1  7  1  0  0  0
  1 11  1  0  0  0
  2  3  1  0  0  0
  3  4  1  0  0  0
  4 10  2  0  0  0
  4 12  1  0  0  0
  5  8  1  0  0  0
  9  5  1  0  0  0
  6  9  1  0  0  0
  7  8  1  0  0  0
 11 12  4  0  0  0
 11 15  4  0  0  0
 12 13  4  0  0  0
 13 14  4  0  0  0
 14 15  4  0  0  0
 14 16  1  0  0  0
 16 17  4  0  0  0
 16 21  4  0  0  0
 17 18  4  0  0  0
 18 19  4  0  0  0
 19 20  4  0  0  0
 20 21  4  0  0  0
 20 22  1  0  0  0
 22 23  4  0  0  0
 22 25  4  0  0  0
 23 24  4  0  0  0
 24 27  4  0  0  0
 25 26  4  0  0  0
 26 27  4  0  0  0
 26 30  1  0  0  0
 27 28  1  0  0  0
 28 29  1  0  0  0
 29 30  1  0  0  0
  2 31  1  0  0  0
  2 32  1  0  0  0
  3 33  1  0  0  0
  5 34  1  0  0  0
  5 35  1  0  0  0
  6 36  1  0  0  0
  6 37  1  0  0  0
  7 38  1  0  0  0
  7 39  1  0  0  0
  8 40  1  0  0  0
  8 41  1  0  0  0
  9 42  1  0  0  0
  9 43  1  0  0  0
 13 44  1  0  0  0
 17 45  1  0  0  0
 18 46  1  0  0  0
 23 47  1  0  0  0
 24 48  1  0  0  0
 25 49  1  0  0  0
 29 50  1  0  0  0
 29 51  1  0  0  0
M  END
$$$$
