4b5w_ligand
  -I-interpret- 

 12 11  0  0  0  0  0  0  0  0999 V2000
   29.7360   45.8060   51.7160 C   0  0  0  0  0
   30.4490   45.7250   50.6380 O   0  0  0  0  0
   29.3210   44.7140   52.3050 O   0  0  0  0  0
   29.4000   47.0630   52.2300 C   0  0  0  0  0
   29.8110   48.1660   51.6260 O   0  0  0  0  0
   28.5740   47.0840   53.4670 C   0  0  0  0  0
   28.8098   44.9462   53.0837 H   0  0  0  0  0
   29.4939   48.1369   52.0688 H   0  0  0  0  0
   30.3270   47.9319   50.8510 H   0  0  0  0  0
   29.1199   47.5980   54.2582 H   0  0  0  0  0
   27.6390   47.6082   53.2692 H   0  0  0  0  0
   28.3600   46.0611   53.7769 H   0  0  0  0  0
  1  2  2  0  0  0
  1  3  1  0  0  0
  1  4  1  0  0  0
  4  5  1  0  0  0
  4  6  1  0  0  0
  3  7  1  0  0  0
  4  8  1  0  0  0
  5  9  1  0  0  0
  6 10  1  0  0  0
  6 11  1  0  0  0
  6 12  1  0  0  0
M  END
$$$$
