5t4h_ligand
  -I-interpret- 

 58 62  0  0  0  0  0  0  0  0999 V2000
   35.1940   51.2670   45.0690 C   0  0  0  0  0
   35.7050   50.2440   45.8080 C   0  0  0  0  0
   35.3050   51.3040   43.6360 C   0  0  0  0  0
   36.0230   50.3100   42.9660 C   0  0  0  0  0
   36.5630   49.2270   43.6810 C   0  0  0  0  0
   36.3960   49.2150   45.1100 C   0  0  0  0  0
   39.8900   49.5130   39.8710 C   0  0  0  0  0
   38.7370   48.8740   39.5090 C   0  0  0  0  0
   37.7570   48.3660   40.4760 C   0  0  0  0  0
   39.8230   49.4390   43.4530 N   0  0  0  0  0
   41.1370   50.0680   43.3230 C   0  0  0  0  0
   41.3780   50.2260   41.8490 C   0  0  0  0  0
   38.0780   47.9540   37.2410 C   0  0  0  0  0
   39.2760   50.3360   35.5310 C   0  0  0  0  0
   39.0490   51.8580   35.7330 C   0  0  0  0  0
   41.4840   51.9710   36.3150 C   0  0  0  0  0
   41.6360   50.4510   36.1850 C   0  0  0  0  0
   37.2580   48.0980   42.9670 C   0  0  0  0  0
   38.1360   48.5940   41.8760 N   0  0  0  0  0
   39.3310   49.2010   42.2240 C   0  0  0  0  0
   40.2010   49.6410   41.2480 N   0  0  0  0  0
   36.7230   47.8000   40.2250 O   0  0  0  0  0
   40.6380   49.9570   38.8570 N   0  0  0  0  0
   39.9720   49.5680   37.7460 C   0  0  0  0  0
   38.8170   48.8800   38.1010 N   0  0  0  0  0
   40.3410   49.7950   36.4280 N   0  0  0  0  0
   40.3620   52.6110   35.4910 C   0  0  0  0  0
   38.0340   52.2800   34.7420 N   0  3  0  0  0
   36.7340   48.3670   36.8600 C   0  0  0  0  0
   35.6070   48.6440   36.5270 C   0  0  0  0  0
   34.2060   48.9110   36.1860 C   0  0  0  0  0
   36.9420   48.1040   45.8400 C   0  0  0  0  0
   37.3690   47.2340   46.4100 N   0  0  0  0  0
   34.6845   52.0839   45.5800 H   0  0  0  0  0
   35.5892   50.2147   46.8914 H   0  0  0  0  0
   34.8294   52.1069   43.0727 H   0  0  0  0  0
   36.1646   50.3745   41.8872 H   0  0  0  0  0
   41.8057   50.3624   44.1318 H   0  0  0  0  0
   42.2370   50.6754   41.3507 H   0  0  0  0  0
   37.9638   47.0325   37.8119 H   0  0  0  0  0
   38.6477   47.8770   36.3149 H   0  0  0  0  0
   39.5903   50.1759   34.4997 H   0  0  0  0  0
   38.3440   49.8219   35.7660 H   0  0  0  0  0
   38.7132   52.0743   36.7472 H   0  0  0  0  0
   42.4153   52.4027   35.9485 H   0  0  0  0  0
   41.2428   52.1647   37.3602 H   0  0  0  0  0
   42.3608   50.0983   36.9187 H   0  0  0  0  0
   41.9783   50.2088   35.1789 H   0  0  0  0  0
   36.4987   47.4504   42.5286 H   0  0  0  0  0
   37.8762   47.5645   43.6890 H   0  0  0  0  0
   40.2420   53.6520   35.7912 H   0  0  0  0  0
   40.6174   52.5608   34.4325 H   0  0  0  0  0
   37.8565   53.2793   34.8433 H   0  0  0  0  0
   38.3787   52.0884   33.8013 H   0  0  0  0  0
   37.1697   51.7621   34.9007 H   0  0  0  0  0
   33.7513   48.0042   35.7871 H   0  0  0  0  0
   33.6690   49.2248   37.0811 H   0  0  0  0  0
   34.1600   49.7017   35.4372 H   0  0  0  0  0
  2  1  4  0  0  0
  3  1  4  0  0  0
  6  2  4  0  0  0
  4  3  4  0  0  0
  5  4  4  0  0  0
  5  6  4  0  0  0
 18  5  1  0  0  0
  6 32  1  0  0  0
  8  7  4  0  0  0
  7 21  1  0  0  0
 23  7  4  0  0  0
  8  9  1  0  0  0
 25  8  4  0  0  0
  9 19  1  0  0  0
  9 22  2  0  0  0
 10 11  4  0  0  0
 20 10  4  0  0  0
 12 11  4  0  0  0
 21 12  4  0  0  0
 25 13  1  0  0  0
 13 29  1  0  0  0
 14 15  1  0  0  0
 26 14  1  0  0  0
 15 27  1  0  0  0
 15 28  1  0  0  0
 17 16  1  0  0  0
 16 27  1  0  0  0
 26 17  1  0  0  0
 19 18  1  0  0  0
 19 20  1  0  0  0
 21 20  4  0  0  0
 24 23  4  0  0  0
 24 25  4  0  0  0
 24 26  1  0  0  0
 29 30  3  0  0  0
 30 31  1  0  0  0
 32 33  3  0  0  0
  1 34  1  0  0  0
  2 35  1  0  0  0
  3 36  1  0  0  0
  4 37  1  0  0  0
 11 38  1  0  0  0
 12 39  1  0  0  0
 13 40  1  0  0  0
 13 41  1  0  0  0
 14 42  1  0  0  0
 14 43  1  0  0  0
 15 44  1  0  0  0
 16 45  1  0  0  0
 16 46  1  0  0  0
 17 47  1  0  0  0
 17 48  1  0  0  0
 18 49  1  0  0  0
 18 50  1  0  0  0
 27 51  1  0  0  0
 27 52  1  0  0  0
 28 53  1  0  0  0
 28 54  1  0  0  0
 28 55  1  0  0  0
 31 56  1  0  0  0
 31 57  1  0  0  0
 31 58  1  0  0  0
M  END
$$$$
