5tw3_ligand
  -I-interpret- 

 47 50  0  0  0  0  0  0  0  0999 V2000
  466.9810  -15.8280  124.5520 C   0  0  0  0  0
  467.6110  -15.9470  125.8190 C   0  0  0  0  0
  467.5310  -14.8980  126.7250 C   0  0  0  0  0
  466.8240  -13.7160  126.3760 C   0  0  0  0  0
  466.2080  -13.6110  125.1230 C   0  0  0  0  0
  466.2830  -14.6620  124.2100 C   0  0  0  0  0
  468.3300  -17.1590  126.1650 C   0  0  0  0  0
  468.9280  -17.2640  127.3850 C   0  0  0  0  0
  468.8580  -16.1840  128.3310 C   0  0  0  0  0
  468.1720  -15.0170  128.0110 C   0  0  0  0  0
  469.5380  -16.3310  129.6790 C   0  0  0  0  0
  470.0680  -16.4780  130.6990 N   0  0  0  0  0
  464.6520  -19.7580  124.6230 C   0  0  0  0  0
  465.9100  -16.8060  120.1190 C   0  0  0  0  0
  463.8080  -18.3260  121.6550 C   0  0  0  0  0
  463.1530  -19.1690  122.7800 C   0  0  0  0  0
  464.3710  -21.3930  122.8380 C   0  0  0  0  0
  465.8440  -21.8860  124.7230 C   0  0  0  0  0
  465.5120  -20.5730  125.2880 C   0  0  0  0  0
  464.0720  -20.1640  123.3890 N   0  0  0  0  0
  465.2350  -22.1710  123.5420 N   0  0  0  0  0
  467.0720  -16.9300  123.6210 O   0  0  0  0  0
  464.9190  -17.6570  122.2480 O   0  0  0  0  0
  463.9040  -21.7990  121.7770 O   0  0  0  0  0
  466.6120  -22.6830  125.2570 O   0  0  0  0  0
  467.0160  -16.1850  119.5020 C   0  0  0  0  0
  468.1460  -15.8090  120.2620 C   0  0  0  0  0
  468.1740  -16.0560  121.6510 C   0  0  0  0  0
  467.0620  -16.6820  122.2740 C   0  0  0  0  0
  465.9260  -17.0590  121.5200 C   0  0  0  0  0
  465.5350  -12.4940  124.7850 F   0  0  0  0  0
  467.0060  -16.0150  118.1750 F   0  0  0  0  0
  466.7611  -12.8900  127.0845 H   0  0  0  0  0
  465.8015  -14.5772  123.2358 H   0  0  0  0  0
  468.3915  -17.9815  125.4524 H   0  0  0  0  0
  469.4648  -18.1760  127.6461 H   0  0  0  0  0
  468.1194  -14.1977  128.7279 H   0  0  0  0  0
  464.4036  -18.7819  125.0397 H   0  0  0  0  0
  465.0432  -17.0922  119.5233 H   0  0  0  0  0
  463.0983  -17.6115  121.2381 H   0  0  0  0  0
  464.1288  -18.9594  120.8280 H   0  0  0  0  0
  462.3237  -19.7192  122.3354 H   0  0  0  0  0
  462.8474  -18.4810  123.5682 H   0  0  0  0  0
  465.9516  -20.2543  126.2331 H   0  0  0  0  0
  465.4530  -23.0801  123.1340 H   0  0  0  0  0
  468.9952  -15.3287  119.7760 H   0  0  0  0  0
  469.0435  -15.7682  122.2419 H   0  0  0  0  0
  1  2  4  0  0  0
  1  6  4  0  0  0
 22  1  1  0  0  0
  2  3  4  0  0  0
  2  7  4  0  0  0
  3  4  4  0  0  0
  3 10  4  0  0  0
  5  4  4  0  0  0
  6  5  4  0  0  0
  5 31  1  0  0  0
  7  8  4  0  0  0
  8  9  4  0  0  0
 10  9  4  0  0  0
  9 11  1  0  0  0
 11 12  3  0  0  0
 13 19  2  0  0  0
 20 13  1  0  0  0
 26 14  4  0  0  0
 14 30  4  0  0  0
 15 16  1  0  0  0
 23 15  1  0  0  0
 16 20  1  0  0  0
 20 17  1  0  0  0
 17 21  1  0  0  0
 17 24  2  0  0  0
 19 18  1  0  0  0
 21 18  1  0  0  0
 18 25  2  0  0  0
 29 22  1  0  0  0
 30 23  1  0  0  0
 27 26  4  0  0  0
 26 32  1  0  0  0
 28 27  4  0  0  0
 28 29  4  0  0  0
 29 30  4  0  0  0
  4 33  1  0  0  0
  6 34  1  0  0  0
  7 35  1  0  0  0
  8 36  1  0  0  0
 10 37  1  0  0  0
 13 38  1  0  0  0
 14 39  1  0  0  0
 15 40  1  0  0  0
 15 41  1  0  0  0
 16 42  1  0  0  0
 16 43  1  0  0  0
 19 44  1  0  0  0
 21 45  1  0  0  0
 27 46  1  0  0  0
 28 47  1  0  0  0
M  END
$$$$
