6bd1_ligand
  -I-interpret- 

102101  0  0  0  0  0  0  0  0999 V2000
    1.8670  -11.5860   25.2570 N   0  3  0  0  0
    1.2720  -10.5700   24.3970 C   0  0  0  0  0
    0.4520   -9.5700   25.2050 C   0  0  0  0  0
   -0.0980   -9.9060   26.2540 O   0  0  0  0  0
    0.3920  -11.2220   23.3290 C   0  0  0  0  0
    0.9050  -11.0310   21.9110 C   0  0  0  0  0
    0.0370  -11.7640   20.8970 C   0  0  0  0  0
   -1.3610  -11.3450   20.9620 N   0  0  0  0  0
   -1.8210  -10.1870   20.4960 C   0  0  0  0  0
   -3.1120   -9.8960   20.5990 N   0  0  0  0  0
   -0.9930   -9.3150   19.9350 N   0  0  0  0  0
    0.3790   -8.3390   24.7060 N   0  0  0  0  0
   -0.4040   -7.3060   25.3670 C   0  0  0  0  0
   -1.8950   -7.5720   25.1920 C   0  0  0  0  0
   -2.3330   -8.1920   24.2190 O   0  0  0  0  0
   -0.0560   -5.9260   24.8060 C   0  0  0  0  0
    1.3430   -5.7720   24.6470 O   0  0  0  0  0
   -2.6780   -7.0880   26.1510 N   0  0  0  0  0
   -4.1250   -7.2440   26.1150 C   0  0  0  0  0
   -4.7800   -5.9750   25.5850 C   0  0  0  0  0
   -4.5210   -4.8760   26.0780 O   0  0  0  0  0
   -4.6710   -7.5730   27.5070 C   0  0  0  0  0
   -4.0310   -8.7130   28.0530 O   0  0  0  0  0
   -5.6190   -6.1390   24.5680 N   0  0  0  0  0
   -6.4310   -5.0480   24.0460 C   0  0  0  0  0
   -6.3990   -5.0300   22.5180 C   0  0  0  0  0
   -6.9880   -6.2010   21.9820 O   0  0  0  0  0
   -7.8550   -5.2190   24.5580 C   0  0  0  0  0
   -8.1620   -6.2170   25.2040 O   0  0  0  0  0
   -6.6430   -6.3380   20.4160 P   0  0  0  0  0
   -7.2490   -5.0790   19.6180 O   0  0  0  0  0
   -5.0500   -6.3810   20.1960 O   0  0  0  0  0
   -7.2970   -7.7010   19.8580 O   0  0  0  0  0
   -8.7240   -4.2550   24.2770 N   0  0  0  0  0
  -10.0780   -4.3020   24.8170 C   0  0  0  0  0
  -10.8190   -5.5230   24.2870 C   0  0  0  0  0
  -10.5970   -5.9550   23.1560 O   0  0  0  0  0
  -10.8590   -3.0310   24.4770 C   0  0  0  0  0
  -12.0810   -2.8350   25.3640 C   0  0  0  0  0
  -13.5820   -2.4200   24.4530 S   0  0  0  0  0
  -13.4030   -0.6490   24.3040 C   0  0  0  0  0
  -11.7010   -6.0780   25.1210 N   0  0  0  0  0
  -12.4970   -7.2330   24.7260 C   0  0  0  0  0
  -13.4510   -6.9240   23.5800 C   0  0  0  0  0
  -13.9960   -7.8640   22.9910 O   0  0  0  0  0
  -13.2850   -7.7540   25.9300 C   0  0  0  0  0
  -13.6550   -5.6440   23.2610 N   0  0  0  0  0
  -14.5050   -5.1800   22.1560 C   0  0  0  0  0
  -15.4090   -6.2570   21.5610 C   0  0  0  0  0
  -16.5160   -5.9690   21.1070 O   0  0  0  0  0
  -13.6320   -4.5770   21.0590 C   0  0  0  0  0
  -15.0470   -7.4330   21.5250 O   0  0  0  0  0
    2.4495  -11.1343   25.9620 H   0  0  0  0  0
    1.1269  -12.1176   25.7154 H   0  0  0  0  0
    2.4393  -12.2144   24.6931 H   0  0  0  0  0
    2.0851  -10.0310   23.9107 H   0  0  0  0  0
   -0.5898  -10.7520   23.3855 H   0  0  0  0  0
    0.3789  -12.2935   23.5284 H   0  0  0  0  0
    1.9162  -11.4338   21.8536 H   0  0  0  0  0
    0.8830   -9.9666   21.6774 H   0  0  0  0  0
    0.0822  -12.8301   21.1197 H   0  0  0  0  0
    0.4136  -11.5352   19.9000 H   0  0  0  0  0
   -2.0293  -11.9833   21.3937 H   0  0  0  0  0
   -3.4636   -9.0053   20.2477 H   0  0  0  0  0
   -3.7524  -10.5631   21.0295 H   0  0  0  0  0
    0.0010   -9.5313   19.8596 H   0  0  0  0  0
    0.8801   -8.1157   23.8461 H   0  0  0  0  0
   -0.1629   -7.3261   26.4298 H   0  0  0  0  0
   -0.4110   -5.1682   25.5045 H   0  0  0  0  0
   -0.5297   -5.8190   23.8301 H   0  0  0  0  0
    1.5297   -4.8988   24.2944 H   0  0  0  0  0
   -2.2527   -6.5929   26.9348 H   0  0  0  0  0
   -4.3616   -8.0717   25.4464 H   0  0  0  0  0
   -5.7377   -7.7806   27.4219 H   0  0  0  0  0
   -4.4854   -6.7226   28.1631 H   0  0  0  0  0
   -4.3923   -8.8952   28.9235 H   0  0  0  0  0
   -5.6973   -7.0606   24.1379 H   0  0  0  0  0
   -6.0304   -4.0940   24.3887 H   0  0  0  0  0
   -5.3602   -4.9811   22.1914 H   0  0  0  0  0
   -6.9616   -4.1647   22.1675 H   0  0  0  0  0
   -8.2000   -5.0482   19.7457 H   0  0  0  0  0
   -8.2477   -7.6756   19.9892 H   0  0  0  0  0
   -8.4429   -3.4772   23.6800 H   0  0  0  0  0
   -9.9990   -4.3729   25.9018 H   0  0  0  0  0
  -11.2044   -3.1168   23.4467 H   0  0  0  0  0
  -10.1952   -2.1801   24.6301 H   0  0  0  0  0
  -11.8665   -2.0024   26.0340 H   0  0  0  0  0
  -12.2635   -3.7780   25.8793 H   0  0  0  0  0
  -13.3579   -0.2047   25.2983 H   0  0  0  0  0
  -12.4853   -0.4222   23.7614 H   0  0  0  0  0
  -14.2570   -0.2431   23.7617 H   0  0  0  0  0
  -11.8204   -5.6853   26.0548 H   0  0  0  0  0
  -11.8041   -7.9957   24.3706 H   0  0  0  0  0
  -12.5909   -8.0458   26.7182 H   0  0  0  0  0
  -13.9453   -6.9686   26.2979 H   0  0  0  0  0
  -13.8781   -8.6174   25.6284 H   0  0  0  0  0
  -13.1863   -4.9358   23.8260 H   0  0  0  0  0
  -15.1728   -4.4313   22.5822 H   0  0  0  0  0
  -13.0713   -3.7348   21.4645 H   0  0  0  0  0
  -12.9387   -5.3334   20.6912 H   0  0  0  0  0
  -14.2647   -4.2336   20.2406 H   0  0  0  0  0
  -14.1710   -7.5089   21.9102 H   0  0  0  0  0
  1  2  1  0  0  0
  2  3  1  0  0  0
  2  5  1  0  0  0
  3  4  2  0  0  0
  3 12  1  0  0  0
  5  6  1  0  0  0
  6  7  1  0  0  0
  7  8  1  0  0  0
  8  9  1  0  0  0
  9 10  1  0  0  0
  9 11  2  0  0  0
 12 13  1  0  0  0
 13 14  1  0  0  0
 13 16  1  0  0  0
 14 15  2  0  0  0
 14 18  1  0  0  0
 16 17  1  0  0  0
 18 19  1  0  0  0
 19 20  1  0  0  0
 19 22  1  0  0  0
 20 21  2  0  0  0
 20 24  1  0  0  0
 22 23  1  0  0  0
 24 25  1  0  0  0
 25 26  1  0  0  0
 25 28  1  0  0  0
 26 27  1  0  0  0
 27 30  1  0  0  0
 28 29  2  0  0  0
 28 34  1  0  0  0
 30 31  1  0  0  0
 30 32  2  0  0  0
 30 33  1  0  0  0
 34 35  1  0  0  0
 35 36  1  0  0  0
 35 38  1  0  0  0
 36 37  2  0  0  0
 36 42  1  0  0  0
 38 39  1  0  0  0
 39 40  1  0  0  0
 40 41  1  0  0  0
 42 43  1  0  0  0
 43 44  1  0  0  0
 43 46  1  0  0  0
 44 45  2  0  0  0
 44 47  1  0  0  0
 47 48  1  0  0  0
 48 49  1  0  0  0
 48 51  1  0  0  0
 49 50  2  0  0  0
 49 52  1  0  0  0
  1 53  1  0  0  0
  1 54  1  0  0  0
  1 55  1  0  0  0
  2 56  1  0  0  0
  5 57  1  0  0  0
  5 58  1  0  0  0
  6 59  1  0  0  0
  6 60  1  0  0  0
  7 61  1  0  0  0
  7 62  1  0  0  0
  8 63  1  0  0  0
 10 64  1  0  0  0
 10 65  1  0  0  0
 11 66  1  0  0  0
 12 67  1  0  0  0
 13 68  1  0  0  0
 16 69  1  0  0  0
 16 70  1  0  0  0
 17 71  1  0  0  0
 18 72  1  0  0  0
 19 73  1  0  0  0
 22 74  1  0  0  0
 22 75  1  0  0  0
 23 76  1  0  0  0
 24 77  1  0  0  0
 25 78  1  0  0  0
 26 79  1  0  0  0
 26 80  1  0  0  0
 31 81  1  0  0  0
 33 82  1  0  0  0
 34 83  1  0  0  0
 35 84  1  0  0  0
 38 85  1  0  0  0
 38 86  1  0  0  0
 39 87  1  0  0  0
 39 88  1  0  0  0
 41 89  1  0  0  0
 41 90  1  0  0  0
 41 91  1  0  0  0
 42 92  1  0  0  0
 43 93  1  0  0  0
 46 94  1  0  0  0
 46 95  1  0  0  0
 46 96  1  0  0  0
 47 97  1  0  0  0
 48 98  1  0  0  0
 51 99  1  0  0  0
 51100  1  0  0  0
 51101  1  0  0  0
 52102  1  0  0  0
M  END
$$$$
