### 
### Created by X-TOOL on Mon Aug  2 16:11:42 2021
### 

@<TRIPOS>MOLECULE
6bd1_ligand
  100    99     1     0     0
SMALL
GAST_HUCK


@<TRIPOS>ATOM
      1 N           1.8670  -11.5860   25.2570 N.4       1 ARG         0.2379
      2 CA          1.2720  -10.5700   24.3970 C.3       1 ARG         0.0651
      3 C           0.4520   -9.5700   25.2050 C.2       1 ARG         0.2268
      4 O          -0.0980   -9.9060   26.2540 O.2       1 ARG        -0.3907
      5 CB          0.3920  -11.2220   23.3290 C.3       1 ARG         0.0110
      6 CG          0.9050  -11.0310   21.9110 C.3       1 ARG        -0.0125
      7 CD          0.0370  -11.7640   20.8970 C.3       1 ARG         0.0629
      8 NE         -1.3610  -11.3450   20.9620 N.pl3     1 ARG        -0.2723
      9 CZ         -1.8210  -10.1870   20.4960 C.cat     1 ARG         0.2882
     10 NH1        -3.1120   -9.8960   20.5990 N.pl3     1 ARG        -0.2849
     11 NH2        -0.9930   -9.3150   19.9350 N.pl3     1 ARG        -0.2849
     12 N           0.3790   -8.3390   24.7060 N.am      1 ARG        -0.2589
     13 CA         -0.4040   -7.3060   25.3670 C.3       1 ARG         0.1540
     14 C          -1.8950   -7.5720   25.1920 C.2       1 ARG         0.2063
     15 O          -2.3330   -8.1920   24.2190 O.2       1 ARG        -0.3943
     16 CB         -0.0560   -5.9260   24.8060 C.3       1 ARG         0.0843
     17 OG          1.3430   -5.7720   24.6470 O.3       1 ARG        -0.3903
     18 N          -2.6780   -7.0880   26.1510 N.am      1 ARG        -0.2615
     19 CA         -4.1250   -7.2440   26.1150 C.3       1 ARG         0.1539
     20 C          -4.7800   -5.9750   25.5850 C.2       1 ARG         0.2063
     21 O          -4.5210   -4.8760   26.0780 O.2       1 ARG        -0.3943
     22 CB         -4.6710   -7.5730   27.5070 C.3       1 ARG         0.0843
     23 OG         -4.0310   -8.7130   28.0530 O.3       1 ARG        -0.3903
     24 N          -5.6190   -6.1390   24.5680 N.am      1 ARG        -0.2612
     25 CA         -6.4310   -5.0480   24.0460 C.3       1 ARG         0.1586
     26 CB         -6.3990   -5.0300   22.5180 C.3       1 ARG         0.1184
     27 OG         -6.9880   -6.2010   21.9820 O.3       1 ARG        -0.2714
     28 C          -7.8550   -5.2190   24.5580 C.2       1 ARG         0.2065
     29 O          -8.1620   -6.2170   25.2040 O.2       1 ARG        -0.3943
     30 P          -6.6430   -6.3380   20.4160 P.3       1 ARG         0.2010
     31 O1P        -7.2490   -5.0790   19.6180 O.co2     1 ARG        -0.5537
     32 O2P        -5.0500   -6.3810   20.1960 O.co2     1 ARG        -0.5537
     33 O3P        -7.2970   -7.7010   19.8580 O.co2     1 ARG        -0.5537
     34 N          -8.7240   -4.2550   24.2770 N.am      1 ARG        -0.2636
     35 CA        -10.0780   -4.3020   24.8170 C.3       1 ARG         0.1317
     36 C         -10.8190   -5.5230   24.2870 C.2       1 ARG         0.2039
     37 O         -10.5970   -5.9550   23.1560 O.2       1 ARG        -0.3944
     38 CB        -10.8590   -3.0310   24.4770 C.3       1 ARG        -0.0034
     39 CG        -12.0810   -2.8350   25.3640 C.3       1 ARG        -0.0024
     40 SD        -13.5820   -2.4200   24.4530 S.3       1 ARG        -0.1639
     41 CE        -13.4030   -0.6490   24.3040 C.3       1 ARG        -0.0181
     42 N         -11.7010   -6.0780   25.1210 N.am      1 ARG        -0.2640
     43 CA        -12.4970   -7.2330   24.7260 C.3       1 ARG         0.1282
     44 C         -13.4510   -6.9240   23.5800 C.2       1 ARG         0.2031
     45 O         -13.9960   -7.8640   22.9910 O.2       1 ARG        -0.3944
     46 CB        -13.2850   -7.7540   25.9300 C.3       1 ARG        -0.0244
     47 N         -13.6550   -5.6440   23.2610 N.am      1 ARG        -0.2698
     48 CA        -14.5050   -5.1800   22.1560 C.3       1 ARG         0.0916
     49 C         -15.4090   -6.2570   21.5610 C.2       1 ARG         0.0598
     50 O         -16.5160   -5.9690   21.1070 O.co2     1 ARG        -0.5666
     51 CB        -13.6320   -4.5770   21.0590 C.3       1 ARG        -0.0300
     52 OXT       -15.0470   -7.4330   21.5250 O.co2     1 ARG        -0.5666
     53 H1          2.4013  -12.2305   24.6955 H         1 ARG         0.2015
     54 H2          1.1375  -12.0863   25.7403 H         1 ARG         0.2015
     55 H3          2.4736  -11.1436   25.9296 H         1 ARG         0.2015
     56 H4          2.0850  -10.0253   23.8948 H         1 ARG         0.1098
     57 H5         -0.6152  -10.7848   23.3952 H         1 ARG         0.0347
     58 H6          0.3377  -12.3010   23.5357 H         1 ARG         0.0347
     59 H7          1.9324  -11.4189   21.8478 H         1 ARG         0.0302
     60 H8          0.9031   -9.9572   21.6723 H         1 ARG         0.0302
     61 H9          0.0928  -12.8440   21.0980 H         1 ARG         0.0689
     62 H10         0.4217  -11.5586   19.8872 H         1 ARG         0.0689
     63 H11        -2.0359  -11.9895   21.3979 H         1 ARG         0.2642
     64 H12        -3.4682   -8.9994   20.2382 H         1 ARG         0.2615
     65 H13        -3.7576  -10.5668   21.0397 H         1 ARG         0.2615
     66 H14         0.0096   -9.5362   19.8528 H         1 ARG         0.2615
     67 H15        -1.3529   -8.4169   19.5817 H         1 ARG         0.2615
     68 H16         0.8702   -8.1200   23.8629 H         1 ARG         0.1885
     69 H17        -0.1666   -7.3202   26.4410 H         1 ARG         0.0823
     70 H18        -0.4248   -5.1546   25.4980 H         1 ARG         0.0606
     71 H19        -0.5432   -5.8039   23.8274 H         1 ARG         0.0606
     72 H20         1.6670   -6.4330   24.0466 H         1 ARG         0.2097
     73 H21        -2.2610   -6.6027   26.9195 H         1 ARG         0.1884
     74 H22        -4.3696   -8.0755   25.4377 H         1 ARG         0.0823
     75 H23        -5.7506   -7.7696   27.4315 H         1 ARG         0.0606
     76 H24        -4.5004   -6.7133   28.1716 H         1 ARG         0.0606
     77 H25        -3.0982   -8.5473   28.1244 H         1 ARG         0.2097
     78 H26        -5.6957   -7.0425   24.1463 H         1 ARG         0.1884
     79 H27        -6.0294   -4.0930   24.4158 H         1 ARG         0.0827
     80 H28        -5.3537   -4.9672   22.1812 H         1 ARG         0.0662
     81 H29        -6.9539   -4.1514   22.1573 H         1 ARG         0.0662
     82 H30        -8.4484   -3.4924   23.6917 H         1 ARG         0.1883
     83 H31       -10.0091   -4.3830   25.9118 H         1 ARG         0.0800
     84 H32       -11.1907   -3.0917   23.4300 H         1 ARG         0.0320
     85 H33       -10.1922   -2.1649   24.6008 H         1 ARG         0.0320
     86 H34       -11.8687   -2.0205   26.0722 H         1 ARG         0.0378
     87 H35       -12.2593   -3.7672   25.9200 H         1 ARG         0.0378
     88 H36       -14.2643   -0.2382   23.7568 H         1 ARG         0.0340
     89 H37       -12.4771   -0.4188   23.7565 H         1 ARG         0.0340
     90 H38       -13.3574   -0.1994   25.3069 H         1 ARG         0.0340
     91 H39       -11.8181   -5.6930   26.0365 H         1 ARG         0.1883
     92 H40       -11.8078   -8.0220   24.3907 H         1 ARG         0.0797
     93 H41       -13.8840   -8.6254   25.6269 H         1 ARG         0.0277
     94 H42       -13.9518   -6.9623   26.3022 H         1 ARG         0.0277
     95 H43       -12.5857   -8.0488   26.7262 H         1 ARG         0.0277
     96 H44       -13.1955   -4.9497   23.8149 H         1 ARG         0.1875
     97 H45       -15.1567   -4.3879   22.5533 H         1 ARG         0.0723
     98 H46       -14.2694   -4.2300   20.2324 H         1 ARG         0.0270
     99 H47       -12.9319   -5.3394   20.6869 H         1 ARG         0.0270
    100 H48       -13.0656   -3.7269   21.4669 H         1 ARG         0.0270
@<TRIPOS>BOND
     1    1    2 1  
     2    2    3 1  
     3    2    5 1  
     4    3    4 2  
     5    3   12 am 
     6    5    6 1  
     7    6    7 1  
     8    7    8 1  
     9    8    9 ar 
    10    9   10 ar 
    11    9   11 ar 
    12   12   13 1  
    13   13   14 1  
    14   13   16 1  
    15   14   15 2  
    16   14   18 am 
    17   16   17 1  
    18   18   19 1  
    19   19   20 1  
    20   19   22 1  
    21   20   21 2  
    22   20   24 am 
    23   22   23 1  
    24   24   25 1  
    25   25   26 1  
    26   25   28 1  
    27   26   27 1  
    28   27   30 1  
    29   28   29 2  
    30   28   34 am 
    31   30   31 ar 
    32   30   32 ar 
    33   30   33 ar 
    34   34   35 1  
    35   35   36 1  
    36   35   38 1  
    37   36   37 2  
    38   36   42 am 
    39   38   39 1  
    40   39   40 1  
    41   40   41 1  
    42   42   43 1  
    43   43   44 1  
    44   43   46 1  
    45   44   45 2  
    46   44   47 am 
    47   47   48 1  
    48   48   49 1  
    49   48   51 1  
    50   49   50 ar 
    51   49   52 ar 
    52    1   53 1  
    53    1   54 1  
    54    1   55 1  
    55    2   56 1  
    56    5   57 1  
    57    5   58 1  
    58    6   59 1  
    59    6   60 1  
    60    7   61 1  
    61    7   62 1  
    62    8   63 1  
    63   10   64 1  
    64   10   65 1  
    65   11   66 1  
    66   11   67 1  
    67   12   68 1  
    68   13   69 1  
    69   16   70 1  
    70   16   71 1  
    71   17   72 1  
    72   18   73 1  
    73   19   74 1  
    74   22   75 1  
    75   22   76 1  
    76   23   77 1  
    77   24   78 1  
    78   25   79 1  
    79   26   80 1  
    80   26   81 1  
    81   34   82 1  
    82   35   83 1  
    83   38   84 1  
    84   38   85 1  
    85   39   86 1  
    86   39   87 1  
    87   41   88 1  
    88   41   89 1  
    89   41   90 1  
    90   42   91 1  
    91   43   92 1  
    92   46   93 1  
    93   46   94 1  
    94   46   95 1  
    95   47   96 1  
    96   48   97 1  
    97   51   98 1  
    98   51   99 1  
    99   51  100 1  
@<TRIPOS>SUBSTRUCTURE
     1 ARG         1

