4k2f_ligand
  -I-interpret- 

 25 26  0  0  0  0  0  0  0  0999 V2000
   35.4930   44.6440   58.9170 Cl  0  0  0  0  0
   35.8740   46.1090   57.9770 C   0  0  0  0  0
   35.2790   47.3460   58.2010 C   0  0  0  0  0
   35.7250   48.3990   57.3160 C   0  0  0  0  0
   36.7300   48.1600   56.3670 C   0  0  0  0  0
   37.3210   46.9120   56.2050 C   0  0  0  0  0
   36.9040   45.8980   57.0370 C   0  0  0  0  0
   37.2380   49.2120   55.4420 C   0  0  0  0  0
   36.2120   50.2810   55.3830 C   0  0  0  0  0
   35.2510   50.1140   54.4080 C   0  0  0  0  0
   34.2500   50.9890   54.1620 C   0  0  0  0  0
   34.2470   52.0470   54.9870 C   0  0  0  0  0
   35.2350   52.1150   55.9330 C   0  0  0  0  0
   36.2490   51.3160   56.2110 N   0  0  0  0  0
   35.0070   53.4860   56.8460 Cl  0  0  0  0  0
   38.5690   49.7650   55.8340 C   0  0  0  0  0
   39.6170   50.1720   56.1420 N   0  0  0  0  0
   34.5357   47.5087   58.9815 H   0  0  0  0  0
   35.2753   49.3894   57.3871 H   0  0  0  0  0
   38.0861   46.7429   55.4473 H   0  0  0  0  0
   37.3765   44.9181   56.9684 H   0  0  0  0  0
   37.4027   48.7644   54.4619 H   0  0  0  0  0
   35.3019   49.2151   53.7937 H   0  0  0  0  0
   33.5155   50.8483   53.3690 H   0  0  0  0  0
   33.4864   52.8237   54.9073 H   0  0  0  0  0
  1  2  1  0  0  0
  2  3  4  0  0  0
  2  7  4  0  0  0
  3  4  4  0  0  0
  4  5  4  0  0  0
  5  6  4  0  0  0
  5  8  1  0  0  0
  6  7  4  0  0  0
  8  9  1  0  0  0
  8 16  1  0  0  0
  9 10  4  0  0  0
  9 14  4  0  0  0
 10 11  4  0  0  0
 11 12  4  0  0  0
 12 13  4  0  0  0
 13 14  4  0  0  0
 13 15  1  0  0  0
 16 17  3  0  0  0
  3 18  1  0  0  0
  4 19  1  0  0  0
  6 20  1  0  0  0
  7 21  1  0  0  0
  8 22  1  0  0  0
 10 23  1  0  0  0
 11 24  1  0  0  0
 12 25  1  0  0  0
M  END
$$$$
