4mm5_ligand
  -I-interpret- 

 38 40  0  0  0  0  0  0  0  0999 V2000
  180.4610  -14.3790   96.8770 Cl  0  0  0  0  0
  181.1120  -15.2920   98.1840 C   0  0  0  0  0
  180.2820  -15.8700   99.0060 C   0  0  0  0  0
  178.5600  -15.7090   98.7710 Cl  0  0  0  0  0
  182.4300  -15.3690   98.2930 C   0  0  0  0  0
  182.9690  -16.1150   99.3640 C   0  0  0  0  0
  182.0840  -16.7890  100.3340 C   0  0  0  0  0
  180.7160  -16.5990  100.0350 C   0  0  0  0  0
  182.6000  -17.6550  101.5270 C   0  0  0  0  0
  183.5690  -18.5400  100.9990 C   0  0  0  0  0
  183.3230  -19.2800   99.6730 C   0  0  0  0  0
  184.2060  -20.1390   99.1390 C   0  0  0  0  0
  185.2570  -20.4030   99.6370 C   0  0  0  0  0
  185.6410  -19.9250  100.6950 C   0  0  0  0  0
  184.9010  -19.0110  101.4340 C   0  0  0  0  0
  185.3850  -18.3780  102.7580 C   0  0  0  0  0
  186.7030  -18.1300  102.6010 N   0  3  0  0  0
  186.9020  -16.8280  102.0040 C   0  0  0  0  0
  184.7200  -16.9390  103.0510 C   0  0  0  0  0
  183.2190  -16.8190  102.5850 C   0  0  0  0  0
  183.0810  -14.8699   97.5752 H   0  0  0  0  0
  184.0504  -16.1939   99.4756 H   0  0  0  0  0
  179.9762  -17.0735  100.6797 H   0  0  0  0  0
  181.7661  -18.1868  101.9851 H   0  0  0  0  0
  182.3884  -19.0985   99.1423 H   0  0  0  0  0
  183.9476  -20.6225   98.1969 H   0  0  0  0  0
  185.9098  -21.1076   99.1218 H   0  0  0  0  0
  186.6143  -20.2321  101.0779 H   0  0  0  0  0
  185.1287  -19.0606  103.5682 H   0  0  0  0  0
  187.1048  -18.8411  101.9900 H   0  0  0  0  0
  187.1564  -18.1499  103.5145 H   0  0  0  0  0
  186.4155  -16.7986  101.0290 H   0  0  0  0  0
  186.4703  -16.0636  102.6501 H   0  0  0  0  0
  187.9697  -16.6439  101.8844 H   0  0  0  0  0
  185.2922  -16.1987  102.4918 H   0  0  0  0  0
  184.7362  -16.7893  104.1306 H   0  0  0  0  0
  182.6692  -17.1200  103.4768 H   0  0  0  0  0
  183.1855  -15.8209  102.1482 H   0  0  0  0  0
  1  2  1  0  0  0
  2  3  4  0  0  0
  2  5  4  0  0  0
  3  4  1  0  0  0
  3  8  4  0  0  0
  5  6  4  0  0  0
  6  7  4  0  0  0
  7  8  4  0  0  0
  7  9  1  0  0  0
  9 10  1  0  0  0
  9 20  1  0  0  0
 10 11  4  0  0  0
 10 15  4  0  0  0
 11 12  4  0  0  0
 12 13  4  0  0  0
 13 14  4  0  0  0
 14 15  4  0  0  0
 15 16  1  0  0  0
 16 17  1  0  0  0
 16 19  1  0  0  0
 17 18  1  0  0  0
 19 20  1  0  0  0
  5 21  1  0  0  0
  6 22  1  0  0  0
  8 23  1  0  0  0
  9 24  1  0  0  0
 11 25  1  0  0  0
 12 26  1  0  0  0
 13 27  1  0  0  0
 14 28  1  0  0  0
 16 29  1  0  0  0
 17 30  1  0  0  0
 17 31  1  0  0  0
 18 32  1  0  0  0
 18 33  1  0  0  0
 18 34  1  0  0  0
 19 35  1  0  0  0
 19 36  1  0  0  0
 20 37  1  0  0  0
 20 38  1  0  0  0
M  END
$$$$
