#	Name:			6q37_ligand
#	Creating user name:	wangrx
#	Creation time:		Thu Aug  5 18:03:07 2021

#	Modifying user name:	wangrx
#	Modification time:	Thu Aug  5 18:03:46 2021

@<TRIPOS>MOLECULE
6q37_ligand
   38    38     1     0     0
SMALL
GAST_HUCK


@<TRIPOS>ATOM
      1 C11        35.6210   85.8320   71.5430 C.3       1 HE8        -0.0255 
      2 C13        33.9940   88.6580   71.4910 C.2       1 HE8         0.1018 
      3 O14        35.0200   88.9360   72.1690 O.co2     1 HE8        -0.5420 
      4 O15        33.2730   89.5390   70.9490 O.co2     1 HE8        -0.5420 
      5 B6         37.3660   86.6810   66.1070 B         1 HE8         4.0000 
      6 C1         33.6100   87.2000   71.3430 C.3       1 HE8         0.0803 
      7 C2         34.6630   86.4420   70.5160 C.3       1 HE8         0.0526 
      8 C3         35.4290   87.2690   69.4810 C.3       1 HE8        -0.0674 
      9 C4         36.2040   86.4220   68.4540 C.3       1 HE8        -0.1821 
     10 C5         37.0090   87.3360   67.5130 C.3       1 HE8        -0.3457 
     11 C9         33.6250   86.5690   72.7500 C.3       1 HE8         0.0192 
     12 N10        34.8330   85.7650   72.7700 N.4       1 HE8         0.2311 
     13 N12        32.2660   87.0470   70.7450 N.4       1 HE8         0.2271 
     14 O16        36.3280   85.8250   65.4300 O.3       1 HE8        -0.4105 
     15 O7         38.4330   85.6250   66.5130 O.3       1 HE8        -0.4105 
     16 O8         38.1350   87.5520   65.1360 O.3       1 HE8        -0.4105 
     17 H1         36.5047   86.4723   71.6811 H         1 HE8         0.0817 
     18 H2         35.9414   84.8275   71.2295 H         1 HE8         0.0817 
     19 H3         34.1536   85.6337   69.9710 H         1 HE8         0.0405 
     20 H4         36.1470   87.9105   70.0130 H         1 HE8         0.0246 
     21 H5         34.7081   87.8976   68.9378 H         1 HE8         0.0246 
     22 H6         35.4926   85.8271   67.8624 H         1 HE8        -0.0084 
     23 H7         36.8933   85.7485   68.9842 H         1 HE8        -0.0084 
     24 H8         37.9537   86.8421   67.2417 H         1 HE8        -0.2101 
     25 H9         37.2253   88.2868   68.0220 H         1 HE8        -0.2101 
     26 H11        32.7359   85.9401   72.9044 H         1 HE8         0.0865 
     27 H12        33.6625   87.3478   73.5259 H         1 HE8         0.0865 
     28 H13        35.4101   86.0818   73.5333 H         1 HE8         0.2015 
     29 H14        34.5699   84.8042   72.9239 H         1 HE8         0.2015 
     30 H15        32.2584   87.4600   69.8255 H         1 HE8         0.2001 
     31 H16        31.5848   87.5093   71.3266 H         1 HE8         0.2001 
     32 H17        32.0388   86.0674   70.6752 H         1 HE8         0.2001 
     33 H18        35.7025   86.3824   64.9822 H         1 HE8         0.2052 
     34 H19        35.7025   86.3824   64.9822 H         1 HE8         0.2052 
     35 H20        38.7578   85.1890   65.7340 H         1 HE8         0.2052 
     36 H21        38.7578   85.1889   65.7339 H         1 HE8         0.2052 
     37 H22        37.5314   88.1303   64.6847 H         1 HE8         0.2052 
     38 H23        37.5314   88.1303   64.6847 H         1 HE8         0.2052 
@<TRIPOS>BOND
     1    7    1 1    
     2    1   12 1    
     3    2    3 ar   
     4    2    4 ar   
     5    6    2 1    
     6   10    5 1    
     7    5   14 1    
     8    5   16 1    
     9    7    6 1    
    10    6   11 1    
    11    6   13 1    
    12    8    7 1    
    13    9    8 1    
    14    9   10 1    
    15   11   12 1    
    16    5   15 1    
    17    1   17 1    
    18    1   18 1    
    19    7   19 1    
    20    8   20 1    
    21    8   21 1    
    22    9   22 1    
    23    9   23 1    
    24   10   24 1    
    25   10   25 1    
    26   11   26 1    
    27   11   27 1    
    28   12   28 1    
    29   12   29 1    
    30   13   30 1    
    31   13   31 1    
    32   13   32 1    
    33   14   33 1    
    34   14   34 1    
    35   15   35 1    
    36   15   36 1    
    37   16   37 1    
    38   16   38 1    
@<TRIPOS>SUBSTRUCTURE
     1 HE8         1 PERM              0 ****  ****    0 ROOT 
