6q37_ligand

Created by X-TOOL on Mon Aug  2 16:11:26 2021
 39 39  0  0  0  0  0  0  0  0999 V2000
   35.6210   85.8320   71.5430  C 0  0  0  3  0  4
   33.9940   88.6580   71.4910  C 0  5  0  1  0  3
   35.0200   88.9360   72.1690  O 0  0  0  1  0  1
   33.2730   89.5390   70.9490  O 0  0  0  1  0  1
   37.3660   86.6810   66.1070  B 0  0  0  1  0  4
   33.6100   87.2000   71.3430  C 0  0  0  1  0  4
   34.6630   86.4420   70.5160  C 0  0  0  2  0  4
   35.4290   87.2690   69.4810  C 0  0  0  3  0  4
   36.2040   86.4220   68.4540  C 0  0  0  3  0  4
   37.0090   87.3360   67.5130  C 0  0  0  4  0  5
   33.6250   86.5690   72.7500  C 0  0  0  3  0  4
   34.8330   85.7650   72.7700  N 0  3  0  3  0  4
   32.2660   87.0470   70.7450  N 0  3  0  4  0  4
   36.3280   85.8250   65.4300  O 0  0  0  3  0  3
   38.4330   85.6250   66.5130  O 0  0  0  3  0  3
   38.1350   87.5520   65.1360  O 0  0  0  3  0  3
   36.5047   86.4723   71.6811  H 0  0  0  1  0  1
   35.9414   84.8275   71.2295  H 0  0  0  1  0  1
   34.1536   85.6337   69.9710  H 0  0  0  1  0  1
   36.1470   87.9105   70.0130  H 0  0  0  1  0  1
   34.7081   87.8976   68.9378  H 0  0  0  1  0  1
   35.4926   85.8271   67.8624  H 0  0  0  1  0  1
   36.8933   85.7485   68.9842  H 0  0  0  1  0  1
   37.9537   86.8421   67.2417  H 0  0  0  1  0  1
   37.2253   88.2868   68.0220  H 0  0  0  1  0  1
   36.4232   87.5323   66.6029  H 0  0  0  1  0  1
   32.7359   85.9401   72.9044  H 0  0  0  1  0  1
   33.6625   87.3478   73.5259  H 0  0  0  1  0  1
   35.4101   86.0818   73.5333  H 0  0  0  1  0  1
   34.5699   84.8042   72.9239  H 0  0  0  1  0  1
   32.2584   87.4600   69.8255  H 0  0  0  1  0  1
   31.5848   87.5093   71.3266  H 0  0  0  1  0  1
   32.0388   86.0674   70.6752  H 0  0  0  1  0  1
   35.7025   86.3824   64.9822  H 0  0  0  1  0  1
   35.7025   86.3824   64.9822  H 0  0  0  1  0  1
   38.7578   85.1890   65.7340  H 0  0  0  1  0  1
   38.7578   85.1889   65.7339  H 0  0  0  1  0  1
   37.5314   88.1303   64.6847  H 0  0  0  1  0  1
   37.5314   88.1303   64.6847  H 0  0  0  1  0  1
  7  1  1  0  0  1
  1 12  1  0  0  1
  2  3  2  0  0  2
  2  4  2  0  0  2
  6  2  1  0  0  2
 10  5  1  0  0  2
  5 14  1  0  0  2
  5 16  1  0  0  2
  7  6  1  0  0  1
  6 11  1  0  0  1
  6 13  1  0  0  2
  8  7  1  0  0  2
  9  8  1  0  0  2
  9 10  1  0  0  2
 11 12  1  0  0  1
  5 15  1  0  0  2
  1 17  1  0  0  2
  1 18  1  0  0  2
  7 19  1  0  0  2
  8 20  1  0  0  2
  8 21  1  0  0  2
  9 22  1  0  0  2
  9 23  1  0  0  2
 10 24  1  0  0  2
 10 25  1  0  0  2
 10 26  1  0  0  2
 11 27  1  0  0  2
 11 28  1  0  0  2
 12 29  1  0  0  2
 12 30  1  0  0  2
 13 31  1  0  0  2
 13 32  1  0  0  2
 13 33  1  0  0  2
 14 34  1  0  0  2
 14 35  1  0  0  2
 15 36  1  0  0  2
 15 37  1  0  0  2
 16 38  1  0  0  2
 16 39  1  0  0  2
M  END
> <MOLECULAR_FORMULA>
C8H23N2O5B

> <MOLECULAR_WEIGHT>
237.9

> <NUM_HB_ATOMS>
7  

> <NUM_ROTOR>
4  

> <XLOGP2>
-4.57

$$$$
