### 
### Created by X-TOOL on Mon Sep 10 21:13:18 2018
### 

@<TRIPOS>MOLECULE
3wcl_ligand
   67    67     1     0     0
SMALL
GAST_HUCK


@<TRIPOS>ATOM
      1 OAD       -19.6040   43.6550  -53.5180 O.co2     1 BH3        -0.5611
      2 PBC       -20.3370   45.0050  -53.0370 P.3       1 BH3         0.0789
      3 OAE       -20.2960   44.9800  -51.4270 O.co2     1 BH3        -0.5611
      4 OAB       -21.7160   45.1050  -53.5650 O.co2     1 BH3        -0.5611
      5 CAZ       -19.2460   46.3870  -53.5630 C.3       1 BH3         0.1132
      6 PBD       -18.9900   46.2320  -55.3760 P.3       1 BH3         0.0789
      7 OAF       -19.9080   47.3460  -56.0880 O.co2     1 BH3        -0.5611
      8 OAG       -17.4640   46.6660  -55.6470 O.co2     1 BH3        -0.5611
      9 OAC       -19.2830   44.8670  -55.8650 O.co2     1 BH3        -0.5611
     10 CAY       -17.9020   46.2560  -52.8400 C.3       1 BH3         0.0536
     11 NBB       -17.1090   47.5070  -52.8610 N.2       1 BH3        -0.2676
     12 CAJ       -17.1940   48.4730  -51.9450 C.2       1 BH3         0.1885
     13 CAI       -16.1460   47.8350  -53.7160 C.2       1 BH3         0.1185
     14 CAH       -15.6420   49.0080  -53.3400 C.2       1 BH3         0.1816
     15 NBA       -16.3000   49.4030  -52.2500 N.pl3     1 BH3        -0.1380
     16 CAX       -16.1670   50.7230  -51.5920 C.3       1 BH3         0.0877
     17 CAW       -15.2580   50.6350  -50.3650 C.3       1 BH3        -0.0215
     18 CAV       -15.8710   49.6830  -49.3350 C.3       1 BH3        -0.0503
     19 CAU       -14.9760   49.6400  -48.0980 C.3       1 BH3        -0.0530
     20 CAT       -13.6610   48.9270  -48.4310 C.3       1 BH3        -0.0531
     21 CAS       -13.8720   47.4160  -48.3520 C.3       1 BH3        -0.0531
     22 CAR       -12.5680   46.6870  -48.6950 C.3       1 BH3        -0.0531
     23 CAQ       -12.6640   45.2260  -48.2530 C.3       1 BH3        -0.0531
     24 CAP       -12.8100   45.1850  -46.7280 C.3       1 BH3        -0.0531
     25 CAO       -12.9900   43.7510  -46.2270 C.3       1 BH3        -0.0531
     26 CAN       -13.2500   43.7830  -44.7190 C.3       1 BH3        -0.0531
     27 CAM       -13.5330   42.3710  -44.2000 C.3       1 BH3        -0.0531
     28 CAL       -13.7760   42.4270  -42.6910 C.3       1 BH3        -0.0533
     29 CAK       -14.0250   41.0160  -42.1530 C.3       1 BH3        -0.0559
     30 CAA       -14.1830   41.0760  -40.6330 C.3       1 BH3        -0.0653
     31 H         -19.7097   47.3555  -53.3246 H         1 BH3         0.0688
     32 H         -17.3174   45.4622  -53.3280 H         1 BH3         0.0449
     33 H         -18.0929   45.9796  -51.7926 H         1 BH3         0.0449
     34 H         -17.8768   48.4939  -51.0969 H         1 BH3         0.1987
     35 H         -15.8252   47.2467  -54.5744 H         1 BH3         0.1406
     36 H         -14.8362   49.5485  -53.8344 H         1 BH3         0.2017
     37 H         -17.1624   51.0703  -51.2780 H         1 BH3         0.0657
     38 H         -15.7373   51.4398  -52.3072 H         1 BH3         0.0657
     39 H         -15.1483   51.6345  -49.9190 H         1 BH3         0.0294
     40 H         -14.2700   50.2583  -50.6683 H         1 BH3         0.0294
     41 H         -15.9504   48.6746  -49.7671 H         1 BH3         0.0266
     42 H         -16.8721   50.0409  -49.0528 H         1 BH3         0.0266
     43 H         -15.4921   49.0963  -47.2930 H         1 BH3         0.0265
     44 H         -14.7607   50.6668  -47.7675 H         1 BH3         0.0265
     45 H         -12.8869   49.2281  -47.7099 H         1 BH3         0.0265
     46 H         -13.3417   49.2007  -49.4474 H         1 BH3         0.0265
     47 H         -14.6541   47.1194  -49.0664 H         1 BH3         0.0265
     48 H         -14.1841   47.1444  -47.3328 H         1 BH3         0.0265
     49 H         -11.7295   47.1724  -48.1741 H         1 BH3         0.0265
     50 H         -12.3994   46.7303  -49.7811 H         1 BH3         0.0265
     51 H         -11.7528   44.6876  -48.5526 H         1 BH3         0.0265
     52 H         -13.5399   44.7538  -48.7219 H         1 BH3         0.0265
     53 H         -13.6879   45.7798  -46.4356 H         1 BH3         0.0265
     54 H         -11.9069   45.6143  -46.2696 H         1 BH3         0.0265
     55 H         -12.0784   43.1707  -46.4325 H         1 BH3         0.0265
     56 H         -13.8446   43.2851  -46.7394 H         1 BH3         0.0265
     57 H         -14.1185   44.4261  -44.5138 H         1 BH3         0.0265
     58 H         -12.3648   44.1876  -44.2064 H         1 BH3         0.0265
     59 H         -12.6695   41.7225  -44.4094 H         1 BH3         0.0265
     60 H         -14.4250   41.9671  -44.7011 H         1 BH3         0.0265
     61 H         -14.6545   43.0563  -42.4857 H         1 BH3         0.0265
     62 H         -12.8933   42.8565  -42.1947 H         1 BH3         0.0265
     63 H         -13.1727   40.3694  -42.4087 H         1 BH3         0.0263
     64 H         -14.9425   40.6080  -42.6021 H         1 BH3         0.0263
     65 H         -14.3622   40.0633  -40.2428 H         1 BH3         0.0230
     66 H         -15.0352   41.7232  -40.3782 H         1 BH3         0.0230
     67 H         -13.2653   41.4846  -40.1848 H         1 BH3         0.0230
@<TRIPOS>BOND
     1    1    2 ar 
     2    2    3 ar 
     3    2    4 ar 
     4    2    5 1  
     5    5    6 1  
     6    5   10 1  
     7    6    7 ar 
     8    6    8 ar 
     9    6    9 ar 
    10   10   11 1  
    11   11   12 2  
    12   11   13 1  
    13   12   15 1  
    14   13   14 2  
    15   14   15 1  
    16   15   16 1  
    17   16   17 1  
    18   17   18 1  
    19   18   19 1  
    20   19   20 1  
    21   20   21 1  
    22   21   22 1  
    23   22   23 1  
    24   23   24 1  
    25   24   25 1  
    26   25   26 1  
    27   26   27 1  
    28   27   28 1  
    29   28   29 1  
    30   29   30 1  
    31    5   31 1  
    32   10   32 1  
    33   10   33 1  
    34   12   34 1  
    35   13   35 1  
    36   14   36 1  
    37   16   37 1  
    38   16   38 1  
    39   17   39 1  
    40   17   40 1  
    41   18   41 1  
    42   18   42 1  
    43   19   43 1  
    44   19   44 1  
    45   20   45 1  
    46   20   46 1  
    47   21   47 1  
    48   21   48 1  
    49   22   49 1  
    50   22   50 1  
    51   23   51 1  
    52   23   52 1  
    53   24   53 1  
    54   24   54 1  
    55   25   55 1  
    56   25   56 1  
    57   26   57 1  
    58   26   58 1  
    59   27   59 1  
    60   27   60 1  
    61   28   61 1  
    62   28   62 1  
    63   29   63 1  
    64   29   64 1  
    65   30   65 1  
    66   30   66 1  
    67   30   67 1  
@<TRIPOS>SUBSTRUCTURE
     1 BH3         1

