3wcl_ligand
  -I-interpret- 

 71 71  0  0  0  0  0  0  0  0999 V2000
  -19.6040   43.6550  -53.5180 O   0  0  0  0  0
  -20.3370   45.0050  -53.0370 P   0  0  0  0  0
  -20.2960   44.9800  -51.4270 O   0  0  0  0  0
  -21.7160   45.1050  -53.5650 O   0  0  0  0  0
  -19.2460   46.3870  -53.5630 C   0  0  0  0  0
  -18.9900   46.2320  -55.3760 P   0  0  0  0  0
  -19.9080   47.3460  -56.0880 O   0  0  0  0  0
  -17.4640   46.6660  -55.6470 O   0  0  0  0  0
  -19.2830   44.8670  -55.8650 O   0  0  0  0  0
  -17.9020   46.2560  -52.8400 C   0  0  0  0  0
  -17.1090   47.5070  -52.8610 N   0  3  0  0  0
  -17.1940   48.4730  -51.9450 C   0  0  0  0  0
  -16.1460   47.8350  -53.7160 C   0  0  0  0  0
  -15.6420   49.0080  -53.3400 C   0  0  0  0  0
  -16.3000   49.4030  -52.2500 N   0  0  0  0  0
  -16.1670   50.7230  -51.5920 C   0  0  0  0  0
  -15.2580   50.6350  -50.3650 C   0  0  0  0  0
  -15.8710   49.6830  -49.3350 C   0  0  0  0  0
  -14.9760   49.6400  -48.0980 C   0  0  0  0  0
  -13.6610   48.9270  -48.4310 C   0  0  0  0  0
  -13.8720   47.4160  -48.3520 C   0  0  0  0  0
  -12.5680   46.6870  -48.6950 C   0  0  0  0  0
  -12.6640   45.2260  -48.2530 C   0  0  0  0  0
  -12.8100   45.1850  -46.7280 C   0  0  0  0  0
  -12.9900   43.7510  -46.2270 C   0  0  0  0  0
  -13.2500   43.7830  -44.7190 C   0  0  0  0  0
  -13.5330   42.3710  -44.2000 C   0  0  0  0  0
  -13.7760   42.4270  -42.6910 C   0  0  0  0  0
  -14.0250   41.0160  -42.1530 C   0  0  0  0  0
  -14.1830   41.0760  -40.6330 C   0  0  0  0  0
  -18.7154   43.6282  -53.1557 H   0  0  0  0  0
  -19.3847   44.9147  -51.1322 H   0  0  0  0  0
  -19.6895   47.3535  -53.3236 H   0  0  0  0  0
  -19.6842   48.2128  -55.7412 H   0  0  0  0  0
  -17.3214   47.5551  -55.3141 H   0  0  0  0  0
  -17.3231   45.4873  -53.3520 H   0  0  0  0  0
  -18.1080   46.0109  -51.7981 H   0  0  0  0  0
  -17.8775   48.4939  -51.0961 H   0  0  0  0  0
  -15.8249   47.2462  -54.5752 H   0  0  0  0  0
  -14.8354   49.5490  -53.8348 H   0  0  0  0  0
  -17.1546   51.0554  -51.2723 H   0  0  0  0  0
  -15.7292   51.4249  -52.3018 H   0  0  0  0  0
  -15.1517   51.6255  -49.9227 H   0  0  0  0  0
  -14.2800   50.2597  -50.6664 H   0  0  0  0  0
  -15.9529   48.6838  -49.7628 H   0  0  0  0  0
  -16.8643   50.0349  -49.0564 H   0  0  0  0  0
  -15.4876   49.0982  -47.3025 H   0  0  0  0  0
  -14.7611   50.6583  -47.7739 H   0  0  0  0  0
  -12.8930   49.2260  -47.7177 H   0  0  0  0  0
  -13.3432   49.1989  -49.4375 H   0  0  0  0  0
  -14.6445   47.1237  -49.0633 H   0  0  0  0  0
  -14.1774   47.1486  -47.3404 H   0  0  0  0  0
  -11.7379   47.1677  -48.1774 H   0  0  0  0  0
  -12.4024   46.7291  -49.7715 H   0  0  0  0  0
  -11.7656   44.6873  -48.5544 H   0  0  0  0  0
  -13.5270   44.7526  -48.7213 H   0  0  0  0  0
  -13.6897   45.7642  -46.4473 H   0  0  0  0  0
  -11.9059   45.5985  -46.2810 H   0  0  0  0  0
  -12.0899   43.1722  -46.4340 H   0  0  0  0  0
  -13.8332   43.2852  -46.7369 H   0  0  0  0  0
  -14.1148   44.4158  -44.5199 H   0  0  0  0  0
  -12.3688   44.1784  -44.2138 H   0  0  0  0  0
  -12.6785   41.7273  -44.4085 H   0  0  0  0  0
  -14.4159   41.9694  -44.6973 H   0  0  0  0  0
  -14.6484   43.0486  -42.4894 H   0  0  0  0  0
  -12.8995   42.8502  -42.2004 H   0  0  0  0  0
  -13.1816   40.3741  -42.4074 H   0  0  0  0  0
  -14.9331   40.6102  -42.5988 H   0  0  0  0  0
  -13.2731   41.4810  -40.1901 H   0  0  0  0  0
  -15.0276   41.7176  -40.3818 H   0  0  0  0  0
  -14.3605   40.0720  -40.2475 H   0  0  0  0  0
  1  2  1  0  0  0
  2  3  1  0  0  0
  2  4  2  0  0  0
  2  5  1  0  0  0
  5  6  1  0  0  0
  5 10  1  0  0  0
  6  7  1  0  0  0
  6  8  1  0  0  0
  6  9  2  0  0  0
 10 11  1  0  0  0
 11 12  4  0  0  0
 11 13  4  0  0  0
 12 15  4  0  0  0
 13 14  4  0  0  0
 14 15  4  0  0  0
 15 16  1  0  0  0
 16 17  1  0  0  0
 17 18  1  0  0  0
 18 19  1  0  0  0
 19 20  1  0  0  0
 20 21  1  0  0  0
 21 22  1  0  0  0
 22 23  1  0  0  0
 23 24  1  0  0  0
 24 25  1  0  0  0
 25 26  1  0  0  0
 26 27  1  0  0  0
 27 28  1  0  0  0
 28 29  1  0  0  0
 29 30  1  0  0  0
  1 31  1  0  0  0
  3 32  1  0  0  0
  5 33  1  0  0  0
  7 34  1  0  0  0
  8 35  1  0  0  0
 10 36  1  0  0  0
 10 37  1  0  0  0
 12 38  1  0  0  0
 13 39  1  0  0  0
 14 40  1  0  0  0
 16 41  1  0  0  0
 16 42  1  0  0  0
 17 43  1  0  0  0
 17 44  1  0  0  0
 18 45  1  0  0  0
 18 46  1  0  0  0
 19 47  1  0  0  0
 19 48  1  0  0  0
 20 49  1  0  0  0
 20 50  1  0  0  0
 21 51  1  0  0  0
 21 52  1  0  0  0
 22 53  1  0  0  0
 22 54  1  0  0  0
 23 55  1  0  0  0
 23 56  1  0  0  0
 24 57  1  0  0  0
 24 58  1  0  0  0
 25 59  1  0  0  0
 25 60  1  0  0  0
 26 61  1  0  0  0
 26 62  1  0  0  0
 27 63  1  0  0  0
 27 64  1  0  0  0
 28 65  1  0  0  0
 28 66  1  0  0  0
 29 67  1  0  0  0
 29 68  1  0  0  0
 30 69  1  0  0  0
 30 70  1  0  0  0
 30 71  1  0  0  0
M  END
$$$$
