4i0d_ligand
  -I-interpret- 

 52 54  0  0  0  0  0  0  0  0999 V2000
   11.1820  -12.7770    6.4880 C   0  0  0  0  0
   10.7420  -15.1350    6.9290 C   0  0  0  0  0
    9.8430  -15.2070    5.8710 C   0  0  0  0  0
    9.6270  -14.0700    5.0930 C   0  0  0  0  0
   10.2780  -12.8850    5.4330 C   0  0  0  0  0
   12.3540  -13.8930    8.4550 C   0  0  0  0  0
   11.7050  -14.7500    9.5660 C   0  0  0  0  0
   11.0430  -16.2970    7.7950 C   0  0  0  0  0
   12.7000  -14.8220   10.7230 C   0  0  0  0  0
   10.4060  -14.0700   10.0860 C   0  0  0  0  0
   11.5590  -19.7850    7.2680 C   0  0  0  0  0
    9.2830  -19.2260    8.1440 C   0  0  0  0  0
    8.4910  -18.1930    8.9150 C   0  0  0  0  0
    7.8050  -17.1700    8.2660 C   0  0  0  0  0
    8.4350  -18.1610   10.4120 C   0  0  0  0  0
    9.9880  -11.4120    4.4860 Cl  0  0  0  0  0
   11.4370  -13.9080    7.2490 C   0  0  0  0  0
   11.4520  -16.0860    9.0010 N   0  0  0  0  0
   10.8560  -17.4950    7.2250 N   0  0  0  0  0
   10.7610  -18.7350    7.9980 C   0  0  0  0  0
   12.0170  -19.5470    6.1300 O   0  0  0  0  0
   11.6840  -20.9190    7.7680 O   0  0  0  0  0
    7.1270  -16.2880    9.5700 S   0  0  0  0  0
    7.6800  -17.0930   10.9730 C   0  0  0  0  0
    9.1910  -19.2530   11.1650 C   0  0  0  0  0
    9.9560  -18.8860   12.4250 C   0  0  0  0  0
   10.4350  -20.1480   13.1610 C   0  0  0  0  0
   11.6748  -11.8302    6.7089 H   0  0  0  0  0
    9.3161  -16.1360    5.6534 H   0  0  0  0  0
    8.9594  -14.1072    4.2322 H   0  0  0  0  0
   13.3294  -14.3004    8.1891 H   0  0  0  0  0
   12.4959  -12.8706    8.8052 H   0  0  0  0  0
   12.9187  -13.8141   11.0757 H   0  0  0  0  0
   12.2689  -15.4070   11.5354 H   0  0  0  0  0
   13.6198  -15.2961   10.3805 H   0  0  0  0  0
    9.9905  -14.6601   10.9028 H   0  0  0  0  0
   10.6403  -13.0672   10.4431 H   0  0  0  0  0
    9.6803  -14.0080    9.2751 H   0  0  0  0  0
    8.8431  -19.3624    7.1561 H   0  0  0  0  0
    9.2637  -20.1760    8.6781 H   0  0  0  0  0
    7.7203  -16.9780    7.1964 H   0  0  0  0  0
   10.7764  -17.5454    6.2094 H   0  0  0  0  0
   11.1443  -18.5561    9.0026 H   0  0  0  0  0
   11.8361  -18.6332    5.8982 H   0  0  0  0  0
    7.5014  -16.8519   12.0209 H   0  0  0  0  0
    9.9520  -19.6000   10.4661 H   0  0  0  0  0
    8.4208  -19.9489   11.4974 H   0  0  0  0  0
    9.2959  -18.3236   13.0854 H   0  0  0  0  0
   10.8255  -18.2903   12.1470 H   0  0  0  0  0
    9.5729  -20.7552   13.4373 H   0  0  0  0  0
   11.0906  -20.7221   12.5062 H   0  0  0  0  0
   10.9799  -19.8583   14.0595 H   0  0  0  0  0
  1  5  4  0  0  0
 17  1  4  0  0  0
  2  3  4  0  0  0
  8  2  1  0  0  0
  2 17  4  0  0  0
  3  4  4  0  0  0
  4  5  4  0  0  0
  5 16  1  0  0  0
  7  6  1  0  0  0
 17  6  1  0  0  0
  7  9  1  0  0  0
  7 10  1  0  0  0
 18  7  1  0  0  0
  8 18  2  0  0  0
 19  8  1  0  0  0
 20 11  1  0  0  0
 11 21  1  0  0  0
 11 22  2  0  0  0
 12 13  1  0  0  0
 20 12  1  0  0  0
 13 14  4  0  0  0
 13 15  4  0  0  0
 14 23  4  0  0  0
 15 24  4  0  0  0
 15 25  1  0  0  0
 19 20  1  0  0  0
 23 24  4  0  0  0
 25 26  1  0  0  0
 26 27  1  0  0  0
  1 28  1  0  0  0
  3 29  1  0  0  0
  4 30  1  0  0  0
  6 31  1  0  0  0
  6 32  1  0  0  0
  9 33  1  0  0  0
  9 34  1  0  0  0
  9 35  1  0  0  0
 10 36  1  0  0  0
 10 37  1  0  0  0
 10 38  1  0  0  0
 12 39  1  0  0  0
 12 40  1  0  0  0
 14 41  1  0  0  0
 19 42  1  0  0  0
 20 43  1  0  0  0
 21 44  1  0  0  0
 24 45  1  0  0  0
 25 46  1  0  0  0
 25 47  1  0  0  0
 26 48  1  0  0  0
 26 49  1  0  0  0
 27 50  1  0  0  0
 27 51  1  0  0  0
 27 52  1  0  0  0
M  END
$$$$
