3mz6_ligand
  -I-interpret- 

 45 45  0  0  0  0  0  0  0  0999 V2000
   -0.5420   43.6100    0.5860 O   0  0  0  0  0
   -0.4810   43.9260    1.5310 C   0  0  0  0  0
   -0.7100   45.4250    1.8120 C   0  0  0  0  0
    0.0780   46.1530    2.7940 C   0  0  0  0  0
   -0.1540   47.5620    3.0500 C   0  0  0  0  0
   -1.1880   48.2950    2.3290 C   0  0  0  0  0
   -1.4580   49.7090    2.5660 N   0  0  0  0  0
   -2.5690   50.4010    1.9000 C   0  0  0  0  0
   -0.6960   50.5200    3.5160 C   0  0  0  0  0
   -1.9930   47.5300    1.3460 C   0  0  0  0  0
   -1.7370   46.1510    1.0900 C   0  0  0  0  0
   -0.2160   43.0860    2.5730 N   0  0  0  0  0
    0.0460   41.6230    2.5860 C   0  0  0  0  0
    0.6310   41.0090    1.2980 C   0  0  0  0  0
    1.7240   39.9730    1.6230 C   0  0  0  0  0
    1.2010   38.6710    2.1950 C   0  0  0  0  0
    1.7440   37.4680    1.4290 C   0  0  0  0  0
    2.3970   36.5090    2.4160 C   0  0  0  0  0
    1.8740   35.0690    2.3380 C   0  0  0  0  0
    0.7680   34.7760    2.7960 O   0  0  0  0  0
    2.6060   34.1270    1.7680 N   0  0  0  0  0
    2.1540   32.9790    1.7120 O   0  0  0  0  0
    0.8576   45.6301    3.3481 H   0  0  0  0  0
    0.4534   48.0802    3.7920 H   0  0  0  0  0
   -3.2794   50.7501    2.6494 H   0  0  0  0  0
   -2.1817   51.2523    1.3402 H   0  0  0  0  0
   -3.0676   49.7124    1.2178 H   0  0  0  0  0
   -0.2622   51.3744    2.9964 H   0  0  0  0  0
   -1.3599   50.8721    4.3055 H   0  0  0  0  0
    0.0998   49.9156    3.9513 H   0  0  0  0  0
   -2.7970   48.0324    0.8081 H   0  0  0  0  0
   -2.3263   45.6308    0.3348 H   0  0  0  0  0
   -0.1942   43.5335    3.4894 H   0  0  0  0  0
   -0.9238   41.1469    2.7304 H   0  0  0  0  0
    0.7945   41.4602    3.3615 H   0  0  0  0  0
    1.0734   41.8068    0.7015 H   0  0  0  0  0
   -0.1712   40.5102    0.7542 H   0  0  0  0  0
    2.3718   40.4174    2.3787 H   0  0  0  0  0
    2.2258   39.7323    0.6858 H   0  0  0  0  0
    0.1139   38.6700    2.1154 H   0  0  0  0  0
    1.5240   38.5947    3.2332 H   0  0  0  0  0
    2.4791   37.7992    0.6955 H   0  0  0  0  0
    0.9294   36.9638    0.9091 H   0  0  0  0  0
    2.1730   36.8776    3.4170 H   0  0  0  0  0
    3.4599   36.4774    2.1767 H   0  0  0  0  0
  1  2  2  0  0  0
  2  3  1  0  0  0
  2 12  1  0  0  0
  3  4  4  0  0  0
  3 11  4  0  0  0
  4  5  4  0  0  0
  5  6  4  0  0  0
  6  7  1  0  0  0
  6 10  4  0  0  0
  7  8  1  0  0  0
  7  9  1  0  0  0
 10 11  4  0  0  0
 12 13  1  0  0  0
 13 14  1  0  0  0
 14 15  1  0  0  0
 15 16  1  0  0  0
 16 17  1  0  0  0
 17 18  1  0  0  0
 18 19  1  0  0  0
 19 20  2  0  0  0
 19 21  1  0  0  0
 21 22  2  0  0  0
  4 23  1  0  0  0
  5 24  1  0  0  0
  8 25  1  0  0  0
  8 26  1  0  0  0
  8 27  1  0  0  0
  9 28  1  0  0  0
  9 29  1  0  0  0
  9 30  1  0  0  0
 10 31  1  0  0  0
 11 32  1  0  0  0
 12 33  1  0  0  0
 13 34  1  0  0  0
 13 35  1  0  0  0
 14 36  1  0  0  0
 14 37  1  0  0  0
 15 38  1  0  0  0
 15 39  1  0  0  0
 16 40  1  0  0  0
 16 41  1  0  0  0
 17 42  1  0  0  0
 17 43  1  0  0  0
 18 44  1  0  0  0
 18 45  1  0  0  0
M  END
$$$$
