5nud_ligand
  -I-interpret- 

 27 28  0  0  0  0  0  0  0  0999 V2000
   25.0710    0.9450  -53.4000 O   0  0  0  0  0
   24.7880    2.6960  -54.7580 O   0  0  0  0  0
   24.3900   -2.6550  -54.1730 C   0  0  0  0  0
   23.7540   -4.9080  -54.6270 C   0  0  0  0  0
   24.7330   -5.4260  -53.7660 C   0  0  0  0  0
   25.5430   -4.5060  -53.0910 C   0  0  0  0  0
   25.3600   -3.1270  -53.2680 C   0  0  0  0  0
   24.9610   -6.9310  -53.5770 C   0  0  0  0  0
   24.6230    1.5000  -54.6120 N   0  0  0  0  0
   23.9690    0.7710  -55.5610 C   0  0  0  0  0
   23.4910    1.4340  -56.7170 C   0  0  0  0  0
   22.7850    0.7560  -57.7110 C   0  0  0  0  0
   22.5690   -0.6110  -57.5140 C   0  0  0  0  0
   23.0430   -1.2440  -56.4160 N   0  0  0  0  0
   23.7380   -0.6240  -55.4300 C   0  0  0  0  0
   24.1720   -1.3180  -54.3310 N   0  0  0  0  0
   23.6030   -3.5740  -54.7800 N   0  0  0  0  0
   26.4010   -2.0590  -52.3410 Cl  0  0  0  0  0
   23.9300   -7.6650  -54.0490 F   0  0  0  0  0
   26.0550   -7.2920  -54.2740 F   0  0  0  0  0
   25.1630   -7.2650  -52.2760 F   0  0  0  0  0
   23.1073   -5.5899  -55.1792 H   0  0  0  0  0
   26.3241   -4.8649  -52.4208 H   0  0  0  0  0
   23.6794    2.5013  -56.8333 H   0  0  0  0  0
   22.4186    1.2686  -58.6004 H   0  0  0  0  0
   22.0088   -1.1771  -58.2582 H   0  0  0  0  0
   24.3606   -0.7484  -53.5062 H   0  0  0  0  0
  9  1  2  0  0  0
  9  2  2  0  0  0
  3  7  4  0  0  0
 16  3  1  0  0  0
  3 17  4  0  0  0
  4  5  4  0  0  0
 17  4  4  0  0  0
  6  5  4  0  0  0
  5  8  1  0  0  0
  7  6  4  0  0  0
  7 18  1  0  0  0
  8 19  1  0  0  0
  8 20  1  0  0  0
  8 21  1  0  0  0
 10  9  1  0  0  0
 10 11  4  0  0  0
 15 10  4  0  0  0
 11 12  4  0  0  0
 13 12  4  0  0  0
 14 13  4  0  0  0
 15 14  4  0  0  0
 15 16  1  0  0  0
  4 22  1  0  0  0
  6 23  1  0  0  0
 11 24  1  0  0  0
 12 25  1  0  0  0
 13 26  1  0  0  0
 16 27  1  0  0  0
M  END
$$$$
