6ocu_ligand
  -I-interpret- 

 50 53  0  0  0  0  0  0  0  0999 V2000
   36.2050   14.2210   33.5670 C   0  0  0  0  0
   35.8860   12.9090   33.1230 C   0  0  0  0  0
   37.8610   12.1250   34.0410 C   0  0  0  0  0
   38.2090   13.4180   34.4980 C   0  0  0  0  0
   39.9040   15.0810   35.3850 C   0  0  0  0  0
   41.7080   13.1180   35.9420 C   0  0  0  0  0
   43.3260   14.4120   32.6460 C   0  0  0  0  0
   44.6220   14.1030   31.8910 C   0  0  0  0  0
   44.5350   15.3430   32.7880 C   0  0  0  0  0
   44.5210   16.7070   32.0970 C   0  0  0  0  0
   34.6920   12.5830   32.4080 C   0  0  0  0  0
   32.2910   17.2700   32.8640 C   0  0  0  0  0
   36.7360   11.9170   33.3860 N   0  0  0  0  0
   37.3460   14.4080   34.2390 N   0  0  0  0  0
   39.4070   13.6900   35.1920 N   0  0  0  0  0
   41.2610   15.2240   34.6550 C   0  0  0  0  0
   42.0350   13.9630   34.7710 N   0  0  0  0  0
   40.2670   12.6130   35.7530 C   0  0  0  0  0
   42.9720   13.5710   33.8550 C   0  0  0  0  0
   43.5660   12.5150   33.9980 O   0  0  0  0  0
   42.0640   16.4060   35.2070 C   0  0  0  0  0
   33.7950   12.1850   31.8330 N   0  0  0  0  0
   35.3460   15.4150   33.3570 C   0  0  0  0  0
   35.8220   16.7410   33.3320 C   0  0  0  0  0
   34.8110   17.5460   33.1530 N   0  0  0  0  0
   33.6530   16.7730   33.0580 N   0  0  0  0  0
   33.9880   15.4810   33.1910 C   0  0  0  0  0
   38.5329   11.2886   34.2333 H   0  0  0  0  0
   40.0301   15.2867   36.4480 H   0  0  0  0  0
   39.1857   15.7924   34.9774 H   0  0  0  0  0
   41.7950   13.6917   36.8647 H   0  0  0  0  0
   42.4011   12.2800   36.0153 H   0  0  0  0  0
   42.2829   14.5233   32.3499 H   0  0  0  0  0
   44.9375   13.8462   30.8797 H   0  0  0  0  0
   45.2909   13.2581   31.7270 H   0  0  0  0  0
   45.0925   15.7374   33.6376 H   0  0  0  0  0
   44.4144   16.5668   31.0213 H   0  0  0  0  0
   43.6835   17.2947   32.4729 H   0  0  0  0  0
   45.4551   17.2283   32.3060 H   0  0  0  0  0
   32.0241   17.9272   33.6916 H   0  0  0  0  0
   32.2378   17.8239   31.9268 H   0  0  0  0  0
   31.5998   16.4279   32.8296 H   0  0  0  0  0
   41.0655   15.4214   33.6010 H   0  0  0  0  0
   39.8682   12.3094   36.7209 H   0  0  0  0  0
   40.2748   11.7700   35.0621 H   0  0  0  0  0
   42.2936   16.2286   36.2577 H   0  0  0  0  0
   42.9914   16.5084   34.6434 H   0  0  0  0  0
   41.4764   17.3191   35.1113 H   0  0  0  0  0
   36.8630   17.0442   33.4438 H   0  0  0  0  0
   33.3018   14.6344   33.1706 H   0  0  0  0  0
  1  2  4  0  0  0
  1 14  4  0  0  0
 23  1  1  0  0  0
  2 11  1  0  0  0
  2 13  4  0  0  0
  4  3  4  0  0  0
 13  3  4  0  0  0
 14  4  4  0  0  0
  4 15  1  0  0  0
 15  5  1  0  0  0
  5 16  1  0  0  0
  6 17  1  0  0  0
 18  6  1  0  0  0
  7  8  1  0  0  0
  7  9  1  0  0  0
 19  7  1  0  0  0
  9  8  1  0  0  0
  9 10  1  0  0  0
 11 22  3  0  0  0
 26 12  1  0  0  0
 15 18  1  0  0  0
 16 17  1  0  0  0
 16 21  1  0  0  0
 17 19  1  0  0  0
 19 20  2  0  0  0
 24 23  4  0  0  0
 23 27  4  0  0  0
 25 24  4  0  0  0
 25 26  4  0  0  0
 26 27  4  0  0  0
  3 28  1  0  0  0
  5 29  1  0  0  0
  5 30  1  0  0  0
  6 31  1  0  0  0
  6 32  1  0  0  0
  7 33  1  0  0  0
  8 34  1  0  0  0
  8 35  1  0  0  0
  9 36  1  0  0  0
 10 37  1  0  0  0
 10 38  1  0  0  0
 10 39  1  0  0  0
 12 40  1  0  0  0
 12 41  1  0  0  0
 12 42  1  0  0  0
 16 43  1  0  0  0
 18 44  1  0  0  0
 18 45  1  0  0  0
 21 46  1  0  0  0
 21 47  1  0  0  0
 21 48  1  0  0  0
 24 49  1  0  0  0
 27 50  1  0  0  0
M  END
$$$$
