2j9h_ligand
  -I-interpret- 

 56 55  0  0  0  0  0  0  0  0999 V2000
   15.4020   -2.9120   11.8320 N   0  3  0  0  0
   14.0070   -3.2720   11.6950 C   0  0  0  0  0
   13.8050   -4.7360   11.9700 C   0  0  0  0  0
   14.5550   -5.5910   11.4960 O   0  0  0  0  0
   12.8710   -5.1470   12.6730 O   0  0  0  0  0
   13.5060   -2.8510   10.3140 C   0  0  0  0  0
   12.0560   -3.2470   10.0980 C   0  0  0  0  0
   11.5730   -2.6320    8.8230 C   0  0  0  0  0
   12.5020   -2.1440    7.8940 O   0  0  0  0  0
   10.2550   -2.5590    8.6110 N   0  0  0  0  0
    9.7590   -1.7860    7.4850 C   0  0  0  0  0
    8.4790   -1.0540    7.7370 C   0  0  0  0  0
    7.6750   -1.4000    8.8450 O   0  0  0  0  0
    9.6150   -2.6610    6.2600 C   0  0  0  0  0
    8.3810   -3.9580    6.5170 S   0  0  0  0  0
    8.4130   -4.0510    4.7150 C   0  0  0  0  0
    7.8410   -5.3370    4.1480 C   0  0  0  0  0
    6.3430   -5.1760    3.9750 C   0  0  0  0  0
    6.0050   -4.5820    2.6160 C   0  0  0  0  0
    4.5690   -4.9420    2.2400 C   0  0  0  0  0
    4.0450   -3.9610    1.2020 C   0  0  0  0  0
    8.1900   -0.1050    6.8390 N   0  0  0  0  0
    7.0410    0.7780    6.9380 C   0  0  0  0  0
    7.3970    2.2350    7.2090 C   0  0  0  0  0
    6.5180    3.1020    6.9980 O   0  0  0  0  0
    8.5350    2.5990    7.6330 O   0  0  0  0  0
   15.7355   -3.1933   12.7540 H   0  0  0  0  0
   15.9468   -3.3872   11.1124 H   0  0  0  0  0
   15.5034   -1.9026   11.7258 H   0  0  0  0  0
   13.4124   -2.7391   12.4370 H   0  0  0  0  0
   12.3555   -4.4004   12.9867 H   0  0  0  0  0
   14.1146   -3.3512    9.5606 H   0  0  0  0  0
   13.5809   -1.7663   10.2374 H   0  0  0  0  0
   11.4487   -2.8941   10.9315 H   0  0  0  0  0
   11.9745   -4.3323   10.0386 H   0  0  0  0  0
    9.6051   -3.0404    9.2325 H   0  0  0  0  0
   10.5136   -1.0169    7.3199 H   0  0  0  0  0
   10.5762   -3.1331    6.0568 H   0  0  0  0  0
    9.2937   -2.0379    5.4254 H   0  0  0  0  0
    9.4580   -4.0016    4.4090 H   0  0  0  0  0
    7.7982   -3.2328    4.3399 H   0  0  0  0  0
    8.0460   -6.1627    4.8294 H   0  0  0  0  0
    8.3018   -5.5508    3.1836 H   0  0  0  0  0
    5.9743   -4.5033    4.7494 H   0  0  0  0  0
    5.8772   -6.1586    4.0501 H   0  0  0  0  0
    6.6865   -4.9839    1.8663 H   0  0  0  0  0
    6.1060   -3.4976    2.6603 H   0  0  0  0  0
    3.9412   -4.8938    3.1298 H   0  0  0  0  0
    4.5475   -5.9499    1.8256 H   0  0  0  0  0
    4.0677   -2.9519    1.6136 H   0  0  0  0  0
    4.6727   -4.0059    0.3120 H   0  0  0  0  0
    3.0205   -4.2247    0.9393 H   0  0  0  0  0
    8.8127    0.0047    6.0386 H   0  0  0  0  0
    6.4395    0.4314    7.7784 H   0  0  0  0  0
    6.5256    0.7452    5.9781 H   0  0  0  0  0
    9.0952    1.8275    7.7453 H   0  0  0  0  0
  1  2  1  0  0  0
  2  3  1  0  0  0
  2  6  1  0  0  0
  3  4  2  0  0  0
  3  5  1  0  0  0
  6  7  1  0  0  0
  7  8  1  0  0  0
  8  9  2  0  0  0
  8 10  1  0  0  0
 10 11  1  0  0  0
 11 12  1  0  0  0
 11 14  1  0  0  0
 12 13  2  0  0  0
 12 22  1  0  0  0
 14 15  1  0  0  0
 15 16  1  0  0  0
 16 17  1  0  0  0
 17 18  1  0  0  0
 18 19  1  0  0  0
 19 20  1  0  0  0
 20 21  1  0  0  0
 22 23  1  0  0  0
 23 24  1  0  0  0
 24 25  2  0  0  0
 24 26  1  0  0  0
  1 27  1  0  0  0
  1 28  1  0  0  0
  1 29  1  0  0  0
  2 30  1  0  0  0
  5 31  1  0  0  0
  6 32  1  0  0  0
  6 33  1  0  0  0
  7 34  1  0  0  0
  7 35  1  0  0  0
 10 36  1  0  0  0
 11 37  1  0  0  0
 14 38  1  0  0  0
 14 39  1  0  0  0
 16 40  1  0  0  0
 16 41  1  0  0  0
 17 42  1  0  0  0
 17 43  1  0  0  0
 18 44  1  0  0  0
 18 45  1  0  0  0
 19 46  1  0  0  0
 19 47  1  0  0  0
 20 48  1  0  0  0
 20 49  1  0  0  0
 21 50  1  0  0  0
 21 51  1  0  0  0
 21 52  1  0  0  0
 22 53  1  0  0  0
 23 54  1  0  0  0
 23 55  1  0  0  0
 26 56  1  0  0  0
M  END
$$$$
