3az8_ligand
  -I-interpret- 

 24 24  0  0  0  0  0  0  0  0999 V2000
   23.3340  -27.8550   51.3430 C   0  0  0  0  0
   23.7440  -28.7580   52.3340 C   0  0  0  0  0
   22.8540  -29.7080   52.8440 C   0  0  0  0  0
   21.5540  -29.7560   52.3680 C   0  0  0  0  0
   21.1510  -28.8540   51.3860 C   0  0  0  0  0
   22.0210  -27.8950   50.8650 C   0  0  0  0  0
   21.5230  -26.9550   49.7910 C   0  0  0  0  0
   20.6230  -27.3050   49.0280 O   0  0  0  0  0
   22.1440  -25.5920   49.6000 C   0  0  0  0  0
   21.6100  -24.5240   50.5170 C   0  0  0  0  0
   22.1580  -24.2840   51.5720 O   0  0  0  0  0
   20.4170  -23.7270   50.0990 C   0  0  0  0  0
   23.2440  -30.6250   53.8260 N   0  0  0  0  0
   20.5410  -23.5170   48.7910 F   0  0  0  0  0
   23.3380  -31.8340   53.5400 O   0  0  0  0  0
   19.3160  -24.4170   50.3310 F   0  0  0  0  0
   23.4860  -30.2160   54.9710 O   0  0  0  0  0
   20.3920  -22.5880   50.7840 F   0  0  0  0  0
   24.0376  -27.1233   50.9461 H   0  0  0  0  0
   24.7662  -28.7190   52.7104 H   0  0  0  0  0
   20.8525  -30.4932   52.7585 H   0  0  0  0  0
   20.1274  -28.8984   51.0140 H   0  0  0  0  0
   21.9156  -25.2790   48.5812 H   0  0  0  0  0
   23.2073  -25.6943   49.8170 H   0  0  0  0  0
  1  2  4  0  0  0
  1  6  4  0  0  0
  2  3  4  0  0  0
  3  4  4  0  0  0
  3 13  1  0  0  0
  4  5  4  0  0  0
  5  6  4  0  0  0
  6  7  1  0  0  0
  7  8  2  0  0  0
  7  9  1  0  0  0
  9 10  1  0  0  0
 10 11  2  0  0  0
 10 12  1  0  0  0
 12 14  1  0  0  0
 12 16  1  0  0  0
 12 18  1  0  0  0
 13 15  2  0  0  0
 13 17  2  0  0  0
  1 19  1  0  0  0
  2 20  1  0  0  0
  4 21  1  0  0  0
  5 22  1  0  0  0
  9 23  1  0  0  0
  9 24  1  0  0  0
M  END
$$$$
