3dp1_ligand
  -I-interpret- 

 35 36  0  0  0  0  0  0  0  0999 V2000
  -21.7330   14.8380   11.5750 C   0  0  0  0  0
  -20.6730   13.9160   11.8500 O   0  0  0  0  0
  -19.4960   14.5880   11.9580 C   0  0  0  0  0
  -18.2990   13.9850   11.5860 C   0  0  0  0  0
  -17.0960   14.6720   11.7100 C   0  0  0  0  0
  -19.4930   15.8880   12.4520 C   0  0  0  0  0
  -18.2920   16.5750   12.5780 C   0  0  0  0  0
  -17.0960   15.9680   12.2130 C   0  0  0  0  0
  -15.8010   16.7530   12.4320 C   0  0  0  0  0
  -15.8240   17.7480   13.1560 O   0  0  0  0  0
  -14.7050   16.2830   11.8380 N   0  0  0  0  0
  -13.6220   16.8550   11.9720 N   0  0  0  0  0
  -13.5440   17.9520   12.7050 C   0  0  0  0  0
  -12.3580   18.6440   12.9220 C   0  0  0  0  0
  -11.1420   18.1440   12.4670 C   0  0  0  0  0
   -9.9610   18.7890   12.8180 C   0  0  0  0  0
   -8.2820   18.0880   12.2920 Br  0  0  0  0  0
   -9.9880   19.9300   13.6110 C   0  0  0  0  0
   -8.8250   20.5350   13.9730 O   0  0  0  0  0
  -11.2050   20.4350   14.0540 C   0  0  0  0  0
  -11.2340   22.0010   15.1200 Br  0  0  0  0  0
  -12.3880   19.7920   13.7080 C   0  0  0  0  0
  -13.5800   20.3000   14.1210 O   0  0  0  0  0
  -21.8032   15.5617   12.3871 H   0  0  0  0  0
  -21.5267   15.3583   10.6397 H   0  0  0  0  0
  -22.6734   14.2935   11.4896 H   0  0  0  0  0
  -18.3038   12.9676   11.1948 H   0  0  0  0  0
  -16.1600   14.1977   11.4149 H   0  0  0  0  0
  -20.4294   16.3662   12.7393 H   0  0  0  0  0
  -18.2876   17.5941   12.9646 H   0  0  0  0  0
  -13.8084   17.6000   13.7021 H   0  0  0  0  0
  -14.1451   18.6662   12.1423 H   0  0  0  0  0
  -11.1152   17.2529   11.8398 H   0  0  0  0  0
   -9.0203   21.3027   14.5153 H   0  0  0  0  0
  -13.4255   21.0863   14.6497 H   0  0  0  0  0
  1  2  1  0  0  0
  2  3  1  0  0  0
  3  4  4  0  0  0
  3  6  4  0  0  0
  4  5  4  0  0  0
  5  8  4  0  0  0
  6  7  4  0  0  0
  7  8  4  0  0  0
  8  9  1  0  0  0
  9 10  2  0  0  0
  9 11  1  0  0  0
 11 12  2  0  0  0
 12 13  1  0  0  0
 13 14  1  0  0  0
 14 15  4  0  0  0
 14 22  4  0  0  0
 15 16  4  0  0  0
 16 17  1  0  0  0
 16 18  4  0  0  0
 18 19  1  0  0  0
 18 20  4  0  0  0
 20 21  1  0  0  0
 20 22  4  0  0  0
 22 23  1  0  0  0
  1 24  1  0  0  0
  1 25  1  0  0  0
  1 26  1  0  0  0
  4 27  1  0  0  0
  5 28  1  0  0  0
  6 29  1  0  0  0
  7 30  1  0  0  0
 13 31  1  0  0  0
 13 32  1  0  0  0
 15 33  1  0  0  0
 19 34  1  0  0  0
 23 35  1  0  0  0
M  END
$$$$
