6g5l_ligand
  -I-interpret- 

 46 47  0  0  0  0  0  0  0  0999 V2000
   25.7250    4.0790    9.2920 C   0  0  0  0  0
   26.5580    5.1770    9.5700 C   0  0  0  0  0
   26.4490    5.8110   10.8040 C   0  0  0  0  0
   25.4380    5.4310   11.7180 C   0  0  0  0  0
   24.6040    4.3700   11.3610 C   0  0  0  0  0
   25.3300    6.0900   13.0170 C   0  0  0  0  0
   24.7000    3.6880   10.1940 C   0  0  0  0  0
   22.6600    2.1470   11.0940 N   0  0  0  0  0
   24.1230    7.3450   14.6250 C   0  0  0  0  0
   23.1320    6.8160   15.5230 C   0  0  0  0  0
   26.3380    6.1470   13.8140 O   0  0  0  0  0
   24.2340    6.6020   13.3930 N   0  0  0  0  0
   23.7070    5.7010   16.1160 O   0  0  0  0  0
   23.6860    2.2810    9.8890 S   0  0  0  0  0
   22.9660    2.5270    8.6490 O   0  0  0  0  0
   24.6030    1.1690    9.9080 O   0  0  0  0  0
   25.9200    3.2980    7.7840 Cl  0  0  0  0  0
   27.2380    6.9180   11.0960 N   0  0  0  0  0
   28.2070    7.4710   10.1380 C   0  0  0  0  0
   28.5140    8.8960   10.5430 C   0  0  0  0  0
   29.5130    9.5560    9.6750 C   0  0  0  0  0
   30.7760    8.7410    9.6140 C   0  0  0  0  0
   30.4860    7.2880    9.2220 C   0  0  0  0  0
   29.4920    6.6470   10.1530 C   0  0  0  0  0
   27.2782    5.5263    8.8302 H   0  0  0  0  0
   23.8271    4.0715   12.0649 H   0  0  0  0  0
   21.6583    2.2358   10.9232 H   0  0  0  0  0
   23.0028    1.9721   12.0386 H   0  0  0  0  0
   25.0873    7.2900   15.1302 H   0  0  0  0  0
   23.8259    8.3622   14.3699 H   0  0  0  0  0
   22.2183    6.5520   14.9904 H   0  0  0  0  0
   22.8429    7.5549   16.2704 H   0  0  0  0  0
   23.4064    6.4857   12.8082 H   0  0  0  0  0
   23.0817    5.3078   16.7292 H   0  0  0  0  0
   27.1411    7.3631   12.0086 H   0  0  0  0  0
   27.7891    7.4428    9.1317 H   0  0  0  0  0
   28.9256    8.8676   11.5519 H   0  0  0  0  0
   27.5873    9.4646   10.4656 H   0  0  0  0  0
   29.7447   10.5391   10.0848 H   0  0  0  0  0
   29.1025    9.6499    8.6696 H   0  0  0  0  0
   31.2398    8.7473   10.6004 H   0  0  0  0  0
   31.4335    9.1776    8.8622 H   0  0  0  0  0
   31.4182    6.7256    9.2754 H   0  0  0  0  0
   30.0674    7.2812    8.2156 H   0  0  0  0  0
   29.2827    5.6281    9.8273 H   0  0  0  0  0
   29.8990    6.6134   11.1636 H   0  0  0  0  0
  2  1  4  0  0  0
  7  1  4  0  0  0
  1 17  1  0  0  0
  3  2  4  0  0  0
  4  3  4  0  0  0
  3 18  1  0  0  0
  4  5  4  0  0  0
  6  4  1  0  0  0
  5  7  4  0  0  0
  6 11  2  0  0  0
 12  6  1  0  0  0
  7 14  1  0  0  0
 14  8  1  0  0  0
  9 10  1  0  0  0
  9 12  1  0  0  0
 10 13  1  0  0  0
 14 15  2  0  0  0
 14 16  2  0  0  0
 18 19  1  0  0  0
 19 20  1  0  0  0
 19 24  1  0  0  0
 20 21  1  0  0  0
 21 22  1  0  0  0
 22 23  1  0  0  0
 23 24  1  0  0  0
  2 25  1  0  0  0
  5 26  1  0  0  0
  8 27  1  0  0  0
  8 28  1  0  0  0
  9 29  1  0  0  0
  9 30  1  0  0  0
 10 31  1  0  0  0
 10 32  1  0  0  0
 12 33  1  0  0  0
 13 34  1  0  0  0
 18 35  1  0  0  0
 19 36  1  0  0  0
 20 37  1  0  0  0
 20 38  1  0  0  0
 21 39  1  0  0  0
 21 40  1  0  0  0
 22 41  1  0  0  0
 22 42  1  0  0  0
 23 43  1  0  0  0
 23 44  1  0  0  0
 24 45  1  0  0  0
 24 46  1  0  0  0
M  END
$$$$
