2e91_ligand
  -I-interpret- 

 26 26  0  0  0  0  0  0  0  0999 V2000
   28.9780   43.4940    5.0900 O   0  0  0  0  0
   29.5310   44.9490    4.6960 P   0  0  0  0  0
   28.9690   45.3700    3.2410 O   0  0  0  0  0
   31.0030   45.0270    4.8460 O   0  0  0  0  0
   28.6380   46.1140    5.8410 C   0  0  0  0  0
   26.8200   45.7440    5.6160 P   0  0  0  0  0
   26.5750   44.2930    6.2630 O   0  0  0  0  0
   26.0330   46.8350    6.4970 O   0  0  0  0  0
   26.4830   45.7670    4.1690 O   0  0  0  0  0
   28.9140   47.4520    5.4150 O   0  0  0  0  0
   29.1060   45.8650    7.2780 C   0  0  0  0  0
   28.4500   46.7580    8.2490 N   0  0  0  0  0
   28.3730   48.0790    8.1550 C   0  0  0  0  0
   27.7660   48.4950    9.2680 N   0  0  0  0  0
   27.4810   47.4440   10.0340 C   0  0  0  0  0
   27.9080   46.3560    9.3960 C   0  0  0  0  0
   28.0242   43.4756    4.9827 H   0  0  0  0  0
   28.0123   45.2903    3.2334 H   0  0  0  0  0
   26.8028   44.3170    7.1953 H   0  0  0  0  0
   26.3027   46.7582    7.4151 H   0  0  0  0  0
   28.6073   47.5691    4.5129 H   0  0  0  0  0
   30.1787   46.0539    7.3194 H   0  0  0  0  0
   28.8517   44.8382    7.5409 H   0  0  0  0  0
   28.7329   48.6994    7.3342 H   0  0  0  0  0
   26.9881   47.4695   11.0059 H   0  0  0  0  0
   27.8284   45.3274    9.7478 H   0  0  0  0  0
  1  2  1  0  0  0
  2  3  1  0  0  0
  2  4  2  0  0  0
  2  5  1  0  0  0
  5  6  1  0  0  0
  5 10  1  0  0  0
  5 11  1  0  0  0
  6  7  1  0  0  0
  6  8  1  0  0  0
  6  9  2  0  0  0
 11 12  1  0  0  0
 12 13  4  0  0  0
 12 16  4  0  0  0
 13 14  4  0  0  0
 14 15  4  0  0  0
 15 16  4  0  0  0
  1 17  1  0  0  0
  3 18  1  0  0  0
  7 19  1  0  0  0
  8 20  1  0  0  0
 10 21  1  0  0  0
 11 22  1  0  0  0
 11 23  1  0  0  0
 13 24  1  0  0  0
 15 25  1  0  0  0
 16 26  1  0  0  0
M  END
$$$$
