5fdc_ligand
  -I-interpret- 

 25 26  0  0  0  0  0  0  0  0999 V2000
   -5.4850    0.8080   16.6230 S   0  0  0  0  0
   -6.7660    1.2500   16.1610 O   0  0  0  0  0
   -5.2070    0.7620   18.0240 O   0  0  0  0  0
   -5.1940   -0.6550   16.0200 N   0  0  0  0  0
   -4.3540    1.7870   16.0160 N   0  0  0  0  0
   -6.0350    5.6080   13.7600 S   0  0  0  0  0
   -5.9900    3.9390   14.2090 C   0  0  0  0  0
   -4.7630    3.4010   14.2220 C   0  0  0  0  0
   -3.7450    4.3660   13.8520 C   0  0  0  0  0
   -4.3150    5.6460   13.5630 C   0  0  0  0  0
   -2.3100    4.2300   13.7350 C   0  0  0  0  0
   -1.5370    5.3190   13.3550 C   0  0  0  0  0
   -2.1210    6.5770   13.0720 C   0  0  0  0  0
   -3.5300    6.7590   13.1740 C   0  0  0  0  0
   -4.4790    1.9650   14.5780 C   0  0  0  0  0
   -5.8822   -1.1036   15.4154 H   0  0  0  0  0
   -4.3213   -1.1339   16.2424 H   0  0  0  0  0
   -3.6301    2.2325   16.5799 H   0  0  0  0  0
   -6.8858    3.3714   14.4607 H   0  0  0  0  0
   -1.8349    3.2718   13.9453 H   0  0  0  0  0
   -0.4564    5.2026   13.2728 H   0  0  0  0  0
   -1.4878    7.4126   12.7738 H   0  0  0  0  0
   -3.9895    7.7239   12.9596 H   0  0  0  0  0
   -5.3078    1.3514   14.2249 H   0  0  0  0  0
   -3.5384    1.6730   14.1109 H   0  0  0  0  0
  1  2  2  0  0  0
  1  3  2  0  0  0
  1  4  1  0  0  0
  5  1  1  0  0  0
 15  5  1  0  0  0
  7  6  4  0  0  0
  6 10  4  0  0  0
  8  7  4  0  0  0
  8  9  4  0  0  0
  8 15  1  0  0  0
  9 10  4  0  0  0
  9 11  4  0  0  0
 10 14  4  0  0  0
 11 12  4  0  0  0
 12 13  4  0  0  0
 13 14  4  0  0  0
  4 16  1  0  0  0
  4 17  1  0  0  0
  5 18  1  0  0  0
  7 19  1  0  0  0
 11 20  1  0  0  0
 12 21  1  0  0  0
 13 22  1  0  0  0
 14 23  1  0  0  0
 15 24  1  0  0  0
 15 25  1  0  0  0
M  END
$$$$
