6o3y_ligand
  -I-interpret- 

114115  0  0  0  0  0  0  0  0999 V2000
   65.6420  118.0800   13.9540 N   0  3  0  0  0
   64.5870  117.0770   14.1040 C   0  0  0  0  0
   63.2400  117.6980   14.4890 C   0  0  0  0  0
   63.0800  118.2270   15.5910 O   0  0  0  0  0
   64.9820  116.0210   15.1460 C   0  0  0  0  0
   63.8740  115.0380   15.4270 C   0  0  0  0  0
   63.7080  114.0480   14.2910 C   0  0  0  0  0
   62.7210  114.1680   13.5370 O   0  0  0  0  0
   64.6010  113.1950   14.1120 O   0  0  0  0  0
   62.2720  117.6120   13.5700 N   0  0  0  0  0
   60.8980  118.0140   13.8370 C   0  0  0  0  0
   60.1380  116.7910   14.3060 C   0  0  0  0  0
   59.7170  115.9630   13.4900 O   0  0  0  0  0
   60.2190  118.5860   12.5950 C   0  0  0  0  0
   58.7820  118.9980   12.8570 C   0  0  0  0  0
   58.4190  119.1790   14.0430 O   0  0  0  0  0
   58.0160  119.1290   11.8740 O   0  0  0  0  0
   59.9120  116.6640   15.5770 N   0  0  0  0  0
   59.3930  115.4040   16.0930 C   0  0  0  0  0
   57.8960  115.4760   16.3040 C   0  0  0  0  0
   57.3160  116.5670   16.2530 O   0  0  0  0  0
   60.1570  115.2400   17.4110 C   0  0  0  0  0
   60.5190  116.6740   17.8280 C   0  0  0  0  0
   60.2460  117.5970   16.6610 C   0  0  0  0  0
   57.2760  114.3180   16.5370 N   0  0  0  0  0
   55.8520  114.2250   16.8350 C   0  0  0  0  0
   55.6760  114.2210   18.3510 C   0  0  0  0  0
   56.2350  113.3620   19.0440 O   0  0  0  0  0
   55.2340  112.9680   16.2100 C   0  0  0  0  0
   53.7580  112.7840   16.5260 C   0  0  0  0  0
   52.8230  113.7140   16.1150 C   0  0  0  0  0
   53.3060  111.6920   17.2570 C   0  0  0  0  0
   51.4890  113.5590   16.4090 C   0  0  0  0  0
   51.9600  111.5340   17.5590 C   0  0  0  0  0
   51.0640  112.4770   17.1290 C   0  0  0  0  0
   49.7280  112.3420   17.4110 O   0  0  0  0  0
   54.8950  115.1800   18.8570 N   0  0  0  0  0
   54.6170  115.2990   20.2810 C   0  0  0  0  0
   53.4660  114.3830   20.6550 C   0  0  0  0  0
   52.3720  114.4840   20.0920 O   0  0  0  0  0
   54.2590  116.7500   20.6160 C   0  0  0  0  0
   54.0640  116.9970   22.1140 C   0  0  0  0  0
   53.1440  116.3940   22.7110 O   0  0  0  0  0
   54.8130  117.8180   22.6920 O   0  0  0  0  0
   53.6850  113.5430   21.6630 N   0  0  0  0  0
   52.7260  112.4970   22.0050 C   0  0  0  0  0
   51.7100  113.0870   22.9820 C   0  0  0  0  0
   51.6730  112.7820   24.1760 O   0  0  0  0  0
   53.4450  111.2800   22.5730 C   0  0  0  0  0
   54.0240  110.3300   21.5190 C   0  0  0  0  0
   55.0510  109.3490   22.0880 C   0  0  0  0  0
   52.8920  109.5670   20.8610 C   0  0  0  0  0
   50.8820  113.9750   22.4320 N   0  0  0  0  0
   49.8480  114.6460   23.2000 C   0  0  0  0  0
   48.7380  115.1910   22.3130 C   0  0  0  0  0
   48.8880  115.2570   21.0940 O   0  0  0  0  0
   50.4510  115.7780   24.0140 C   0  0  0  0  0
   49.9110  115.8150   25.4030 C   0  0  0  0  0
   48.7670  116.2250   25.6180 O   0  0  0  0  0
   50.7100  115.3570   26.3630 N   0  0  0  0  0
   47.6770  115.5720   22.8040 O   0  0  0  0  0
   65.3576  118.7694   13.2581 H   0  0  0  0  0
   65.7987  118.5433   14.8491 H   0  0  0  0  0
   66.5024  117.6239   13.6506 H   0  0  0  0  0
   64.4702  116.6027   13.1296 H   0  0  0  0  0
   65.2136  116.5393   16.0765 H   0  0  0  0  0
   65.8319  115.4637   14.7521 H   0  0  0  0  0
   62.9421  115.5917   15.5413 H   0  0  0  0  0
   64.1242  114.4854   16.3326 H   0  0  0  0  0
   65.2622  113.2756   14.8033 H   0  0  0  0  0
   62.5055  117.2504   12.6453 H   0  0  0  0  0
   60.9014  118.7967   14.5956 H   0  0  0  0  0
   60.2126  117.8115   11.8280 H   0  0  0  0  0
   60.7727  119.4730   12.2870 H   0  0  0  0  0
   59.1622  119.0256   14.6309 H   0  0  0  0  0
   59.5336  114.5606   15.4170 H   0  0  0  0  0
   61.0411  114.6131   17.2951 H   0  0  0  0  0
   59.5596  114.7330   18.1688 H   0  0  0  0  0
   61.5719  116.7262   18.1051 H   0  0  0  0  0
   59.9196  116.9739   18.6876 H   0  0  0  0  0
   59.4494  118.3127   16.8643 H   0  0  0  0  0
   61.0938  118.2388   16.4213 H   0  0  0  0  0
   57.8235  113.4580   16.5052 H   0  0  0  0  0
   55.3339  115.0817   16.4041 H   0  0  0  0  0
   55.7630  112.1082   16.6212 H   0  0  0  0  0
   55.3239  113.0664   15.1282 H   0  0  0  0  0
   53.1485  114.5859   15.5477 H   0  0  0  0  0
   54.0220  110.9451   17.5999 H   0  0  0  0  0
   50.7677  114.3011   16.0670 H   0  0  0  0  0
   51.6205  110.6705   18.1310 H   0  0  0  0  0
   49.5888  111.5393   17.9188 H   0  0  0  0  0
   54.4762  115.8567   18.2190 H   0  0  0  0  0
   55.5019  115.0094   20.8477 H   0  0  0  0  0
   53.3161  116.9790   20.1195 H   0  0  0  0  0
   55.0860  117.3777   20.2842 H   0  0  0  0  0
   55.4486  118.1674   22.0631 H   0  0  0  0  0
   54.5420  113.6318   22.2090 H   0  0  0  0  0
   52.1966  112.1504   21.1175 H   0  0  0  0  0
   52.7083  110.7125   23.1417 H   0  0  0  0  0
   54.2843  111.6524   23.1604 H   0  0  0  0  0
   54.5533  110.9425   20.7890 H   0  0  0  0  0
   55.8820  109.9056   22.5213 H   0  0  0  0  0
   54.5802  108.7382   22.8583 H   0  0  0  0  0
   55.4199  108.7067   21.2883 H   0  0  0  0  0
   52.3551  108.9931   21.6163 H   0  0  0  0  0
   52.2097  110.2710   20.3847 H   0  0  0  0  0
   53.2999  108.8900   20.1104 H   0  0  0  0  0
   50.9777  114.1903   21.4396 H   0  0  0  0  0
   49.4087  113.9037   23.8665 H   0  0  0  0  0
   49.7588  114.9265   20.8615 H   0  0  0  0  0
   50.2013  116.7200   23.5257 H   0  0  0  0  0
   51.5282  115.6212   24.0708 H   0  0  0  0  0
   50.3846  115.3337   27.3294 H   0  0  0  0  0
   51.6480  115.0292   26.1326 H   0  0  0  0  0
  1  2  1  0  0  0
  2  3  1  0  0  0
  2  5  1  0  0  0
  3  4  2  0  0  0
  3 10  1  0  0  0
  5  6  1  0  0  0
  6  7  1  0  0  0
  7  8  2  0  0  0
  7  9  1  0  0  0
 10 11  1  0  0  0
 11 12  1  0  0  0
 11 14  1  0  0  0
 12 13  2  0  0  0
 12 18  1  0  0  0
 14 15  1  0  0  0
 15 16  1  0  0  0
 15 17  2  0  0  0
 18 19  1  0  0  0
 18 24  1  0  0  0
 19 20  1  0  0  0
 19 22  1  0  0  0
 20 21  2  0  0  0
 20 25  1  0  0  0
 22 23  1  0  0  0
 23 24  1  0  0  0
 25 26  1  0  0  0
 26 27  1  0  0  0
 26 29  1  0  0  0
 27 28  2  0  0  0
 27 37  1  0  0  0
 29 30  1  0  0  0
 30 31  4  0  0  0
 30 32  4  0  0  0
 31 33  4  0  0  0
 32 34  4  0  0  0
 33 35  4  0  0  0
 34 35  4  0  0  0
 35 36  1  0  0  0
 37 38  1  0  0  0
 38 39  1  0  0  0
 38 41  1  0  0  0
 39 40  2  0  0  0
 39 45  1  0  0  0
 41 42  1  0  0  0
 42 43  2  0  0  0
 42 44  1  0  0  0
 45 46  1  0  0  0
 46 47  1  0  0  0
 46 49  1  0  0  0
 47 48  2  0  0  0
 47 53  1  0  0  0
 49 50  1  0  0  0
 50 51  1  0  0  0
 50 52  1  0  0  0
 53 54  1  0  0  0
 54 55  1  0  0  0
 54 57  1  0  0  0
 55 56  1  0  0  0
 55 61  2  0  0  0
 57 58  1  0  0  0
 58 59  2  0  0  0
 58 60  1  0  0  0
  1 62  1  0  0  0
  1 63  1  0  0  0
  1 64  1  0  0  0
  2 65  1  0  0  0
  5 66  1  0  0  0
  5 67  1  0  0  0
  6 68  1  0  0  0
  6 69  1  0  0  0
  9 70  1  0  0  0
 10 71  1  0  0  0
 11 72  1  0  0  0
 14 73  1  0  0  0
 14 74  1  0  0  0
 16 75  1  0  0  0
 19 76  1  0  0  0
 22 77  1  0  0  0
 22 78  1  0  0  0
 23 79  1  0  0  0
 23 80  1  0  0  0
 24 81  1  0  0  0
 24 82  1  0  0  0
 25 83  1  0  0  0
 26 84  1  0  0  0
 29 85  1  0  0  0
 29 86  1  0  0  0
 31 87  1  0  0  0
 32 88  1  0  0  0
 33 89  1  0  0  0
 34 90  1  0  0  0
 36 91  1  0  0  0
 37 92  1  0  0  0
 38 93  1  0  0  0
 41 94  1  0  0  0
 41 95  1  0  0  0
 44 96  1  0  0  0
 45 97  1  0  0  0
 46 98  1  0  0  0
 49 99  1  0  0  0
 49100  1  0  0  0
 50101  1  0  0  0
 51102  1  0  0  0
 51103  1  0  0  0
 51104  1  0  0  0
 52105  1  0  0  0
 52106  1  0  0  0
 52107  1  0  0  0
 53108  1  0  0  0
 54109  1  0  0  0
 56110  1  0  0  0
 57111  1  0  0  0
 57112  1  0  0  0
 60113  1  0  0  0
 60114  1  0  0  0
M  END
$$$$
