### 
### Created by X-TOOL on Mon Aug  2 16:17:06 2021
### 

@<TRIPOS>MOLECULE
6o3y_ligand
  110   111     1     0     0
SMALL
GAST_HUCK


@<TRIPOS>ATOM
      1 N          65.6420  118.0800   13.9540 N.4       1 GLU         0.2380
      2 CA         64.5870  117.0770   14.1040 C.3       1 GLU         0.0665
      3 C          63.2400  117.6980   14.4890 C.2       1 GLU         0.2269
      4 O          63.0800  118.2270   15.5910 O.2       1 GLU        -0.3907
      5 CB         64.9820  116.0210   15.1460 C.3       1 GLU         0.0194
      6 CG         63.8740  115.0380   15.4270 C.3       1 GLU         0.0075
      7 CD         63.7080  114.0480   14.2910 C.2       1 GLU         0.0351
      8 OE1        62.7210  114.1680   13.5370 O.co2     1 GLU        -0.5690
      9 OE2        64.6010  113.1950   14.1120 O.co2     1 GLU        -0.5690
     10 N          62.2720  117.6120   13.5700 N.am      1 GLU        -0.2595
     11 CA         60.8980  118.0140   13.8370 C.3       1 GLU         0.1426
     12 C          60.1380  116.7910   14.3060 C.2       1 GLU         0.2081
     13 O          59.7170  115.9630   13.4900 O.2       1 GLU        -0.3941
     14 CB         60.2190  118.5860   12.5950 C.3       1 GLU         0.0406
     15 CG         58.7820  118.9980   12.8570 C.2       1 GLU         0.0393
     16 OD1        58.4190  119.1790   14.0430 O.co2     1 GLU        -0.5688
     17 OD2        58.0160  119.1290   11.8740 O.co2     1 GLU        -0.5688
     18 N          59.9120  116.6640   15.5770 N.am      1 GLU        -0.2497
     19 CA         59.3930  115.4040   16.0930 C.3       1 GLU         0.1338
     20 C          57.8960  115.4760   16.3040 C.2       1 GLU         0.2042
     21 O          57.3160  116.5670   16.2530 O.2       1 GLU        -0.3944
     22 CB         60.1570  115.2400   17.4110 C.3       1 GLU        -0.0104
     23 CG         60.5190  116.6740   17.8280 C.3       1 GLU        -0.0281
     24 CD         60.2460  117.5970   16.6610 C.3       1 GLU         0.0369
     25 N          57.2760  114.3180   16.5370 N.am      1 GLU        -0.2621
     26 CA         55.8520  114.2250   16.8350 C.3       1 GLU         0.1390
     27 C          55.6760  114.2210   18.3510 C.2       1 GLU         0.2058
     28 O          56.2350  113.3620   19.0440 O.2       1 GLU        -0.3942
     29 CB         55.2340  112.9680   16.2100 C.3       1 GLU         0.0163
     30 CG         53.7580  112.7840   16.5260 C.ar      1 GLU        -0.0493
     31 CD1        52.8230  113.7140   16.1150 C.ar      1 GLU        -0.0685
     32 CD2        53.3060  111.6920   17.2570 C.ar      1 GLU        -0.0685
     33 CE1        51.4890  113.5590   16.4090 C.ar      1 GLU        -0.0398
     34 CE2        51.9600  111.5340   17.5590 C.ar      1 GLU        -0.0398
     35 CZ         51.0640  112.4770   17.1290 C.ar      1 GLU         0.0805
     36 OH         49.7280  112.3420   17.4110 O.3       1 GLU        -0.3376
     37 N          54.8950  115.1800   18.8570 N.am      1 GLU        -0.2620
     38 CA         54.6170  115.2990   20.2810 C.3       1 GLU         0.1423
     39 C          53.4660  114.3830   20.6550 C.2       1 GLU         0.2056
     40 O          52.3720  114.4840   20.0920 O.2       1 GLU        -0.3943
     41 CB         54.2590  116.7500   20.6160 C.3       1 GLU         0.0406
     42 CG         54.0640  116.9970   22.1140 C.2       1 GLU         0.0393
     43 OD1        53.1440  116.3940   22.7110 O.co2     1 GLU        -0.5688
     44 OD2        54.8130  117.8180   22.6920 O.co2     1 GLU        -0.5688
     45 N          53.6850  113.5430   21.6630 N.am      1 GLU        -0.2636
     46 CA         52.7260  112.4970   22.0050 C.3       1 GLU         0.1312
     47 C          51.7100  113.0870   22.9820 C.2       1 GLU         0.2035
     48 O          51.6730  112.7820   24.1760 O.2       1 GLU        -0.3944
     49 CB         53.4450  111.2800   22.5730 C.3       1 GLU        -0.0101
     50 CG         54.0240  110.3300   21.5190 C.3       1 GLU        -0.0425
     51 CD1        55.0510  109.3490   22.0880 C.3       1 GLU        -0.0625
     52 CD2        52.8920  109.5670   20.8610 C.3       1 GLU        -0.0625
     53 N          50.8820  113.9750   22.4320 N.am      1 GLU        -0.2674
     54 CA         49.8480  114.6460   23.2000 C.3       1 GLU         0.1110
     55 C          48.7380  115.1910   22.3130 C.2       1 GLU         0.0624
     56 O          48.8880  115.2570   21.0940 O.co2     1 GLU        -0.5665
     57 CB         50.4510  115.7780   24.0140 C.3       1 GLU         0.0718
     58 CG         49.9110  115.8150   25.4030 C.2       1 GLU         0.1774
     59 OD1        48.7670  116.2250   25.6180 O.2       1 GLU        -0.3971
     60 ND2        50.7100  115.3570   26.3630 N.am      1 GLU        -0.3007
     61 OXT        47.6770  115.5720   22.8040 O.co2     1 GLU        -0.5665
     62 H1         66.5051  117.6246   13.7015 H         1 GLU         0.2015
     63 H2         65.7642  118.5721   14.8252 H         1 GLU         0.2015
     64 H3         65.3835  118.7342   13.2320 H         1 GLU         0.2015
     65 H4         64.4633  116.5742   13.1335 H         1 GLU         0.1099
     66 H5         65.2445  116.5328   16.0836 H         1 GLU         0.0363
     67 H6         65.8566  115.4681   14.7727 H         1 GLU         0.0363
     68 H7         62.9319  115.5899   15.5606 H         1 GLU         0.0434
     69 H8         64.1103  114.4872   16.3494 H         1 GLU         0.0434
     70 H9         62.5009  117.2575   12.6634 H         1 GLU         0.1886
     71 H10        60.8934  118.7783   14.6281 H         1 GLU         0.0819
     72 H11        60.2283  117.8216   11.8040 H         1 GLU         0.0478
     73 H12        60.7834  119.4683   12.2590 H         1 GLU         0.0478
     74 H13        59.6194  114.5749   15.4065 H         1 GLU         0.0802
     75 H14        61.0653  114.6378   17.2614 H         1 GLU         0.0313
     76 H15        59.5217  114.7627   18.1717 H         1 GLU         0.0313
     77 H16        61.5839  116.7239   18.0992 H         1 GLU         0.0287
     78 H17        59.9064  116.9754   18.6905 H         1 GLU         0.0287
     79 H18        59.4035  118.2703   16.8775 H         1 GLU         0.0524
     80 H19        61.1363  118.1925   16.4106 H         1 GLU         0.0524
     81 H20        57.8128  113.4749   16.5058 H         1 GLU         0.1885
     82 H21        55.3426  115.1064   16.4182 H         1 GLU         0.0821
     83 H22        55.7804  112.0902   16.5853 H         1 GLU         0.0453
     84 H23        55.3489  113.0320   15.1179 H         1 GLU         0.0453
     85 H24        53.1467  114.5812   15.5508 H         1 GLU         0.0530
     86 H25        54.0180  110.9492   17.5980 H         1 GLU         0.0530
     87 H26        50.7716  114.2971   16.0689 H         1 GLU         0.0525
     88 H27        51.6223  110.6753   18.1279 H         1 GLU         0.0525
     89 H28        49.4058  111.5325   17.0323 H         1 GLU         0.2458
     90 H29        54.4845  115.8435   18.2315 H         1 GLU         0.1884
     91 H30        55.5114  115.0066   20.8506 H         1 GLU         0.0819
     92 H31        53.3249  117.0079   20.0955 H         1 GLU         0.0478
     93 H32        55.0701  117.4010   20.2579 H         1 GLU         0.0478
     94 H33        54.5252  113.6301   22.1983 H         1 GLU         0.1883
     95 H34        52.1953  112.1856   21.0932 H         1 GLU         0.0800
     96 H35        52.7290  110.7147   23.1877 H         1 GLU         0.0315
     97 H36        54.2718  111.6347   23.2060 H         1 GLU         0.0315
     98 H37        54.5283  110.9390   20.7543 H         1 GLU         0.0298
     99 H38        55.4241  108.7002   21.2819 H         1 GLU         0.0232
    100 H39        54.5771  108.7319   22.8656 H         1 GLU         0.0232
    101 H40        55.8903  109.9095   22.5256 H         1 GLU         0.0232
    102 H41        52.1580  110.2783   20.4545 H         1 GLU         0.0232
    103 H42        52.4034  108.9214   21.6056 H         1 GLU         0.0232
    104 H43        53.2928  108.9475   20.0452 H         1 GLU         0.0232
    105 H44        50.9758  114.1860   21.4590 H         1 GLU         0.1877
    106 H45        49.4067  113.9133   23.8916 H         1 GLU         0.0752
    107 H46        50.2224  116.7330   23.5184 H         1 GLU         0.0544
    108 H47        51.5414  115.6407   24.0603 H         1 GLU         0.0544
    109 H48        50.4004  115.3576   27.3139 H         1 GLU         0.1814
    110 H49        51.6202  115.0122   26.1338 H         1 GLU         0.1814
@<TRIPOS>BOND
     1    1    2 1  
     2    2    3 1  
     3    2    5 1  
     4    3    4 2  
     5    3   10 am 
     6    5    6 1  
     7    6    7 1  
     8    7    8 ar 
     9    7    9 ar 
    10   10   11 1  
    11   11   12 1  
    12   11   14 1  
    13   12   13 2  
    14   12   18 am 
    15   14   15 1  
    16   15   16 ar 
    17   15   17 ar 
    18   18   19 1  
    19   18   24 1  
    20   19   20 1  
    21   19   22 1  
    22   20   21 2  
    23   20   25 am 
    24   22   23 1  
    25   23   24 1  
    26   25   26 1  
    27   26   27 1  
    28   26   29 1  
    29   27   28 2  
    30   27   37 am 
    31   29   30 1  
    32   30   31 ar 
    33   30   32 ar 
    34   31   33 ar 
    35   32   34 ar 
    36   33   35 ar 
    37   34   35 ar 
    38   35   36 1  
    39   37   38 1  
    40   38   39 1  
    41   38   41 1  
    42   39   40 2  
    43   39   45 am 
    44   41   42 1  
    45   42   43 ar 
    46   42   44 ar 
    47   45   46 1  
    48   46   47 1  
    49   46   49 1  
    50   47   48 2  
    51   47   53 am 
    52   49   50 1  
    53   50   51 1  
    54   50   52 1  
    55   53   54 1  
    56   54   55 1  
    57   54   57 1  
    58   55   56 ar 
    59   55   61 ar 
    60   57   58 1  
    61   58   59 2  
    62   58   60 am 
    63    1   62 1  
    64    1   63 1  
    65    1   64 1  
    66    2   65 1  
    67    5   66 1  
    68    5   67 1  
    69    6   68 1  
    70    6   69 1  
    71   10   70 1  
    72   11   71 1  
    73   14   72 1  
    74   14   73 1  
    75   19   74 1  
    76   22   75 1  
    77   22   76 1  
    78   23   77 1  
    79   23   78 1  
    80   24   79 1  
    81   24   80 1  
    82   25   81 1  
    83   26   82 1  
    84   29   83 1  
    85   29   84 1  
    86   31   85 1  
    87   32   86 1  
    88   33   87 1  
    89   34   88 1  
    90   36   89 1  
    91   37   90 1  
    92   38   91 1  
    93   41   92 1  
    94   41   93 1  
    95   45   94 1  
    96   46   95 1  
    97   49   96 1  
    98   49   97 1  
    99   50   98 1  
   100   51   99 1  
   101   51  100 1  
   102   51  101 1  
   103   52  102 1  
   104   52  103 1  
   105   52  104 1  
   106   53  105 1  
   107   54  106 1  
   108   57  107 1  
   109   57  108 1  
   110   60  109 1  
   111   60  110 1  
@<TRIPOS>SUBSTRUCTURE
     1 GLU         1

