4yw6_ligand
  -I-interpret- 

 70 72  0  0  0  0  0  0  0  0999 V2000
  -10.2370   13.6910   54.8850 C   0  0  0  0  0
  -10.7830   13.5840   53.4730 C   0  0  0  0  0
   -9.9890   12.4100   52.9540 C   0  0  0  0  0
   -8.6250   12.6120   53.6320 C   0  0  0  0  0
   -8.8130   13.5760   54.6980 N   0  0  0  0  0
   -7.7570   14.2940   55.4430 C   0  0  0  0  0
   -8.0370   15.0740   56.3300 O   0  0  0  0  0
   -6.3020   14.0000   55.1000 C   0  0  0  0  0
   -5.6080   13.4030   56.3370 C   0  0  0  0  0
   -4.8320   14.4040   57.2210 C   0  0  0  0  0
   -5.1760   14.2070   58.7210 C   0  0  0  0  0
   -4.0090   13.6030   59.4950 C   0  0  0  0  0
   -4.4630   13.0900   60.7540 N   0  3  0  0  0
   -5.5640   15.0930   54.5140 N   0  0  0  0  0
   -4.4680   14.6880   53.6740 C   0  0  0  0  0
   -4.2970   13.4910   53.5640 O   0  0  0  0  0
   -3.4600   15.5420   52.8760 C   0  0  0  0  0
   -3.5380   17.0340   52.5360 C   0  0  0  0  0
   -2.5310   17.6130   51.7780 C   0  0  0  0  0
   -1.3790   16.7490   51.3040 C   0  0  0  0  0
   -1.3300   15.4380   51.5960 C   0  0  0  0  0
   -2.4260   14.8060   52.4150 C   0  0  0  0  0
   -0.2560   17.1930   50.5110 O   0  0  0  0  0
   -0.3360   18.4390   49.8550 C   0  0  0  0  0
   -1.2320   18.3510   48.7610 O   0  0  0  0  0
   -1.3560   19.6070   48.1190 C   0  0  0  0  0
   -2.3600   19.4390   47.0080 C   0  0  0  0  0
   -3.6180   19.1050   47.5600 O   0  0  0  0  0
   -0.0340   20.0960   47.5640 C   0  0  0  0  0
    0.4570   19.2720   46.5240 O   0  0  0  0  0
    1.0000   20.0990   48.6680 C   0  0  0  0  0
    2.2490   20.3400   48.0950 O   0  0  0  0  0
    1.0360   18.7650   49.3590 C   0  0  0  0  0
    1.9590   18.8090   50.4280 O   0  0  0  0  0
  -10.6367   12.9247   55.5492 H   0  0  0  0  0
  -10.5224   14.6211   55.3764 H   0  0  0  0  0
  -10.6684   14.4931   52.8827 H   0  0  0  0  0
  -11.8631   13.4459   53.4240 H   0  0  0  0  0
   -9.9272   12.3813   51.8661 H   0  0  0  0  0
  -10.4450   11.4476   53.1861 H   0  0  0  0  0
   -7.8897   12.9738   52.9134 H   0  0  0  0  0
   -8.2514   11.6685   54.0300 H   0  0  0  0  0
   -6.3115   13.2696   54.2910 H   0  0  0  0  0
   -4.8741   12.6889   55.9635 H   0  0  0  0  0
   -6.3980   12.9878   56.9628 H   0  0  0  0  0
   -5.1108   15.4165   56.9291 H   0  0  0  0  0
   -3.7639   14.2363   57.0830 H   0  0  0  0  0
   -6.0234   13.5251   58.7915 H   0  0  0  0  0
   -5.4043   15.1822   59.1511 H   0  0  0  0  0
   -3.2610   14.3755   59.6732 H   0  0  0  0  0
   -3.5777   12.7889   58.9125 H   0  0  0  0  0
   -3.6738   12.6894   61.2611 H   0  0  0  0  0
   -4.8710   13.8478   61.3014 H   0  0  0  0  0
   -5.1661   12.3690   60.5924 H   0  0  0  0  0
   -5.7996   16.0712   54.6813 H   0  0  0  0  0
   -4.3771   17.6349   52.8866 H   0  0  0  0  0
   -2.5674   18.6731   51.5270 H   0  0  0  0  0
   -0.4971   14.8315   51.2403 H   0  0  0  0  0
   -2.3834   13.7400   52.6383 H   0  0  0  0  0
   -0.6992   19.2112   50.5331 H   0  0  0  0  0
   -1.6820   20.3564   48.8402 H   0  0  0  0  0
   -2.0330   18.6434   46.3385 H   0  0  0  0  0
   -2.4434   20.3706   46.4482 H   0  0  0  0  0
   -4.2582   18.9978   46.8528 H   0  0  0  0  0
   -0.2087   21.0950   47.1646 H   0  0  0  0  0
    1.2928   19.6223   46.2072 H   0  0  0  0  0
    0.7473   20.8679   49.3981 H   0  0  0  0  0
    2.9194   20.3455   48.7822 H   0  0  0  0  0
    1.3554   17.9892   48.6632 H   0  0  0  0  0
    2.8315   19.0195   50.0875 H   0  0  0  0  0
  1  2  1  0  0  0
  1  5  1  0  0  0
  2  3  1  0  0  0
  3  4  1  0  0  0
  4  5  1  0  0  0
  5  6  1  0  0  0
  6  7  2  0  0  0
  6  8  1  0  0  0
  8  9  1  0  0  0
  8 14  1  0  0  0
  9 10  1  0  0  0
 10 11  1  0  0  0
 11 12  1  0  0  0
 12 13  1  0  0  0
 14 15  1  0  0  0
 15 16  2  0  0  0
 15 17  1  0  0  0
 17 18  4  0  0  0
 17 22  4  0  0  0
 18 19  4  0  0  0
 19 20  4  0  0  0
 20 21  4  0  0  0
 20 23  1  0  0  0
 21 22  4  0  0  0
 23 24  1  0  0  0
 24 25  1  0  0  0
 24 33  1  0  0  0
 25 26  1  0  0  0
 26 27  1  0  0  0
 26 29  1  0  0  0
 27 28  1  0  0  0
 29 30  1  0  0  0
 29 31  1  0  0  0
 31 32  1  0  0  0
 31 33  1  0  0  0
 33 34  1  0  0  0
  1 35  1  0  0  0
  1 36  1  0  0  0
  2 37  1  0  0  0
  2 38  1  0  0  0
  3 39  1  0  0  0
  3 40  1  0  0  0
  4 41  1  0  0  0
  4 42  1  0  0  0
  8 43  1  0  0  0
  9 44  1  0  0  0
  9 45  1  0  0  0
 10 46  1  0  0  0
 10 47  1  0  0  0
 11 48  1  0  0  0
 11 49  1  0  0  0
 12 50  1  0  0  0
 12 51  1  0  0  0
 13 52  1  0  0  0
 13 53  1  0  0  0
 13 54  1  0  0  0
 14 55  1  0  0  0
 18 56  1  0  0  0
 19 57  1  0  0  0
 21 58  1  0  0  0
 22 59  1  0  0  0
 24 60  1  0  0  0
 26 61  1  0  0  0
 27 62  1  0  0  0
 27 63  1  0  0  0
 28 64  1  0  0  0
 29 65  1  0  0  0
 30 66  1  0  0  0
 31 67  1  0  0  0
 32 68  1  0  0  0
 33 69  1  0  0  0
 34 70  1  0  0  0
M  END
$$$$
