6e7r_ligand
  -I-interpret- 

 50 51  0  0  0  0  0  0  0  0999 V2000
  -15.3740  -66.2510  163.1940 C   0  0  0  0  0
  -16.7090  -66.4290  162.9390 C   0  0  0  0  0
  -17.4950  -65.3590  162.5960 C   0  0  0  0  0
  -16.9210  -64.1020  162.4570 C   0  0  0  0  0
  -15.5540  -63.9360  162.6820 C   0  0  0  0  0
  -14.7940  -64.9990  163.0740 C   0  0  0  0  0
  -14.8980  -62.5290  162.5440 C   0  0  0  0  0
  -14.2560  -62.3160  161.1660 C   0  0  0  0  0
  -14.7400  -61.0040  160.5480 N   0  3  0  0  0
  -14.0430  -59.8820  161.1590 C   0  0  0  0  0
  -12.5490  -60.2180  161.3160 C   0  0  0  0  0
  -11.7610  -58.9270  161.5900 C   0  0  0  0  0
  -10.8080  -59.2040  162.6400 O   0  0  0  0  0
   -9.6470  -58.4510  162.5800 C   0  0  0  0  0
   -8.7950  -58.4070  163.6910 C   0  0  0  0  0
   -7.6200  -57.6510  163.6440 C   0  0  0  0  0
   -7.3180  -56.9230  162.5190 C   0  0  0  0  0
   -8.1540  -56.9820  161.3890 C   0  0  0  0  0
   -9.3280  -57.7410  161.4340 C   0  0  0  0  0
   -6.0960  -56.1110  162.4910 N   0  0  0  0  0
   -4.7740  -56.5840  161.5160 S   0  0  0  0  0
   -5.2970  -56.7900  159.8280 C   0  0  0  0  0
   -4.1520  -57.8050  162.0290 O   0  0  0  0  0
   -3.6740  -55.6240  161.6230 O   0  0  0  0  0
  -12.3750  -61.1020  162.3820 O   0  0  0  0  0
  -17.4020  -68.0330  163.0950 Cl  0  0  0  0  0
  -14.4020  -67.6320  163.6200 Cl  0  0  0  0  0
  -18.5643  -65.4942  162.4334 H   0  0  0  0  0
  -17.5362  -63.2482  162.1731 H   0  0  0  0  0
  -13.7346  -64.8635  163.2919 H   0  0  0  0  0
  -14.1148  -62.4464  163.2976 H   0  0  0  0  0
  -15.6783  -61.7788  162.6724 H   0  0  0  0  0
  -14.5381  -63.1412  160.5121 H   0  0  0  0  0
  -13.1730  -62.2749  161.2820 H   0  0  0  0  0
  -15.7423  -60.9057  160.7094 H   0  0  0  0  0
  -14.5491  -61.0134  159.5461 H   0  0  0  0  0
  -14.4724  -59.6829  162.1409 H   0  0  0  0  0
  -14.1495  -59.0028  160.5236 H   0  0  0  0  0
  -12.1853  -60.6817  160.3991 H   0  0  0  0  0
  -12.4377  -58.1287  161.8949 H   0  0  0  0  0
  -11.2445  -58.6008  160.6873 H   0  0  0  0  0
   -9.0486  -58.9631  164.5936 H   0  0  0  0  0
   -6.9442  -57.6393  164.4992 H   0  0  0  0  0
   -7.8880  -56.4386  160.4824 H   0  0  0  0  0
   -9.9906  -57.7738  160.5691 H   0  0  0  0  0
   -6.0353  -55.2628  163.0543 H   0  0  0  0  0
   -4.4329  -57.0283  159.2078 H   0  0  0  0  0
   -6.0223  -57.6016  159.7702 H   0  0  0  0  0
   -5.7551  -55.8659  159.4756 H   0  0  0  0  0
  -11.4422  -61.3085  162.4760 H   0  0  0  0  0
  1  2  4  0  0  0
  1  6  4  0  0  0
  1 27  1  0  0  0
  2  3  4  0  0  0
  2 26  1  0  0  0
  3  4  4  0  0  0
  4  5  4  0  0  0
  5  6  4  0  0  0
  5  7  1  0  0  0
  7  8  1  0  0  0
  8  9  1  0  0  0
  9 10  1  0  0  0
 10 11  1  0  0  0
 11 12  1  0  0  0
 11 25  1  0  0  0
 12 13  1  0  0  0
 13 14  1  0  0  0
 14 15  4  0  0  0
 14 19  4  0  0  0
 15 16  4  0  0  0
 16 17  4  0  0  0
 17 18  4  0  0  0
 17 20  1  0  0  0
 18 19  4  0  0  0
 20 21  1  0  0  0
 21 22  1  0  0  0
 21 23  2  0  0  0
 21 24  2  0  0  0
  3 28  1  0  0  0
  4 29  1  0  0  0
  6 30  1  0  0  0
  7 31  1  0  0  0
  7 32  1  0  0  0
  8 33  1  0  0  0
  8 34  1  0  0  0
  9 35  1  0  0  0
  9 36  1  0  0  0
 10 37  1  0  0  0
 10 38  1  0  0  0
 11 39  1  0  0  0
 12 40  1  0  0  0
 12 41  1  0  0  0
 15 42  1  0  0  0
 16 43  1  0  0  0
 18 44  1  0  0  0
 19 45  1  0  0  0
 20 46  1  0  0  0
 22 47  1  0  0  0
 22 48  1  0  0  0
 22 49  1  0  0  0
 25 50  1  0  0  0
M  END
$$$$
