2er6_ligand
  -I-interpret- 

129131  0  0  0  0  0  0  0  0999 V2000
   33.2910   -5.2060   -6.5530 N   0  3  0  0  0
   32.8050   -5.8600   -5.3720 C   0  0  0  0  0
   33.9550   -6.2230   -4.5050 C   0  0  0  0  0
   35.0930   -6.4100   -5.0360 O   0  0  0  0  0
   32.0700   -7.0810   -5.8950 C   0  0  0  0  0
   32.1920   -7.0710   -7.4250 C   0  0  0  0  0
   32.9830   -5.8700   -7.8300 C   0  0  0  0  0
   33.6640   -6.2890   -3.2520 N   0  0  0  0  0
   34.6320   -6.6340   -2.2380 C   0  0  0  0  0
   33.9930   -7.6640   -1.2870 C   0  0  0  0  0
   32.7650   -7.8040   -1.2290 O   0  0  0  0  0
   35.2880   -5.3470   -1.7290 C   0  0  0  0  0
   34.2910   -4.3840   -1.4070 O   0  0  0  0  0
   36.1580   -4.6640   -2.7940 C   0  0  0  0  0
   34.8370   -8.4880   -0.7070 N   0  0  0  0  0
   34.3970   -9.5500    0.2240 C   0  0  0  0  0
   35.2890   -9.5610    1.4610 C   0  0  0  0  0
   36.1040  -10.4760    1.6510 O   0  0  0  0  0
   34.5220  -10.9280   -0.4420 C   0  0  0  0  0
   33.7520  -11.0340   -1.7620 C   0  0  0  0  0
   33.7760  -12.4480   -2.3570 C   0  0  0  0  0
   32.7840  -13.2490   -2.1580 O   0  0  0  0  0
   34.7900  -12.8380   -3.0540 O   0  0  0  0  0
   35.1440   -8.5190    2.2170 N   0  0  0  0  0
   35.8970   -8.3280    3.4640 C   0  0  0  0  0
   35.1120   -8.9140    4.6350 C   0  0  0  0  0
   36.1370   -6.8370    3.7070 C   0  0  0  0  0
   36.8830   -6.1570    2.5570 C   0  0  0  0  0
   36.6390   -4.8100    2.2640 C   0  0  0  0  0
   37.8090   -6.8820    1.7970 C   0  0  0  0  0
   37.3210   -4.1880    1.2120 C   0  0  0  0  0
   38.4910   -6.2600    0.7450 C   0  0  0  0  0
   38.2470   -4.9130    0.4520 C   0  0  0  0  0
   35.0220  -10.3550    4.4950 N   0  3  0  0  0
   35.2990  -11.2700    5.6020 C   0  0  0  0  0
   36.7430  -11.7550    5.5460 C   0  0  0  0  0
   37.3100  -11.9480    4.4600 O   0  0  0  0  0
   34.3180  -12.4480    5.5900 C   0  0  0  0  0
   34.4040  -13.2950    4.3210 C   0  0  0  0  0
   33.7510  -12.8750    3.1580 C   0  0  0  0  0
   35.1220  -14.4980    4.3270 C   0  0  0  0  0
   33.8170  -13.6550    1.9980 C   0  0  0  0  0
   35.1880  -15.2790    3.1670 C   0  0  0  0  0
   34.5360  -14.8570    2.0020 C   0  0  0  0  0
   37.2650  -11.9090    6.7440 N   0  0  0  0  0
   38.6080  -12.4270    6.9880 C   0  0  0  0  0
   38.6470  -13.9200    6.6700 C   0  0  0  0  0
   37.7460  -14.6790    7.0570 O   0  0  0  0  0
   38.9430  -12.2840    8.4720 C   0  0  0  0  0
   40.4000  -11.9070    8.7270 C   0  0  0  0  0
   40.9600  -12.5280   10.0060 C   0  0  0  0  0
   42.1640  -13.3350    9.7690 N   0  0  0  0  0
   42.6720  -14.2010   10.6550 C   0  0  0  0  0
   42.0920  -14.3900   11.8480 N   0  0  0  0  0
   43.7720  -14.9360   10.4380 N   0  0  0  0  0
   39.6930  -14.3230    6.0280 N   0  0  0  0  0
   39.9350  -15.7430    5.7390 C   0  0  0  0  0
   41.3950  -16.0920    6.0230 C   0  0  0  0  0
   41.7550  -16.4550    7.1520 O   0  0  0  0  0
   39.5730  -16.0550    4.2880 C   0  0  0  0  0
   38.2990  -16.8910    4.1640 C   0  0  0  0  0
   38.1770  -17.5990    2.8150 C   0  0  0  0  0
   38.0340  -18.8800    2.7690 O   0  0  0  0  0
   38.2160  -16.9150    1.7220 O   0  0  0  0  0
   42.2380  -16.0160    5.1160 O   0  0  0  0  0
   34.3079   -5.1918   -6.4751 H   0  0  0  0  0
   32.8330   -4.2952   -6.5855 H   0  0  0  0  0
   32.1478   -5.2404   -4.7618 H   0  0  0  0  0
   31.0223   -7.0532   -5.5955 H   0  0  0  0  0
   32.5033   -7.9926   -5.4835 H   0  0  0  0  0
   32.6927   -7.9778   -7.7641 H   0  0  0  0  0
   31.2008   -7.0333   -7.8769 H   0  0  0  0  0
   33.8814   -6.1335   -8.3882 H   0  0  0  0  0
   32.4336   -5.2220   -8.5129 H   0  0  0  0  0
   32.7065   -6.0885   -2.9632 H   0  0  0  0  0
   35.5125   -7.1845   -2.5694 H   0  0  0  0  0
   35.8905   -5.6484   -0.8721 H   0  0  0  0  0
   34.7128   -3.5823   -1.0894 H   0  0  0  0  0
   36.9515   -5.3440   -3.1038 H   0  0  0  0  0
   35.5411   -4.4071   -3.6551 H   0  0  0  0  0
   36.5968   -3.7578   -2.3764 H   0  0  0  0  0
   35.8327   -8.3915   -0.9063 H   0  0  0  0  0
   33.3605   -9.3492    0.4950 H   0  0  0  0  0
   34.1039  -11.6649    0.2438 H   0  0  0  0  0
   35.5768  -11.0938   -0.6613 H   0  0  0  0  0
   34.2268  -10.3637   -2.4785 H   0  0  0  0  0
   32.7122  -10.7751   -1.5620 H   0  0  0  0  0
   35.4338  -12.1277   -3.1054 H   0  0  0  0  0
   34.4781   -7.8000    1.9342 H   0  0  0  0  0
   36.8572   -8.8368    3.3789 H   0  0  0  0  0
   34.1080   -8.4896    4.6439 H   0  0  0  0  0
   35.6231   -8.6740    5.5673 H   0  0  0  0  0
   36.7496   -6.7408    4.6034 H   0  0  0  0  0
   35.1640   -6.3551    3.8029 H   0  0  0  0  0
   35.9178   -4.2456    2.8552 H   0  0  0  0  0
   37.9987   -7.9309    2.0247 H   0  0  0  0  0
   37.1313   -3.1391    0.9843 H   0  0  0  0  0
   39.2122   -6.8244    0.1538 H   0  0  0  0  0
   38.7778   -4.4286   -0.3676 H   0  0  0  0  0
   34.0332  -10.5122    4.3003 H   0  0  0  0  0
   35.7544  -10.5730    3.8193 H   0  0  0  0  0
   35.1610  -10.7309    6.5392 H   0  0  0  0  0
   33.3098  -12.0371    5.6435 H   0  0  0  0  0
   34.5673  -13.0923    6.4331 H   0  0  0  0  0
   33.1906  -11.9401    3.1550 H   0  0  0  0  0
   35.6291  -14.8258    5.2345 H   0  0  0  0  0
   33.3088  -13.3271    1.0912 H   0  0  0  0  0
   35.7466  -16.2150    3.1708 H   0  0  0  0  0
   34.5880  -15.4639    1.0981 H   0  0  0  0  0
   36.6970  -11.6509    7.5510 H   0  0  0  0  0
   39.3125  -11.8746    6.3662 H   0  0  0  0  0
   38.7644  -13.2496    8.9451 H   0  0  0  0  0
   38.3202  -11.4856    8.8754 H   0  0  0  0  0
   40.4497  -10.8234    8.8337 H   0  0  0  0  0
   40.9913  -12.2785    7.8901 H   0  0  0  0  0
   40.1949  -13.1847   10.4202 H   0  0  0  0  0
   41.2309  -11.7154   10.6800 H   0  0  0  0  0
   42.6426  -13.2293    8.8745 H   0  0  0  0  0
   41.2496  -13.8700   12.0936 H   0  0  0  0  0
   44.1060  -15.5784   11.1564 H   0  0  0  0  0
   44.2749  -14.8528    9.5545 H   0  0  0  0  0
   40.3735  -13.6324    5.7112 H   0  0  0  0  0
   39.3033  -16.3518    6.3858 H   0  0  0  0  0
   40.3927  -16.6280    3.8545 H   0  0  0  0  0
   39.4034  -15.1086    3.7746 H   0  0  0  0  0
   37.4486  -16.2163    4.2626 H   0  0  0  0  0
   38.3281  -17.6568    4.9391 H   0  0  0  0  0
   38.3258  -15.9847    1.9318 H   0  0  0  0  0
   41.8109  -15.7238    4.3074 H   0  0  0  0  0
  3  2  1  0  0  0
  2  5  1  0  0  0
  2  1  1  0  0  0
  1  7  1  0  0  0
  7  6  1  0  0  0
  5  6  1  0  0  0
  3  4  2  0  0  0
  9  8  1  0  0  0
  9 12  1  0  0  0
 10  9  1  0  0  0
 10 11  2  0  0  0
 12 14  1  0  0  0
 12 13  1  0  0  0
  8  3  1  0  0  0
 16 15  1  0  0  0
 16 19  1  0  0  0
 17 16  1  0  0  0
 17 18  2  0  0  0
 19 20  1  0  0  0
 20 21  1  0  0  0
 21 23  1  0  0  0
 21 22  2  0  0  0
 15 10  1  0  0  0
 25 24  1  0  0  0
 25 27  1  0  0  0
 26 25  1  0  0  0
 27 28  1  0  0  0
 28 29  4  0  0  0
 28 30  4  0  0  0
 30 32  4  0  0  0
 32 33  4  0  0  0
 31 33  4  0  0  0
 29 31  4  0  0  0
 24 17  1  0  0  0
 35 34  1  0  0  0
 35 38  1  0  0  0
 36 35  1  0  0  0
 36 37  2  0  0  0
 38 39  1  0  0  0
 39 40  4  0  0  0
 39 41  4  0  0  0
 41 43  4  0  0  0
 43 44  4  0  0  0
 42 44  4  0  0  0
 40 42  4  0  0  0
 34 26  1  0  0  0
 46 45  1  0  0  0
 46 49  1  0  0  0
 47 46  1  0  0  0
 47 48  2  0  0  0
 49 50  1  0  0  0
 50 51  1  0  0  0
 51 52  1  0  0  0
 52 53  1  0  0  0
 53 55  1  0  0  0
 53 54  2  0  0  0
 45 36  1  0  0  0
 56 57  1  0  0  0
 57 60  1  0  0  0
 57 58  1  0  0  0
 58 59  2  0  0  0
 58 65  1  0  0  0
 60 61  1  0  0  0
 61 62  1  0  0  0
 62 64  1  0  0  0
 62 63  2  0  0  0
 47 56  1  0  0  0
  1 66  1  0  0  0
  1 67  1  0  0  0
  2 68  1  0  0  0
  5 69  1  0  0  0
  5 70  1  0  0  0
  6 71  1  0  0  0
  6 72  1  0  0  0
  7 73  1  0  0  0
  7 74  1  0  0  0
  8 75  1  0  0  0
  9 76  1  0  0  0
 12 77  1  0  0  0
 13 78  1  0  0  0
 14 79  1  0  0  0
 14 80  1  0  0  0
 14 81  1  0  0  0
 15 82  1  0  0  0
 16 83  1  0  0  0
 19 84  1  0  0  0
 19 85  1  0  0  0
 20 86  1  0  0  0
 20 87  1  0  0  0
 23 88  1  0  0  0
 24 89  1  0  0  0
 25 90  1  0  0  0
 26 91  1  0  0  0
 26 92  1  0  0  0
 27 93  1  0  0  0
 27 94  1  0  0  0
 29 95  1  0  0  0
 30 96  1  0  0  0
 31 97  1  0  0  0
 32 98  1  0  0  0
 33 99  1  0  0  0
 34100  1  0  0  0
 34101  1  0  0  0
 35102  1  0  0  0
 38103  1  0  0  0
 38104  1  0  0  0
 40105  1  0  0  0
 41106  1  0  0  0
 42107  1  0  0  0
 43108  1  0  0  0
 44109  1  0  0  0
 45110  1  0  0  0
 46111  1  0  0  0
 49112  1  0  0  0
 49113  1  0  0  0
 50114  1  0  0  0
 50115  1  0  0  0
 51116  1  0  0  0
 51117  1  0  0  0
 52118  1  0  0  0
 54119  1  0  0  0
 55120  1  0  0  0
 55121  1  0  0  0
 56122  1  0  0  0
 57123  1  0  0  0
 60124  1  0  0  0
 60125  1  0  0  0
 61126  1  0  0  0
 61127  1  0  0  0
 64128  1  0  0  0
 65129  1  0  0  0
M  END
$$$$
