### 
### Created by X-TOOL on Mon Sep 10 21:12:44 2018
### 

@<TRIPOS>MOLECULE
2er6_ligand
  127   129     1     0     0
SMALL
GAST_HUCK


@<TRIPOS>ATOM
      1 N          33.2910   -5.2060   -6.5530 N.4       1 PRO         0.2461
      2 CA         32.8050   -5.8600   -5.3720 C.3       1 PRO         0.0670
      3 C          33.9550   -6.2230   -4.5050 C.2       1 PRO         0.2268
      4 O          35.0930   -6.4100   -5.0360 O.2       1 PRO        -0.3907
      5 CB         32.0700   -7.0810   -5.8950 C.3       1 PRO         0.0127
      6 CG         32.1920   -7.0710   -7.4250 C.3       1 PRO        -0.0053
      7 CD         32.9830   -5.8700   -7.8300 C.3       1 PRO        -0.0313
      8 N          33.6640   -6.2890   -3.2520 N.am      1 THR        -0.2586
      9 CA         34.6320   -6.6340   -2.2380 C.3       1 THR         0.1566
     10 C          33.9930   -7.6640   -1.2870 C.2       1 THR         0.2065
     11 O          32.7650   -7.8040   -1.2290 O.2       1 THR        -0.3943
     12 CB         35.2880   -5.3470   -1.7290 C.3       1 THR         0.0924
     13 OG1        34.2910   -4.3840   -1.4070 O.3       1 THR        -0.3874
     14 CG2        36.1580   -4.6640   -2.7940 C.3       1 THR        -0.0346
     15 N          34.8370   -8.4880   -0.7070 N.am      1 GLU        -0.2635
     16 CA         34.3970   -9.5500    0.2240 C.3       1 GLU         0.1323
     17 C          35.2890   -9.5610    1.4610 C.2       1 GLU         0.2023
     18 O          36.1040  -10.4760    1.6510 O.2       1 GLU        -0.3945
     19 CB         34.5220  -10.9280   -0.4420 C.3       1 GLU        -0.0008
     20 CG         33.7520  -11.0340   -1.7620 C.3       1 GLU         0.0044
     21 CD         33.7760  -12.4480   -2.3570 C.2       1 GLU         0.0350
     22 OE1        32.7840  -13.2490   -2.1580 O.co2     1 GLU        -0.5690
     23 OE2        34.7900  -12.8380   -3.0540 O.co2     1 GLU        -0.5690
     24 N          35.1440   -8.5190    2.2170 N.am      1 PUK        -0.2749
     25 CA         35.8970   -8.3280    3.4640 C.3       1 PUK         0.0911
     26 C          35.1120   -8.9140    4.6350 C.3       1 PUK        -0.0061
     27 CB         36.1370   -6.8370    3.7070 C.3       1 PUK         0.0089
     28 CG         36.8830   -6.1570    2.5570 C.ar      1 PUK        -0.0406
     29 CD1        36.6390   -4.8100    2.2640 C.ar      1 PUK        -0.0603
     30 CD2        37.8090   -6.8820    1.7970 C.ar      1 PUK        -0.0603
     31 CE1        37.3210   -4.1880    1.2120 C.ar      1 PUK        -0.0686
     32 CE2        38.4910   -6.2600    0.7450 C.ar      1 PUK        -0.0686
     33 CZ         38.2470   -4.9130    0.4520 C.ar      1 PUK        -0.0687
     34 N          35.0220  -10.3550    4.4950 N.4       1 PUK         0.2493
     35 CA         35.2990  -11.2700    5.6020 C.3       1 PUK         0.0763
     36 C          36.7430  -11.7550    5.5460 C.2       1 PUK         0.2288
     37 O          37.3100  -11.9480    4.4600 O.2       1 PUK        -0.3905
     38 CB         34.3180  -12.4480    5.5900 C.3       1 PUK         0.0416
     39 CG         34.4040  -13.2950    4.3210 C.ar      1 PUK        -0.0353
     40 CD1        33.7510  -12.8750    3.1580 C.ar      1 PUK        -0.0600
     41 CD2        35.1220  -14.4980    4.3270 C.ar      1 PUK        -0.0600
     42 CE1        33.8170  -13.6550    1.9980 C.ar      1 PUK        -0.0686
     43 CE2        35.1880  -15.2790    3.1670 C.ar      1 PUK        -0.0686
     44 CZ         34.5360  -14.8570    2.0020 C.ar      1 PUK        -0.0687
     45 N          37.2650  -11.9090    6.7440 N.am      1 ARG        -0.2609
     46 CA         38.6080  -12.4270    6.9880 C.3       1 ARG         0.1312
     47 C          38.6470  -13.9200    6.6700 C.2       1 ARG         0.2033
     48 O          37.7460  -14.6790    7.0570 O.2       1 ARG        -0.3944
     49 CB         38.9430  -12.2840    8.4720 C.3       1 ARG        -0.0092
     50 CG         40.4000  -11.9070    8.7270 C.3       1 ARG        -0.0156
     51 CD         40.9600  -12.5280   10.0060 C.3       1 ARG         0.0627
     52 NE         42.1640  -13.3350    9.7690 N.pl3     1 ARG        -0.2723
     53 CZ         42.6720  -14.2010   10.6550 C.cat     1 ARG         0.2882
     54 NH1        42.0920  -14.3900   11.8480 N.pl3     1 ARG        -0.2849
     55 NH2        43.7720  -14.9360   10.4380 N.pl3     1 ARG        -0.2849
     56 N          39.6930  -14.3230    6.0280 N.am      1 GLU        -0.2694
     57 CA         39.9350  -15.7430    5.7390 C.3       1 GLU         0.0959
     58 C          41.3950  -16.0920    6.0230 C.2       1 GLU         0.0602
     59 O          41.7550  -16.4550    7.1520 O.co2     1 GLU        -0.5666
     60 CB         39.5730  -16.0550    4.2880 C.3       1 GLU        -0.0064
     61 CG         38.2990  -16.8910    4.1640 C.3       1 GLU         0.0038
     62 CD         38.1770  -17.5990    2.8150 C.2       1 GLU         0.0350
     63 OE1        38.0340  -18.8800    2.7690 O.co2     1 GLU        -0.5690
     64 OE2        38.2160  -16.9150    1.7220 O.co2     1 GLU        -0.5690
     65 OXT        42.2380  -16.0160    5.1160 O.co2     1 GLU        -0.5666
     66 H1         34.2935   -5.1350   -6.4761 H         1 PRO         0.2035
     67 H2         32.8898   -4.2817   -6.5812 H         1 PRO         0.2035
     68 H3         32.1171   -5.2078   -4.8140 H         1 PRO         0.1099
     69 H4         31.0106   -7.0360   -5.6022 H         1 PRO         0.0347
     70 H5         32.5244   -7.9962   -5.4878 H         1 PRO         0.0347
     71 H6         32.7047   -7.9839   -7.7622 H         1 PRO         0.0320
     72 H7         31.1901   -7.0250   -7.8767 H         1 PRO         0.0320
     73 H8         33.9058   -6.1658   -8.3506 H         1 PRO         0.0814
     74 H9         32.3897   -5.2113   -8.4812 H         1 PRO         0.0814
     75 H10        32.7253   -6.0924   -2.9688 H         1 THR         0.1885
     76 H11        35.4463   -7.1822   -2.7344 H         1 THR         0.0826
     77 H12        35.8955   -5.5833   -0.8430 H         1 THR         0.0639
     78 H13        33.7092   -4.7409   -0.7462 H         1 THR         0.2101
     79 H14        36.6014   -3.7492   -2.3737 H         1 THR         0.0257
     80 H15        35.5366   -4.4041   -3.6636 H         1 THR         0.0257
     81 H16        36.9593   -5.3492   -3.1075 H         1 THR         0.0257
     82 H17        35.8131   -8.3934   -0.9024 H         1 GLU         0.1883
     83 H18        33.3521   -9.3689    0.5162 H         1 GLU         0.0801
     84 H19        34.1325  -11.6878    0.2515 H         1 GLU         0.0330
     85 H20        35.5858  -11.1244   -0.6414 H         1 GLU         0.0330
     86 H21        34.2024  -10.3406   -2.4875 H         1 GLU         0.0433
     87 H22        32.7055  -10.7472   -1.5816 H         1 GLU         0.0433
     88 H23        34.4912   -7.8140    1.9397 H         1 PUK         0.1859
     89 H24        36.8660   -8.8422    3.3830 H         1 PUK         0.0632
     90 H25        34.0994   -8.4845    4.6471 H         1 PUK         0.0839
     91 H26        35.6251   -8.6701    5.5770 H         1 PUK         0.0839
     92 H27        36.7304   -6.7225    4.6261 H         1 PUK         0.0450
     93 H28        35.1634   -6.3414    3.8350 H         1 PUK         0.0450
     94 H29        35.9218   -4.2487    2.8520 H         1 PUK         0.0557
     95 H30        37.9976   -7.9252    2.0235 H         1 PUK         0.0557
     96 H31        37.1324   -3.1448    0.9855 H         1 PUK         0.0599
     97 H32        39.2082   -6.8213    0.1570 H         1 PUK         0.0599
     98 H33        38.7749   -4.4313   -0.3631 H         1 PUK         0.0559
     99 H34        34.0778  -10.5493    4.2005 H         1 PUK         0.2038
    100 H35        35.6622  -10.6053    3.7578 H         1 PUK         0.2038
    101 H36        35.1599  -10.7203    6.5446 H         1 PUK         0.1123
    102 H37        33.2956  -12.0515    5.6761 H         1 PUK         0.0507
    103 H38        34.5356  -13.0921    6.4547 H         1 PUK         0.0507
    104 H39        33.1937  -11.9452    3.1550 H         1 PUK         0.0557
    105 H40        35.6263  -14.8240    5.2295 H         1 PUK         0.0557
    106 H41        33.3116  -13.3289    1.0962 H         1 PUK         0.0599
    107 H42        35.7435  -16.2098    3.1708 H         1 PUK         0.0599
    108 H43        34.5877  -15.4606    1.1031 H         1 PUK         0.0559
    109 H44        36.7082  -11.6559    7.5351 H         1 ARG         0.1885
    110 H45        39.3390  -11.8825    6.3723 H         1 ARG         0.0800
    111 H46        38.7378  -13.2428    8.9705 H         1 ARG         0.0313
    112 H47        38.2995  -11.5022    8.9017 H         1 ARG         0.0313
    113 H48        40.4702  -10.8123    8.8086 H         1 ARG         0.0301
    114 H49        41.0057  -12.2509    7.8756 H         1 ARG         0.0301
    115 H50        40.1875  -13.1723   10.4509 H         1 ARG         0.0689
    116 H51        41.2119  -11.7194   10.7079 H         1 ARG         0.0689
    117 H52        42.6473  -13.2283    8.8657 H         1 ARG         0.2642
    118 H53        42.4968  -15.0604   12.5170 H         1 ARG         0.2615
    119 H54        41.2413  -13.8649   12.0960 H         1 ARG         0.2615
    120 H55        44.2798  -14.8520    9.5458 H         1 ARG         0.2615
    121 H56        44.1093  -15.5847   11.1635 H         1 ARG         0.2615
    122 H57        40.3602  -13.6460    5.7174 H         1 GLU         0.1875
    123 H58        39.2958  -16.3504    6.3966 H         1 GLU         0.0727
    124 H59        40.4044  -16.6106    3.8296 H         1 GLU         0.0323
    125 H60        39.4252  -15.1067    3.7505 H         1 GLU         0.0323
    126 H61        37.4309  -16.2276    4.2912 H         1 GLU         0.0432
    127 H62        38.2996  -17.6507    4.9595 H         1 GLU         0.0432
@<TRIPOS>BOND
     1    3    2 1  
     2    2    5 1  
     3    2    1 1  
     4    1    7 1  
     5    7    6 1  
     6    5    6 1  
     7    3    4 2  
     8    9    8 1  
     9    9   12 1  
    10   10    9 1  
    11   10   11 2  
    12   12   14 1  
    13   12   13 1  
    14    8    3 am 
    15   16   15 1  
    16   16   19 1  
    17   17   16 1  
    18   17   18 2  
    19   19   20 1  
    20   20   21 1  
    21   21   23 ar 
    22   21   22 ar 
    23   15   10 am 
    24   25   24 1  
    25   25   27 1  
    26   26   25 1  
    27   27   28 1  
    28   28   29 ar 
    29   28   30 ar 
    30   30   32 ar 
    31   32   33 ar 
    32   31   33 ar 
    33   29   31 ar 
    34   24   17 am 
    35   35   34 1  
    36   35   38 1  
    37   36   35 1  
    38   36   37 2  
    39   38   39 1  
    40   39   40 ar 
    41   39   41 ar 
    42   41   43 ar 
    43   43   44 ar 
    44   42   44 ar 
    45   40   42 ar 
    46   34   26 1  
    47   46   45 1  
    48   46   49 1  
    49   47   46 1  
    50   47   48 2  
    51   49   50 1  
    52   50   51 1  
    53   51   52 1  
    54   52   53 ar 
    55   53   55 ar 
    56   53   54 ar 
    57   45   36 am 
    58   56   57 1  
    59   57   60 1  
    60   57   58 1  
    61   58   59 ar 
    62   58   65 ar 
    63   60   61 1  
    64   61   62 1  
    65   62   64 ar 
    66   62   63 ar 
    67   47   56 am 
    68    1   66 1  
    69    1   67 1  
    70    2   68 1  
    71    5   69 1  
    72    5   70 1  
    73    6   71 1  
    74    6   72 1  
    75    7   73 1  
    76    7   74 1  
    77    8   75 1  
    78    9   76 1  
    79   12   77 1  
    80   13   78 1  
    81   14   79 1  
    82   14   80 1  
    83   14   81 1  
    84   15   82 1  
    85   16   83 1  
    86   19   84 1  
    87   19   85 1  
    88   20   86 1  
    89   20   87 1  
    90   24   88 1  
    91   25   89 1  
    92   26   90 1  
    93   26   91 1  
    94   27   92 1  
    95   27   93 1  
    96   29   94 1  
    97   30   95 1  
    98   31   96 1  
    99   32   97 1  
   100   33   98 1  
   101   34   99 1  
   102   34  100 1  
   103   35  101 1  
   104   38  102 1  
   105   38  103 1  
   106   40  104 1  
   107   41  105 1  
   108   42  106 1  
   109   43  107 1  
   110   44  108 1  
   111   45  109 1  
   112   46  110 1  
   113   49  111 1  
   114   49  112 1  
   115   50  113 1  
   116   50  114 1  
   117   51  115 1  
   118   51  116 1  
   119   52  117 1  
   120   54  118 1  
   121   54  119 1  
   122   55  120 1  
   123   55  121 1  
   124   56  122 1  
   125   57  123 1  
   126   60  124 1  
   127   60  125 1  
   128   61  126 1  
   129   61  127 1  
@<TRIPOS>SUBSTRUCTURE
     1 PRO         1

