1r1j_ligand
  -I-interpret- 

 52 53  0  0  0  0  0  0  0  0999 V2000
   30.8520   42.7220   31.3250 O   0  0  0  0  0
   29.6840   43.0690   31.2770 C   0  0  0  0  0
   28.8210   42.5200   30.1900 C   0  0  0  0  0
   27.3490   42.5030   30.5750 C   0  0  0  0  0
   26.9810   41.0750   30.9050 C   0  0  0  0  0
   25.7650   40.7800   31.5070 C   0  0  0  0  0
   25.4430   39.4640   31.8130 C   0  0  0  0  0
   26.3360   38.4400   31.5150 C   0  0  0  0  0
   27.5500   38.7350   30.9110 C   0  0  0  0  0
   27.8730   40.0530   30.6080 C   0  0  0  0  0
   29.1040   43.5790   28.7620 S   0  0  0  0  0
   29.1750   43.9410   32.1370 N   0  0  0  0  0
   30.1140   44.3860   33.1580 C   0  0  0  0  0
   30.3430   43.3050   34.1830 C   0  0  0  0  0
   31.4780   43.0150   34.4980 O   0  0  0  0  0
   29.2790   42.6990   34.6910 N   0  0  0  0  0
   29.3920   41.7930   35.8250 C   0  0  0  0  0
   28.4640   40.6230   35.6670 C   0  0  0  0  0
   27.5030   40.7320   34.9240 O   0  0  0  0  0
   28.6620   39.5700   36.2620 O   0  0  0  0  0
   29.0570   42.5400   37.1140 C   0  0  0  0  0
   29.6130   45.6730   33.8110 C   0  0  0  0  0
   30.7880   46.2130   34.5970 C   0  0  0  0  0
   30.7100   46.3790   35.9770 C   0  0  0  0  0
   31.8030   46.8660   36.6870 C   0  0  0  0  0
   32.9820   47.1770   36.0200 C   0  0  0  0  0
   33.0620   47.0070   34.6470 C   0  0  0  0  0
   31.9700   46.5270   33.9360 C   0  0  0  0  0
   29.0762   41.4807   29.9832 H   0  0  0  0  0
   26.7363   42.8739   29.7534 H   0  0  0  0  0
   27.1727   43.1499   31.4344 H   0  0  0  0  0
   25.0633   41.5810   31.7394 H   0  0  0  0  0
   24.4891   39.2333   32.2874 H   0  0  0  0  0
   26.0826   37.4075   31.7555 H   0  0  0  0  0
   28.2501   37.9338   30.6742 H   0  0  0  0  0
   28.8281   40.2844   30.1365 H   0  0  0  0  0
   30.3980   43.5697   28.4546 H   0  0  0  0  0
   28.2111   44.2709   32.0878 H   0  0  0  0  0
   31.0723   44.5965   32.6831 H   0  0  0  0  0
   28.3620   42.8711   34.2788 H   0  0  0  0  0
   30.4156   41.4212   35.8697 H   0  0  0  0  0
   29.4529   39.6516   36.8000 H   0  0  0  0  0
   29.7518   43.3700   37.2425 H   0  0  0  0  0
   28.0382   42.9230   37.0562 H   0  0  0  0  0
   29.1428   41.8584   37.9602 H   0  0  0  0  0
   28.7543   45.4852   34.4556 H   0  0  0  0  0
   29.2679   46.3901   33.0662 H   0  0  0  0  0
   29.7894   46.1266   36.5032 H   0  0  0  0  0
   31.7346   47.0036   37.7661 H   0  0  0  0  0
   33.8412   47.5535   36.5752 H   0  0  0  0  0
   33.9860   47.2511   34.1229 H   0  0  0  0  0
   32.0398   46.3960   32.8562 H   0  0  0  0  0
  1  2  2  0  0  0
  2  3  1  0  0  0
  2 12  1  0  0  0
  3  4  1  0  0  0
  3 11  1  0  0  0
  4  5  1  0  0  0
  5  6  4  0  0  0
  5 10  4  0  0  0
  6  7  4  0  0  0
  7  8  4  0  0  0
  8  9  4  0  0  0
  9 10  4  0  0  0
 12 13  1  0  0  0
 13 14  1  0  0  0
 13 22  1  0  0  0
 14 15  2  0  0  0
 14 16  1  0  0  0
 16 17  1  0  0  0
 17 18  1  0  0  0
 17 21  1  0  0  0
 18 19  2  0  0  0
 18 20  1  0  0  0
 22 23  1  0  0  0
 23 24  4  0  0  0
 23 28  4  0  0  0
 24 25  4  0  0  0
 25 26  4  0  0  0
 26 27  4  0  0  0
 27 28  4  0  0  0
  3 29  1  0  0  0
  4 30  1  0  0  0
  4 31  1  0  0  0
  6 32  1  0  0  0
  7 33  1  0  0  0
  8 34  1  0  0  0
  9 35  1  0  0  0
 10 36  1  0  0  0
 11 37  1  0  0  0
 12 38  1  0  0  0
 13 39  1  0  0  0
 16 40  1  0  0  0
 17 41  1  0  0  0
 20 42  1  0  0  0
 21 43  1  0  0  0
 21 44  1  0  0  0
 21 45  1  0  0  0
 22 46  1  0  0  0
 22 47  1  0  0  0
 24 48  1  0  0  0
 25 49  1  0  0  0
 26 50  1  0  0  0
 27 51  1  0  0  0
 28 52  1  0  0  0
M  END
$$$$
