### 
### Created by X-TOOL on Wed Jan  1 15:39:38 2020
### 

@<TRIPOS>MOLECULE
6g15_ligand
   54    56     1     0     0
SMALL
GAST_HUCK


@<TRIPOS>ATOM
      1 PD         10.0450    8.4500  -26.4740 P.3       1 C1Z         0.2069
      2 O1D        10.7820    7.9860  -25.2690 O.co2     1 C1Z        -0.5891
      3 O2D        10.7210    9.7200  -26.8450 O.co2     1 C1Z        -0.5891
      4 O3D         8.7010    8.8280  -25.9620 O.co2     1 C1Z        -0.5891
      5 PG         10.9730   -3.2140  -30.1460 P.3       1 C1Z         0.1879
      6 O1G         9.5370   -3.4150  -30.4820 O.co2     1 C1Z        -0.6091
      7 O2G        11.5240   -4.5980  -30.0930 O.co2     1 C1Z        -0.6091
      8 O3G        11.5430   -2.6380  -31.3960 O.co2     1 C1Z        -0.6091
      9 PB         12.4310   -1.9760  -27.9910 P.3       1 C1Z         0.3553
     10 O1B        12.6480   -3.1160  -27.0710 O.co2     1 C1Z        -0.5652
     11 O2B        13.6440   -1.9030  -28.8440 O.co2     1 C1Z        -0.5652
     12 O3B        11.1390   -2.2920  -28.8530 O.3       1 C1Z        -0.1546
     13 O3A        12.1600   -0.6660  -27.1550 O.3       1 C1Z        -0.1171
     14 PA         12.6330    0.8170  -27.4240 P.3       1 C1Z         0.3266
     15 O1A        14.1020    0.9640  -27.3570 O.co2     1 C1Z        -0.5692
     16 O2A        12.2900    1.2460  -28.8100 O.co2     1 C1Z        -0.5692
     17 O5'        11.9820    1.7460  -26.3130 O.3       1 C1Z        -0.2441
     18 C5'        10.5720    1.8350  -26.1330 C.3       1 C1Z         0.1135
     19 C4'        10.2320    3.1250  -25.4940 C.3       1 C1Z         0.1244
     20 O4'        10.6090    3.1550  -24.0130 O.3       1 C1Z        -0.3347
     21 C3'        10.9430    4.2670  -26.0870 C.3       1 C1Z         0.1548
     22 O3'        10.0010    5.3930  -26.0600 O.3       1 C1Z        -0.2374
     23 C2'        12.0640    4.5790  -25.2340 C.3       1 C1Z         0.1456
     24 O2'        12.4380    5.9890  -25.3630 O.3       1 C1Z        -0.3831
     25 C1'        11.5990    4.3090  -23.8660 C.3       1 C1Z         0.2180
     26 N9         12.5460    3.8940  -22.9260 N.pl3     1 C1Z        -0.1121
     27 C8         13.2940    2.9810  -23.2370 C.2       1 C1Z         0.1656
     28 N7         14.1100    2.6810  -22.2000 N.2       1 C1Z        -0.2182
     29 C5         13.5950    3.7050  -21.1490 C.2       1 C1Z         0.2119
     30 C6         13.9590    3.9880  -19.7800 C.3       1 C1Z         0.2134
     31 O6         14.9560    3.2790  -19.1450 O.3       1 C1Z        -0.3453
     32 N1         13.2940    5.0010  -19.0410 N.pl3     1 C1Z        -0.2902
     33 C2         12.2900    5.6960  -19.6430 C.cat     1 C1Z         0.1692
     34 N2         11.6350    6.6970  -18.8860 N.pl3     1 C1Z        -0.3505
     35 N3         11.9010    5.3990  -21.0390 N.pl3     1 C1Z        -0.2143
     36 C4         12.5660    4.4010  -21.7870 C.2       1 C1Z         0.3063
     37 PC          9.3560    5.9510  -27.3970 P.3       1 C1Z         0.3279
     38 O1C         9.5500    5.0590  -28.5670 O.co2     1 C1Z        -0.5556
     39 O2C         7.8770    5.9860  -27.2850 O.co2     1 C1Z        -0.5556
     40 O3C         9.9740    7.3850  -27.6440 O.3       1 C1Z        -0.1548
     41 H1         10.2322    1.0084  -25.4917 H         1 C1Z         0.0648
     42 H2         10.0735    1.7689  -27.1113 H         1 C1Z         0.0648
     43 H3          9.1478    3.2778  -25.5992 H         1 C1Z         0.0655
     44 H4         11.2761    4.0478  -27.1122 H         1 C1Z         0.0712
     45 H5         12.9267    3.9439  -25.4837 H         1 C1Z         0.0681
     46 H6         11.7014    6.5349  -25.1140 H         1 C1Z         0.2102
     47 H7         11.1001    5.2102  -23.4801 H         1 C1Z         0.1015
     48 H8         13.3033    2.4821  -24.2050 H         1 C1Z         0.1696
     49 H9         14.6978    4.7217  -20.1346 H         1 C1Z         0.1220
     50 H10        15.3173    2.6367  -19.7444 H         1 C1Z         0.2187
     51 H11        13.5655    5.2062  -18.0688 H         1 C1Z         0.1767
     52 H12        10.8706    7.2438  -19.3074 H         1 C1Z         0.1660
     53 H13        11.9229    6.8785  -17.9138 H         1 C1Z         0.1660
     54 H14        11.1320    5.9288  -21.4736 H         1 C1Z         0.2388
@<TRIPOS>BOND
     1    1    2 ar 
     2    1    3 ar 
     3    1    4 ar 
     4   40    1 1  
     5    5    6 ar 
     6    5    7 ar 
     7    5    8 ar 
     8   12    5 1  
     9    9   10 ar 
    10    9   11 ar 
    11    9   12 1  
    12   13    9 1  
    13   14   13 1  
    14   14   15 ar 
    15   14   16 ar 
    16   17   14 1  
    17   18   17 1  
    18   19   18 1  
    19   19   20 1  
    20   21   19 1  
    21   25   20 1  
    22   22   21 1  
    23   21   23 1  
    24   37   22 1  
    25   23   24 1  
    26   23   25 1  
    27   25   26 1  
    28   26   27 1  
    29   26   36 1  
    30   27   28 2  
    31   29   28 1  
    32   29   30 1  
    33   36   29 2  
    34   30   31 1  
    35   30   32 1  
    36   33   32 ar 
    37   33   34 ar 
    38   35   33 ar 
    39   36   35 1  
    40   37   38 ar 
    41   37   39 ar 
    42   37   40 1  
    43   18   41 1  
    44   18   42 1  
    45   19   43 1  
    46   21   44 1  
    47   23   45 1  
    48   24   46 1  
    49   25   47 1  
    50   27   48 1  
    51   30   49 1  
    52   31   50 1  
    53   32   51 1  
    54   34   52 1  
    55   34   53 1  
    56   35   54 1  
@<TRIPOS>SUBSTRUCTURE
     1 C1Z         1

