6g15_ligand
  -I-interpret- 

 60 62  0  0  0  0  0  0  0  0999 V2000
   10.0450    8.4500  -26.4740 P   0  0  0  0  0
   10.7820    7.9860  -25.2690 O   0  0  0  0  0
   10.7210    9.7200  -26.8450 O   0  0  0  0  0
    8.7010    8.8280  -25.9620 O   0  0  0  0  0
   10.9730   -3.2140  -30.1460 P   0  0  0  0  0
    9.5370   -3.4150  -30.4820 O   0  0  0  0  0
   11.5240   -4.5980  -30.0930 O   0  0  0  0  0
   11.5430   -2.6380  -31.3960 O   0  0  0  0  0
   12.4310   -1.9760  -27.9910 P   0  0  0  0  0
   12.6480   -3.1160  -27.0710 O   0  0  0  0  0
   13.6440   -1.9030  -28.8440 O   0  0  0  0  0
   11.1390   -2.2920  -28.8530 O   0  0  0  0  0
   12.1600   -0.6660  -27.1550 O   0  0  0  0  0
   12.6330    0.8170  -27.4240 P   0  0  0  0  0
   14.1020    0.9640  -27.3570 O   0  0  0  0  0
   12.2900    1.2460  -28.8100 O   0  0  0  0  0
   11.9820    1.7460  -26.3130 O   0  0  0  0  0
   10.5720    1.8350  -26.1330 C   0  0  0  0  0
   10.2320    3.1250  -25.4940 C   0  0  0  0  0
   10.6090    3.1550  -24.0130 O   0  0  0  0  0
   10.9430    4.2670  -26.0870 C   0  0  0  0  0
   10.0010    5.3930  -26.0600 O   0  0  0  0  0
   12.0640    4.5790  -25.2340 C   0  0  0  0  0
   12.4380    5.9890  -25.3630 O   0  0  0  0  0
   11.5990    4.3090  -23.8660 C   0  0  0  0  0
   12.5460    3.8940  -22.9260 N   0  0  0  0  0
   13.2940    2.9810  -23.2370 C   0  0  0  0  0
   14.1100    2.6810  -22.2000 N   0  0  0  0  0
   13.5950    3.7050  -21.1490 C   0  0  0  0  0
   13.9590    3.9880  -19.7800 C   0  0  0  0  0
   14.9560    3.2790  -19.1450 O   0  0  0  0  0
   13.2940    5.0010  -19.0410 N   0  0  0  0  0
   12.2900    5.6960  -19.6430 C   0  0  0  0  0
   11.6350    6.6970  -18.8860 N   0  0  0  0  0
   11.9010    5.3990  -21.0390 N   0  0  0  0  0
   12.5660    4.4010  -21.7870 C   0  0  0  0  0
    9.3560    5.9510  -27.3970 P   0  0  0  0  0
    9.5500    5.0590  -28.5670 O   0  0  0  0  0
    7.8770    5.9860  -27.2850 O   0  0  0  0  0
    9.9740    7.3850  -27.6440 O   0  0  0  0  0
   10.4025    7.1594  -24.9618 H   0  0  0  0  0
    8.2223    8.0357  -25.7076 H   0  0  0  0  0
   12.4591   -4.5609  -29.8791 H   0  0  0  0  0
   12.4805   -2.4725  -31.2723 H   0  0  0  0  0
   13.5549   -1.1750  -29.4635 H   0  0  0  0  0
   11.3410    1.1799  -28.9386 H   0  0  0  0  0
   10.2365    1.0165  -25.4961 H   0  0  0  0  0
   10.0790    1.7710  -27.1030 H   0  0  0  0  0
    9.1557    3.2098  -25.6437 H   0  0  0  0  0
   11.2909    4.0608  -27.0992 H   0  0  0  0  0
   12.9420    3.9892  -25.4974 H   0  0  0  0  0
   13.1842    6.1748  -24.7883 H   0  0  0  0  0
   11.2219    5.2560  -23.4799 H   0  0  0  0  0
   13.3033    2.4816  -24.2058 H   0  0  0  0  0
   13.8689    3.8778  -20.8607 H   0  0  0  0  0
   15.0567    3.6045  -18.2475 H   0  0  0  0  0
   13.5629    5.2042  -18.0783 H   0  0  0  0  0
   11.9201    6.8768  -17.9233 H   0  0  0  0  0
   11.1395    5.9237  -21.4693 H   0  0  0  0  0
   10.4891    4.9589  -28.7395 H   0  0  0  0  0
  1  2  1  0  0  0
  1  3  2  0  0  0
  1  4  1  0  0  0
 40  1  1  0  0  0
  5  6  2  0  0  0
  5  7  1  0  0  0
  5  8  1  0  0  0
 12  5  1  0  0  0
  9 10  2  0  0  0
  9 11  1  0  0  0
  9 12  1  0  0  0
 13  9  1  0  0  0
 14 13  1  0  0  0
 14 15  2  0  0  0
 14 16  1  0  0  0
 17 14  1  0  0  0
 18 17  1  0  0  0
 19 18  1  0  0  0
 19 20  1  0  0  0
 21 19  1  0  0  0
 25 20  1  0  0  0
 22 21  1  0  0  0
 21 23  1  0  0  0
 37 22  1  0  0  0
 23 24  1  0  0  0
 23 25  1  0  0  0
 25 26  1  0  0  0
 26 27  4  0  0  0
 26 36  4  0  0  0
 27 28  4  0  0  0
 29 28  4  0  0  0
 29 30  1  0  0  0
 36 29  4  0  0  0
 30 31  1  0  0  0
 30 32  1  0  0  0
 33 32  1  0  0  0
 33 34  2  0  0  0
 35 33  1  0  0  0
 36 35  1  0  0  0
 37 38  1  0  0  0
 37 39  2  0  0  0
 37 40  1  0  0  0
  2 41  1  0  0  0
  4 42  1  0  0  0
  7 43  1  0  0  0
  8 44  1  0  0  0
 11 45  1  0  0  0
 16 46  1  0  0  0
 18 47  1  0  0  0
 18 48  1  0  0  0
 19 49  1  0  0  0
 21 50  1  0  0  0
 23 51  1  0  0  0
 24 52  1  0  0  0
 25 53  1  0  0  0
 27 54  1  0  0  0
 30 55  1  0  0  0
 31 56  1  0  0  0
 32 57  1  0  0  0
 34 58  1  0  0  0
 35 59  1  0  0  0
 38 60  1  0  0  0
M  END
$$$$
