4mrf_ligand
  -I-interpret- 

 22 23  0  0  0  0  0  0  0  0999 V2000
    9.9300   -6.4600    0.8730 C   0  0  0  0  0
    9.1740   -5.6590   -0.2140 C   0  0  0  0  0
   10.0040   -4.7680   -0.9380 C   0  0  0  0  0
    9.4230   -4.0700   -1.9850 C   0  0  0  0  0
   10.1550   -3.1700   -2.7610 C   0  0  0  0  0
   11.5080   -2.9530   -2.4790 C   0  0  0  0  0
   12.1180   -3.6630   -1.4320 C   0  0  0  0  0
   11.3680   -4.5660   -0.6490 C   0  0  0  0  0
   11.9980   -5.2760    0.4040 C   0  0  0  0  0
   11.0540   -5.7150    1.4520 N   0  3  0  0  0
   10.3316   -7.3591    0.4056 H   0  0  0  0  0
    9.2261   -6.6785    1.6760 H   0  0  0  0  0
    8.4123   -5.0627    0.2883 H   0  0  0  0  0
    8.7646   -6.3767   -0.9249 H   0  0  0  0  0
    8.3678   -4.2279   -2.2080 H   0  0  0  0  0
    9.6748   -2.6388   -3.5828 H   0  0  0  0  0
   12.0841   -2.2386   -3.0671 H   0  0  0  0  0
   13.1776   -3.5155   -1.2229 H   0  0  0  0  0
   12.7215   -4.6063    0.8690 H   0  0  0  0  0
   12.4555   -6.1677   -0.0247 H   0  0  0  0  0
   11.5493   -6.3251    2.1023 H   0  0  0  0  0
   10.6882   -4.8902    1.9277 H   0  0  0  0  0
  1  2  1  0  0  0
  1 10  1  0  0  0
  2  3  1  0  0  0
  3  4  4  0  0  0
  3  8  4  0  0  0
  4  5  4  0  0  0
  5  6  4  0  0  0
  6  7  4  0  0  0
  7  8  4  0  0  0
  8  9  1  0  0  0
  9 10  1  0  0  0
  1 11  1  0  0  0
  1 12  1  0  0  0
  2 13  1  0  0  0
  2 14  1  0  0  0
  4 15  1  0  0  0
  5 16  1  0  0  0
  6 17  1  0  0  0
  7 18  1  0  0  0
  9 19  1  0  0  0
  9 20  1  0  0  0
 10 21  1  0  0  0
 10 22  1  0  0  0
M  END
$$$$
