4lyn_ligand
  -I-interpret- 

 50 52  0  0  0  0  0  0  0  0999 V2000
   28.5820   28.0220   24.8570 C   0  0  0  0  0
   29.9390   28.2790   24.9920 C   0  0  0  0  0
   27.8110   26.7300   24.5870 C   0  0  0  0  0
   27.2000   31.3940   28.1370 C   0  0  0  0  0
   28.7200   25.5150   24.7640 C   0  0  0  0  0
   27.2760   26.7380   23.1560 C   0  0  0  0  0
   26.6410   26.6060   25.5630 C   0  0  0  0  0
   26.3150   32.2630   28.6880 C   0  0  0  0  0
   25.1140   30.4550   28.9440 C   0  0  0  0  0
   30.1290   29.5960   25.3080 N   0  0  0  0  0
   28.9070   30.1190   25.3540 C   0  0  0  0  0
   27.9220   29.2140   25.0740 O   0  0  0  0  0
   28.5420   31.4890   25.7620 C   0  0  0  0  0
   28.8380   31.5810   27.5340 S   0  0  0  0  0
   25.1460   31.7380   29.1710 N   0  0  0  0  0
   23.9480   29.7520   29.1830 N   0  0  0  0  0
   23.6780   28.4770   28.7650 C   0  0  0  0  0
   24.4640   27.7990   28.1090 O   0  0  0  0  0
   22.2830   27.9690   29.1230 C   0  0  0  0  0
   21.5900   27.4370   27.8680 C   0  0  0  0  0
   22.4160   26.9390   30.2380 C   0  0  0  0  0
   22.7290   25.6090   29.9750 C   0  0  0  0  0
   22.7570   24.6720   30.9970 C   0  0  0  0  0
   22.4900   25.0560   32.2970 C   0  0  0  0  0
   22.2160   26.3800   32.5760 C   0  0  0  0  0
   22.1780   27.3160   31.5530 C   0  0  0  0  0
   26.5230   29.7840   28.1750 S   0  0  0  0  0
   30.7329   27.5430   24.8654 H   0  0  0  0  0
   29.0907   25.4864   25.7886 H   0  0  0  0  0
   28.1549   24.6066   24.5551 H   0  0  0  0  0
   29.5607   25.5882   24.0741 H   0  0  0  0  0
   26.7379   25.8095   22.9655 H   0  0  0  0  0
   26.6008   27.5839   23.0266 H   0  0  0  0  0
   28.1090   26.8264   22.4585 H   0  0  0  0  0
   25.9669   27.4521   25.4295 H   0  0  0  0  0
   26.1039   25.6777   25.3683 H   0  0  0  0  0
   27.0208   26.6001   26.5847 H   0  0  0  0  0
   26.5253   33.3311   28.7436 H   0  0  0  0  0
   27.4999   31.7047   25.5261 H   0  0  0  0  0
   29.1351   32.2298   25.2257 H   0  0  0  0  0
   23.2224   30.2269   29.7200 H   0  0  0  0  0
   21.6476   28.7712   29.4983 H   0  0  0  0  0
   21.5059   28.2381   27.1337 H   0  0  0  0  0
   22.1766   26.6191   27.4497 H   0  0  0  0  0
   20.5953   27.0759   28.1292 H   0  0  0  0  0
   22.9547   25.3001   28.9543 H   0  0  0  0  0
   22.9901   23.6308   30.7742 H   0  0  0  0  0
   22.4957   24.3172   33.0984 H   0  0  0  0  0
   22.0289   26.6909   33.6038 H   0  0  0  0  0
   21.9590   28.3585   31.7838 H   0  0  0  0  0
  1  2  4  0  0  0
  1  3  1  0  0  0
 12  1  4  0  0  0
 10  2  4  0  0  0
  3  5  1  0  0  0
  3  6  1  0  0  0
  3  7  1  0  0  0
  4  8  4  0  0  0
 14  4  1  0  0  0
  4 27  4  0  0  0
  8 15  4  0  0  0
  9 15  4  0  0  0
  9 16  1  0  0  0
 27  9  4  0  0  0
 11 10  4  0  0  0
 11 12  4  0  0  0
 13 11  1  0  0  0
 13 14  1  0  0  0
 16 17  1  0  0  0
 17 18  2  0  0  0
 17 19  1  0  0  0
 19 20  1  0  0  0
 19 21  1  0  0  0
 21 22  4  0  0  0
 21 26  4  0  0  0
 22 23  4  0  0  0
 23 24  4  0  0  0
 24 25  4  0  0  0
 25 26  4  0  0  0
  2 28  1  0  0  0
  5 29  1  0  0  0
  5 30  1  0  0  0
  5 31  1  0  0  0
  6 32  1  0  0  0
  6 33  1  0  0  0
  6 34  1  0  0  0
  7 35  1  0  0  0
  7 36  1  0  0  0
  7 37  1  0  0  0
  8 38  1  0  0  0
 13 39  1  0  0  0
 13 40  1  0  0  0
 16 41  1  0  0  0
 19 42  1  0  0  0
 20 43  1  0  0  0
 20 44  1  0  0  0
 20 45  1  0  0  0
 22 46  1  0  0  0
 23 47  1  0  0  0
 24 48  1  0  0  0
 25 49  1  0  0  0
 26 50  1  0  0  0
M  END
$$$$
