6cms_ligand
  -I-interpret- 

 43 45  0  0  0  0  0  0  0  0999 V2000
   41.1770   11.9940  240.5260 C   0  0  0  0  0
   40.1700   13.8100  239.5530 C   0  0  0  0  0
   35.3750   13.3390  239.6670 C   0  0  0  0  0
   35.1420   14.2030  238.4640 C   0  0  0  0  0
   36.3490   14.3020  237.6040 C   0  0  0  0  0
   37.6340   14.6790  238.3400 C   0  0  0  0  0
   42.5480    9.8390  240.5700 C   0  0  0  0  0
   43.7380    9.1750  240.8110 C   0  0  0  0  0
   44.8510    9.8630  241.2560 C   0  0  0  0  0
   44.7750   11.2270  241.4630 C   0  0  0  0  0
   43.5880   11.8970  241.2230 C   0  0  0  0  0
   34.7150   15.6000  238.9020 C   0  0  0  0  0
   41.2510   13.0920  239.7980 N   0  0  0  0  0
   38.9380   13.4120  240.0460 C   0  0  0  0  0
   38.8670   12.3160  240.7820 N   0  0  0  0  0
   39.9480   11.6010  241.0370 C   0  0  0  0  0
   39.8280   10.4020  241.8430 N   0  0  0  0  0
   42.4670   11.2120  240.7850 C   0  0  0  0  0
   37.7560   14.2240  239.7690 N   0  0  0  0  0
   36.5190   13.8500  240.5330 C   0  0  0  0  0
   41.1530    8.8830  239.9960 Cl  0  0  0  0  0
   43.8340    7.4160  240.5430 Cl  0  0  0  0  0
   34.0350   13.5980  237.6530 N   0  3  0  0  0
   40.2476   14.7210  238.9595 H   0  0  0  0  0
   35.6344   12.3388  239.3199 H   0  0  0  0  0
   34.4663   13.3453  240.2690 H   0  0  0  0  0
   36.1564   15.0934  236.8797 H   0  0  0  0  0
   36.5108   13.3143  237.1722 H   0  0  0  0  0
   37.6529   15.7684  238.3702 H   0  0  0  0  0
   38.4434   14.1881  237.7996 H   0  0  0  0  0
   45.7844    9.3320  241.4428 H   0  0  0  0  0
   45.6491   11.7749  241.8150 H   0  0  0  0  0
   43.5350   12.9743  241.3803 H   0  0  0  0  0
   34.5215   16.2123  238.0212 H   0  0  0  0  0
   33.8087   15.5297  239.5034 H   0  0  0  0  0
   35.5107   16.0531  239.4933 H   0  0  0  0  0
   40.6530    9.8357  242.0407 H   0  0  0  0  0
   38.9186   10.1247  242.2123 H   0  0  0  0  0
   36.7936   13.0411  241.2101 H   0  0  0  0  0
   36.1650   14.7530  241.0304 H   0  0  0  0  0
   34.3074   12.6620  237.3529 H   0  0  0  0  0
   33.1902   13.5416  238.2217 H   0  0  0  0  0
   33.8572   14.1804  236.8347 H   0  0  0  0  0
 13  1  4  0  0  0
  1 16  4  0  0  0
  1 18  1  0  0  0
  2 13  4  0  0  0
 14  2  4  0  0  0
  4  3  1  0  0  0
  3 20  1  0  0  0
  5  4  1  0  0  0
  4 12  1  0  0  0
  4 23  1  0  0  0
  6  5  1  0  0  0
 19  6  1  0  0  0
  7  8  4  0  0  0
 18  7  4  0  0  0
  7 21  1  0  0  0
  8  9  4  0  0  0
  8 22  1  0  0  0
 10  9  4  0  0  0
 11 10  4  0  0  0
 18 11  4  0  0  0
 14 15  4  0  0  0
 14 19  1  0  0  0
 15 16  4  0  0  0
 16 17  1  0  0  0
 19 20  1  0  0  0
  2 24  1  0  0  0
  3 25  1  0  0  0
  3 26  1  0  0  0
  5 27  1  0  0  0
  5 28  1  0  0  0
  6 29  1  0  0  0
  6 30  1  0  0  0
  9 31  1  0  0  0
 10 32  1  0  0  0
 11 33  1  0  0  0
 12 34  1  0  0  0
 12 35  1  0  0  0
 12 36  1  0  0  0
 17 37  1  0  0  0
 17 38  1  0  0  0
 20 39  1  0  0  0
 20 40  1  0  0  0
 23 41  1  0  0  0
 23 42  1  0  0  0
 23 43  1  0  0  0
M  END
$$$$
