### 
### Created by X-TOOL on Mon Sep 10 21:12:53 2018
### 

@<TRIPOS>MOLECULE
2gmk_ligand
   35    37     1     0     0
SMALL
GAST_HUCK


@<TRIPOS>ATOM
      1 P         -22.5540   -2.0320   -5.0630 P.3       1 AMP         0.2008
      2 O1P       -22.7040   -3.4780   -5.4850 O.co2     1 AMP        -0.5537
      3 O2P       -23.8600   -1.2600   -5.0030 O.co2     1 AMP        -0.5537
      4 O3P       -21.4070   -1.3170   -5.7440 O.co2     1 AMP        -0.5537
      5 O5'       -22.0690   -2.1410   -3.5320 O.3       1 AMP        -0.2734
      6 C5'       -21.6940   -0.9780   -2.7950 C.3       1 AMP         0.1072
      7 C4'       -22.3920   -1.0440   -1.4490 C.3       1 AMP         0.1182
      8 O4'       -22.1240   -2.3150   -0.8510 O.3       1 AMP        -0.3365
      9 C3'       -21.8730    0.0120   -0.4880 C.3       1 AMP         0.1149
     10 O3'       -22.7040    1.1790   -0.4790 O.3       1 AMP        -0.3864
     11 C2'       -21.8550   -0.6780    0.8600 C.3       1 AMP         0.1385
     12 O2'       -22.9700   -0.2790    1.6730 O.3       1 AMP        -0.3836
     13 C1'       -21.9370   -2.1660    0.5560 C.3       1 AMP         0.2010
     14 N9        -20.6770   -2.7860    1.0330 N.pl3     1 AMP        -0.1919
     15 C8        -19.5310   -2.9710    0.3420 C.2       1 AMP         0.1123
     16 N7        -18.5900   -3.5650    1.1270 N.2       1 AMP        -0.2958
     17 C5        -19.1420   -3.7620    2.3460 C.ar      1 AMP         0.1045
     18 C6        -18.7200   -4.3410    3.6480 C.ar      1 AMP         0.1298
     19 N6        -17.4760   -4.8440    3.8240 N.pl3     1 AMP        -0.3152
     20 N1        -19.6140   -4.3490    4.6640 N.ar      1 AMP        -0.2698
     21 C2        -20.8610   -3.8550    4.5230 C.ar      1 AMP         0.0533
     22 N3        -21.3170   -3.3180    3.3780 N.ar      1 AMP        -0.2714
     23 C4        -20.5160   -3.2430    2.2770 C.ar      1 AMP         0.1613
     24 H1        -22.0077   -0.0733   -3.3364 H         1 AMP         0.0639
     25 H2        -20.6035   -0.9600   -2.6517 H         1 AMP         0.0639
     26 H3        -23.4742   -0.9117   -1.5947 H         1 AMP         0.0650
     27 H4        -20.8530    0.3105   -0.7716 H         1 AMP         0.0648
     28 H5        -23.5832    0.9383   -0.2115 H         1 AMP         0.2100
     29 H6        -20.9197   -0.4462    1.3905 H         1 AMP         0.0676
     30 H7        -22.9368    0.6597    1.8155 H         1 AMP         0.2101
     31 H8        -22.7888   -2.6179    1.0853 H         1 AMP         0.0996
     32 H9        -19.3806   -2.6850   -0.6980 H         1 AMP         0.1349
     33 H10       -17.2050   -5.2405    4.7352 H         1 AMP         0.1820
     34 H11       -16.8002   -4.8303    3.0468 H         1 AMP         0.1820
     35 H12       -21.5292   -3.8928    5.3758 H         1 AMP         0.0996
@<TRIPOS>BOND
     1    1    2 ar 
     2    1    3 ar 
     3    1    4 ar 
     4    1    5 1  
     5    5    6 1  
     6    6    7 1  
     7    7    8 1  
     8    7    9 1  
     9    8   13 1  
    10    9   10 1  
    11    9   11 1  
    12   11   12 1  
    13   11   13 1  
    14   13   14 1  
    15   14   15 1  
    16   14   23 1  
    17   15   16 2  
    18   16   17 1  
    19   17   18 ar 
    20   17   23 ar 
    21   18   19 1  
    22   18   20 ar 
    23   20   21 ar 
    24   21   22 ar 
    25   22   23 ar 
    26    6   24 1  
    27    6   25 1  
    28    7   26 1  
    29    9   27 1  
    30   10   28 1  
    31   11   29 1  
    32   12   30 1  
    33   13   31 1  
    34   15   32 1  
    35   19   33 1  
    36   19   34 1  
    37   21   35 1  
@<TRIPOS>SUBSTRUCTURE
     1 AMP         1

