2gmk_ligand
  -I-interpret- 

 37 39  0  0  0  0  0  0  0  0999 V2000
  -22.5540   -2.0320   -5.0630 P   0  0  0  0  0
  -22.7040   -3.4780   -5.4850 O   0  0  0  0  0
  -23.8600   -1.2600   -5.0030 O   0  0  0  0  0
  -21.4070   -1.3170   -5.7440 O   0  0  0  0  0
  -22.0690   -2.1410   -3.5320 O   0  0  0  0  0
  -21.6940   -0.9780   -2.7950 C   0  0  0  0  0
  -22.3920   -1.0440   -1.4490 C   0  0  0  0  0
  -22.1240   -2.3150   -0.8510 O   0  0  0  0  0
  -21.8730    0.0120   -0.4880 C   0  0  0  0  0
  -22.7040    1.1790   -0.4790 O   0  0  0  0  0
  -21.8550   -0.6780    0.8600 C   0  0  0  0  0
  -22.9700   -0.2790    1.6730 O   0  0  0  0  0
  -21.9370   -2.1660    0.5560 C   0  0  0  0  0
  -20.6770   -2.7860    1.0330 N   0  0  0  0  0
  -19.5310   -2.9710    0.3420 C   0  0  0  0  0
  -18.5900   -3.5650    1.1270 N   0  0  0  0  0
  -19.1420   -3.7620    2.3460 C   0  0  0  0  0
  -18.7200   -4.3410    3.6480 C   0  0  0  0  0
  -17.4760   -4.8440    3.8240 N   0  0  0  0  0
  -19.6140   -4.3490    4.6640 N   0  0  0  0  0
  -20.8610   -3.8550    4.5230 C   0  0  0  0  0
  -21.3170   -3.3180    3.3780 N   0  0  0  0  0
  -20.5160   -3.2430    2.2770 C   0  0  0  0  0
  -23.4454   -3.8710   -5.0187 H   0  0  0  0  0
  -24.5238   -1.7905   -4.5563 H   0  0  0  0  0
  -21.9875   -0.0761   -3.3321 H   0  0  0  0  0
  -20.6127   -0.9442   -2.6617 H   0  0  0  0  0
  -23.4555   -0.8824   -1.6252 H   0  0  0  0  0
  -20.8864    0.3765   -0.7741 H   0  0  0  0  0
  -22.3452    1.8212    0.1378 H   0  0  0  0  0
  -20.9566   -0.4166    1.4191 H   0  0  0  0  0
  -22.9278   -0.7337    2.5175 H   0  0  0  0  0
  -22.7706   -2.6580    1.0571 H   0  0  0  0  0
  -19.3805   -2.6847   -0.6989 H   0  0  0  0  0
  -16.8068   -4.8305    3.0543 H   0  0  0  0  0
  -17.2076   -5.2367    4.7263 H   0  0  0  0  0
  -21.5329   -3.8931    5.3805 H   0  0  0  0  0
  1  2  1  0  0  0
  1  3  1  0  0  0
  1  4  2  0  0  0
  1  5  1  0  0  0
  5  6  1  0  0  0
  6  7  1  0  0  0
  7  8  1  0  0  0
  7  9  1  0  0  0
  8 13  1  0  0  0
  9 10  1  0  0  0
  9 11  1  0  0  0
 11 12  1  0  0  0
 11 13  1  0  0  0
 13 14  1  0  0  0
 14 15  4  0  0  0
 14 23  4  0  0  0
 15 16  4  0  0  0
 16 17  4  0  0  0
 17 18  4  0  0  0
 17 23  4  0  0  0
 18 19  1  0  0  0
 18 20  4  0  0  0
 20 21  4  0  0  0
 21 22  4  0  0  0
 22 23  4  0  0  0
  2 24  1  0  0  0
  3 25  1  0  0  0
  6 26  1  0  0  0
  6 27  1  0  0  0
  7 28  1  0  0  0
  9 29  1  0  0  0
 10 30  1  0  0  0
 11 31  1  0  0  0
 12 32  1  0  0  0
 13 33  1  0  0  0
 15 34  1  0  0  0
 19 35  1  0  0  0
 19 36  1  0  0  0
 21 37  1  0  0  0
M  END
$$$$
