2bdj_ligand
  -I-interpret- 

 64 68  0  0  0  0  0  0  0  0999 V2000
   17.0690    2.1400   26.1050 N   0  0  0  0  0
   18.1970    1.4350   26.2480 C   0  0  0  0  0
   19.1170    2.2550   25.7630 N   0  0  0  0  0
   18.6500    3.5300   25.2770 C   0  0  0  0  0
   19.1210    4.7110   24.7170 C   0  0  0  0  0
   20.4280    4.8380   24.5160 N   0  0  0  0  0
   18.2230    5.6640   24.4230 N   0  0  0  0  0
   16.8940    5.6030   24.6160 C   0  0  0  0  0
   16.3710    4.4830   25.1720 N   0  0  0  0  0
   17.1600    3.4380   25.5180 C   0  0  0  0  0
   15.7220    1.7180   26.5030 C   0  0  0  0  0
   15.0720    2.6080   27.4620 C   0  0  0  0  0
   13.6770    2.0520   27.8160 C   0  0  0  0  0
   13.4000    1.7130   29.1920 C   0  0  0  0  0
   12.1030    1.1830   29.5460 C   0  0  0  0  0
   11.1000    0.9980   28.5230 C   0  0  0  0  0
   11.3660    1.3330   27.1510 C   0  0  0  0  0
   12.6510    1.8590   26.7930 C   0  0  0  0  0
   10.4090    1.1500   26.2080 O   0  0  0  0  0
   21.1460    5.7590   24.0730 C   0  0  0  0  0
   22.5510    5.7410   23.9120 C   0  0  0  0  0
   23.2150    6.8620   23.4240 C   0  0  0  0  0
   22.4780    8.0230   23.0910 C   0  0  0  0  0
   21.0780    8.0720   23.2360 C   0  0  0  0  0
   20.4090    6.9450   23.7270 C   0  0  0  0  0
   23.3330    9.4870   22.4770 P   0  0  0  0  0
   24.3630    9.7910   23.5950 O   0  0  0  0  0
   23.9430    8.9390   21.1580 C   0  0  0  0  0
   22.3830   10.6100   22.1840 C   0  0  0  0  0
   15.9510    6.6860   24.2550 C   0  0  0  0  0
   16.2520    7.1620   22.7930 C   0  0  0  0  0
   16.2990    8.6980   22.7830 C   0  0  0  0  0
   16.0220    9.1620   24.2130 C   0  0  0  0  0
   16.0690    7.9310   25.1540 C   0  0  0  0  0
   18.3266    0.4346   26.6609 H   0  0  0  0  0
   20.9576    4.0070   24.7793 H   0  0  0  0  0
   15.8198    0.7447   26.9839 H   0  0  0  0  0
   15.1081    1.7136   25.6024 H   0  0  0  0  0
   14.9670    3.6003   27.0234 H   0  0  0  0  0
   15.6775    2.6725   28.3660 H   0  0  0  0  0
   14.1629    1.8557   29.9574 H   0  0  0  0  0
   11.8823    0.9237   30.5814 H   0  0  0  0  0
   10.1240    0.5972   28.7966 H   0  0  0  0  0
   12.8633    2.1156   25.7551 H   0  0  0  0  0
   10.7485    1.4219   25.3522 H   0  0  0  0  0
   23.1158    4.8455   24.1712 H   0  0  0  0  0
   24.2977    6.8459   23.2988 H   0  0  0  0  0
   20.5247    8.9727   22.9702 H   0  0  0  0  0
   19.3259    6.9660   23.8476 H   0  0  0  0  0
   24.6416    9.6700   20.7510 H   0  0  0  0  0
   24.4690    8.0065   21.3624 H   0  0  0  0  0
   23.1450    8.7572   20.4381 H   0  0  0  0  0
   21.8147   10.8474   23.0833 H   0  0  0  0  0
   22.9465   11.4874   21.8666 H   0  0  0  0  0
   21.6999   10.3085   21.3900 H   0  0  0  0  0
   14.9520    6.2660   24.3716 H   0  0  0  0  0
   15.4729    6.8083   22.1177 H   0  0  0  0  0
   17.2072    6.7574   22.4582 H   0  0  0  0  0
   15.5563    9.1024   22.0953 H   0  0  0  0  0
   17.2725    9.0522   22.4440 H   0  0  0  0  0
   15.0394    9.6308   24.2660 H   0  0  0  0  0
   16.7741    9.8896   24.5180 H   0  0  0  0  0
   16.9972    7.9125   25.7251 H   0  0  0  0  0
   15.2574    7.9650   25.8808 H   0  0  0  0  0
  1  2  4  0  0  0
  1 10  4  0  0  0
  1 11  1  0  0  0
  2  3  4  0  0  0
  3  4  4  0  0  0
  4  5  4  0  0  0
  4 10  4  0  0  0
  5  6  1  0  0  0
  5  7  4  0  0  0
  6 20  1  0  0  0
  7  8  4  0  0  0
  8  9  4  0  0  0
  8 30  1  0  0  0
  9 10  4  0  0  0
 11 12  1  0  0  0
 12 13  1  0  0  0
 13 14  4  0  0  0
 13 18  4  0  0  0
 14 15  4  0  0  0
 15 16  4  0  0  0
 16 17  4  0  0  0
 17 18  4  0  0  0
 17 19  1  0  0  0
 20 21  4  0  0  0
 20 25  4  0  0  0
 21 22  4  0  0  0
 22 23  4  0  0  0
 23 24  4  0  0  0
 23 26  1  0  0  0
 24 25  4  0  0  0
 26 27  2  0  0  0
 26 28  1  0  0  0
 26 29  1  0  0  0
 30 31  1  0  0  0
 30 34  1  0  0  0
 31 32  1  0  0  0
 32 33  1  0  0  0
 33 34  1  0  0  0
  2 35  1  0  0  0
  6 36  1  0  0  0
 11 37  1  0  0  0
 11 38  1  0  0  0
 12 39  1  0  0  0
 12 40  1  0  0  0
 14 41  1  0  0  0
 15 42  1  0  0  0
 16 43  1  0  0  0
 18 44  1  0  0  0
 19 45  1  0  0  0
 21 46  1  0  0  0
 22 47  1  0  0  0
 24 48  1  0  0  0
 25 49  1  0  0  0
 28 50  1  0  0  0
 28 51  1  0  0  0
 28 52  1  0  0  0
 29 53  1  0  0  0
 29 54  1  0  0  0
 29 55  1  0  0  0
 30 56  1  0  0  0
 31 57  1  0  0  0
 31 58  1  0  0  0
 32 59  1  0  0  0
 32 60  1  0  0  0
 33 61  1  0  0  0
 33 62  1  0  0  0
 34 63  1  0  0  0
 34 64  1  0  0  0
M  END
$$$$
