2vwl_ligand
  -I-interpret- 

 57 60  0  0  0  0  0  0  0  0999 V2000
    9.3090   62.4460    1.4180 F   0  0  0  0  0
    8.4890   62.0100    2.3850 C   0  0  0  0  0
    8.1140   60.6540    2.3970 C   0  0  0  0  0
    7.2860   60.1820    3.4080 C   0  0  0  0  0
    6.8950   58.8150    3.3900 N   0  0  0  0  0
    7.4050   57.9150    4.3220 C   0  0  0  0  0
    6.9470   56.6320    4.2620 C   0  0  0  0  0
    5.8900   56.2100    3.4090 C   0  0  0  0  0
    5.3310   57.1390    2.5710 C   0  0  0  0  0
    5.7930   58.4780    2.6040 C   0  0  0  0  0
    5.3170   59.3200    1.8040 O   0  0  0  0  0
    6.8530   61.0690    4.3830 C   0  0  0  0  0
    7.2380   62.4120    4.3660 C   0  0  0  0  0
    8.0590   62.9000    3.3580 C   0  0  0  0  0
    8.4370   64.2320    3.3170 N   0  0  0  0  0
    7.9930   64.9480    2.2560 C   0  0  0  0  0
   11.5130   67.4080    3.6410 C   0  0  0  0  0
    7.3690   64.4240    1.3470 O   0  0  0  0  0
   10.5140   68.3640    4.3180 C   0  0  0  0  0
    8.2610   66.4340    2.1430 C   0  0  0  0  0
    9.2650   66.8100    3.1410 N   0  3  0  0  0
   10.6690   66.4090    2.8620 C   0  0  0  0  0
    8.1060   68.9770    1.5050 O   0  0  0  0  0
    9.2970   69.1600    2.2950 C   0  0  0  0  0
   12.2000   66.7290    4.7560 N   0  0  0  0  0
   13.2590   65.9620    4.5230 C   0  0  0  0  0
   13.6270   65.7850    3.3730 O   0  0  0  0  0
   14.0050   65.2960    5.6530 C   0  0  0  0  0
   14.0260   65.5450    7.0320 C   0  0  0  0  0
   14.8730   64.6860    7.7480 C   0  0  0  0  0
   15.0600   64.0330    5.0990 S   0  0  0  0  0
   15.4700   63.8930    6.7840 C   0  0  0  0  0
   16.6630   62.6010    7.2050 Cl  0  0  0  0  0
    9.2360   68.2250    3.5100 C   0  0  0  0  0
    8.4704   59.9788    1.6190 H   0  0  0  0  0
    8.1385   58.2227    5.0672 H   0  0  0  0  0
    7.4177   55.8876    4.9042 H   0  0  0  0  0
    5.5355   55.1793    3.4215 H   0  0  0  0  0
    4.5361   56.8497    1.8835 H   0  0  0  0  0
    6.1993   60.7109    5.1783 H   0  0  0  0  0
    6.8906   63.0831    5.1515 H   0  0  0  0  0
    9.0169   64.6502    4.0445 H   0  0  0  0  0
   12.2300   67.8898    2.9763 H   0  0  0  0  0
   10.8783   69.3913    4.3278 H   0  0  0  0  0
   10.3599   68.1133    5.3675 H   0  0  0  0  0
    7.3399   66.9898    2.3183 H   0  0  0  0  0
    8.6279   66.6681    1.1437 H   0  0  0  0  0
    8.9581   66.2442    3.9323 H   0  0  0  0  0
   10.8683   65.3813    3.1658 H   0  0  0  0  0
   10.8948   66.4273    1.7958 H   0  0  0  0  0
    8.1367   69.5591    0.7422 H   0  0  0  0  0
    9.3617   70.1953    2.6297 H   0  0  0  0  0
   10.1766   68.9273    1.6948 H   0  0  0  0  0
   11.8602   66.8491    5.7102 H   0  0  0  0  0
   13.4389   66.3327    7.5042 H   0  0  0  0  0
   15.0270   64.6510    8.8265 H   0  0  0  0  0
    8.3181   68.4964    4.0315 H   0  0  0  0  0
  2  1  1  0  0  0
  2  3  4  0  0  0
 14  2  4  0  0  0
  3  4  4  0  0  0
  4  5  1  0  0  0
 12  4  4  0  0  0
  5  6  1  0  0  0
  5 10  1  0  0  0
  6  7  2  0  0  0
  7  8  1  0  0  0
  9  8  2  0  0  0
 10  9  1  0  0  0
 10 11  2  0  0  0
 13 12  4  0  0  0
 14 13  4  0  0  0
 15 14  1  0  0  0
 16 15  1  0  0  0
 16 18  2  0  0  0
 20 16  1  0  0  0
 19 17  1  0  0  0
 22 17  1  0  0  0
 17 25  1  0  0  0
 34 19  1  0  0  0
 21 20  1  0  0  0
 21 22  1  0  0  0
 34 21  1  0  0  0
 24 23  1  0  0  0
 24 34  1  0  0  0
 25 26  1  0  0  0
 26 27  2  0  0  0
 26 28  1  0  0  0
 28 29  4  0  0  0
 28 31  4  0  0  0
 29 30  4  0  0  0
 30 32  4  0  0  0
 31 32  4  0  0  0
 32 33  1  0  0  0
  3 35  1  0  0  0
  6 36  1  0  0  0
  7 37  1  0  0  0
  8 38  1  0  0  0
  9 39  1  0  0  0
 12 40  1  0  0  0
 13 41  1  0  0  0
 15 42  1  0  0  0
 17 43  1  0  0  0
 19 44  1  0  0  0
 19 45  1  0  0  0
 20 46  1  0  0  0
 20 47  1  0  0  0
 21 48  1  0  0  0
 22 49  1  0  0  0
 22 50  1  0  0  0
 23 51  1  0  0  0
 24 52  1  0  0  0
 24 53  1  0  0  0
 25 54  1  0  0  0
 29 55  1  0  0  0
 30 56  1  0  0  0
 34 57  1  0  0  0
M  END
$$$$
