2znu_ligand
  -I-interpret- 

 38 39  0  0  0  0  0  0  0  0999 V2000
   20.3130   -4.2050   10.3510 O   0  0  0  0  0
   21.5280   -4.0600   10.5950 C   0  0  0  0  0
   22.4160   -4.9430   10.4850 O   0  0  0  0  0
   21.9670   -2.6970   11.0970 C   0  0  0  0  0
   20.7760   -1.8810   11.3530 N   0  3  0  0  0
   22.7350   -2.9500   12.4040 C   0  0  0  0  0
   23.5720   -1.7280   12.8120 C   0  0  0  0  0
   24.5790   -1.3020   11.6850 C   0  0  0  0  0
   24.6650   -0.0890   11.3990 O   0  0  0  0  0
   25.2510   -2.2150   11.1440 O   0  0  0  0  0
   24.3220   -2.0680   14.1260 C   0  0  0  0  0
   22.6660   -0.6190   13.1200 O   0  0  0  0  0
   22.7930   -0.3040   14.5350 C   0  0  0  0  0
   24.2020   -0.7930   14.9570 C   0  0  0  0  0
   25.2510    0.0910   14.5080 O   0  0  0  0  0
   25.0600    1.4670   14.9480 C   0  0  0  0  0
   23.7740    2.0710   14.3580 C   0  0  0  0  0
   23.8800    2.1570   12.9200 O   0  0  0  0  0
   22.5440    1.2120   14.7480 C   0  0  0  0  0
   21.3490    1.6210   14.0130 O   0  0  0  0  0
   23.2661   -4.5730   10.7340 H   0  0  0  0  0
   22.5924   -2.1709   10.3757 H   0  0  0  0  0
   20.2788   -1.7229   10.4765 H   0  0  0  0  0
   20.1654   -2.3690   12.0083 H   0  0  0  0  0
   21.0581   -0.9855   11.7516 H   0  0  0  0  0
   23.4081   -3.7935   12.2508 H   0  0  0  0  0
   22.0127   -3.1529   13.1947 H   0  0  0  0  0
   25.0094   -3.0602   11.5298 H   0  0  0  0  0
   25.3597   -2.3510   13.9492 H   0  0  0  0  0
   23.8972   -2.9343   14.6331 H   0  0  0  0  0
   22.0545   -0.8016   15.1636 H   0  0  0  0  0
   24.3015   -0.8820   16.0388 H   0  0  0  0  0
   25.9089    2.0603   14.6082 H   0  0  0  0  0
   24.9794    1.4750   16.0350 H   0  0  0  0  0
   23.6431    3.0735   14.7653 H   0  0  0  0  0
   23.0730    2.5348   12.5628 H   0  0  0  0  0
   22.3814    1.3831   15.8121 H   0  0  0  0  0
   21.1979    2.5595   14.1470 H   0  0  0  0  0
  1  2  2  0  0  0
  2  3  1  0  0  0
  2  4  1  0  0  0
  4  5  1  0  0  0
  4  6  1  0  0  0
  6  7  1  0  0  0
  7  8  1  0  0  0
  7 11  1  0  0  0
  7 12  1  0  0  0
  8  9  2  0  0  0
  8 10  1  0  0  0
 11 14  1  0  0  0
 12 13  1  0  0  0
 13 14  1  0  0  0
 13 19  1  0  0  0
 14 15  1  0  0  0
 15 16  1  0  0  0
 16 17  1  0  0  0
 17 18  1  0  0  0
 17 19  1  0  0  0
 19 20  1  0  0  0
  3 21  1  0  0  0
  4 22  1  0  0  0
  5 23  1  0  0  0
  5 24  1  0  0  0
  5 25  1  0  0  0
  6 26  1  0  0  0
  6 27  1  0  0  0
 10 28  1  0  0  0
 11 29  1  0  0  0
 11 30  1  0  0  0
 13 31  1  0  0  0
 14 32  1  0  0  0
 16 33  1  0  0  0
 16 34  1  0  0  0
 17 35  1  0  0  0
 18 36  1  0  0  0
 19 37  1  0  0  0
 20 38  1  0  0  0
M  END
$$$$
