3jup_ligand
  -I-interpret- 

 33 34  0  0  0  0  0  0  0  0999 V2000
   38.9860    3.7530   94.8320 O   0  0  0  0  0
   38.9490    2.1830   93.3370 O   0  0  0  0  0
   43.9450    5.9970   93.9400 Br  0  0  0  0  0
   43.8240    3.2200   93.3410 C   0  0  0  0  0
   43.1630    2.0130   93.2110 C   0  0  0  0  0
   41.7270    4.2420   93.9670 C   0  0  0  0  0
   39.4830   -1.3520   92.1670 C   0  0  0  0  0
   39.4770   -0.8550   90.7090 C   0  0  0  0  0
   40.8550   -1.5510   92.6620 C   0  0  0  0  0
   41.7850    0.1140   91.0450 C   0  0  0  0  0
   40.3970    0.2650   90.5780 N   0  3  0  0  0
   41.2230    0.7380   93.2920 N   0  0  0  0  0
   39.5230    2.9870   94.0350 C   0  0  0  0  0
   43.0970    4.3160   93.7140 C   0  0  0  0  0
   41.7930    1.9460   93.4070 C   0  0  0  0  0
   41.0550    3.0490   93.7970 C   0  0  0  0  0
   41.7940   -0.3620   92.5130 C   0  0  0  0  0
   39.6573    4.2883   95.2615 H   0  0  0  0  0
   44.8947    3.2958   93.1515 H   0  0  0  0  0
   43.7205    1.1123   92.9538 H   0  0  0  0  0
   41.1865    5.1282   94.2996 H   0  0  0  0  0
   38.9583   -2.3065   92.2091 H   0  0  0  0  0
   38.9960   -0.6018   92.7901 H   0  0  0  0  0
   38.4713   -0.5344   90.4372 H   0  0  0  0  0
   39.7894   -1.6628   90.0472 H   0  0  0  0  0
   41.2828   -2.3569   92.0657 H   0  0  0  0  0
   40.7708   -1.7438   93.7315 H   0  0  0  0  0
   42.2954    1.0745   90.9745 H   0  0  0  0  0
   42.2959   -0.6221   90.4244 H   0  0  0  0  0
   40.0017    0.9976   91.1674 H   0  0  0  0  0
   40.4755    0.4220   89.5732 H   0  0  0  0  0
   40.3397    0.5759   93.7756 H   0  0  0  0  0
   42.7989   -0.6387   92.8317 H   0  0  0  0  0
 13  1  1  0  0  0
 13  2  2  0  0  0
 14  3  1  0  0  0
  4  5  4  0  0  0
 14  4  4  0  0  0
  5 15  4  0  0  0
  6 14  4  0  0  0
 16  6  4  0  0  0
  7  8  1  0  0  0
  9  7  1  0  0  0
 11  8  1  0  0  0
 17  9  1  0  0  0
 10 11  1  0  0  0
 17 10  1  0  0  0
 15 12  1  0  0  0
 12 17  1  0  0  0
 13 16  1  0  0  0
 15 16  4  0  0  0
  1 18  1  0  0  0
  4 19  1  0  0  0
  5 20  1  0  0  0
  6 21  1  0  0  0
  7 22  1  0  0  0
  7 23  1  0  0  0
  8 24  1  0  0  0
  8 25  1  0  0  0
  9 26  1  0  0  0
  9 27  1  0  0  0
 10 28  1  0  0  0
 10 29  1  0  0  0
 11 30  1  0  0  0
 11 31  1  0  0  0
 12 32  1  0  0  0
 17 33  1  0  0  0
M  END
$$$$
