5wuk_ligand
  -I-interpret- 

 41 44  0  0  0  0  0  0  0  0999 V2000
   17.6340  -18.9620  -20.8850 C   0  0  0  0  0
   18.5010  -19.8570  -21.4130 C   0  0  0  0  0
   19.8940  -19.3860  -21.5910 C   0  0  0  0  0
   21.5160  -18.1310  -21.4670 C   0  0  0  0  0
   19.1010  -15.0810  -18.1600 C   0  0  0  0  0
   18.1280  -15.4090  -17.2940 C   0  0  0  0  0
   18.7990  -15.2590  -15.9810 C   0  0  0  0  0
   20.0430  -14.8540  -16.3140 C   0  0  0  0  0
   18.3390  -21.6440  -23.1850 C   0  0  0  0  0
   17.8480  -22.8680  -23.6670 C   0  0  0  0  0
   17.0060  -23.6410  -22.8350 C   0  0  0  0  0
   16.6470  -23.1930  -21.5490 C   0  0  0  0  0
   17.1730  -21.9900  -21.0530 C   0  0  0  0  0
   17.8260  -26.1830  -23.5230 C   0  0  0  0  0
   20.2310  -18.1760  -21.2250 N   0  0  0  0  0
   19.3850  -17.3010  -20.6800 C   0  0  0  0  0
   18.1510  -17.6660  -20.5090 N   0  0  0  0  0
   18.0190  -21.2130  -21.8770 C   0  0  0  0  0
   19.8070  -16.1000  -20.3110 N   0  0  0  0  0
   18.9940  -15.0570  -19.6770 C   0  0  0  0  0
   20.8560  -20.0880  -22.0490 N   0  0  0  0  0
   21.9870  -19.2130  -21.9590 N   0  0  0  0  0
   20.2870  -14.7300  -17.6320 O   0  0  0  0  0
   16.3280  -25.1720  -23.4550 S   0  0  0  0  0
   15.8540  -24.9500  -24.8090 O   0  0  0  0  0
   15.3790  -25.7000  -22.4900 O   0  0  0  0  0
   16.5815  -19.2103  -20.7480 H   0  0  0  0  0
   22.1287  -17.2518  -21.2675 H   0  0  0  0  0
   17.1017  -15.7101  -17.5043 H   0  0  0  0  0
   18.3875  -15.4335  -14.9869 H   0  0  0  0  0
   20.8028  -14.6406  -15.5622 H   0  0  0  0  0
   18.9695  -21.0235  -23.8219 H   0  0  0  0  0
   18.1115  -23.2163  -24.6657 H   0  0  0  0  0
   15.9608  -23.7804  -20.9390 H   0  0  0  0  0
   16.9317  -21.6583  -20.0431 H   0  0  0  0  0
   17.5973  -27.1376  -23.9969 H   0  0  0  0  0
   18.5885  -25.6619  -24.1019 H   0  0  0  0  0
   18.1918  -26.3567  -22.5110 H   0  0  0  0  0
   20.7880  -15.8809  -20.4840 H   0  0  0  0  0
   19.3551  -14.0894  -20.0254 H   0  0  0  0  0
   17.9520  -15.2322  -19.9445 H   0  0  0  0  0
  1  2  4  0  0  0
 17  1  4  0  0  0
  3  2  4  0  0  0
  2 18  1  0  0  0
 15  3  4  0  0  0
  3 21  4  0  0  0
 15  4  4  0  0  0
  4 22  4  0  0  0
  5  6  4  0  0  0
 20  5  1  0  0  0
  5 23  4  0  0  0
  6  7  4  0  0  0
  8  7  4  0  0  0
 23  8  4  0  0  0
  9 10  4  0  0  0
 18  9  4  0  0  0
 10 11  4  0  0  0
 12 11  4  0  0  0
 11 24  1  0  0  0
 13 12  4  0  0  0
 18 13  4  0  0  0
 24 14  1  0  0  0
 16 15  4  0  0  0
 16 17  4  0  0  0
 19 16  1  0  0  0
 19 20  1  0  0  0
 21 22  4  0  0  0
 24 25  2  0  0  0
 24 26  2  0  0  0
  1 27  1  0  0  0
  4 28  1  0  0  0
  6 29  1  0  0  0
  7 30  1  0  0  0
  8 31  1  0  0  0
  9 32  1  0  0  0
 10 33  1  0  0  0
 12 34  1  0  0  0
 13 35  1  0  0  0
 14 36  1  0  0  0
 14 37  1  0  0  0
 14 38  1  0  0  0
 19 39  1  0  0  0
 20 40  1  0  0  0
 20 41  1  0  0  0
M  END
$$$$
