6bny_ligand
  -I-interpret- 

 37 40  0  0  0  0  0  0  0  0999 V2000
   -5.1420  -29.1540   -5.5960 C   0  0  0  0  0
   -4.0190  -28.5420   -6.4640 C   0  0  0  0  0
   -2.6560  -29.0410   -5.9160 C   0  0  0  0  0
   -4.2130  -28.7350   -8.0090 C   0  0  0  0  0
   -5.4590  -28.5850   -8.6510 C   0  0  0  0  0
   -5.6420  -28.7560  -10.0470 C   0  0  0  0  0
   -4.5450  -29.1000  -10.9160 C   0  0  0  0  0
   -3.6690  -29.5840  -13.1900 C   0  0  0  0  0
   -2.9500  -30.0110  -15.4520 C   0  0  0  0  0
   -1.5960  -30.2070  -15.0060 C   0  0  0  0  0
   -0.5180  -30.5220  -15.9230 C   0  0  0  0  0
   -1.3640  -30.0700  -13.6250 C   0  0  0  0  0
   -2.3750  -29.7620  -12.6960 C   0  0  0  0  0
   -2.2250  -29.6050  -11.2470 C   0  0  0  0  0
   -3.3050  -29.2530  -10.3030 C   0  0  0  0  0
   -3.1660  -29.0700   -8.8930 C   0  0  0  0  0
   -3.9830  -29.7010  -14.5510 N   0  0  0  0  0
   -3.2310  -30.1370  -16.8200 N   0  0  0  0  0
   -0.4310  -30.3770  -17.2920 N   0  0  0  0  0
    0.8040  -30.8070  -17.6760 N   0  0  0  0  0
    1.5250  -31.2160  -16.6580 N   0  0  0  0  0
    0.7420  -31.0520  -15.5410 N   0  0  0  0  0
   -4.7310  -29.2710  -12.3160 O   0  0  0  0  0
   -1.0720  -29.7930  -10.7730 O   0  0  0  0  0
   -6.0940  -28.6917   -5.8570 H   0  0  0  0  0
   -5.1960  -30.2274   -5.7779 H   0  0  0  0  0
   -4.9252  -28.9730   -4.5432 H   0  0  0  0  0
   -4.0556  -27.4564   -6.3737 H   0  0  0  0  0
   -2.5535  -30.1074   -6.1169 H   0  0  0  0  0
   -1.8480  -28.4983   -6.4065 H   0  0  0  0  0
   -2.6123  -28.8667   -4.8409 H   0  0  0  0  0
   -6.3258  -28.3244   -8.0437 H   0  0  0  0  0
   -6.6366  -28.6240  -10.4730 H   0  0  0  0  0
   -0.3481  -30.2097  -13.2555 H   0  0  0  0  0
   -2.1715  -29.1996   -8.4662 H   0  0  0  0  0
   -2.4830  -30.3631  -17.4756 H   0  0  0  0  0
   -4.1834  -30.0025  -17.1595 H   0  0  0  0  0
  2  1  1  0  0  0
  2  3  1  0  0  0
  4  2  1  0  0  0
  5  4  4  0  0  0
  4 16  4  0  0  0
  6  5  4  0  0  0
  7  6  4  0  0  0
  7 15  4  0  0  0
 23  7  1  0  0  0
  8 13  4  0  0  0
 17  8  4  0  0  0
  8 23  1  0  0  0
  9 10  4  0  0  0
  9 17  4  0  0  0
  9 18  1  0  0  0
 10 11  1  0  0  0
 10 12  4  0  0  0
 11 19  4  0  0  0
 11 22  4  0  0  0
 12 13  4  0  0  0
 13 14  1  0  0  0
 14 15  1  0  0  0
 14 24  2  0  0  0
 15 16  4  0  0  0
 19 20  4  0  0  0
 20 21  4  0  0  0
 21 22  4  0  0  0
  1 25  1  0  0  0
  1 26  1  0  0  0
  1 27  1  0  0  0
  2 28  1  0  0  0
  3 29  1  0  0  0
  3 30  1  0  0  0
  3 31  1  0  0  0
  5 32  1  0  0  0
  6 33  1  0  0  0
 12 34  1  0  0  0
 16 35  1  0  0  0
 18 36  1  0  0  0
 18 37  1  0  0  0
M  END
$$$$
