6hwv_ligand
  -I-interpret- 

 71 75  0  0  0  0  0  0  0  0999 V2000
  -22.0770    7.5440   23.6210 C   0  0  0  0  0
  -22.6190    2.6650   23.6600 C   0  0  0  0  0
  -22.7170    1.0640   21.7620 C   0  0  0  0  0
  -22.7720    0.7620   20.4230 C   0  0  0  0  0
  -23.2110   -0.3700   19.7950 C   0  0  0  0  0
  -22.4910    0.9460   18.2780 C   0  0  0  0  0
  -21.4820    0.2250   13.8830 C   0  0  0  0  0
  -17.2960    8.9520   23.9130 C   0  0  0  0  0
  -19.1960    9.2280   25.2080 C   0  0  0  0  0
  -19.8310   10.1980   25.9770 C   0  0  0  0  0
  -21.2180   10.2970   25.9680 C   0  0  0  0  0
  -21.9650    9.4210   25.1860 C   0  0  0  0  0
  -23.8040   10.4760   24.2330 C   0  0  0  0  0
  -21.3430    8.4360   24.4180 C   0  0  0  0  0
  -22.5660    6.3280   24.4220 C   0  0  0  0  0
  -22.6210    5.0750   23.5250 C   0  0  0  0  0
  -22.7190    2.3720   22.2890 C   0  0  0  0  0
  -22.5650    0.0460   22.7070 C   0  0  0  0  0
  -22.4720    0.3230   24.0680 C   0  0  0  0  0
  -21.3850    1.0040   15.0320 C   0  0  0  0  0
  -20.7950    0.5960   12.7290 C   0  0  0  0  0
  -19.9880    1.7290   12.7310 C   0  0  0  0  0
  -19.8700    2.4920   13.8870 C   0  0  0  0  0
  -20.5570    2.1220   15.0370 C   0  0  0  0  0
  -21.6560    2.9100   19.3680 C   0  0  0  0  0
  -23.7720   -1.5040   20.2590 C   0  0  0  0  0
  -24.9090   -1.5130   21.0600 C   0  0  0  0  0
  -25.4640   -2.7100   21.4990 C   0  0  0  0  0
  -24.8950   -3.9200   21.1300 C   0  0  0  0  0
  -23.7610   -3.9280   20.3240 C   0  0  0  0  0
  -23.2110   -2.7230   19.8800 C   0  0  0  0  0
  -19.9520    8.3520   24.4310 C   0  0  0  0  0
  -19.3070    2.1000   11.5960 F   0  0  0  0  0
  -25.4580   -5.0960   21.5830 F   0  0  0  0  0
  -22.6140    3.9060   24.2170 N   0  0  0  0  0
  -22.4940    1.6490   24.5270 N   0  0  0  0  0
  -23.0230   -0.2520   18.4750 N   0  0  0  0  0
  -22.0860    1.4430   17.1050 N   0  0  0  0  0
  -21.9950    0.6290   16.1550 N   0  0  0  0  0
  -22.2920    1.5580   19.4410 N   0  0  0  0  0
  -17.8330    9.1440   25.2270 O   0  0  0  0  0
  -23.3290    9.4750   25.1470 O   0  0  0  0  0
  -22.6960    5.1990   22.3040 O   0  0  0  0  0
  -21.4280    7.1874   22.8212 H   0  0  0  0  0
  -22.9491    8.0707   23.2334 H   0  0  0  0  0
  -22.0957   -0.6758   13.8858 H   0  0  0  0  0
  -17.6916    8.0278   23.4917 H   0  0  0  0  0
  -17.5799    9.7924   23.2795 H   0  0  0  0  0
  -16.2093    8.8902   23.9714 H   0  0  0  0  0
  -19.2405   10.8813   26.5874 H   0  0  0  0  0
  -21.7173   11.0563   26.5699 H   0  0  0  0  0
  -23.4336   11.4534   24.5420 H   0  0  0  0  0
  -23.4437   10.2501   23.2294 H   0  0  0  0  0
  -24.8940   10.4814   24.2364 H   0  0  0  0  0
  -23.5663    6.5344   24.8027 H   0  0  0  0  0
  -21.8739    6.1444   25.2438 H   0  0  0  0  0
  -22.8031    3.2054   21.5916 H   0  0  0  0  0
  -22.5181   -0.9897   22.3704 H   0  0  0  0  0
  -22.3815   -0.4956   24.7821 H   0  0  0  0  0
  -20.8901   -0.0026   11.8231 H   0  0  0  0  0
  -19.2386    3.3805   13.8915 H   0  0  0  0  0
  -20.4465    2.7108   15.9476 H   0  0  0  0  0
  -22.3421    3.6551   19.7708 H   0  0  0  0  0
  -20.7353    2.9090   19.9514 H   0  0  0  0  0
  -21.4288    3.1476   18.3288 H   0  0  0  0  0
  -25.3714   -0.5688   21.3476 H   0  0  0  0  0
  -26.3490   -2.6974   22.1351 H   0  0  0  0  0
  -23.3017   -4.8745   20.0389 H   0  0  0  0  0
  -22.3352   -2.7358   19.2313 H   0  0  0  0  0
  -19.4509    7.5946   23.8282 H   0  0  0  0  0
  -22.6042    3.9634   25.2353 H   0  0  0  0  0
  1 14  1  0  0  0
 15  1  1  0  0  0
 17  2  4  0  0  0
  2 35  1  0  0  0
  2 36  4  0  0  0
  4  3  1  0  0  0
  3 17  4  0  0  0
  3 18  4  0  0  0
  4  5  4  0  0  0
 40  4  4  0  0  0
  5 26  1  0  0  0
 37  5  4  0  0  0
  6 37  4  0  0  0
 38  6  1  0  0  0
  6 40  4  0  0  0
 20  7  4  0  0  0
  7 21  4  0  0  0
 41  8  1  0  0  0
  9 10  4  0  0  0
 32  9  4  0  0  0
  9 41  1  0  0  0
 11 10  4  0  0  0
 12 11  4  0  0  0
 14 12  4  0  0  0
 12 42  1  0  0  0
 42 13  1  0  0  0
 14 32  4  0  0  0
 16 15  1  0  0  0
 35 16  1  0  0  0
 16 43  2  0  0  0
 18 19  4  0  0  0
 19 36  4  0  0  0
 20 24  4  0  0  0
 39 20  1  0  0  0
 21 22  4  0  0  0
 23 22  4  0  0  0
 22 33  1  0  0  0
 24 23  4  0  0  0
 40 25  1  0  0  0
 26 27  4  0  0  0
 26 31  4  0  0  0
 27 28  4  0  0  0
 28 29  4  0  0  0
 30 29  4  0  0  0
 29 34  1  0  0  0
 31 30  4  0  0  0
 38 39  2  0  0  0
  1 44  1  0  0  0
  1 45  1  0  0  0
  7 46  1  0  0  0
  8 47  1  0  0  0
  8 48  1  0  0  0
  8 49  1  0  0  0
 10 50  1  0  0  0
 11 51  1  0  0  0
 13 52  1  0  0  0
 13 53  1  0  0  0
 13 54  1  0  0  0
 15 55  1  0  0  0
 15 56  1  0  0  0
 17 57  1  0  0  0
 18 58  1  0  0  0
 19 59  1  0  0  0
 21 60  1  0  0  0
 23 61  1  0  0  0
 24 62  1  0  0  0
 25 63  1  0  0  0
 25 64  1  0  0  0
 25 65  1  0  0  0
 27 66  1  0  0  0
 28 67  1  0  0  0
 30 68  1  0  0  0
 31 69  1  0  0  0
 32 70  1  0  0  0
 35 71  1  0  0  0
M  END
$$$$
