5mt0_ligand
  -I-interpret- 

 39 42  0  0  0  0  0  0  0  0999 V2000
   10.4060   13.0800    0.7720 C   0  0  0  0  0
   10.2350   12.3510    1.9560 C   0  0  0  0  0
    8.9430   10.8610    4.9750 C   0  0  0  0  0
    9.1570   10.8370    6.4310 C   0  0  0  0  0
    8.0890   11.1420    7.3790 C   0  0  0  0  0
    9.0390   12.2730    7.0640 C   0  0  0  0  0
    8.1300   10.2390    8.6460 C   0  0  0  0  0
    6.9810    9.4830    8.8080 C   0  0  0  0  0
    6.8570    8.6480    9.9320 C   0  0  0  0  0
    7.9760    8.5090   10.8020 C   0  0  0  0  0
    9.1100    9.2930   10.6100 C   0  0  0  0  0
   10.9380   14.3340    0.8420 F   0  0  0  0  0
    9.6480   11.0870    1.8230 C   0  0  0  0  0
    9.3060   10.5680    0.5800 C   0  0  0  0  0
    8.7930    9.2920    0.7170 N   0  0  0  0  0
    8.7390    8.9650    2.0100 C   0  0  0  0  0
    9.3070    9.9520    2.7510 C   0  0  0  0  0
    9.4770    9.9670    4.1300 N   0  0  0  0  0
    8.1790   11.7390    4.4410 O   0  0  0  0  0
    9.1710   10.1510    9.5090 C   0  0  0  0  0
    8.2630    7.6990    2.5010 C   0  0  0  0  0
    8.5290    7.2330    3.5640 O   0  0  0  0  0
    7.5070    7.0290    1.6570 O   0  0  0  0  0
    9.5060   11.2720   -0.6180 C   0  0  0  0  0
   10.0360   12.5520   -0.4870 C   0  0  0  0  0
   10.5413   12.7452    2.9250 H   0  0  0  0  0
    9.8558   10.0017    6.3853 H   0  0  0  0  0
    7.0000   11.1735    7.4133 H   0  0  0  0  0
    9.0369   13.3253    6.7797 H   0  0  0  0  0
    9.6450   13.0316    7.5593 H   0  0  0  0  0
    6.1800    9.5350    8.0706 H   0  0  0  0  0
    5.9255    8.1189   10.1332 H   0  0  0  0  0
    7.9444    7.7881   11.6189 H   0  0  0  0  0
    9.9423    9.2381   11.3117 H   0  0  0  0  0
   10.0590    9.2338    4.5351 H   0  0  0  0  0
   10.0633   10.7546    9.3429 H   0  0  0  0  0
    7.3915    7.5434    0.8547 H   0  0  0  0  0
    9.2615   10.8430   -1.5897 H   0  0  0  0  0
   10.1696   13.1644   -1.3788 H   0  0  0  0  0
  2  1  4  0  0  0
  1 12  1  0  0  0
  1 25  4  0  0  0
 13  2  4  0  0  0
  3  4  1  0  0  0
 18  3  1  0  0  0
  3 19  2  0  0  0
  4  5  1  0  0  0
  4  6  1  0  0  0
  6  5  1  0  0  0
  5  7  1  0  0  0
  7  8  4  0  0  0
  7 20  4  0  0  0
  8  9  4  0  0  0
  9 10  4  0  0  0
 11 10  4  0  0  0
 20 11  4  0  0  0
 13 14  4  0  0  0
 17 13  4  0  0  0
 15 14  4  0  0  0
 14 24  4  0  0  0
 16 15  4  0  0  0
 17 16  4  0  0  0
 16 21  1  0  0  0
 17 18  1  0  0  0
 21 22  2  0  0  0
 21 23  1  0  0  0
 24 25  4  0  0  0
  2 26  1  0  0  0
  4 27  1  0  0  0
  5 28  1  0  0  0
  6 29  1  0  0  0
  6 30  1  0  0  0
  8 31  1  0  0  0
  9 32  1  0  0  0
 10 33  1  0  0  0
 11 34  1  0  0  0
 18 35  1  0  0  0
 20 36  1  0  0  0
 23 37  1  0  0  0
 24 38  1  0  0  0
 25 39  1  0  0  0
M  END
$$$$
