### 
### Created by X-TOOL on Mon Sep 10 21:12:45 2018
### 

@<TRIPOS>MOLECULE
1cyn_ligand
  196   196     1     0     0
SMALL
GAST_HUCK


@<TRIPOS>ATOM
      1 N          17.7810   21.9410   36.8890 N.am      1 BMT        -0.2503
      2 CN         17.9180   23.2950   37.5310 C.3       1 BMT         0.0255
      3 CA         18.3340   21.6680   35.5530 C.3       1 BMT         0.1594
      4 C          19.8550   21.8280   35.4030 C.2       1 BMT         0.2067
      5 O          20.6020   22.2520   36.3140 O.2       1 BMT        -0.3943
      6 CB         17.6100   22.5300   34.4770 C.3       1 BMT         0.0994
      7 OG1        18.0560   23.8860   34.6240 O.3       1 BMT        -0.3867
      8 CG2        16.0570   22.4840   34.6490 C.3       1 BMT        -0.0069
      9 CD1        15.5880   21.0390   34.5130 C.3       1 BMT        -0.0583
     10 CD2        15.3500   23.3780   33.6200 C.3       1 BMT        -0.0313
     11 CE         15.5480   22.9180   32.1720 C.2       1 BMT        -0.0986
     12 CZ         15.7520   23.7650   31.1730 C.2       1 BMT        -0.1017
     13 CH         15.9540   23.2840   29.7400 C.3       1 BMT        -0.0486
     14 N          20.3650   21.3770   34.2510 N.am      1 ABA        -0.2636
     15 CA         21.8040   21.3180   34.0550 C.3       1 ABA         0.1309
     16 C          22.1910   22.1510   32.8410 C.2       1 ABA         0.2059
     17 O          22.2260   21.6350   31.7190 O.2       1 ABA        -0.3942
     18 CB         22.2330   19.8590   33.8470 C.3       1 ABA        -0.0152
     19 CG         21.8650   18.9070   35.0110 C.3       1 ABA        -0.0610
     20 N          22.4370   23.4550   32.9850 N.am      1 SAR        -0.2556
     21 CA         22.7530   24.2310   31.7840 C.3       1 SAR         0.1227
     22 C          21.8890   25.4770   31.7220 C.2       1 SAR         0.2032
     23 O          22.4380   26.5820   31.8240 O.2       1 SAR        -0.3945
     24 CN         22.5040   24.1330   34.3240 C.3       1 SAR         0.0252
     25 N          20.5610   25.4020   31.5630 N.am      1 MLE        -0.2531
     26 CN         19.8060   24.1180   31.4110 C.3       1 MLE         0.0254
     27 CA         19.8060   26.6410   31.6360 C.3       1 MLE         0.1336
     28 CB         18.8020   26.7980   30.4630 C.3       1 MLE        -0.0099
     29 CG         19.2410   26.7740   29.0070 C.3       1 MLE        -0.0425
     30 CD1        18.1090   27.3330   28.2070 C.3       1 MLE        -0.0625
     31 CD2        20.4750   27.6040   28.7660 C.3       1 MLE        -0.0625
     32 C          19.0260   26.6620   32.9400 C.2       1 MLE         0.2041
     33 O          17.9400   26.0870   33.0190 O.2       1 MLE        -0.3944
     34 N          19.5510   27.2830   33.9870 N.am      1 VAL        -0.2635
     35 CA         18.8550   27.2650   35.2730 C.3       1 VAL         0.1334
     36 C          17.6390   28.1970   35.1550 C.2       1 VAL         0.2064
     37 O          17.8230   29.3330   34.6680 O.2       1 VAL        -0.3942
     38 CB         19.8570   27.7120   36.3910 C.3       1 VAL        -0.0062
     39 CG1        19.2480   27.6570   37.7810 C.3       1 VAL        -0.0584
     40 CG2        20.9950   26.7130   36.4350 C.3       1 VAL        -0.0584
     41 N          16.4200   27.7640   35.5270 N.am      1 MLE        -0.2529
     42 CN         16.0990   26.4210   36.1460 C.3       1 MLE         0.0254
     43 CA         15.3170   28.7060   35.3180 C.3       1 MLE         0.1336
     44 CB         14.1770   28.0320   34.4760 C.3       1 MLE        -0.0099
     45 CG         14.5560   27.5070   33.0700 C.3       1 MLE        -0.0425
     46 CD1        13.3920   26.7640   32.4830 C.3       1 MLE        -0.0625
     47 CD2        14.9660   28.6610   32.1610 C.3       1 MLE        -0.0625
     48 C          14.7750   29.2460   36.6330 C.2       1 MLE         0.2041
     49 O          15.3970   29.0760   37.6910 O.2       1 MLE        -0.3944
     50 N          13.6560   29.9590   36.6130 N.am      1 ALA        -0.2640
     51 CA         13.1010   30.4870   37.8450 C.3       1 ALA         0.1282
     52 C          12.2480   29.4460   38.5560 C.2       1 ALA         0.2036
     53 O          11.8650   28.4130   37.9930 O.2       1 ALA        -0.3944
     54 CB         12.2330   31.6860   37.5390 C.3       1 ALA        -0.0244
     55 N          11.9290   29.6810   39.8240 N.am      1 DSN        -0.2640
     56 CA         11.0110   28.8140   40.5310 C.3       1 DSN         0.1284
     57 CB         10.2310   29.6540   41.5470 C.3       1 DSN        -0.0244
     58 C          11.8240   27.7370   41.2330 C.2       1 DSN         0.2059
     59 O          12.8870   28.0900   41.7540 O.2       1 DSN        -0.3942
     60 N          11.4120   26.4490   41.2480 N.am      1 MLE        -0.2529
     61 CN         10.1460   25.9790   40.5870 C.3       1 MLE         0.0254
     62 CA         12.1940   25.4390   41.9500 C.3       1 MLE         0.1338
     63 CB         11.4160   24.9440   43.1690 C.3       1 MLE        -0.0099
     64 CG         11.1370   25.9780   44.2790 C.3       1 MLE        -0.0425
     65 CD1        10.1820   25.3880   45.3080 C.3       1 MLE        -0.0625
     66 CD2        12.4400   26.3920   44.9250 C.3       1 MLE        -0.0625
     67 C          12.4990   24.2780   41.0180 C.2       1 MLE         0.2064
     68 O          11.9090   23.1940   41.1050 O.2       1 MLE        -0.3942
     69 N          13.4040   24.4830   40.0570 N.am      1 MLE        -0.2529
     70 CN         14.1810   25.7700   39.8510 C.3       1 MLE         0.0254
     71 CA         13.6890   23.3650   39.1600 C.3       1 MLE         0.1338
     72 CB         13.5350   23.8540   37.6860 C.3       1 MLE        -0.0099
     73 CG         12.1210   24.3150   37.2570 C.3       1 MLE        -0.0425
     74 CD1        12.1520   24.7230   35.8030 C.3       1 MLE        -0.0625
     75 CD2        11.1100   23.2080   37.4880 C.3       1 MLE        -0.0625
     76 C          15.0710   22.7590   39.4000 C.2       1 MLE         0.2064
     77 O          15.8570   23.3220   40.1800 O.2       1 MLE        -0.3942
     78 N          15.4250   21.5970   38.8280 N.am      1 MVA        -0.2526
     79 CN         14.4220   20.6910   38.1640 C.3       1 MVA         0.0254
     80 CA         16.8050   21.1250   39.0330 C.3       1 MVA         0.1359
     81 CB         16.8680   19.8150   39.8580 C.3       1 MVA        -0.0061
     82 CG1        18.3280   19.5720   40.2350 C.3       1 MVA        -0.0584
     83 CG2        16.0200   19.8890   41.1280 C.3       1 MVA        -0.0584
     84 C          17.4000   20.8750   37.6340 C.2       1 MVA         0.2067
     85 O          17.4330   19.7040   37.1720 O.2       1 MVA        -0.3942
     86 H1         18.2335   24.0290   36.7749 H         1 BMT         0.0488
     87 H2         18.6708   23.2467   38.3316 H         1 BMT         0.0488
     88 H3         16.9500   23.5991   37.9557 H         1 BMT         0.0488
     89 H4         18.1102   20.6128   35.3376 H         1 BMT         0.0828
     90 H5         17.8721   22.1572   33.4759 H         1 BMT         0.0646
     91 H6         17.6261   24.4316   33.9759 H         1 BMT         0.2101
     92 H7         15.8032   22.8473   35.6558 H         1 BMT         0.0345
     93 H8         14.4954   20.9954   34.6325 H         1 BMT         0.0235
     94 H9         16.0666   20.4236   35.2890 H         1 BMT         0.0235
     95 H10        15.8637   20.6560   33.5194 H         1 BMT         0.0235
     96 H11        15.7444   24.4002   33.7175 H         1 BMT         0.0391
     97 H12        14.2724   23.3781   33.8409 H         1 BMT         0.0391
     98 H13        15.5200   21.8513   31.9546 H         1 BMT         0.0450
     99 H14        15.7760   24.8336   31.3813 H         1 BMT         0.0447
    100 H15        16.1052   24.1510   29.0801 H         1 BMT         0.0353
    101 H16        15.0655   22.7244   29.4123 H         1 BMT         0.0353
    102 H17        16.8371   22.6297   29.6938 H         1 BMT         0.0353
    103 H18        19.7517   21.0784   33.5197 H         1 ABA         0.1883
    104 H19        22.3087   21.7206   34.9456 H         1 ABA         0.0800
    105 H20        23.3252   19.8375   33.7184 H         1 ABA         0.0310
    106 H21        21.7487   19.4860   32.9325 H         1 ABA         0.0310
    107 H22        22.2095   17.8893   34.7752 H         1 ABA         0.0232
    108 H23        20.7738   18.9018   35.1495 H         1 ABA         0.0232
    109 H24        22.3503   19.2533   35.9354 H         1 ABA         0.0232
    110 H25        22.5650   23.6140   30.8930 H         1 SAR         0.0765
    111 H26        23.8127   24.5248   31.8097 H         1 SAR         0.0765
    112 H27        22.2394   23.4135   35.1129 H         1 SAR         0.0488
    113 H28        21.7971   24.9756   34.3442 H         1 SAR         0.0488
    114 H29        23.5244   24.5062   34.4954 H         1 SAR         0.0488
    115 H30        20.5153   23.2781   31.3713 H         1 MLE         0.0488
    116 H31        19.2184   24.1459   30.4815 H         1 MLE         0.0488
    117 H32        19.1297   23.9866   32.2685 H         1 MLE         0.0488
    118 H33        20.5106   27.4854   31.6147 H         1 MLE         0.0802
    119 H34        18.3014   27.7655   30.6159 H         1 MLE         0.0315
    120 H35        18.0701   25.9846   30.5755 H         1 MLE         0.0315
    121 H36        19.4430   25.7365   28.7024 H         1 MLE         0.0298
    122 H37        18.3800   27.3364   27.1409 H         1 MLE         0.0232
    123 H38        17.9007   28.3619   28.5356 H         1 MLE         0.0232
    124 H39        17.2132   26.7121   28.3556 H         1 MLE         0.0232
    125 H40        21.3114   27.1964   29.3529 H         1 MLE         0.0232
    126 H41        20.2838   28.6429   29.0728 H         1 MLE         0.0232
    127 H42        20.7309   27.5786   27.6965 H         1 MLE         0.0232
    128 H43        20.4232   27.7639   33.8974 H         1 VAL         0.1883
    129 H44        18.5060   26.2459   35.4956 H         1 VAL         0.0803
    130 H45        20.2242   28.7260   36.1741 H         1 VAL         0.0343
    131 H46        19.9945   27.9803   38.5214 H         1 VAL         0.0234
    132 H47        18.9338   26.6265   38.0032 H         1 VAL         0.0234
    133 H48        18.3747   28.3243   37.8254 H         1 VAL         0.0234
    134 H49        21.4982   26.6872   35.4572 H         1 VAL         0.0234
    135 H50        20.5975   25.7144   36.6692 H         1 VAL         0.0234
    136 H51        21.7156   27.0120   37.2104 H         1 VAL         0.0234
    137 H52        17.0220   25.8297   36.2381 H         1 MLE         0.0488
    138 H53        15.3822   25.8846   35.5069 H         1 MLE         0.0488
    139 H54        15.6596   26.5724   37.1430 H         1 MLE         0.0488
    140 H55        15.7068   29.5582   34.7420 H         1 MLE         0.0802
    141 H56        13.3762   28.7751   34.3476 H         1 MLE         0.0315
    142 H57        13.7961   27.1790   35.0567 H         1 MLE         0.0315
    143 H58        15.4065   26.8161   33.1662 H         1 MLE         0.0298
    144 H59        13.6614   26.3909   31.4839 H         1 MLE         0.0232
    145 H60        12.5286   27.4407   32.4012 H         1 MLE         0.0232
    146 H61        13.1327   25.9157   33.1335 H         1 MLE         0.0232
    147 H62        15.8192   29.1934   32.6066 H         1 MLE         0.0232
    148 H63        14.1205   29.3551   32.0456 H         1 MLE         0.0232
    149 H64        15.2541   28.2668   31.1753 H         1 MLE         0.0232
    150 H65        13.1928   30.1333   35.7440 H         1 ALA         0.1883
    151 H66        13.9259   30.7906   38.5063 H         1 ALA         0.0797
    152 H67        11.8139   32.0837   38.4751 H         1 ALA         0.0277
    153 H68        11.4139   31.3845   36.8696 H         1 ALA         0.0277
    154 H69        12.8394   32.4624   37.0498 H         1 ALA         0.0277
    155 H70        12.3283   30.4670   40.2960 H         1 DSN         0.1883
    156 H71        10.3104   28.3470   39.8232 H         1 DSN         0.0797
    157 H72         9.5277   29.0085   42.0935 H         1 DSN         0.0277
    158 H73         9.6722   30.4413   41.0199 H         1 DSN         0.0277
    159 H74        10.9329   30.1154   42.2572 H         1 DSN         0.0277
    160 H75         9.6515   26.8297   40.0952 H         1 MLE         0.0488
    161 H76         9.4731   25.5521   41.3452 H         1 MLE         0.0488
    162 H77        10.3871   25.2114   39.8369 H         1 MLE         0.0488
    163 H78        13.1411   25.8866   42.2858 H         1 MLE         0.0802
    164 H79        11.9891   24.1194   43.6180 H         1 MLE         0.0315
    165 H80        10.4459   24.5658   42.8143 H         1 MLE         0.0315
    166 H81        10.6672   26.8658   43.8306 H         1 MLE         0.0298
    167 H82         9.9877   26.1305   46.0960 H         1 MLE         0.0232
    168 H83        10.6331   24.4894   45.7541 H         1 MLE         0.0232
    169 H84         9.2353   25.1180   44.8172 H         1 MLE         0.0232
    170 H85        13.1100   26.8139   44.1614 H         1 MLE         0.0232
    171 H86        12.9161   25.5139   45.3858 H         1 MLE         0.0232
    172 H87        12.2418   27.1494   45.6977 H         1 MLE         0.0232
    173 H88        13.8608   26.5146   40.5946 H         1 MLE         0.0488
    174 H89        13.9890   26.1563   38.8391 H         1 MLE         0.0488
    175 H90        15.2565   25.5721   39.9700 H         1 MLE         0.0488
    176 H91        12.9429   22.5782   39.3450 H         1 MLE         0.0802
    177 H92        13.8312   23.0254   37.0260 H         1 MLE         0.0315
    178 H93        14.2213   24.7014   37.5413 H         1 MLE         0.0315
    179 H94        11.8309   25.1857   37.8633 H         1 MLE         0.0298
    180 H95        11.1491   25.0516   35.4930 H         1 MLE         0.0232
    181 H96        12.4633   23.8657   35.1881 H         1 MLE         0.0232
    182 H97        12.8661   25.5489   35.6690 H         1 MLE         0.0232
    183 H98        11.1074   22.9301   38.5523 H         1 MLE         0.0232
    184 H99        11.3808   22.3316   36.8809 H         1 MLE         0.0232
    185 H100       10.1087   23.5595   37.1984 H         1 MLE         0.0232
    186 H101       13.4522   21.2056   38.0953 H         1 MVA         0.0488
    187 H102       14.3083   19.7721   38.7579 H         1 MVA         0.0488
    188 H103       14.7728   20.4336   37.1537 H         1 MVA         0.0488
    189 H104       17.3828   21.9021   39.5548 H         1 MVA         0.0804
    190 H105       16.5032   18.9826   39.2382 H         1 MVA         0.0343
    191 H106       18.4055   18.6458   40.8234 H         1 MVA         0.0234
    192 H107       18.6981   20.4181   40.8327 H         1 MVA         0.0234
    193 H108       18.9319   19.4770   39.3205 H         1 MVA         0.0234
    194 H109       14.9684   20.0640   40.8570 H         1 MVA         0.0234
    195 H110       16.3780   20.7148   41.7603 H         1 MVA         0.0234
    196 H111       16.1034   18.9414   41.6804 H         1 MVA         0.0234
@<TRIPOS>BOND
     1    1    2 1  
     2    1    3 1  
     3    1   84 am 
     4    3    4 1  
     5    3    6 1  
     6    4    5 2  
     7    4   14 am 
     8    6    7 1  
     9    6    8 1  
    10    8    9 1  
    11    8   10 1  
    12   10   11 1  
    13   11   12 2  
    14   12   13 1  
    15   14   15 1  
    16   15   16 1  
    17   15   18 1  
    18   16   17 2  
    19   16   20 am 
    20   18   19 1  
    21   20   21 1  
    22   20   24 1  
    23   21   22 1  
    24   22   23 2  
    25   22   25 am 
    26   25   26 1  
    27   25   27 1  
    28   27   28 1  
    29   27   32 1  
    30   28   29 1  
    31   29   30 1  
    32   29   31 1  
    33   32   33 2  
    34   32   34 am 
    35   34   35 1  
    36   35   36 1  
    37   35   38 1  
    38   36   37 2  
    39   36   41 am 
    40   38   39 1  
    41   38   40 1  
    42   41   42 1  
    43   41   43 1  
    44   43   44 1  
    45   43   48 1  
    46   44   45 1  
    47   45   46 1  
    48   45   47 1  
    49   48   49 2  
    50   48   50 am 
    51   50   51 1  
    52   51   52 1  
    53   51   54 1  
    54   52   53 2  
    55   52   55 am 
    56   55   56 1  
    57   56   57 1  
    58   56   58 1  
    59   58   59 2  
    60   58   60 am 
    61   60   61 1  
    62   60   62 1  
    63   62   63 1  
    64   62   67 1  
    65   63   64 1  
    66   64   65 1  
    67   64   66 1  
    68   67   68 2  
    69   67   69 am 
    70   69   70 1  
    71   69   71 1  
    72   71   72 1  
    73   71   76 1  
    74   72   73 1  
    75   73   74 1  
    76   73   75 1  
    77   76   77 2  
    78   76   78 am 
    79   78   79 1  
    80   78   80 1  
    81   80   81 1  
    82   80   84 1  
    83   81   82 1  
    84   81   83 1  
    85   84   85 2  
    86    2   86 1  
    87    2   87 1  
    88    2   88 1  
    89    3   89 1  
    90    6   90 1  
    91    7   91 1  
    92    8   92 1  
    93    9   93 1  
    94    9   94 1  
    95    9   95 1  
    96   10   96 1  
    97   10   97 1  
    98   11   98 1  
    99   12   99 1  
   100   13  100 1  
   101   13  101 1  
   102   13  102 1  
   103   14  103 1  
   104   15  104 1  
   105   18  105 1  
   106   18  106 1  
   107   19  107 1  
   108   19  108 1  
   109   19  109 1  
   110   21  110 1  
   111   21  111 1  
   112   24  112 1  
   113   24  113 1  
   114   24  114 1  
   115   26  115 1  
   116   26  116 1  
   117   26  117 1  
   118   27  118 1  
   119   28  119 1  
   120   28  120 1  
   121   29  121 1  
   122   30  122 1  
   123   30  123 1  
   124   30  124 1  
   125   31  125 1  
   126   31  126 1  
   127   31  127 1  
   128   34  128 1  
   129   35  129 1  
   130   38  130 1  
   131   39  131 1  
   132   39  132 1  
   133   39  133 1  
   134   40  134 1  
   135   40  135 1  
   136   40  136 1  
   137   42  137 1  
   138   42  138 1  
   139   42  139 1  
   140   43  140 1  
   141   44  141 1  
   142   44  142 1  
   143   45  143 1  
   144   46  144 1  
   145   46  145 1  
   146   46  146 1  
   147   47  147 1  
   148   47  148 1  
   149   47  149 1  
   150   50  150 1  
   151   51  151 1  
   152   54  152 1  
   153   54  153 1  
   154   54  154 1  
   155   55  155 1  
   156   56  156 1  
   157   57  157 1  
   158   57  158 1  
   159   57  159 1  
   160   61  160 1  
   161   61  161 1  
   162   61  162 1  
   163   62  163 1  
   164   63  164 1  
   165   63  165 1  
   166   64  166 1  
   167   65  167 1  
   168   65  168 1  
   169   65  169 1  
   170   66  170 1  
   171   66  171 1  
   172   66  172 1  
   173   70  173 1  
   174   70  174 1  
   175   70  175 1  
   176   71  176 1  
   177   72  177 1  
   178   72  178 1  
   179   73  179 1  
   180   74  180 1  
   181   74  181 1  
   182   74  182 1  
   183   75  183 1  
   184   75  184 1  
   185   75  185 1  
   186   79  186 1  
   187   79  187 1  
   188   79  188 1  
   189   80  189 1  
   190   81  190 1  
   191   82  191 1  
   192   82  192 1  
   193   82  193 1  
   194   83  194 1  
   195   83  195 1  
   196   83  196 1  
@<TRIPOS>SUBSTRUCTURE
     1 BMT         1

