1cyn_ligand
  -I-interpret- 

196196  0  0  0  0  0  0  0  0999 V2000
   17.7810   21.9410   36.8890 N   0  0  0  0  0
   17.9180   23.2950   37.5310 C   0  0  0  0  0
   18.3340   21.6680   35.5530 C   0  0  0  0  0
   19.8550   21.8280   35.4030 C   0  0  0  0  0
   20.6020   22.2520   36.3140 O   0  0  0  0  0
   17.6100   22.5300   34.4770 C   0  0  0  0  0
   18.0560   23.8860   34.6240 O   0  0  0  0  0
   16.0570   22.4840   34.6490 C   0  0  0  0  0
   15.5880   21.0390   34.5130 C   0  0  0  0  0
   15.3500   23.3780   33.6200 C   0  0  0  0  0
   15.5480   22.9180   32.1720 C   0  0  0  0  0
   15.7520   23.7650   31.1730 C   0  0  0  0  0
   15.9540   23.2840   29.7400 C   0  0  0  0  0
   20.3650   21.3770   34.2510 N   0  0  0  0  0
   21.8040   21.3180   34.0550 C   0  0  0  0  0
   22.1910   22.1510   32.8410 C   0  0  0  0  0
   22.2260   21.6350   31.7190 O   0  0  0  0  0
   22.2330   19.8590   33.8470 C   0  0  0  0  0
   21.8650   18.9070   35.0110 C   0  0  0  0  0
   22.4370   23.4550   32.9850 N   0  0  0  0  0
   22.7530   24.2310   31.7840 C   0  0  0  0  0
   21.8890   25.4770   31.7220 C   0  0  0  0  0
   22.4380   26.5820   31.8240 O   0  0  0  0  0
   22.5040   24.1330   34.3240 C   0  0  0  0  0
   20.5610   25.4020   31.5630 N   0  0  0  0  0
   19.8060   24.1180   31.4110 C   0  0  0  0  0
   19.8060   26.6410   31.6360 C   0  0  0  0  0
   18.8020   26.7980   30.4630 C   0  0  0  0  0
   19.2410   26.7740   29.0070 C   0  0  0  0  0
   18.1090   27.3330   28.2070 C   0  0  0  0  0
   20.4750   27.6040   28.7660 C   0  0  0  0  0
   19.0260   26.6620   32.9400 C   0  0  0  0  0
   17.9400   26.0870   33.0190 O   0  0  0  0  0
   19.5510   27.2830   33.9870 N   0  0  0  0  0
   18.8550   27.2650   35.2730 C   0  0  0  0  0
   17.6390   28.1970   35.1550 C   0  0  0  0  0
   17.8230   29.3330   34.6680 O   0  0  0  0  0
   19.8570   27.7120   36.3910 C   0  0  0  0  0
   19.2480   27.6570   37.7810 C   0  0  0  0  0
   20.9950   26.7130   36.4350 C   0  0  0  0  0
   16.4200   27.7640   35.5270 N   0  0  0  0  0
   16.0990   26.4210   36.1460 C   0  0  0  0  0
   15.3170   28.7060   35.3180 C   0  0  0  0  0
   14.1770   28.0320   34.4760 C   0  0  0  0  0
   14.5560   27.5070   33.0700 C   0  0  0  0  0
   13.3920   26.7640   32.4830 C   0  0  0  0  0
   14.9660   28.6610   32.1610 C   0  0  0  0  0
   14.7750   29.2460   36.6330 C   0  0  0  0  0
   15.3970   29.0760   37.6910 O   0  0  0  0  0
   13.6560   29.9590   36.6130 N   0  0  0  0  0
   13.1010   30.4870   37.8450 C   0  0  0  0  0
   12.2480   29.4460   38.5560 C   0  0  0  0  0
   11.8650   28.4130   37.9930 O   0  0  0  0  0
   12.2330   31.6860   37.5390 C   0  0  0  0  0
   11.9290   29.6810   39.8240 N   0  0  0  0  0
   11.0110   28.8140   40.5310 C   0  0  0  0  0
   10.2310   29.6540   41.5470 C   0  0  0  0  0
   11.8240   27.7370   41.2330 C   0  0  0  0  0
   12.8870   28.0900   41.7540 O   0  0  0  0  0
   11.4120   26.4490   41.2480 N   0  0  0  0  0
   10.1460   25.9790   40.5870 C   0  0  0  0  0
   12.1940   25.4390   41.9500 C   0  0  0  0  0
   11.4160   24.9440   43.1690 C   0  0  0  0  0
   11.1370   25.9780   44.2790 C   0  0  0  0  0
   10.1820   25.3880   45.3080 C   0  0  0  0  0
   12.4400   26.3920   44.9250 C   0  0  0  0  0
   12.4990   24.2780   41.0180 C   0  0  0  0  0
   11.9090   23.1940   41.1050 O   0  0  0  0  0
   13.4040   24.4830   40.0570 N   0  0  0  0  0
   14.1810   25.7700   39.8510 C   0  0  0  0  0
   13.6890   23.3650   39.1600 C   0  0  0  0  0
   13.5350   23.8540   37.6860 C   0  0  0  0  0
   12.1210   24.3150   37.2570 C   0  0  0  0  0
   12.1520   24.7230   35.8030 C   0  0  0  0  0
   11.1100   23.2080   37.4880 C   0  0  0  0  0
   15.0710   22.7590   39.4000 C   0  0  0  0  0
   15.8570   23.3220   40.1800 O   0  0  0  0  0
   15.4250   21.5970   38.8280 N   0  0  0  0  0
   14.4220   20.6910   38.1640 C   0  0  0  0  0
   16.8050   21.1250   39.0330 C   0  0  0  0  0
   16.8680   19.8150   39.8580 C   0  0  0  0  0
   18.3280   19.5720   40.2350 C   0  0  0  0  0
   16.0200   19.8890   41.1280 C   0  0  0  0  0
   17.4000   20.8750   37.6340 C   0  0  0  0  0
   17.4330   19.7040   37.1720 O   0  0  0  0  0
   16.9582   23.5951   37.9515 H   0  0  0  0  0
   18.6641   23.2458   38.3241 H   0  0  0  0  0
   18.2306   24.0214   36.7809 H   0  0  0  0  0
   18.1461   20.6049   35.4025 H   0  0  0  0  0
   17.8480   22.1344   33.4896 H   0  0  0  0  0
   19.0096   23.9211   34.5194 H   0  0  0  0  0
   15.8005   22.8657   35.6373 H   0  0  0  0  0
   14.5121   20.9903   34.6806 H   0  0  0  0  0
   15.8177   20.6766   33.5110 H   0  0  0  0  0
   16.1003   20.4212   35.2505 H   0  0  0  0  0
   15.7757   24.3776   33.7072 H   0  0  0  0  0
   14.2816   23.3402   33.8325 H   0  0  0  0  0
   15.5200   21.8503   31.9544 H   0  0  0  0  0
   15.7760   24.8346   31.3815 H   0  0  0  0  0
   16.8292   22.6358   29.6956 H   0  0  0  0  0
   15.0730   22.7297   29.4166 H   0  0  0  0  0
   16.1037   24.1439   29.0872 H   0  0  0  0  0
   19.7395   21.0725   33.5051 H   0  0  0  0  0
   22.3073   21.7181   34.9352 H   0  0  0  0  0
   23.3199   19.8556   33.7647 H   0  0  0  0  0
   21.7099   19.4966   32.9621 H   0  0  0  0  0
   22.3464   19.2513   35.9263 H   0  0  0  0  0
   20.7836   18.9028   35.1472 H   0  0  0  0  0
   22.2068   17.8990   34.7762 H   0  0  0  0  0
   22.5599   23.6190   30.9030 H   0  0  0  0  0
   23.8019   24.5257   31.8156 H   0  0  0  0  0
   21.5489   24.0176   34.8365 H   0  0  0  0  0
   23.2951   23.6788   34.9206 H   0  0  0  0  0
   22.7164   25.1928   34.1830 H   0  0  0  0  0
   20.1666   23.5881   30.5293 H   0  0  0  0  0
   19.9600   23.5005   32.2959 H   0  0  0  0  0
   18.7436   24.3339   31.2975 H   0  0  0  0  0
   20.5195   27.4630   31.5780 H   0  0  0  0  0
   18.4151   27.8085   30.5943 H   0  0  0  0  0
   18.1691   25.9149   30.5513 H   0  0  0  0  0
   19.4877   25.7512   28.7221 H   0  0  0  0  0
   17.2221   26.7169   28.3551 H   0  0  0  0  0
   17.9035   28.3524   28.5336 H   0  0  0  0  0
   18.3787   27.3359   27.1509 H   0  0  0  0  0
   20.2742   28.6395   29.0409 H   0  0  0  0  0
   21.2948   27.2183   29.3720 H   0  0  0  0  0
   20.7456   27.5526   27.7114 H   0  0  0  0  0
   20.4406   27.7735   33.8956 H   0  0  0  0  0
   18.4982   26.2702   35.5398 H   0  0  0  0  0
   20.1580   28.7318   36.1512 H   0  0  0  0  0
   18.3828   28.3186   37.8236 H   0  0  0  0  0
   18.9370   26.6355   37.9999 H   0  0  0  0  0
   19.9886   27.9776   38.5137 H   0  0  0  0  0
   20.5990   25.7228   36.6605 H   0  0  0  0  0
   21.4970   26.6933   35.4677 H   0  0  0  0  0
   21.7049   27.0066   37.2083 H   0  0  0  0  0
   16.3939   25.6266   35.4604 H   0  0  0  0  0
   16.6448   26.3147   37.0835 H   0  0  0  0  0
   15.0280   26.3577   36.3384 H   0  0  0  0  0
   15.7084   29.5567   34.7601 H   0  0  0  0  0
   13.4303   28.8089   34.3116 H   0  0  0  0  0
   13.8650   27.1567   35.0457 H   0  0  0  0  0
   15.4047   26.8289   33.1591 H   0  0  0  0  0
   13.1361   25.9238   33.1285 H   0  0  0  0  0
   12.5372   27.4355   32.4025 H   0  0  0  0  0
   13.6601   26.3949   31.4931 H   0  0  0  0  0
   14.1351   29.3601   32.0663 H   0  0  0  0  0
   15.8262   29.1733   32.5919 H   0  0  0  0  0
   15.2287   28.2714   31.1775 H   0  0  0  0  0
   13.1836   30.1368   35.7267 H   0  0  0  0  0
   13.9324   30.7685   38.4912 H   0  0  0  0  0
   12.8350   32.4545   37.0543 H   0  0  0  0  0
   11.4218   31.3859   36.8756 H   0  0  0  0  0
   11.8184   32.0792   38.4672 H   0  0  0  0  0
   12.3363   30.4827   40.3054 H   0  0  0  0  0
   10.3036   28.3427   39.8487 H   0  0  0  0  0
   10.9276   30.1106   42.2501 H   0  0  0  0  0
    9.6778   30.4337   41.0235 H   0  0  0  0  0
    9.5345   29.0133   42.0879 H   0  0  0  0  0
    9.2941   26.4988   41.0255 H   0  0  0  0  0
   10.1938   26.1934   39.5194 H   0  0  0  0  0
   10.0355   24.9053   40.7386 H   0  0  0  0  0
   13.1348   25.8787   42.2812 H   0  0  0  0  0
   12.0342   24.1716   43.6265 H   0  0  0  0  0
   10.4401   24.6327   42.7964 H   0  0  0  0  0
   10.6685   26.8622   43.8467 H   0  0  0  0  0
    9.2444   25.1208   44.8205 H   0  0  0  0  0
   10.6301   24.4977   45.7492 H   0  0  0  0  0
    9.9903   26.1246   46.0882 H   0  0  0  0  0
   12.9238   25.5164   45.3578 H   0  0  0  0  0
   13.0927   26.8345   44.1725 H   0  0  0  0  0
   12.2395   27.1225   45.7087 H   0  0  0  0  0
   13.4845   26.5876   39.6651 H   0  0  0  0  0
   14.7669   25.9862   40.7444 H   0  0  0  0  0
   14.8478   25.6575   38.9961 H   0  0  0  0  0
   12.9744   22.5674   39.3632 H   0  0  0  0  0
   13.7779   22.9979   37.0565 H   0  0  0  0  0
   14.1803   24.7270   37.5881 H   0  0  0  0  0
   11.8186   25.1713   37.8597 H   0  0  0  0  0
   12.8600   25.5413   35.6716 H   0  0  0  0  0
   12.4606   23.8727   35.1949 H   0  0  0  0  0
   11.1577   25.0484   35.4970 H   0  0  0  0  0
   11.3912   22.3328   36.9023 H   0  0  0  0  0
   11.0930   22.9483   38.5465 H   0  0  0  0  0
   10.1218   23.5502   37.1807 H   0  0  0  0  0
   13.6732   20.3833   38.8939 H   0  0  0  0  0
   13.9369   21.2251   37.3470 H   0  0  0  0  0
   14.9325   19.8112   37.7722 H   0  0  0  0  0
   17.3617   21.8750   39.5948 H   0  0  0  0  0
   16.4683   19.0005   39.2538 H   0  0  0  0  0
   18.9253   19.4781   39.3281 H   0  0  0  0  0
   18.6935   20.4110   40.8271 H   0  0  0  0  0
   18.4035   18.6541   40.8179 H   0  0  0  0  0
   16.3804   20.7030   41.7571 H   0  0  0  0  0
   14.9794   20.0697   40.8585 H   0  0  0  0  0
   16.0978   18.9469   41.6707 H   0  0  0  0  0
  1  2  1  0  0  0
  1  3  1  0  0  0
  1 84  1  0  0  0
  3  4  1  0  0  0
  3  6  1  0  0  0
  4  5  2  0  0  0
  4 14  1  0  0  0
  6  7  1  0  0  0
  6  8  1  0  0  0
  8  9  1  0  0  0
  8 10  1  0  0  0
 10 11  1  0  0  0
 11 12  2  0  0  0
 12 13  1  0  0  0
 14 15  1  0  0  0
 15 16  1  0  0  0
 15 18  1  0  0  0
 16 17  2  0  0  0
 16 20  1  0  0  0
 18 19  1  0  0  0
 20 21  1  0  0  0
 20 24  1  0  0  0
 21 22  1  0  0  0
 22 23  2  0  0  0
 22 25  1  0  0  0
 25 26  1  0  0  0
 25 27  1  0  0  0
 27 28  1  0  0  0
 27 32  1  0  0  0
 28 29  1  0  0  0
 29 30  1  0  0  0
 29 31  1  0  0  0
 32 33  2  0  0  0
 32 34  1  0  0  0
 34 35  1  0  0  0
 35 36  1  0  0  0
 35 38  1  0  0  0
 36 37  2  0  0  0
 36 41  1  0  0  0
 38 39  1  0  0  0
 38 40  1  0  0  0
 41 42  1  0  0  0
 41 43  1  0  0  0
 43 44  1  0  0  0
 43 48  1  0  0  0
 44 45  1  0  0  0
 45 46  1  0  0  0
 45 47  1  0  0  0
 48 49  2  0  0  0
 48 50  1  0  0  0
 50 51  1  0  0  0
 51 52  1  0  0  0
 51 54  1  0  0  0
 52 53  2  0  0  0
 52 55  1  0  0  0
 55 56  1  0  0  0
 56 57  1  0  0  0
 56 58  1  0  0  0
 58 59  2  0  0  0
 58 60  1  0  0  0
 60 61  1  0  0  0
 60 62  1  0  0  0
 62 63  1  0  0  0
 62 67  1  0  0  0
 63 64  1  0  0  0
 64 65  1  0  0  0
 64 66  1  0  0  0
 67 68  2  0  0  0
 67 69  1  0  0  0
 69 70  1  0  0  0
 69 71  1  0  0  0
 71 72  1  0  0  0
 71 76  1  0  0  0
 72 73  1  0  0  0
 73 74  1  0  0  0
 73 75  1  0  0  0
 76 77  2  0  0  0
 76 78  1  0  0  0
 78 79  1  0  0  0
 78 80  1  0  0  0
 80 81  1  0  0  0
 80 84  1  0  0  0
 81 82  1  0  0  0
 81 83  1  0  0  0
 84 85  2  0  0  0
  2 86  1  0  0  0
  2 87  1  0  0  0
  2 88  1  0  0  0
  3 89  1  0  0  0
  6 90  1  0  0  0
  7 91  1  0  0  0
  8 92  1  0  0  0
  9 93  1  0  0  0
  9 94  1  0  0  0
  9 95  1  0  0  0
 10 96  1  0  0  0
 10 97  1  0  0  0
 11 98  1  0  0  0
 12 99  1  0  0  0
 13100  1  0  0  0
 13101  1  0  0  0
 13102  1  0  0  0
 14103  1  0  0  0
 15104  1  0  0  0
 18105  1  0  0  0
 18106  1  0  0  0
 19107  1  0  0  0
 19108  1  0  0  0
 19109  1  0  0  0
 21110  1  0  0  0
 21111  1  0  0  0
 24112  1  0  0  0
 24113  1  0  0  0
 24114  1  0  0  0
 26115  1  0  0  0
 26116  1  0  0  0
 26117  1  0  0  0
 27118  1  0  0  0
 28119  1  0  0  0
 28120  1  0  0  0
 29121  1  0  0  0
 30122  1  0  0  0
 30123  1  0  0  0
 30124  1  0  0  0
 31125  1  0  0  0
 31126  1  0  0  0
 31127  1  0  0  0
 34128  1  0  0  0
 35129  1  0  0  0
 38130  1  0  0  0
 39131  1  0  0  0
 39132  1  0  0  0
 39133  1  0  0  0
 40134  1  0  0  0
 40135  1  0  0  0
 40136  1  0  0  0
 42137  1  0  0  0
 42138  1  0  0  0
 42139  1  0  0  0
 43140  1  0  0  0
 44141  1  0  0  0
 44142  1  0  0  0
 45143  1  0  0  0
 46144  1  0  0  0
 46145  1  0  0  0
 46146  1  0  0  0
 47147  1  0  0  0
 47148  1  0  0  0
 47149  1  0  0  0
 50150  1  0  0  0
 51151  1  0  0  0
 54152  1  0  0  0
 54153  1  0  0  0
 54154  1  0  0  0
 55155  1  0  0  0
 56156  1  0  0  0
 57157  1  0  0  0
 57158  1  0  0  0
 57159  1  0  0  0
 61160  1  0  0  0
 61161  1  0  0  0
 61162  1  0  0  0
 62163  1  0  0  0
 63164  1  0  0  0
 63165  1  0  0  0
 64166  1  0  0  0
 65167  1  0  0  0
 65168  1  0  0  0
 65169  1  0  0  0
 66170  1  0  0  0
 66171  1  0  0  0
 66172  1  0  0  0
 70173  1  0  0  0
 70174  1  0  0  0
 70175  1  0  0  0
 71176  1  0  0  0
 72177  1  0  0  0
 72178  1  0  0  0
 73179  1  0  0  0
 74180  1  0  0  0
 74181  1  0  0  0
 74182  1  0  0  0
 75183  1  0  0  0
 75184  1  0  0  0
 75185  1  0  0  0
 79186  1  0  0  0
 79187  1  0  0  0
 79188  1  0  0  0
 80189  1  0  0  0
 81190  1  0  0  0
 82191  1  0  0  0
 82192  1  0  0  0
 82193  1  0  0  0
 83194  1  0  0  0
 83195  1  0  0  0
 83196  1  0  0  0
M  END
$$$$
