5h0h_ligand
  -I-interpret- 

 81 85  0  0  0  0  0  0  0  0999 V2000
   -5.5360   -4.9300    2.1470 N   0  0  0  0  0
   -6.4760   -4.2590    1.4280 C   0  0  0  0  0
   -6.3060   -3.0860    0.7890 N   0  0  0  0  0
   -5.0380   -2.5810    0.9160 C   0  0  0  0  0
   -3.9500   -3.1630    1.6230 C   0  0  0  0  0
   -4.2870   -4.3860    2.2300 C   0  0  0  0  0
   -4.6180   -1.4180    0.3540 N   0  0  0  0  0
   -3.2830   -1.2120    0.7050 C   0  0  0  0  0
   -2.8160   -2.2710    1.4900 C   0  0  0  0  0
   -1.4570   -2.3270    1.9480 C   0  0  0  0  0
   -0.7840   -1.2530    2.5230 C   0  0  0  0  0
    0.5530   -1.3460    2.9290 C   0  0  0  0  0
    1.2830   -2.5210    2.7680 C   0  0  0  0  0
    0.6410   -3.6140    2.1740 C   0  0  0  0  0
   -0.7020   -3.5020    1.7740 C   0  0  0  0  0
    2.6210   -2.6040    3.1490 O   0  0  0  0  0
    3.1140   -2.0840    4.3200 C   0  0  0  0  0
    4.3710   -1.4360    4.3300 C   0  0  0  0  0
    4.8630   -0.9470    5.5460 C   0  0  0  0  0
    4.1380   -1.0710    6.7230 C   0  0  0  0  0
    2.9030   -1.7210    6.7020 C   0  0  0  0  0
    2.4000   -2.2150    5.5120 C   0  0  0  0  0
   -5.4920   -0.5240   -0.3950 C   0  0  0  0  0
   -5.0610    0.9220   -0.0990 C   0  0  0  0  0
   -6.0010    1.9230   -0.7210 C   0  0  0  0  0
   -6.1590    1.7340   -2.2330 C   0  0  0  0  0
   -6.5350    0.2700   -2.5370 C   0  0  0  0  0
   -5.5460   -0.7310   -1.9010 C   0  0  0  0  0
   -7.1600    2.6820   -2.7400 N   0  3  0  0  0
   -7.1690    2.8880   -4.1950 C   0  0  0  0  0
   -8.5710    3.3350   -4.6950 C   0  0  0  0  0
   -6.1110    3.9740   -4.4120 C   0  0  0  0  0
   -5.6990    4.6750   -3.4960 O   0  0  0  0  0
   -5.5850    4.1330   -5.7120 N   0  0  0  0  0
   -5.9940    3.3360   -6.8700 C   0  0  0  0  0
   -4.5680    5.1570   -5.9660 C   0  0  0  0  0
   -3.3180   -5.0440    2.9870 N   0  0  0  0  0
   -9.5690    2.1790   -4.7000 C   0  0  0  0  0
  -11.0150    2.6790   -4.6170 C   0  0  0  0  0
   -9.3860    1.3100   -5.9470 C   0  0  0  0  0
   -7.4636   -4.7157    1.3628 H   0  0  0  0  0
   -2.6883   -0.3478    0.4091 H   0  0  0  0  0
   -1.3138   -0.3106    2.6616 H   0  0  0  0  0
    1.0335   -0.4786    3.3815 H   0  0  0  0  0
    1.1806   -4.5488    2.0221 H   0  0  0  0  0
   -1.1800   -4.3638    1.3082 H   0  0  0  0  0
    4.9446   -1.3198    3.4104 H   0  0  0  0  0
    5.8369   -0.4581    5.5689 H   0  0  0  0  0
    4.5296   -0.6644    7.6554 H   0  0  0  0  0
    2.3343   -1.8394    7.6243 H   0  0  0  0  0
    1.4311   -2.7143    5.5051 H   0  0  0  0  0
   -6.5023   -0.7524   -0.0557 H   0  0  0  0  0
   -4.0674    1.0769   -0.5195 H   0  0  0  0  0
   -5.0694    1.0684    0.9811 H   0  0  0  0  0
   -5.5878    2.9173   -0.5514 H   0  0  0  0  0
   -6.9814    1.7870   -0.2645 H   0  0  0  0  0
   -5.2177    1.9410   -2.7421 H   0  0  0  0  0
   -6.5098    0.1310   -3.6178 H   0  0  0  0  0
   -7.5241    0.0805   -2.1200 H   0  0  0  0  0
   -5.8795   -1.7472   -2.1114 H   0  0  0  0  0
   -4.5531   -0.5697   -2.3208 H   0  0  0  0  0
   -6.9370    3.5858   -2.3231 H   0  0  0  0  0
   -8.0718    2.2935   -2.4990 H   0  0  0  0  0
   -6.9510    1.9783   -4.7545 H   0  0  0  0  0
   -8.4686    3.7025   -5.7160 H   0  0  0  0  0
   -8.9444    4.1060   -4.0211 H   0  0  0  0  0
   -5.7886    2.2833   -6.6758 H   0  0  0  0  0
   -7.0611    3.4730   -7.0451 H   0  0  0  0  0
   -5.4358    3.6604   -7.7482 H   0  0  0  0  0
   -4.9736    6.1387   -5.7211 H   0  0  0  0  0
   -3.6928    4.9594   -5.3471 H   0  0  0  0  0
   -4.2839    5.1320   -7.0180 H   0  0  0  0  0
   -3.5490   -5.9147    3.4655 H   0  0  0  0  0
   -2.3783   -4.6546    3.0622 H   0  0  0  0  0
   -9.3693    1.5758   -3.8143 H   0  0  0  0  0
  -11.1498    3.2457   -3.6957 H   0  0  0  0  0
  -11.2263    3.3195   -5.4733 H   0  0  0  0  0
  -11.6939    1.8262   -4.6232 H   0  0  0  0  0
   -9.5455    1.9172   -6.8380 H   0  0  0  0  0
   -8.3750    0.9029   -5.9594 H   0  0  0  0  0
  -10.1077    0.4934   -5.9283 H   0  0  0  0  0
  1  2  4  0  0  0
  1  6  4  0  0  0
  2  3  4  0  0  0
  3  4  4  0  0  0
  4  5  4  0  0  0
  4  7  4  0  0  0
  5  6  4  0  0  0
  5  9  4  0  0  0
  6 37  1  0  0  0
  7  8  4  0  0  0
  7 23  1  0  0  0
  8  9  4  0  0  0
  9 10  1  0  0  0
 10 11  4  0  0  0
 10 15  4  0  0  0
 11 12  4  0  0  0
 12 13  4  0  0  0
 13 14  4  0  0  0
 13 16  1  0  0  0
 14 15  4  0  0  0
 16 17  1  0  0  0
 17 18  4  0  0  0
 17 22  4  0  0  0
 18 19  4  0  0  0
 19 20  4  0  0  0
 20 21  4  0  0  0
 21 22  4  0  0  0
 23 24  1  0  0  0
 23 28  1  0  0  0
 24 25  1  0  0  0
 25 26  1  0  0  0
 26 27  1  0  0  0
 26 29  1  0  0  0
 27 28  1  0  0  0
 29 30  1  0  0  0
 30 31  1  0  0  0
 30 32  1  0  0  0
 31 38  1  0  0  0
 32 33  2  0  0  0
 32 34  1  0  0  0
 34 35  1  0  0  0
 34 36  1  0  0  0
 38 39  1  0  0  0
 38 40  1  0  0  0
  2 41  1  0  0  0
  8 42  1  0  0  0
 11 43  1  0  0  0
 12 44  1  0  0  0
 14 45  1  0  0  0
 15 46  1  0  0  0
 18 47  1  0  0  0
 19 48  1  0  0  0
 20 49  1  0  0  0
 21 50  1  0  0  0
 22 51  1  0  0  0
 23 52  1  0  0  0
 24 53  1  0  0  0
 24 54  1  0  0  0
 25 55  1  0  0  0
 25 56  1  0  0  0
 26 57  1  0  0  0
 27 58  1  0  0  0
 27 59  1  0  0  0
 28 60  1  0  0  0
 28 61  1  0  0  0
 29 62  1  0  0  0
 29 63  1  0  0  0
 30 64  1  0  0  0
 31 65  1  0  0  0
 31 66  1  0  0  0
 35 67  1  0  0  0
 35 68  1  0  0  0
 35 69  1  0  0  0
 36 70  1  0  0  0
 36 71  1  0  0  0
 36 72  1  0  0  0
 37 73  1  0  0  0
 37 74  1  0  0  0
 38 75  1  0  0  0
 39 76  1  0  0  0
 39 77  1  0  0  0
 39 78  1  0  0  0
 40 79  1  0  0  0
 40 80  1  0  0  0
 40 81  1  0  0  0
M  END
$$$$
