### 
### Created by X-TOOL on Fri Nov  2 10:51:03 2018
### 

@<TRIPOS>MOLECULE
5hh6_ligand
   20    20     1     0     0
SMALL
GAST_HUCK


@<TRIPOS>ATOM
      1 C10       -21.4340   22.8020    3.0160 C.ar      1 MOL        -0.0268
      2 C11       -21.8550   24.1090    3.3530 C.ar      1 MOL         0.0742
      3 C12       -22.7980   24.2780    4.6440 C.2       1 MOL         0.0788
      4 O01       -19.0280   26.0780    0.3200 O.3       1 MOL        -0.3608
      5 C02       -20.3120   26.1570    0.7800 C.3       1 MOL         0.1747
      6 P03       -21.5380   26.3060   -0.7440 P.3       1 MOL         0.1034
      7 O04       -21.3200   25.0140   -1.4900 O.co2     1 MOL        -0.5589
      8 O05       -21.0280   27.5230   -1.4820 O.co2     1 MOL        -0.5589
      9 O06       -22.8810   26.4500   -0.0650 O.co2     1 MOL        -0.5589
     10 C07       -20.6810   24.9770    1.5750 C.ar      1 MOL         0.0765
     11 C08       -20.2320   23.7140    1.1380 C.ar      1 MOL        -0.0260
     12 C09       -20.6120   22.5830    1.8910 C.ar      1 MOL        -0.0452
     13 O13       -22.6950   23.4250    5.4590 O.co2     1 MOL        -0.5572
     14 O14       -23.4610   25.2480    4.8110 O.co2     1 MOL        -0.5572
     15 N15       -21.4720   25.1410    2.6440 N.ar      1 MOL        -0.2796
     16 H1        -21.7452   21.9622    3.6267 H         1 MOL         0.0687
     17 H2        -18.8228   26.8601   -0.1788 H         1 MOL         0.2151
     18 H3        -20.4063   27.0529    1.4112 H         1 MOL         0.0986
     19 H4        -19.6149   23.6151    0.2523 H         1 MOL         0.0672
     20 H5        -20.2856   21.5865    1.6162 H         1 MOL         0.0725
@<TRIPOS>BOND
     1    2    1 ar 
     2    1   12 ar 
     3    2    3 1  
     4   15    2 ar 
     5    3   13 ar 
     6    3   14 ar 
     7    5    4 1  
     8    5    6 1  
     9   10    5 1  
    10    6    7 ar 
    11    6    8 ar 
    12    6    9 ar 
    13   10   11 ar 
    14   10   15 ar 
    15   11   12 ar 
    16    1   16 1  
    17    4   17 1  
    18    5   18 1  
    19   11   19 1  
    20   12   20 1  
@<TRIPOS>SUBSTRUCTURE
     1 MOL         1

