5hh6_ligand
  -I-interpret- 

 23 23  0  0  0  0  0  0  0  0999 V2000
  -21.4340   22.8020    3.0160 C   0  0  0  0  0
  -21.8550   24.1090    3.3530 C   0  0  0  0  0
  -22.7980   24.2780    4.6440 C   0  0  0  0  0
  -19.0280   26.0780    0.3200 O   0  0  0  0  0
  -20.3120   26.1570    0.7800 C   0  0  0  0  0
  -21.5380   26.3060   -0.7440 P   0  0  0  0  0
  -21.3200   25.0140   -1.4900 O   0  0  0  0  0
  -21.0280   27.5230   -1.4820 O   0  0  0  0  0
  -22.8810   26.4500   -0.0650 O   0  0  0  0  0
  -20.6810   24.9770    1.5750 C   0  0  0  0  0
  -20.2320   23.7140    1.1380 C   0  0  0  0  0
  -20.6120   22.5830    1.8910 C   0  0  0  0  0
  -22.6950   23.4250    5.4590 O   0  0  0  0  0
  -23.4610   25.2480    4.8110 O   0  0  0  0  0
  -21.4720   25.1410    2.6440 N   0  0  0  0  0
  -21.7470   21.9576    3.6301 H   0  0  0  0  0
  -18.8241   26.8635   -0.1928 H   0  0  0  0  0
  -20.3834   27.0355    1.4213 H   0  0  0  0  0
  -21.1963   28.3085   -0.9563 H   0  0  0  0  0
  -22.9238   27.2995    0.3801 H   0  0  0  0  0
  -19.6115   23.6146    0.2474 H   0  0  0  0  0
  -20.2838   21.5810    1.6146 H   0  0  0  0  0
  -23.4078   25.8084    4.0334 H   0  0  0  0  0
  2  1  4  0  0  0
  1 12  4  0  0  0
  2  3  1  0  0  0
 15  2  4  0  0  0
  3 13  2  0  0  0
  3 14  1  0  0  0
  5  4  1  0  0  0
  5  6  1  0  0  0
 10  5  1  0  0  0
  6  7  2  0  0  0
  6  8  1  0  0  0
  6  9  1  0  0  0
 10 11  4  0  0  0
 10 15  4  0  0  0
 11 12  4  0  0  0
  1 16  1  0  0  0
  4 17  1  0  0  0
  5 18  1  0  0  0
  8 19  1  0  0  0
  9 20  1  0  0  0
 11 21  1  0  0  0
 12 22  1  0  0  0
 14 23  1  0  0  0
M  END
$$$$
