6i63_ligand
  -I-interpret- 

 33 34  0  0  0  0  0  0  0  0999 V2000
   15.9850    3.0040  -33.7550 O   0  0  0  0  0
   15.9860    3.0980  -32.3900 C   0  0  0  0  0
   14.9150    2.5970  -31.6520 C   0  0  0  0  0
   14.9050    2.6840  -30.2600 C   0  0  0  0  0
   17.0570    3.6920  -31.7290 C   0  0  0  0  0
   17.0530    3.7800  -30.3400 C   0  0  0  0  0
   15.9790    3.2790  -29.6120 C   0  0  0  0  0
   16.0000    3.3880  -28.0950 C   0  0  0  0  0
   17.3420    2.8710  -27.5600 C   0  0  0  0  0
   14.8460    2.5790  -27.4890 C   0  0  0  0  0
   15.7610    4.8500  -27.7180 C   0  0  0  0  0
   16.6200    5.5200  -26.8430 C   0  0  0  0  0
   16.3590    6.8410  -26.4960 C   0  0  0  0  0
   14.6450    5.4930  -28.2520 C   0  0  0  0  0
   14.3850    6.8050  -27.9090 C   0  0  0  0  0
   15.2390    7.4770  -27.0330 C   0  0  0  0  0
   14.9790    8.7720  -26.7020 O   0  0  0  0  0
   16.7902    3.3949  -34.1021 H   0  0  0  0  0
   14.0755    2.1318  -32.1687 H   0  0  0  0  0
   14.0648    2.2899  -29.6883 H   0  0  0  0  0
   17.8979    4.0878  -32.2984 H   0  0  0  0  0
   17.8931    4.2424  -29.8218 H   0  0  0  0  0
   17.4701    1.8283  -27.8505 H   0  0  0  0  0
   18.1526    3.4681  -27.9778 H   0  0  0  0  0
   17.3533    2.9507  -26.4730 H   0  0  0  0  0
   13.8976    2.9660  -27.8618 H   0  0  0  0  0
   14.9495    1.5318  -27.7733 H   0  0  0  0  0
   14.8738    2.6664  -26.4029 H   0  0  0  0  0
   17.4916    5.0090  -26.4339 H   0  0  0  0  0
   17.0211    7.3732  -25.8130 H   0  0  0  0  0
   13.9819    4.9633  -28.9360 H   0  0  0  0  0
   13.5145    7.3150  -28.3215 H   0  0  0  0  0
   14.1807    9.0615  -27.1498 H   0  0  0  0  0
  1  2  1  0  0  0
  2  3  4  0  0  0
  2  5  4  0  0  0
  3  4  4  0  0  0
  4  7  4  0  0  0
  5  6  4  0  0  0
  6  7  4  0  0  0
  7  8  1  0  0  0
  8  9  1  0  0  0
  8 10  1  0  0  0
  8 11  1  0  0  0
 11 12  4  0  0  0
 11 14  4  0  0  0
 12 13  4  0  0  0
 13 16  4  0  0  0
 14 15  4  0  0  0
 15 16  4  0  0  0
 16 17  1  0  0  0
  1 18  1  0  0  0
  3 19  1  0  0  0
  4 20  1  0  0  0
  5 21  1  0  0  0
  6 22  1  0  0  0
  9 23  1  0  0  0
  9 24  1  0  0  0
  9 25  1  0  0  0
 10 26  1  0  0  0
 10 27  1  0  0  0
 10 28  1  0  0  0
 12 29  1  0  0  0
 13 30  1  0  0  0
 14 31  1  0  0  0
 15 32  1  0  0  0
 17 33  1  0  0  0
M  END
$$$$
