### 
### Created by X-TOOL on Mon Sep 10 21:13:25 2018
### 

@<TRIPOS>MOLECULE
4u6e_ligand
   21    21     1     0     0
SMALL
GAST_HUCK


@<TRIPOS>ATOM
      1 O         -20.3360  -15.6720  -11.3220 O.co2     1 Q02        -0.5571
      2 P         -21.7060  -15.1050  -11.2160 P.3       1 Q02         0.1231
      3 O1        -22.3530  -14.8960  -12.6660 O.co2     1 Q02        -0.5571
      4 O2        -21.7000  -13.7300  -10.3720 O.co2     1 Q02        -0.5571
      5 C         -22.7050  -16.2140  -10.1590 C.3       1 Q02         0.0775
      6 N         -23.9700  -15.5790   -9.8250 N.4       1 Q02         0.2451
      7 C1        -22.9870  -17.5750  -10.6920 C.ar      1 Q02         0.0212
      8 C6        -22.3670  -18.0770  -11.8350 C.ar      1 Q02        -0.0535
      9 C5        -22.6540  -19.3690  -12.2780 C.ar      1 Q02        -0.0683
     10 C4        -23.5590  -20.1690  -11.5810 C.ar      1 Q02        -0.0687
     11 C3        -24.1770  -19.6680  -10.4380 C.ar      1 Q02        -0.0683
     12 C2        -23.8910  -18.3720   -9.9940 C.ar      1 Q02        -0.0535
     13 H1        -22.1359  -16.3510   -9.2277 H         1 Q02         0.1217
     14 H2        -24.5129  -16.1974   -9.2428 H         1 Q02         0.2025
     15 H3        -24.4801  -15.3803  -10.6714 H         1 Q02         0.2025
     16 H4        -23.7938  -14.7192   -9.3292 H         1 Q02         0.2025
     17 H5        -21.6603  -17.4626  -12.3810 H         1 Q02         0.0559
     18 H6        -22.1706  -19.7529  -13.1691 H         1 Q02         0.0599
     19 H7        -23.7796  -21.1726  -11.9261 H         1 Q02         0.0559
     20 H8        -24.8816  -20.2836   -9.8906 H         1 Q02         0.0599
     21 H9        -24.3748  -17.9871   -9.1036 H         1 Q02         0.0559
@<TRIPOS>BOND
     1    1    2 ar 
     2    2    3 ar 
     3    2    4 ar 
     4    2    5 1  
     5    5    6 1  
     6    5    7 1  
     7    7    8 ar 
     8    7   12 ar 
     9    8    9 ar 
    10    9   10 ar 
    11   10   11 ar 
    12   11   12 ar 
    13    5   13 1  
    14    6   14 1  
    15    6   15 1  
    16    6   16 1  
    17    8   17 1  
    18    9   18 1  
    19   10   19 1  
    20   11   20 1  
    21   12   21 1  
@<TRIPOS>SUBSTRUCTURE
     1 Q02         1

