4u6e_ligand
  -I-interpret- 

 23 23  0  0  0  0  0  0  0  0999 V2000
  -20.3360  -15.6720  -11.3220 O   0  0  0  0  0
  -21.7060  -15.1050  -11.2160 P   0  0  0  0  0
  -22.3530  -14.8960  -12.6660 O   0  0  0  0  0
  -21.7000  -13.7300  -10.3720 O   0  0  0  0  0
  -22.7050  -16.2140  -10.1590 C   0  0  0  0  0
  -23.9700  -15.5790   -9.8250 N   0  3  0  0  0
  -22.9870  -17.5750  -10.6920 C   0  0  0  0  0
  -22.3670  -18.0770  -11.8350 C   0  0  0  0  0
  -22.6540  -19.3690  -12.2780 C   0  0  0  0  0
  -23.5590  -20.1690  -11.5810 C   0  0  0  0  0
  -24.1770  -19.6680  -10.4380 C   0  0  0  0  0
  -23.8910  -18.3720   -9.9940 C   0  0  0  0  0
  -23.2354  -14.5298  -12.5717 H   0  0  0  0  0
  -22.5942  -13.3850  -10.3182 H   0  0  0  0  0
  -22.0713  -16.3730   -9.2865 H   0  0  0  0  0
  -23.7932  -14.6440   -9.4578 H   0  0  0  0  0
  -24.5476  -15.5128  -10.6631 H   0  0  0  0  0
  -24.4533  -16.1364   -9.1207 H   0  0  0  0  0
  -21.6564  -17.4592  -12.3841 H   0  0  0  0  0
  -22.1679  -19.7550  -13.1740 H   0  0  0  0  0
  -23.7808  -21.1782  -11.9280 H   0  0  0  0  0
  -24.8855  -20.2870   -9.8876 H   0  0  0  0  0
  -24.3775  -17.9850   -9.0987 H   0  0  0  0  0
  1  2  2  0  0  0
  2  3  1  0  0  0
  2  4  1  0  0  0
  2  5  1  0  0  0
  5  6  1  0  0  0
  5  7  1  0  0  0
  7  8  4  0  0  0
  7 12  4  0  0  0
  8  9  4  0  0  0
  9 10  4  0  0  0
 10 11  4  0  0  0
 11 12  4  0  0  0
  3 13  1  0  0  0
  4 14  1  0  0  0
  5 15  1  0  0  0
  6 16  1  0  0  0
  6 17  1  0  0  0
  6 18  1  0  0  0
  8 19  1  0  0  0
  9 20  1  0  0  0
 10 21  1  0  0  0
 11 22  1  0  0  0
 12 23  1  0  0  0
M  END
$$$$
