7upj_ligand
  -I-interpret- 

 63 67  0  0  0  0  0  0  0  0999 V2000
   12.9630   24.1000    5.3730 C   0  0  0  0  0
   12.5940   22.8440    5.9470 C   0  0  0  0  0
   11.4470   22.5440    6.0220 O   0  0  0  0  0
   13.4860   21.9770    6.4690 O   0  0  0  0  0
   14.8300   22.4030    6.4230 C   0  0  0  0  0
   15.2710   23.6230    5.8890 C   0  0  0  0  0
   14.3120   24.4820    5.3550 C   0  0  0  0  0
   14.7250   25.6750    4.8300 O   0  0  0  0  0
   11.2720   25.8560    5.9360 C   0  0  0  0  0
   12.0820   26.4400    6.9430 C   0  0  0  0  0
   11.4870   27.2460    7.9300 C   0  0  0  0  0
   10.1100   27.4950    7.9530 C   0  0  0  0  0
    9.2800   26.9260    6.9500 C   0  0  0  0  0
    9.8720   26.1000    5.9490 C   0  0  0  0  0
   11.9100   25.0510    4.8330 C   0  0  0  0  0
   10.9340   24.3880    3.8370 C   0  0  0  0  0
   11.3620   24.2700    2.3830 C   0  0  0  0  0
   10.2150   25.1970    2.7750 C   0  0  0  0  0
   15.7680   21.3830    7.0500 C   0  0  0  0  0
   15.9780   21.5560    8.5390 C   0  0  0  0  0
   16.2140   22.9870    8.9940 C   0  0  0  0  0
   17.4920   23.6590    8.4420 C   0  0  0  0  0
   17.3020   24.6280    7.2520 C   0  0  0  0  0
   16.7370   24.0090    5.9090 C   0  0  0  0  0
    7.8910   27.2770    6.9080 N   0  0  0  0  0
    7.5030   28.6780    6.0930 S   0  0  0  0  0
    6.1590   28.9700    6.5430 O   0  0  0  0  0
    8.5110   29.6400    6.4390 O   0  0  0  0  0
    7.4840   28.2200    4.4120 C   0  0  0  0  0
    6.3970   27.4300    3.9370 C   0  0  0  0  0
    6.3680   27.0320    2.6040 C   0  0  0  0  0
    7.4070   27.4080    1.7260 C   0  0  0  0  0
    8.4890   28.1860    2.1890 C   0  0  0  0  0
    8.5390   28.5960    3.5280 C   0  0  0  0  0
   15.6787   25.7468    4.9130 H   0  0  0  0  0
   13.1579   26.2654    6.9519 H   0  0  0  0  0
   12.1174   27.6902    8.7004 H   0  0  0  0  0
    9.6778   28.1204    8.7341 H   0  0  0  0  0
    9.2413   25.6493    5.1827 H   0  0  0  0  0
   12.4196   25.7858    4.2098 H   0  0  0  0  0
   10.5953   23.7057    4.6167 H   0  0  0  0  0
   11.5725   23.4903    1.6509 H   0  0  0  0  0
   12.2776   24.3029    1.7926 H   0  0  0  0  0
    9.9009   26.2267    2.6044 H   0  0  0  0  0
    9.1930   25.4110    2.4622 H   0  0  0  0  0
   16.7404   21.5087    6.5738 H   0  0  0  0  0
   15.3166   20.4018    6.9033 H   0  0  0  0  0
   15.0636   21.2181    9.0266 H   0  0  0  0  0
   16.8744   20.9923    8.7974 H   0  0  0  0  0
   15.3717   23.5726    8.6256 H   0  0  0  0  0
   16.3244   22.9537   10.0779 H   0  0  0  0  0
   17.8949   24.2584    9.2584 H   0  0  0  0  0
   18.1242   22.8504    8.0752 H   0  0  0  0  0
   16.5630   25.3600    7.5778 H   0  0  0  0  0
   18.2961   25.0052    7.0121 H   0  0  0  0  0
   16.8492   24.7869    5.1537 H   0  0  0  0  0
   17.2898   23.0824    5.7539 H   0  0  0  0  0
    7.1776   26.6998    7.3534 H   0  0  0  0  0
    5.5934   27.1394    4.6137 H   0  0  0  0  0
    5.5391   26.4271    2.2363 H   0  0  0  0  0
    7.3732   27.0950    0.6825 H   0  0  0  0  0
    9.2879   28.4688    1.5036 H   0  0  0  0  0
    9.3743   29.1953    3.8901 H   0  0  0  0  0
  1 15  1  0  0  0
  1  7  2  0  0  0
  1  2  1  0  0  0
  2  4  1  0  0  0
  2  3  2  0  0  0
  4  5  1  0  0  0
  5 19  1  0  0  0
  5  6  2  0  0  0
  6 24  1  0  0  0
  6  7  1  0  0  0
  7  8  1  0  0  0
 24 23  1  0  0  0
 23 22  1  0  0  0
 22 21  1  0  0  0
 21 20  1  0  0  0
 20 19  1  0  0  0
 15 16  1  0  0  0
 15  9  1  0  0  0
  9 14  4  0  0  0
  9 10  4  0  0  0
 10 11  4  0  0  0
 11 12  4  0  0  0
 12 13  4  0  0  0
 13 25  1  0  0  0
 13 14  4  0  0  0
 25 26  1  0  0  0
 26 29  1  0  0  0
 26 28  2  0  0  0
 26 27  2  0  0  0
 29 34  4  0  0  0
 29 30  4  0  0  0
 30 31  4  0  0  0
 31 32  4  0  0  0
 32 33  4  0  0  0
 33 34  4  0  0  0
 16 18  1  0  0  0
 16 17  1  0  0  0
 17 18  1  0  0  0
  8 35  1  0  0  0
 10 36  1  0  0  0
 11 37  1  0  0  0
 12 38  1  0  0  0
 14 39  1  0  0  0
 15 40  1  0  0  0
 16 41  1  0  0  0
 17 42  1  0  0  0
 17 43  1  0  0  0
 18 44  1  0  0  0
 18 45  1  0  0  0
 19 46  1  0  0  0
 19 47  1  0  0  0
 20 48  1  0  0  0
 20 49  1  0  0  0
 21 50  1  0  0  0
 21 51  1  0  0  0
 22 52  1  0  0  0
 22 53  1  0  0  0
 23 54  1  0  0  0
 23 55  1  0  0  0
 24 56  1  0  0  0
 24 57  1  0  0  0
 25 58  1  0  0  0
 30 59  1  0  0  0
 31 60  1  0  0  0
 32 61  1  0  0  0
 33 62  1  0  0  0
 34 63  1  0  0  0
M  END
$$$$
