### 
### Created by X-TOOL on Mon Sep 10 21:13:15 2018
### 

@<TRIPOS>MOLECULE
4i2z_ligand
  123   122     1     0     0
SMALL
GAST_HUCK


@<TRIPOS>ATOM
      1 N          76.4730   13.7490   22.3610 N.4       1 ALA         0.2377
      2 CA         76.6060   15.2260   22.5210 C.3       1 ALA         0.0621
      3 C          75.3070   15.9660   22.2010 C.2       1 ALA         0.2265
      4 O          75.1070   16.4310   21.0750 O.2       1 ALA        -0.3907
      5 CB         77.7330   15.7430   21.6250 C.3       1 ALA        -0.0040
      6 N          74.4310   16.0760   23.1960 N.am      1 SER        -0.2589
      7 CA         73.1520   16.7660   23.0400 C.3       1 SER         0.1540
      8 C          72.9830   17.8020   24.1640 C.2       1 SER         0.2062
      9 O          72.5700   17.4420   25.2710 O.2       1 SER        -0.3943
     10 CB         72.0000   15.7440   23.0800 C.3       1 SER         0.0843
     11 OG         71.9720   14.9460   21.9070 O.3       1 SER        -0.3903
     12 N          73.3090   19.0740   23.8930 N.am      1 ARG        -0.2637
     13 CA         73.1690   20.1220   24.9110 C.3       1 ARG         0.1311
     14 C          71.7870   19.9060   25.4970 C.2       1 ARG         0.2039
     15 O          70.8990   19.4450   24.7900 O.2       1 ARG        -0.3944
     16 CB         73.2490   21.5340   24.3010 C.3       1 ARG        -0.0092
     17 CG         74.3220   21.7520   23.2550 C.3       1 ARG        -0.0156
     18 CD         75.7000   21.3220   23.7280 C.3       1 ARG         0.0627
     19 NE         76.6350   21.2230   22.6090 N.pl3     1 ARG        -0.2723
     20 CZ         77.7530   20.5020   22.6240 C.cat     1 ARG         0.2882
     21 NH1        78.0830   19.8120   23.7070 N.pl3     1 ARG        -0.2849
     22 NH2        78.5320   20.4590   21.5490 N.pl3     1 ARG        -0.2849
     23 N          71.5960   20.2400   26.7700 N.am      1 MET        -0.2637
     24 CA         70.3040   20.0360   27.4290 C.3       1 MET         0.1317
     25 C          69.1080   20.6790   26.7160 C.2       1 MET         0.2039
     26 O          69.1400   20.8800   25.5050 O.2       1 MET        -0.3944
     27 CB         70.3970   20.5270   28.8750 C.3       1 MET        -0.0034
     28 CG         71.5290   19.8640   29.6660 C.3       1 MET        -0.0024
     29 SD         71.3520   18.0710   29.7350 S.3       1 MET        -0.1639
     30 CE         71.9080   17.6870   31.3860 C.3       1 MET        -0.0181
     31 N          68.0490   20.9860   27.4570 N.am      1 GLU        -0.2636
     32 CA         66.8740   21.6140   26.8590 C.3       1 GLU         0.1325
     33 C          66.4090   20.9400   25.5620 C.2       1 GLU         0.2040
     34 O          66.1990   21.6040   24.5490 O.2       1 GLU        -0.3944
     35 CB         67.1520   23.1030   26.6110 C.3       1 GLU        -0.0008
     36 CG         67.3870   23.8910   27.8920 C.3       1 GLU         0.0044
     37 CD         66.1180   24.0770   28.7130 C.2       1 GLU         0.0350
     38 OE1        65.2460   24.8600   28.2750 O.co2     1 GLU        -0.5690
     39 OE2        65.9900   23.4420   29.7870 O.co2     1 GLU        -0.5690
     40 N          66.2680   19.6170   25.6170 N.am      1 GLU        -0.2636
     41 CA         65.7950   18.7900   24.5040 C.3       1 GLU         0.1325
     42 C          65.5340   17.3950   25.0780 C.2       1 GLU         0.2040
     43 O          66.4370   16.7510   25.6070 O.2       1 GLU        -0.3944
     44 CB         66.8250   18.7310   23.3660 C.3       1 GLU        -0.0008
     45 CG         68.1770   18.1070   23.7070 C.3       1 GLU         0.0044
     46 CD         69.1380   18.1060   22.5110 C.2       1 GLU         0.0350
     47 OE1        69.3930   19.1930   21.9390 O.co2     1 GLU        -0.5690
     48 OE2        69.6380   17.0200   22.1450 O.co2     1 GLU        -0.5690
     49 N          64.2930   16.9300   24.9820 N.am      1 VAL        -0.2635
     50 CA         63.9370   15.6360   25.5560 C.3       1 VAL         0.1332
     51 C          64.0100   14.4150   24.6490 C.2       1 VAL         0.2037
     52 O          63.8150   14.5120   23.4410 O.2       1 VAL        -0.3944
     53 CB         62.5350   15.6930   26.1810 C.3       1 VAL        -0.0063
     54 CG1        62.5600   16.5840   27.4150 C.3       1 VAL        -0.0584
     55 CG2        61.5340   16.2110   25.1600 C.3       1 VAL        -0.0584
     56 N          64.2660   13.2650   25.2750 N.am      1 ASP        -0.2679
     57 CA         64.4140   11.9680   24.6090 C.3       1 ASP         0.1057
     58 C          63.3420   10.9330   24.9690 C.2       1 ASP         0.0618
     59 O          62.3200   11.3180   25.5660 O.co2     1 ASP        -0.5665
     60 CB         65.7940   11.3940   24.9440 C.3       1 ASP         0.0351
     61 CG         66.3170   11.8850   26.2890 C.2       1 ASP         0.0387
     62 OD1        66.5890   13.0990   26.4110 O.co2     1 ASP        -0.5688
     63 OD2        66.4550   11.0650   27.2230 O.co2     1 ASP        -0.5688
     64 OXT        63.5310    9.7390   24.6470 O.co2     1 ASP        -0.5665
     65 H1         77.3514   13.3067   22.5821 H         1 ALA         0.2015
     66 H2         76.2197   13.5356   21.4090 H         1 ALA         0.2015
     67 H3         75.7582   13.4066   22.9838 H         1 ALA         0.2015
     68 H4         76.8677   15.4339   23.5690 H         1 ALA         0.1095
     69 H5         77.8274   16.8322   21.7462 H         1 ALA         0.0310
     70 H6         77.5030   15.5096   20.5750 H         1 ALA         0.0310
     71 H7         78.6790   15.2591   21.9095 H         1 ALA         0.0310
     72 H8         74.6556   15.6720   24.0828 H         1 SER         0.1885
     73 H9         73.1379   17.2839   22.0697 H         1 SER         0.0823
     74 H10        71.0458   16.2842   23.1677 H         1 SER         0.0606
     75 H11        72.1327   15.0898   23.9543 H         1 SER         0.0606
     76 H12        71.2526   14.3281   21.9628 H         1 SER         0.2097
     77 H13        73.6524   19.3120   22.9845 H         1 ARG         0.1883
     78 H14        73.9448   20.0120   25.6830 H         1 ARG         0.0800
     79 H15        73.4312   22.2439   25.1213 H         1 ARG         0.0313
     80 H16        72.2770   21.7536   23.8351 H         1 ARG         0.0313
     81 H17        74.3550   22.8222   23.0028 H         1 ARG         0.0301
     82 H18        74.0614   21.1716   22.3576 H         1 ARG         0.0301
     83 H19        75.6212   20.3402   24.2178 H         1 ARG         0.0689
     84 H20        76.0793   22.0618   24.4483 H         1 ARG         0.0689
     85 H21        76.4133   21.7471   21.7504 H         1 ARG         0.2642
     86 H22        78.9486   19.2539   23.7182 H         1 ARG         0.2615
     87 H23        77.4737   19.8340   24.5372 H         1 ARG         0.2615
     88 H24        78.2773   20.9943   20.7067 H         1 ARG         0.2615
     89 H25        79.3907   19.8903   21.5577 H         1 ARG         0.2615
     90 H26        72.3516   20.6395   27.2891 H         1 MET         0.1883
     91 H27        70.1179   18.9521   27.4495 H         1 MET         0.0800
     92 H28        69.4441   20.3100   29.3799 H         1 MET         0.0320
     93 H29        70.5675   21.6137   28.8649 H         1 MET         0.0320
     94 H30        71.5235   20.2602   30.6921 H         1 MET         0.0378
     95 H31        72.4875   20.1070   29.1842 H         1 MET         0.0378
     96 H32        71.8454   16.6012   31.5507 H         1 MET         0.0340
     97 H33        71.2711   18.2061   32.1174 H         1 MET         0.0340
     98 H34        72.9503   18.0168   31.5079 H         1 MET         0.0340
     99 H35        68.0565   20.7846   28.4365 H         1 GLU         0.1883
    100 H36        66.0511   21.5345   27.5847 H         1 GLU         0.0801
    101 H37        66.2879   23.5374   26.0870 H         1 GLU         0.0330
    102 H38        68.0470   23.1907   25.9776 H         1 GLU         0.0330
    103 H39        67.7822   24.8827   27.6269 H         1 GLU         0.0433
    104 H40        68.1259   23.3535   28.5045 H         1 GLU         0.0433
    105 H41        66.5002   19.1577   26.4744 H         1 GLU         0.1883
    106 H42        64.8577   19.2082   24.1083 H         1 GLU         0.0801
    107 H43        67.0078   19.7610   23.0260 H         1 GLU         0.0330
    108 H44        66.3840   18.1466   22.5450 H         1 GLU         0.0330
    109 H45        68.0152   17.0684   24.0312 H         1 GLU         0.0433
    110 H46        68.6341   18.6802   24.5271 H         1 GLU         0.0433
    111 H47        63.5962   17.4718   24.5120 H         1 VAL         0.1883
    112 H48        64.6577   15.4593   26.3680 H         1 VAL         0.0802
    113 H49        62.2373   14.6782   26.4835 H         1 VAL         0.0343
    114 H50        61.5547   16.6225   27.8598 H         1 VAL         0.0234
    115 H51        62.8732   17.5987   27.1283 H         1 VAL         0.0234
    116 H52        63.2701   16.1746   28.1486 H         1 VAL         0.0234
    117 H53        61.5342   15.5519   24.2793 H         1 VAL         0.0234
    118 H54        61.8148   17.2300   24.8554 H         1 VAL         0.0234
    119 H55        60.5289   16.2257   25.6067 H         1 VAL         0.0234
    120 H56        64.3639   13.2898   26.2699 H         1 ASP         0.1876
    121 H57        64.3567   12.1423   23.5244 H         1 ASP         0.0745
    122 H58        66.5022   11.6956   24.1583 H         1 ASP         0.0471
    123 H59        65.7228   10.2967   24.9720 H         1 ASP         0.0471
@<TRIPOS>BOND
     1    1    2 1  
     2    2    3 1  
     3    2    5 1  
     4    3    4 2  
     5    3    6 am 
     6    6    7 1  
     7    7    8 1  
     8    7   10 1  
     9    8    9 2  
    10    8   12 am 
    11   10   11 1  
    12   12   13 1  
    13   13   14 1  
    14   13   16 1  
    15   14   15 2  
    16   14   23 am 
    17   16   17 1  
    18   17   18 1  
    19   18   19 1  
    20   19   20 ar 
    21   20   21 ar 
    22   20   22 ar 
    23   23   24 1  
    24   24   25 1  
    25   24   27 1  
    26   25   26 2  
    27   25   31 am 
    28   27   28 1  
    29   28   29 1  
    30   29   30 1  
    31   31   32 1  
    32   32   33 1  
    33   32   35 1  
    34   33   34 2  
    35   33   40 am 
    36   35   36 1  
    37   36   37 1  
    38   37   38 ar 
    39   37   39 ar 
    40   40   41 1  
    41   41   42 1  
    42   41   44 1  
    43   42   43 2  
    44   42   49 am 
    45   44   45 1  
    46   45   46 1  
    47   46   47 ar 
    48   46   48 ar 
    49   49   50 1  
    50   50   51 1  
    51   50   53 1  
    52   51   52 2  
    53   51   56 am 
    54   53   54 1  
    55   53   55 1  
    56   56   57 1  
    57   57   58 1  
    58   57   60 1  
    59   58   59 ar 
    60   58   64 ar 
    61   60   61 1  
    62   61   62 ar 
    63   61   63 ar 
    64    1   65 1  
    65    1   66 1  
    66    1   67 1  
    67    2   68 1  
    68    5   69 1  
    69    5   70 1  
    70    5   71 1  
    71    6   72 1  
    72    7   73 1  
    73   10   74 1  
    74   10   75 1  
    75   11   76 1  
    76   12   77 1  
    77   13   78 1  
    78   16   79 1  
    79   16   80 1  
    80   17   81 1  
    81   17   82 1  
    82   18   83 1  
    83   18   84 1  
    84   19   85 1  
    85   21   86 1  
    86   21   87 1  
    87   22   88 1  
    88   22   89 1  
    89   23   90 1  
    90   24   91 1  
    91   27   92 1  
    92   27   93 1  
    93   28   94 1  
    94   28   95 1  
    95   30   96 1  
    96   30   97 1  
    97   30   98 1  
    98   31   99 1  
    99   32  100 1  
   100   35  101 1  
   101   35  102 1  
   102   36  103 1  
   103   36  104 1  
   104   40  105 1  
   105   41  106 1  
   106   44  107 1  
   107   44  108 1  
   108   45  109 1  
   109   45  110 1  
   110   49  111 1  
   111   50  112 1  
   112   53  113 1  
   113   54  114 1  
   114   54  115 1  
   115   54  116 1  
   116   55  117 1  
   117   55  118 1  
   118   55  119 1  
   119   56  120 1  
   120   57  121 1  
   121   60  122 1  
   122   60  123 1  
@<TRIPOS>SUBSTRUCTURE
     1 ALA         1

