4i2z_ligand
  -I-interpret- 

126125  0  0  0  0  0  0  0  0999 V2000
   76.4730   13.7490   22.3610 N   0  3  0  0  0
   76.6060   15.2260   22.5210 C   0  0  0  0  0
   75.3070   15.9660   22.2010 C   0  0  0  0  0
   75.1070   16.4310   21.0750 O   0  0  0  0  0
   77.7330   15.7430   21.6250 C   0  0  0  0  0
   74.4310   16.0760   23.1960 N   0  0  0  0  0
   73.1520   16.7660   23.0400 C   0  0  0  0  0
   72.9830   17.8020   24.1640 C   0  0  0  0  0
   72.5700   17.4420   25.2710 O   0  0  0  0  0
   72.0000   15.7440   23.0800 C   0  0  0  0  0
   71.9720   14.9460   21.9070 O   0  0  0  0  0
   73.3090   19.0740   23.8930 N   0  0  0  0  0
   73.1690   20.1220   24.9110 C   0  0  0  0  0
   71.7870   19.9060   25.4970 C   0  0  0  0  0
   70.8990   19.4450   24.7900 O   0  0  0  0  0
   73.2490   21.5340   24.3010 C   0  0  0  0  0
   74.3220   21.7520   23.2550 C   0  0  0  0  0
   75.7000   21.3220   23.7280 C   0  0  0  0  0
   76.6350   21.2230   22.6090 N   0  0  0  0  0
   77.7530   20.5020   22.6240 C   0  0  0  0  0
   78.0830   19.8120   23.7070 N   0  0  0  0  0
   78.5320   20.4590   21.5490 N   0  0  0  0  0
   71.5960   20.2400   26.7700 N   0  0  0  0  0
   70.3040   20.0360   27.4290 C   0  0  0  0  0
   69.1080   20.6790   26.7160 C   0  0  0  0  0
   69.1400   20.8800   25.5050 O   0  0  0  0  0
   70.3970   20.5270   28.8750 C   0  0  0  0  0
   71.5290   19.8640   29.6660 C   0  0  0  0  0
   71.3520   18.0710   29.7350 S   0  0  0  0  0
   71.9080   17.6870   31.3860 C   0  0  0  0  0
   68.0490   20.9860   27.4570 N   0  0  0  0  0
   66.8740   21.6140   26.8590 C   0  0  0  0  0
   66.4090   20.9400   25.5620 C   0  0  0  0  0
   66.1990   21.6040   24.5490 O   0  0  0  0  0
   67.1520   23.1030   26.6110 C   0  0  0  0  0
   67.3870   23.8910   27.8920 C   0  0  0  0  0
   66.1180   24.0770   28.7130 C   0  0  0  0  0
   65.2460   24.8600   28.2750 O   0  0  0  0  0
   65.9900   23.4420   29.7870 O   0  0  0  0  0
   66.2680   19.6170   25.6170 N   0  0  0  0  0
   65.7950   18.7900   24.5040 C   0  0  0  0  0
   65.5340   17.3950   25.0780 C   0  0  0  0  0
   66.4370   16.7510   25.6070 O   0  0  0  0  0
   66.8250   18.7310   23.3660 C   0  0  0  0  0
   68.1770   18.1070   23.7070 C   0  0  0  0  0
   69.1380   18.1060   22.5110 C   0  0  0  0  0
   69.3930   19.1930   21.9390 O   0  0  0  0  0
   69.6380   17.0200   22.1450 O   0  0  0  0  0
   64.2930   16.9300   24.9820 N   0  0  0  0  0
   63.9370   15.6360   25.5560 C   0  0  0  0  0
   64.0100   14.4150   24.6490 C   0  0  0  0  0
   63.8150   14.5120   23.4410 O   0  0  0  0  0
   62.5350   15.6930   26.1810 C   0  0  0  0  0
   62.5600   16.5840   27.4150 C   0  0  0  0  0
   61.5340   16.2110   25.1600 C   0  0  0  0  0
   64.2660   13.2650   25.2750 N   0  0  0  0  0
   64.4140   11.9680   24.6090 C   0  0  0  0  0
   63.3420   10.9330   24.9690 C   0  0  0  0  0
   62.3200   11.3180   25.5660 O   0  0  0  0  0
   65.7940   11.3940   24.9440 C   0  0  0  0  0
   66.3170   11.8850   26.2890 C   0  0  0  0  0
   66.5890   13.0990   26.4110 O   0  0  0  0  0
   66.4550   11.0650   27.2230 O   0  0  0  0  0
   63.5310    9.7390   24.6470 O   0  0  0  0  0
   75.7206   13.4097   22.9603 H   0  0  0  0  0
   76.2584   13.5316   21.3878 H   0  0  0  0  0
   77.3493   13.2992   22.6259 H   0  0  0  0  0
   76.8404   15.4211   23.5675 H   0  0  0  0  0
   77.4707   15.5756   20.5804 H   0  0  0  0  0
   77.8736   16.8098   21.7992 H   0  0  0  0  0
   78.6549   15.2107   21.8593 H   0  0  0  0  0
   74.6601   15.6639   24.1005 H   0  0  0  0  0
   73.1327   17.2800   22.0790 H   0  0  0  0  0
   71.0581   16.2880   23.1501 H   0  0  0  0  0
   72.1484   15.0899   23.9392 H   0  0  0  0  0
   71.2450   14.3216   21.9634 H   0  0  0  0  0
   73.6592   19.3168   22.9663 H   0  0  0  0  0
   73.9696   20.0588   25.6480 H   0  0  0  0  0
   73.4859   22.2078   25.1244 H   0  0  0  0  0
   72.2964   21.7025   23.7988 H   0  0  0  0  0
   74.3621   22.8188   23.0348 H   0  0  0  0  0
   74.0654   21.1507   22.3828 H   0  0  0  0  0
   75.6164   20.3429   24.1996 H   0  0  0  0  0
   76.0751   22.0664   24.4303 H   0  0  0  0  0
   76.4154   21.7420   21.7588 H   0  0  0  0  0
   77.4796   19.8338   24.5291 H   0  0  0  0  0
   79.3824   19.8958   21.5576 H   0  0  0  0  0
   78.2798   20.9891   20.7149 H   0  0  0  0  0
   72.3667   20.6475   27.2994 H   0  0  0  0  0
   70.1054   18.9649   27.3921 H   0  0  0  0  0
   69.4583   20.2773   29.3696 H   0  0  0  0  0
   70.5965   21.5982   28.8478 H   0  0  0  0  0
   71.4998   20.2472   30.6860 H   0  0  0  0  0
   72.4707   20.0929   29.1671 H   0  0  0  0  0
   72.9408   18.0144   31.5055 H   0  0  0  0  0
   71.2762   18.2019   32.1097 H   0  0  0  0  0
   71.8455   16.6109   31.5480 H   0  0  0  0  0
   68.0567   20.7805   28.4561 H   0  0  0  0  0
   66.0589   21.4938   27.5727 H   0  0  0  0  0
   66.2753   23.5252   26.1198 H   0  0  0  0  0
   68.0578   23.1739   26.0088 H   0  0  0  0  0
   67.7516   24.8796   27.6131 H   0  0  0  0  0
   68.0990   23.3335   28.5005 H   0  0  0  0  0
   66.7706   22.9028   29.9336 H   0  0  0  0  0
   66.5049   19.1486   26.4916 H   0  0  0  0  0
   64.8892   19.2140   24.0706 H   0  0  0  0  0
   67.0297   19.7650   23.0885 H   0  0  0  0  0
   66.3865   18.1004   22.5926 H   0  0  0  0  0
   68.0060   17.0721   24.0035 H   0  0  0  0  0
   68.6300   18.6973   24.5035 H   0  0  0  0  0
   68.9109   19.9017   22.3714 H   0  0  0  0  0
   63.5822   17.4826   24.5026 H   0  0  0  0  0
   64.7242   15.4816   26.2939 H   0  0  0  0  0
   62.2296   14.6911   26.4827 H   0  0  0  0  0
   63.2640   16.1773   28.1410 H   0  0  0  0  0
   62.8705   17.5891   27.1296 H   0  0  0  0  0
   61.5634   16.6213   27.8549 H   0  0  0  0  0
   61.8270   17.2112   24.8409 H   0  0  0  0  0
   61.5174   15.5436   24.2984 H   0  0  0  0  0
   60.5426   16.2482   25.6115 H   0  0  0  0  0
   64.3659   13.2903   26.2898 H   0  0  0  0  0
   64.2958   12.1616   23.5429 H   0  0  0  0  0
   66.4911   11.7197   24.1719 H   0  0  0  0  0
   65.7050   10.3087   24.9927 H   0  0  0  0  0
   66.1920   10.1920   26.9224 H   0  0  0  0  0
   64.3760    9.6596   24.1984 H   0  0  0  0  0
  1  2  1  0  0  0
  2  3  1  0  0  0
  2  5  1  0  0  0
  3  4  2  0  0  0
  3  6  1  0  0  0
  6  7  1  0  0  0
  7  8  1  0  0  0
  7 10  1  0  0  0
  8  9  2  0  0  0
  8 12  1  0  0  0
 10 11  1  0  0  0
 12 13  1  0  0  0
 13 14  1  0  0  0
 13 16  1  0  0  0
 14 15  2  0  0  0
 14 23  1  0  0  0
 16 17  1  0  0  0
 17 18  1  0  0  0
 18 19  1  0  0  0
 19 20  1  0  0  0
 20 21  2  0  0  0
 20 22  1  0  0  0
 23 24  1  0  0  0
 24 25  1  0  0  0
 24 27  1  0  0  0
 25 26  2  0  0  0
 25 31  1  0  0  0
 27 28  1  0  0  0
 28 29  1  0  0  0
 29 30  1  0  0  0
 31 32  1  0  0  0
 32 33  1  0  0  0
 32 35  1  0  0  0
 33 34  2  0  0  0
 33 40  1  0  0  0
 35 36  1  0  0  0
 36 37  1  0  0  0
 37 38  2  0  0  0
 37 39  1  0  0  0
 40 41  1  0  0  0
 41 42  1  0  0  0
 41 44  1  0  0  0
 42 43  2  0  0  0
 42 49  1  0  0  0
 44 45  1  0  0  0
 45 46  1  0  0  0
 46 47  1  0  0  0
 46 48  2  0  0  0
 49 50  1  0  0  0
 50 51  1  0  0  0
 50 53  1  0  0  0
 51 52  2  0  0  0
 51 56  1  0  0  0
 53 54  1  0  0  0
 53 55  1  0  0  0
 56 57  1  0  0  0
 57 58  1  0  0  0
 57 60  1  0  0  0
 58 59  2  0  0  0
 58 64  1  0  0  0
 60 61  1  0  0  0
 61 62  2  0  0  0
 61 63  1  0  0  0
  1 65  1  0  0  0
  1 66  1  0  0  0
  1 67  1  0  0  0
  2 68  1  0  0  0
  5 69  1  0  0  0
  5 70  1  0  0  0
  5 71  1  0  0  0
  6 72  1  0  0  0
  7 73  1  0  0  0
 10 74  1  0  0  0
 10 75  1  0  0  0
 11 76  1  0  0  0
 12 77  1  0  0  0
 13 78  1  0  0  0
 16 79  1  0  0  0
 16 80  1  0  0  0
 17 81  1  0  0  0
 17 82  1  0  0  0
 18 83  1  0  0  0
 18 84  1  0  0  0
 19 85  1  0  0  0
 21 86  1  0  0  0
 22 87  1  0  0  0
 22 88  1  0  0  0
 23 89  1  0  0  0
 24 90  1  0  0  0
 27 91  1  0  0  0
 27 92  1  0  0  0
 28 93  1  0  0  0
 28 94  1  0  0  0
 30 95  1  0  0  0
 30 96  1  0  0  0
 30 97  1  0  0  0
 31 98  1  0  0  0
 32 99  1  0  0  0
 35100  1  0  0  0
 35101  1  0  0  0
 36102  1  0  0  0
 36103  1  0  0  0
 39104  1  0  0  0
 40105  1  0  0  0
 41106  1  0  0  0
 44107  1  0  0  0
 44108  1  0  0  0
 45109  1  0  0  0
 45110  1  0  0  0
 47111  1  0  0  0
 49112  1  0  0  0
 50113  1  0  0  0
 53114  1  0  0  0
 54115  1  0  0  0
 54116  1  0  0  0
 54117  1  0  0  0
 55118  1  0  0  0
 55119  1  0  0  0
 55120  1  0  0  0
 56121  1  0  0  0
 57122  1  0  0  0
 60123  1  0  0  0
 60124  1  0  0  0
 63125  1  0  0  0
 64126  1  0  0  0
M  END
$$$$
