6gy0_ligand
  -I-interpret- 

 38 40  0  0  0  0  0  0  0  0999 V2000
    9.7320  -45.6830  -25.1180 C   0  0  0  0  0
    8.8210  -46.9300  -23.2960 C   0  0  0  0  0
    8.6480  -46.3030  -24.5180 C   0  0  0  0  0
    7.3550  -46.3030  -25.1810 C   0  0  0  0  0
    6.8360  -45.4740  -26.1570 C   0  0  0  0  0
    5.0950  -46.8140  -25.9800 C   0  0  0  0  0
   12.5170  -46.1700  -22.8970 C   0  0  0  0  0
    3.1480  -48.2530  -25.5200 C   0  0  0  0  0
   12.2270  -45.0940  -24.9810 C   0  0  0  0  0
    7.4690  -44.3190  -26.7940 C   0  0  0  0  0
    1.7740  -48.4770  -26.0600 C   0  0  0  0  0
    3.8280  -47.3140  -26.2580 N   0  0  0  0  0
   11.1220  -46.3180  -23.3010 C   0  0  0  0  0
   10.9630  -45.6960  -24.5040 C   0  0  0  0  0
   10.0590  -46.9380  -22.6810 C   0  0  0  0  0
    5.5740  -45.7640  -26.5980 N   0  0  0  0  0
   13.1250  -45.4820  -23.9220 N   0  0  0  0  0
    8.6140  -48.2380  -20.8800 N   0  0  0  0  0
   13.0060  -46.5690  -21.8510 O   0  0  0  0  0
    3.5450  -48.8580  -24.5380 O   0  0  0  0  0
   11.0730  -48.9090  -21.3490 O   0  0  0  0  0
   10.5820  -46.7250  -20.1590 O   0  0  0  0  0
    6.1720  -47.4990  -24.8210 S   0  0  0  0  0
   10.2310  -47.7520  -21.1200 S   0  0  0  0  0
    9.6092  -45.1836  -26.0791 H   0  0  0  0  0
    7.9749  -47.4210  -22.8152 H   0  0  0  0  0
   12.1720  -44.0177  -25.1441 H   0  0  0  0  0
   12.5345  -45.4333  -25.9701 H   0  0  0  0  0
    7.7106  -43.5745  -26.0355 H   0  0  0  0  0
    8.3825  -44.6379  -27.2960 H   0  0  0  0  0
    6.7838  -43.8872  -27.5235 H   0  0  0  0  0
    1.6631  -49.5232  -26.3450 H   0  0  0  0  0
    1.0391  -48.2277  -25.2946 H   0  0  0  0  0
    1.6204  -47.8430  -26.9332 H   0  0  0  0  0
    3.3591  -46.9498  -27.0874 H   0  0  0  0  0
   14.1218  -45.2659  -23.9316 H   0  0  0  0  0
    8.3689  -49.2276  -20.9112 H   0  0  0  0  0
    7.8920  -47.5390  -20.7053 H   0  0  0  0  0
  1  3  4  0  0  0
 14  1  4  0  0  0
  3  2  4  0  0  0
  2 15  4  0  0  0
  3  4  1  0  0  0
  4  5  4  0  0  0
  4 23  4  0  0  0
  5 10  1  0  0  0
  5 16  4  0  0  0
  6 12  1  0  0  0
  6 16  4  0  0  0
 23  6  4  0  0  0
  7 13  1  0  0  0
 17  7  1  0  0  0
  7 19  2  0  0  0
  8 11  1  0  0  0
 12  8  1  0  0  0
  8 20  2  0  0  0
  9 14  1  0  0  0
  9 17  1  0  0  0
 13 14  4  0  0  0
 13 15  4  0  0  0
 15 24  1  0  0  0
 24 18  1  0  0  0
 24 21  2  0  0  0
 24 22  2  0  0  0
  1 25  1  0  0  0
  2 26  1  0  0  0
  9 27  1  0  0  0
  9 28  1  0  0  0
 10 29  1  0  0  0
 10 30  1  0  0  0
 10 31  1  0  0  0
 11 32  1  0  0  0
 11 33  1  0  0  0
 11 34  1  0  0  0
 12 35  1  0  0  0
 17 36  1  0  0  0
 18 37  1  0  0  0
 18 38  1  0  0  0
M  END
$$$$
