2ai8_ligand
  -I-interpret- 

 29 29  0  0  0  0  0  0  0  0999 V2000
   46.6420    8.8100   14.2560 C   0  0  0  0  0
   45.6640    7.7800   14.2430 C   0  0  0  0  0
   45.8730    6.5200   14.9440 C   0  0  0  0  0
   47.0760    6.3050   15.6550 C   0  0  0  0  0
   48.0780    7.2760   15.7010 C   0  0  0  0  0
   47.8470    8.6200   14.9490 C   0  0  0  0  0
   44.8440    5.3920   14.9220 C   0  0  0  0  0
   43.5210    5.7570   14.2220 C   0  0  0  0  0
   42.4210    4.6310   14.1450 C   0  0  0  0  0
   42.0370    3.8590   15.4280 N   0  3  0  0  0
   40.6910    3.7380   15.7990 O   0  0  0  0  0
   42.9970    3.2550   16.1960 C   0  0  0  0  0
   42.7530    2.5040   17.3910 O   0  0  0  0  0
   46.4568    9.7459   13.7288 H   0  0  0  0  0
   44.7346    7.9360   13.6953 H   0  0  0  0  0
   47.2243    5.3606   16.1786 H   0  0  0  0  0
   49.0018    7.0973   16.2512 H   0  0  0  0  0
   48.6085    9.3998   14.9609 H   0  0  0  0  0
   44.6045    5.1552   15.9586 H   0  0  0  0  0
   45.2850    4.5654   14.3649 H   0  0  0  0  0
   43.7835    5.9889   13.1898 H   0  0  0  0  0
   43.0832    6.5621   14.8122 H   0  0  0  0  0
   42.8421    3.8757   13.4814 H   0  0  0  0  0
   41.5099    5.1519   13.8506 H   0  0  0  0  0
   42.4124    4.7949   15.5815 H   0  0  0  0  0
   40.6288    3.2331   16.6131 H   0  0  0  0  0
   43.5597    4.1090   16.5730 H   0  0  0  0  0
   43.3839    2.4918   15.5208 H   0  0  0  0  0
   43.5871    2.1845   17.7427 H   0  0  0  0  0
  1  2  4  0  0  0
  1  6  4  0  0  0
  2  3  4  0  0  0
  3  4  4  0  0  0
  3  7  1  0  0  0
  4  5  4  0  0  0
  5  6  4  0  0  0
  7  8  1  0  0  0
  8  9  1  0  0  0
  9 10  1  0  0  0
 10 11  1  0  0  0
 10 12  1  0  0  0
 12 13  1  0  0  0
  1 14  1  0  0  0
  2 15  1  0  0  0
  4 16  1  0  0  0
  5 17  1  0  0  0
  6 18  1  0  0  0
  7 19  1  0  0  0
  7 20  1  0  0  0
  8 21  1  0  0  0
  8 22  1  0  0  0
  9 23  1  0  0  0
  9 24  1  0  0  0
 10 25  1  0  0  0
 11 26  1  0  0  0
 12 27  1  0  0  0
 12 28  1  0  0  0
 13 29  1  0  0  0
M  END
$$$$
