2brn_ligand
  -I-interpret- 

 45 48  0  0  0  0  0  0  0  0999 V2000
    3.8910   -6.9350   18.9340 C   0  0  0  0  0
    3.6840   -8.1800   18.3240 C   0  0  0  0  0
    2.7030   -8.3230   17.3390 C   0  0  0  0  0
    1.9290   -7.2240   16.9650 C   0  0  0  0  0
    2.1430   -5.9780   17.5700 C   0  0  0  0  0
    3.1260   -5.8340   18.5540 C   0  0  0  0  0
    3.3290   -4.5810   19.1610 C   0  0  0  0  0
    4.5210   -3.8420   19.1320 C   0  0  0  0  0
    5.8260   -4.1040   18.7420 C   0  0  0  0  0
    6.1610   -5.3000   18.1630 N   0  0  0  0  0
    6.6830   -5.3550   16.7670 C   0  0  0  0  0
    8.1110   -4.7500   16.8160 C   0  0  0  0  0
    9.0490   -5.4490   15.8290 C   0  0  0  0  0
    8.0840   -3.3060   16.6280 O   0  0  0  0  0
    6.7710   -3.1620   18.9380 N   0  0  0  0  0
    6.4590   -1.9940   19.5310 C   0  0  0  0  0
    5.2080   -1.7340   19.9080 N   0  0  0  0  0
    4.2360   -2.6300   19.7290 C   0  0  0  0  0
    2.9070   -2.6020   20.0530 N   0  0  0  0  0
    2.3100   -3.7530   19.6430 C   0  0  0  0  0
    0.9660   -4.0820   19.8800 C   0  0  0  0  0
    0.4520   -5.3440   19.5320 C   0  0  0  0  0
   -0.8860   -5.6480   19.8170 C   0  0  0  0  0
   -1.6660   -4.7510   20.5540 C   0  0  0  0  0
   -1.1180   -3.5360   20.9730 C   0  0  0  0  0
    0.1980   -3.2180   20.6430 C   0  0  0  0  0
    4.6519   -6.8279   19.7071 H   0  0  0  0  0
    4.2889   -9.0376   18.6183 H   0  0  0  0  0
    2.5429   -9.2909   16.8640 H   0  0  0  0  0
    1.1580   -7.3345   16.2024 H   0  0  0  0  0
    1.5416   -5.1189   17.2727 H   0  0  0  0  0
    6.0519   -6.1641   18.6938 H   0  0  0  0  0
    6.0421   -4.7961   16.0851 H   0  0  0  0  0
    6.7022   -6.3791   16.3942 H   0  0  0  0  0
    8.5143   -4.9292   17.8126 H   0  0  0  0  0
    9.1131   -6.5081   16.0785 H   0  0  0  0  0
    8.6596   -5.3357   14.8172 H   0  0  0  0  0
   10.0400   -4.9993   15.8908 H   0  0  0  0  0
    8.9799   -2.9630   16.6634 H   0  0  0  0  0
    7.2390   -1.2527   19.7046 H   0  0  0  0  0
    1.0901   -6.0807   19.0439 H   0  0  0  0  0
   -1.3190   -6.5840   19.4641 H   0  0  0  0  0
   -2.6983   -4.9991   20.8007 H   0  0  0  0  0
   -1.7185   -2.8384   21.5567 H   0  0  0  0  0
    0.6281   -2.2782   20.9894 H   0  0  0  0  0
  1  2  4  0  0  0
  1  6  4  0  0  0
  2  3  4  0  0  0
  3  4  4  0  0  0
  4  5  4  0  0  0
  5  6  4  0  0  0
  6  7  1  0  0  0
  7  8  4  0  0  0
  7 20  4  0  0  0
  8  9  4  0  0  0
  8 18  4  0  0  0
  9 10  1  0  0  0
  9 15  4  0  0  0
 10 11  1  0  0  0
 11 12  1  0  0  0
 12 13  1  0  0  0
 12 14  1  0  0  0
 15 16  4  0  0  0
 16 17  4  0  0  0
 17 18  4  0  0  0
 18 19  4  0  0  0
 19 20  4  0  0  0
 20 21  1  0  0  0
 21 22  4  0  0  0
 21 26  4  0  0  0
 22 23  4  0  0  0
 23 24  4  0  0  0
 24 25  4  0  0  0
 25 26  4  0  0  0
  1 27  1  0  0  0
  2 28  1  0  0  0
  3 29  1  0  0  0
  4 30  1  0  0  0
  5 31  1  0  0  0
 10 32  1  0  0  0
 11 33  1  0  0  0
 11 34  1  0  0  0
 12 35  1  0  0  0
 13 36  1  0  0  0
 13 37  1  0  0  0
 13 38  1  0  0  0
 14 39  1  0  0  0
 16 40  1  0  0  0
 22 41  1  0  0  0
 23 42  1  0  0  0
 24 43  1  0  0  0
 25 44  1  0  0  0
 26 45  1  0  0  0
M  END
$$$$
