4j8m_ligand
  -I-interpret- 

 62 66  0  0  0  0  0  0  0  0999 V2000
  117.9870  104.8070  154.4950 O   0  0  0  0  0
  116.9160  105.2220  154.9300 C   0  0  0  0  0
  115.9470  105.9430  154.1460 N   0  0  0  0  0
  116.0190  106.2680  152.7350 C   0  0  0  0  0
  114.8500  106.6220  152.0720 C   0  0  0  0  0
  114.8860  106.9180  150.7000 C   0  0  0  0  0
  116.1060  106.8650  150.0030 C   0  0  0  0  0
  117.2810  106.5010  150.6700 C   0  0  0  0  0
  118.5980  106.4490  149.9260 C   0  0  0  0  0
  119.2080  105.2880  150.1520 F   0  0  0  0  0
  119.3650  107.4290  150.4000 F   0  0  0  0  0
  118.3990  106.6210  148.6140 F   0  0  0  0  0
  117.2420  106.2000  152.0300 C   0  0  0  0  0
  116.5110  105.0560  156.3210 N   0  0  0  0  0
  117.2870  104.4120  157.3230 C   0  0  0  0  0
  118.6530  104.2010  157.1850 C   0  0  0  0  0
  119.3530  103.5820  158.1920 C   0  0  0  0  0
  116.6270  104.0040  158.4720 C   0  0  0  0  0
  117.3340  103.3840  159.4830 C   0  0  0  0  0
  118.6960  103.1790  159.3370 C   0  0  0  0  0
  119.4230  102.5200  160.3630 N   0  0  0  0  0
  119.9310  103.2290  161.4950 C   0  0  0  0  0
  120.6800  102.5550  162.3950 N   0  0  0  0  0
  121.1720  103.1790  163.4630 C   0  0  0  0  0
  120.9150  104.5270  163.6710 C   0  0  0  0  0
  120.1300  105.1710  162.7000 C   0  0  0  0  0
  119.8490  106.5560  162.9290 N   0  0  0  0  0
  119.1900  107.4200  161.9780 C   0  0  0  0  0
  118.9210  108.6760  162.3520 N   0  0  0  0  0
  118.3200  109.3060  161.3020 N   0  0  0  0  0
  118.1650  108.4430  160.2980 C   0  0  0  0  0
  117.5120  108.8870  158.9870 C   0  0  0  0  0
  118.3130  108.7790  157.7550 C   0  0  0  0  0
  117.3150  108.5840  156.6390 C   0  0  0  0  0
  115.9970  108.2380  157.2940 C   0  0  0  0  0
  116.1780  108.3050  158.7620 C   0  0  0  0  0
  118.7130  107.2190  160.6520 C   0  0  0  0  0
  119.6410  104.5270  161.6320 N   0  0  0  0  0
  115.1138  106.2619  154.6405 H   0  0  0  0  0
  113.9068  106.6698  152.6162 H   0  0  0  0  0
  113.9694  107.1885  150.1759 H   0  0  0  0  0
  116.1365  107.1080  148.9409 H   0  0  0  0  0
  118.1554  105.9119  152.5505 H   0  0  0  0  0
  115.6027  105.4301  156.5957 H   0  0  0  0  0
  119.1678  104.5255  156.2807 H   0  0  0  0  0
  120.4242  103.4096  158.0871 H   0  0  0  0  0
  115.5551  104.1719  158.5767 H   0  0  0  0  0
  116.8239  103.0582  160.3895 H   0  0  0  0  0
  119.5868  101.5159  160.2904 H   0  0  0  0  0
  121.7810  102.6274  164.1792 H   0  0  0  0  0
  121.3015  105.0576  164.5411 H   0  0  0  0  0
  120.1328  106.9587  163.8221 H   0  0  0  0  0
  117.4210  109.9570  159.1736 H   0  0  0  0  0
  119.0180  107.9495  157.8091 H   0  0  0  0  0
  118.9210  109.6694  157.5953 H   0  0  0  0  0
  117.6351  107.7896  155.9648 H   0  0  0  0  0
  117.2246  109.4870  156.0353 H   0  0  0  0  0
  115.6844  107.2359  157.0004 H   0  0  0  0  0
  115.2261  108.9413  156.9791 H   0  0  0  0  0
  115.4013  108.9131  159.2257 H   0  0  0  0  0
  116.1006  107.3154  159.2124 H   0  0  0  0  0
  118.7662  106.3106  160.0519 H   0  0  0  0  0
  1  2  2  0  0  0
  2  3  1  0  0  0
  2 14  1  0  0  0
  3  4  1  0  0  0
  4  5  4  0  0  0
  4 13  4  0  0  0
  5  6  4  0  0  0
  6  7  4  0  0  0
  7  8  4  0  0  0
  8  9  1  0  0  0
  8 13  4  0  0  0
  9 10  1  0  0  0
  9 11  1  0  0  0
  9 12  1  0  0  0
 14 15  1  0  0  0
 15 16  4  0  0  0
 15 18  4  0  0  0
 16 17  4  0  0  0
 17 20  4  0  0  0
 18 19  4  0  0  0
 19 20  4  0  0  0
 20 21  1  0  0  0
 21 22  1  0  0  0
 22 23  4  0  0  0
 22 38  4  0  0  0
 23 24  4  0  0  0
 24 25  4  0  0  0
 25 26  4  0  0  0
 26 27  1  0  0  0
 26 38  4  0  0  0
 27 28  1  0  0  0
 28 29  4  0  0  0
 28 37  4  0  0  0
 29 30  4  0  0  0
 30 31  4  0  0  0
 31 32  1  0  0  0
 31 37  4  0  0  0
 32 33  1  0  0  0
 32 36  1  0  0  0
 33 34  1  0  0  0
 34 35  1  0  0  0
 35 36  1  0  0  0
  3 39  1  0  0  0
  5 40  1  0  0  0
  6 41  1  0  0  0
  7 42  1  0  0  0
 13 43  1  0  0  0
 14 44  1  0  0  0
 16 45  1  0  0  0
 17 46  1  0  0  0
 18 47  1  0  0  0
 19 48  1  0  0  0
 21 49  1  0  0  0
 24 50  1  0  0  0
 25 51  1  0  0  0
 27 52  1  0  0  0
 32 53  1  0  0  0
 33 54  1  0  0  0
 33 55  1  0  0  0
 34 56  1  0  0  0
 34 57  1  0  0  0
 35 58  1  0  0  0
 35 59  1  0  0  0
 36 60  1  0  0  0
 36 61  1  0  0  0
 37 62  1  0  0  0
M  END
$$$$
