3e1r_ligand
  -I-interpret- 

195201  0  0  0  0  0  0  0  0999 V2000
   38.2300   28.0490   13.8260 N   0  3  0  0  0
   38.1270   27.5910   12.4100 C   0  0  0  0  0
   36.8620   26.7510   12.2100 C   0  0  0  0  0
   36.1390   26.9430   11.2340 O   0  0  0  0  0
   39.3720   26.7810   12.0300 C   0  0  0  0  0
   39.4000   26.2540   10.5940 C   0  0  0  0  0
   39.6550   27.3320    9.5490 C   0  0  0  0  0
   39.9320   28.4870    9.8780 O   0  0  0  0  0
   39.5720   26.9510    8.2780 N   0  0  0  0  0
   36.5930   25.8220   13.1220 N   0  0  0  0  0
   35.3900   25.0030   13.0030 C   0  0  0  0  0
   34.1780   25.9050   13.2310 C   0  0  0  0  0
   34.2090   26.7870   14.0890 O   0  0  0  0  0
   35.4060   23.8680   14.0300 C   0  0  0  0  0
   33.1160   25.6870   12.4580 N   0  0  0  0  0
   31.9010   26.4910   12.5850 C   0  0  0  0  0
   30.6700   25.6330   12.7890 C   0  0  0  0  0
   30.5580   24.5530   12.2200 O   0  0  0  0  0
   31.6430   27.3180   11.3290 C   0  0  0  0  0
   32.6670   28.3580   10.9610 C   0  0  0  0  0
   32.1890   29.1900    9.7850 C   0  0  0  0  0
   32.9870   29.7500    9.0380 O   0  0  0  0  0
   30.8700   29.2750    9.6210 N   0  0  0  0  0
   29.7330   26.1330   13.5840 N   0  0  0  0  0
   28.4940   25.4120   13.8030 C   0  0  0  0  0
   27.4580   26.0460   12.8960 C   0  0  0  0  0
   27.7900   26.9630   12.1530 O   0  0  0  0  0
   26.2010   25.5750   12.9180 N   0  0  0  0  0
   25.1000   26.0970   12.0920 C   0  0  0  0  0
   24.7180   27.5420   12.4510 C   0  0  0  0  0
   25.0200   28.0100   13.5470 O   0  0  0  0  0
   23.9650   25.1090   12.3670 C   0  0  0  0  0
   24.2650   24.6200   13.7550 C   0  0  0  0  0
   25.7560   24.4200   13.7140 C   0  0  0  0  0
   24.0560   28.2670   11.5240 N   0  0  0  0  0
   23.6270   29.6590   11.7290 C   0  0  0  0  0
   22.7590   29.8440   12.9740 C   0  0  0  0  0
   22.8420   30.8670   13.6570 O   0  0  0  0  0
   22.8470   29.9720   10.4530 C   0  0  0  0  0
   23.5290   29.1430    9.4300 C   0  0  0  0  0
   23.7430   27.8280   10.1500 C   0  0  0  0  0
   21.9130   28.8560   13.2420 N   0  0  0  0  0
   21.0080   28.8770   14.3880 C   0  0  0  0  0
   21.0170   27.4780   14.9930 C   0  0  0  0  0
   21.3840   26.5110   14.3240 O   0  0  0  0  0
   19.5800   29.2170   13.9340 C   0  0  0  0  0
   19.4370   30.5140   13.1590 C   0  0  0  0  0
   19.3170   31.7370   13.8170 C   0  0  0  0  0
   19.4190   30.5150   11.7610 C   0  0  0  0  0
   19.1770   32.9330   13.1040 C   0  0  0  0  0
   19.2830   31.7040   11.0380 C   0  0  0  0  0
   19.1600   32.9080   11.7160 C   0  0  0  0  0
   19.0040   34.0800   11.0080 O   0  0  0  0  0
   20.6290   27.3430   16.2690 N   0  0  0  0  0
   20.6380   25.9890   16.8370 C   0  0  0  0  0
   19.4960   25.1270   16.2920 C   0  0  0  0  0
   19.5790   23.8970   16.2870 O   0  0  0  0  0
   20.5300   26.2410   18.3420 C   0  0  0  0  0
   19.7940   27.5510   18.4250 C   0  0  0  0  0
   20.4430   28.3580   17.3220 C   0  0  0  0  0
   18.4420   25.7810   15.8160 N   0  0  0  0  0
   17.2740   25.0990   15.2600 C   0  0  0  0  0
   17.0670   25.5670   13.8270 C   0  0  0  0  0
   17.2900   26.7360   13.5190 O   0  0  0  0  0
   16.0040   25.4460   16.0520 C   0  0  0  0  0
   16.1750   25.0670   17.4240 O   0  0  0  0  0
   14.7920   24.7230   15.4680 C   0  0  0  0  0
   16.6300   24.6750   12.9470 N   0  0  0  0  0
   16.4110   25.0950   11.5700 C   0  0  0  0  0
   15.1620   25.9490   11.4460 C   0  0  0  0  0
   14.1070   25.5640   11.9350 O   0  0  0  0  0
   16.2680   23.9040   10.6210 C   0  0  0  0  0
   16.3100   24.3540    9.1770 C   0  0  0  0  0
   15.1410   24.5690    8.4420 C   0  0  0  0  0
   17.5260   24.6450    8.5710 C   0  0  0  0  0
   15.1970   25.0720    7.1250 C   0  0  0  0  0
   17.5940   25.1430    7.2770 C   0  0  0  0  0
   16.4290   25.3560    6.5580 C   0  0  0  0  0
   16.5200   25.8620    5.2810 O   0  0  0  0  0
   15.2750   27.1190   10.7890 N   0  0  0  0  0
   14.1320   28.0130   10.6070 C   0  0  0  0  0
   12.9560   27.2860    9.9890 C   0  0  0  0  0
   13.0720   26.6930    8.9170 O   0  0  0  0  0
   14.6890   29.0980    9.6880 C   0  0  0  0  0
   16.0570   29.2660   10.2630 C   0  0  0  0  0
   16.5200   27.8220   10.4430 C   0  0  0  0  0
   11.8010   27.3470   10.6350 N   0  0  0  0  0
   10.6330   26.6830   10.0960 C   0  0  0  0  0
   10.3850   25.3310   10.7480 C   0  0  0  0  0
    9.3030   24.7590   10.5520 O   0  0  0  0  0
   11.3500   24.8050   11.5060 N   0  0  0  0  0
   11.1330   23.5260   12.1770 C   0  0  0  0  0
   10.3260   23.7640   13.4530 C   0  0  0  0  0
   10.2510   24.9250   13.9120 O   0  0  0  0  0
   12.4610   22.8620   12.5330 C   0  0  0  0  0
   12.3080   21.5250   13.2680 C   0  0  0  0  0
   11.9520   20.3540   12.5860 C   0  0  0  0  0
   12.5080   21.4360   14.6520 C   0  0  0  0  0
   11.8050   19.1360   13.2640 C   0  0  0  0  0
   12.3600   20.2280   15.3300 C   0  0  0  0  0
   12.0120   19.0830   14.6340 C   0  0  0  0  0
   11.8790   17.8870   15.3100 O   0  0  0  0  0
    9.8000   22.7750   13.9900 O   0  0  0  0  0
   37.3981   28.5865   14.0696 H   0  0  0  0  0
   38.3040   27.2378   14.4399 H   0  0  0  0  0
   39.0582   28.6347   13.9333 H   0  0  0  0  0
   38.0643   28.4651   11.7619 H   0  0  0  0  0
   39.3857   25.9076   12.6820 H   0  0  0  0  0
   40.2235   27.4540   12.1309 H   0  0  0  0  0
   38.4199   25.8248   10.3860 H   0  0  0  0  0
   40.2175   25.5362   10.5269 H   0  0  0  0  0
   39.7405   27.6253    7.5314 H   0  0  0  0  0
   39.3399   25.9844    8.0494 H   0  0  0  0  0
   37.2287   25.6809   13.9071 H   0  0  0  0  0
   35.3448   24.5524   12.0115 H   0  0  0  0  0
   36.2799   23.2389   13.8608 H   0  0  0  0  0
   35.4488   24.2892   15.0344 H   0  0  0  0  0
   34.5006   23.2705   13.9235 H   0  0  0  0  0
   33.1506   24.9425   11.7616 H   0  0  0  0  0
   32.0698   27.1320   13.4503 H   0  0  0  0  0
   30.7222   27.8680   11.5232 H   0  0  0  0  0
   31.6379   26.6057   10.5040 H   0  0  0  0  0
   33.5942   27.8565   10.6838 H   0  0  0  0  0
   32.8246   29.0151   11.8163 H   0  0  0  0  0
   30.4861   29.8220    8.8504 H   0  0  0  0  0
   30.2438   28.7931   10.2660 H   0  0  0  0  0
   29.8851   27.0305   14.0442 H   0  0  0  0  0
   28.1871   25.4734   14.8471 H   0  0  0  0  0
   28.6145   24.3528   13.5757 H   0  0  0  0  0
   25.3628   26.1625   11.0362 H   0  0  0  0  0
   23.9241   24.3013   11.6362 H   0  0  0  0  0
   22.9794   25.5675   12.2864 H   0  0  0  0  0
   23.7193   23.7132   14.0158 H   0  0  0  0  0
   23.9485   25.3167   14.5312 H   0  0  0  0  0
   26.2120   24.3774   14.7031 H   0  0  0  0  0
   26.0503   23.4623   13.2848 H   0  0  0  0  0
   24.4721   30.3256   11.9011 H   0  0  0  0  0
   22.8512   31.0337   10.2063 H   0  0  0  0  0
   21.7850   29.7430   10.5414 H   0  0  0  0  0
   24.4586   29.5879    9.0749 H   0  0  0  0  0
   22.9467   29.0352    8.5149 H   0  0  0  0  0
   22.8786   27.1659   10.0984 H   0  0  0  0  0
   24.5302   27.2194    9.7051 H   0  0  0  0  0
   21.8945   28.0474   12.6205 H   0  0  0  0  0
   21.3289   29.6281   15.1098 H   0  0  0  0  0
   18.9827   29.3269   14.8391 H   0  0  0  0  0
   19.2670   28.4167   13.2634 H   0  0  0  0  0
   19.3325   31.7622   14.9066 H   0  0  0  0  0
   19.5128   29.5708   11.2245 H   0  0  0  0  0
   19.0818   33.8797   13.6358 H   0  0  0  0  0
   19.2737   31.6850    9.9482 H   0  0  0  0  0
   19.0142   33.8881   10.0674 H   0  0  0  0  0
   21.5305   25.4206   16.5755 H   0  0  0  0  0
   21.5034   26.2762   18.8313 H   0  0  0  0  0
   20.0128   25.4366   18.8649 H   0  0  0  0  0
   19.8711   28.0242   19.4039 H   0  0  0  0  0
   18.7163   27.4453   18.3009 H   0  0  0  0  0
   19.8436   29.2095   17.0000 H   0  0  0  0  0
   21.3724   28.8383   17.6279 H   0  0  0  0  0
   18.4477   26.8007   15.8393 H   0  0  0  0  0
   17.4502   24.0245   15.3095 H   0  0  0  0  0
   15.8341   26.5207   15.9860 H   0  0  0  0  0
   15.3802   25.2849   17.9164 H   0  0  0  0  0
   14.6553   25.0258   14.4299 H   0  0  0  0  0
   14.9553   23.6463   15.5152 H   0  0  0  0  0
   13.9035   24.9827   16.0436 H   0  0  0  0  0
   16.4506   23.7117   13.2303 H   0  0  0  0  0
   17.2907   25.6746   11.2903 H   0  0  0  0  0
   15.3096   23.4199   10.8089 H   0  0  0  0  0
   17.0942   23.2152   10.7970 H   0  0  0  0  0
   14.1737   24.3453    8.8919 H   0  0  0  0  0
   18.4495   24.4781    9.1254 H   0  0  0  0  0
   14.2799   25.2356    6.5590 H   0  0  0  0  0
   18.5617   25.3659    6.8276 H   0  0  0  0  0
   17.4436   25.9962    5.0563 H   0  0  0  0  0
   13.7416   28.4151   11.5419 H   0  0  0  0  0
   14.0977   30.0135    9.6700 H   0  0  0  0  0
   14.6794   28.8343    8.6304 H   0  0  0  0  0
   16.0624   29.8350   11.1927 H   0  0  0  0  0
   16.7196   29.8503    9.6245 H   0  0  0  0  0
   17.0013   27.4175    9.5526 H   0  0  0  0  0
   17.2917   27.7167   11.2055 H   0  0  0  0  0
   11.7346   27.8622   11.5128 H   0  0  0  0  0
   10.7982   26.5196    9.0311 H   0  0  0  0  0
    9.7660   27.3151   10.2880 H   0  0  0  0  0
   12.2374   25.2956   11.6163 H   0  0  0  0  0
   10.5894   22.8647   11.5023 H   0  0  0  0  0
   10.7290   25.5268   13.3367 H   0  0  0  0  0
   12.9946   23.5397   13.1994 H   0  0  0  0  0
   12.9843   22.6607   11.5982 H   0  0  0  0  0
   11.7864   20.3908   11.5093 H   0  0  0  0  0
   12.7851   22.3305   15.2098 H   0  0  0  0  0
   11.5292   18.2346   12.7167 H   0  0  0  0  0
   12.5181   20.1844   16.4076 H   0  0  0  0  0
   12.0554   18.0269   16.2432 H   0  0  0  0  0
  1  2  1  0  0  0
  2  3  1  0  0  0
  2  5  1  0  0  0
  3  4  2  0  0  0
  3 10  1  0  0  0
  5  6  1  0  0  0
  6  7  1  0  0  0
  7  8  2  0  0  0
  7  9  1  0  0  0
 10 11  1  0  0  0
 11 12  1  0  0  0
 11 14  1  0  0  0
 12 13  2  0  0  0
 12 15  1  0  0  0
 15 16  1  0  0  0
 16 17  1  0  0  0
 16 19  1  0  0  0
 17 18  2  0  0  0
 17 24  1  0  0  0
 19 20  1  0  0  0
 20 21  1  0  0  0
 21 22  2  0  0  0
 21 23  1  0  0  0
 24 25  1  0  0  0
 25 26  1  0  0  0
 26 27  2  0  0  0
 26 28  1  0  0  0
 28 29  1  0  0  0
 28 34  1  0  0  0
 29 30  1  0  0  0
 29 32  1  0  0  0
 30 31  2  0  0  0
 30 35  1  0  0  0
 32 33  1  0  0  0
 33 34  1  0  0  0
 35 36  1  0  0  0
 35 41  1  0  0  0
 36 37  1  0  0  0
 36 39  1  0  0  0
 37 38  2  0  0  0
 37 42  1  0  0  0
 39 40  1  0  0  0
 40 41  1  0  0  0
 42 43  1  0  0  0
 43 44  1  0  0  0
 43 46  1  0  0  0
 44 45  2  0  0  0
 44 54  1  0  0  0
 46 47  1  0  0  0
 47 48  4  0  0  0
 47 49  4  0  0  0
 48 50  4  0  0  0
 49 51  4  0  0  0
 50 52  4  0  0  0
 51 52  4  0  0  0
 52 53  1  0  0  0
 54 55  1  0  0  0
 54 60  1  0  0  0
 55 56  1  0  0  0
 55 58  1  0  0  0
 56 57  2  0  0  0
 56 61  1  0  0  0
 58 59  1  0  0  0
 59 60  1  0  0  0
 61 62  1  0  0  0
 62 63  1  0  0  0
 62 65  1  0  0  0
 63 64  2  0  0  0
 63 68  1  0  0  0
 65 66  1  0  0  0
 65 67  1  0  0  0
 68 69  1  0  0  0
 69 70  1  0  0  0
 69 72  1  0  0  0
 70 71  2  0  0  0
 70 80  1  0  0  0
 72 73  1  0  0  0
 73 74  4  0  0  0
 73 75  4  0  0  0
 74 76  4  0  0  0
 75 77  4  0  0  0
 76 78  4  0  0  0
 77 78  4  0  0  0
 78 79  1  0  0  0
 80 81  1  0  0  0
 80 86  1  0  0  0
 81 82  1  0  0  0
 81 84  1  0  0  0
 82 83  2  0  0  0
 82 87  1  0  0  0
 84 85  1  0  0  0
 85 86  1  0  0  0
 87 88  1  0  0  0
 88 89  1  0  0  0
 89 90  2  0  0  0
 89 91  1  0  0  0
 91 92  1  0  0  0
 92 93  1  0  0  0
 92 95  1  0  0  0
 93 94  1  0  0  0
 93103  2  0  0  0
 95 96  1  0  0  0
 96 97  4  0  0  0
 96 98  4  0  0  0
 97 99  4  0  0  0
 98100  4  0  0  0
 99101  4  0  0  0
100101  4  0  0  0
101102  1  0  0  0
  1104  1  0  0  0
  1105  1  0  0  0
  1106  1  0  0  0
  2107  1  0  0  0
  5108  1  0  0  0
  5109  1  0  0  0
  6110  1  0  0  0
  6111  1  0  0  0
  9112  1  0  0  0
  9113  1  0  0  0
 10114  1  0  0  0
 11115  1  0  0  0
 14116  1  0  0  0
 14117  1  0  0  0
 14118  1  0  0  0
 15119  1  0  0  0
 16120  1  0  0  0
 19121  1  0  0  0
 19122  1  0  0  0
 20123  1  0  0  0
 20124  1  0  0  0
 23125  1  0  0  0
 23126  1  0  0  0
 24127  1  0  0  0
 25128  1  0  0  0
 25129  1  0  0  0
 29130  1  0  0  0
 32131  1  0  0  0
 32132  1  0  0  0
 33133  1  0  0  0
 33134  1  0  0  0
 34135  1  0  0  0
 34136  1  0  0  0
 36137  1  0  0  0
 39138  1  0  0  0
 39139  1  0  0  0
 40140  1  0  0  0
 40141  1  0  0  0
 41142  1  0  0  0
 41143  1  0  0  0
 42144  1  0  0  0
 43145  1  0  0  0
 46146  1  0  0  0
 46147  1  0  0  0
 48148  1  0  0  0
 49149  1  0  0  0
 50150  1  0  0  0
 51151  1  0  0  0
 53152  1  0  0  0
 55153  1  0  0  0
 58154  1  0  0  0
 58155  1  0  0  0
 59156  1  0  0  0
 59157  1  0  0  0
 60158  1  0  0  0
 60159  1  0  0  0
 61160  1  0  0  0
 62161  1  0  0  0
 65162  1  0  0  0
 66163  1  0  0  0
 67164  1  0  0  0
 67165  1  0  0  0
 67166  1  0  0  0
 68167  1  0  0  0
 69168  1  0  0  0
 72169  1  0  0  0
 72170  1  0  0  0
 74171  1  0  0  0
 75172  1  0  0  0
 76173  1  0  0  0
 77174  1  0  0  0
 79175  1  0  0  0
 81176  1  0  0  0
 84177  1  0  0  0
 84178  1  0  0  0
 85179  1  0  0  0
 85180  1  0  0  0
 86181  1  0  0  0
 86182  1  0  0  0
 87183  1  0  0  0
 88184  1  0  0  0
 88185  1  0  0  0
 91186  1  0  0  0
 92187  1  0  0  0
 94188  1  0  0  0
 95189  1  0  0  0
 95190  1  0  0  0
 97191  1  0  0  0
 98192  1  0  0  0
 99193  1  0  0  0
100194  1  0  0  0
102195  1  0  0  0
M  END
$$$$
