### 
### Created by X-TOOL on Mon Sep 10 21:12:58 2018
### 

@<TRIPOS>MOLECULE
3e1r_ligand
  194   200     1     0     0
SMALL
GAST_HUCK


@<TRIPOS>ATOM
      1 N          38.2300   28.0490   13.8260 N.4       1 GLN         0.2380
      2 CA         38.1270   27.5910   12.4100 C.3       1 GLN         0.0671
      3 C          36.8620   26.7510   12.2100 C.2       1 GLN         0.2268
      4 O          36.1390   26.9430   11.2340 O.2       1 GLN        -0.3907
      5 CB         39.3720   26.7810   12.0300 C.3       1 GLN         0.0247
      6 CG         39.4000   26.2540   10.5940 C.3       1 GLN         0.0443
      7 CD         39.6550   27.3320    9.5490 C.2       1 GLN         0.1738
      8 OE1        39.9320   28.4870    9.8780 O.2       1 GLN        -0.3973
      9 NE2        39.5720   26.9510    8.2780 N.am      1 GLN        -0.3009
     10 N          36.5930   25.8220   13.1220 N.am      1 ALA        -0.2613
     11 CA         35.3900   25.0030   13.0030 C.3       1 ALA         0.1283
     12 C          34.1780   25.9050   13.2310 C.2       1 ALA         0.2036
     13 O          34.2090   26.7870   14.0890 O.2       1 ALA        -0.3944
     14 CB         35.4060   23.8680   14.0300 C.3       1 ALA        -0.0244
     15 N          33.1160   25.6870   12.4580 N.am      1 GLN        -0.2636
     16 CA         31.9010   26.4910   12.5850 C.3       1 GLN         0.1330
     17 C          30.6700   25.6330   12.7890 C.2       1 GLN         0.2038
     18 O          30.5580   24.5530   12.2200 O.2       1 GLN        -0.3944
     19 CB         31.6430   27.3180   11.3290 C.3       1 GLN         0.0045
     20 CG         32.6670   28.3580   10.9610 C.3       1 GLN         0.0412
     21 CD         32.1890   29.1900    9.7850 C.2       1 GLN         0.1737
     22 OE1        32.9870   29.7500    9.0380 O.2       1 GLN        -0.3973
     23 NE2        30.8700   29.2750    9.6210 N.am      1 GLN        -0.3009
     24 N          29.7330   26.1330   13.5840 N.am      1 GLY        -0.2664
     25 CA         28.4940   25.4120   13.8030 C.3       1 GLY         0.1203
     26 C          27.4580   26.0460   12.8960 C.2       1 GLY         0.2032
     27 O          27.7900   26.9630   12.1530 O.2       1 GLY        -0.3945
     28 N          26.2010   25.5750   12.9180 N.am      1 PRO        -0.2501
     29 CA         25.1000   26.0970   12.0920 C.3       1 PRO         0.1340
     30 C          24.7180   27.5420   12.4510 C.2       1 PRO         0.2066
     31 O          25.0200   28.0100   13.5470 O.2       1 PRO        -0.3942
     32 CB         23.9650   25.1090   12.3670 C.3       1 PRO        -0.0104
     33 CG         24.2650   24.6200   13.7550 C.3       1 PRO        -0.0281
     34 CD         25.7560   24.4200   13.7140 C.3       1 PRO         0.0369
     35 N          24.0560   28.2670   11.5240 N.am      1 PRO        -0.2498
     36 CA         23.6270   29.6590   11.7290 C.3       1 PRO         0.1338
     37 C          22.7590   29.8440   12.9740 C.2       1 PRO         0.2042
     38 O          22.8420   30.8670   13.6570 O.2       1 PRO        -0.3944
     39 CB         22.8470   29.9720   10.4530 C.3       1 PRO        -0.0104
     40 CG         23.5290   29.1430    9.4300 C.3       1 PRO        -0.0281
     41 CD         23.7430   27.8280   10.1500 C.3       1 PRO         0.0369
     42 N          21.9130   28.8560   13.2420 N.am      1 TYR        -0.2621
     43 CA         21.0080   28.8770   14.3880 C.3       1 TYR         0.1392
     44 C          21.0170   27.4780   14.9930 C.2       1 TYR         0.2082
     45 O          21.3840   26.5110   14.3240 O.2       1 TYR        -0.3940
     46 CB         19.5800   29.2170   13.9340 C.3       1 TYR         0.0164
     47 CG         19.4370   30.5140   13.1590 C.ar      1 TYR        -0.0493
     48 CD1        19.3170   31.7370   13.8170 C.ar      1 TYR        -0.0685
     49 CD2        19.4190   30.5150   11.7610 C.ar      1 TYR        -0.0685
     50 CE1        19.1770   32.9330   13.1040 C.ar      1 TYR        -0.0398
     51 CE2        19.2830   31.7040   11.0380 C.ar      1 TYR        -0.0398
     52 CZ         19.1600   32.9080   11.7160 C.ar      1 TYR         0.0805
     53 OH         19.0040   34.0800   11.0080 O.3       1 TYR        -0.3376
     54 N          20.6290   27.3430   16.2690 N.am      1 PRO        -0.2497
     55 CA         20.6380   25.9890   16.8370 C.3       1 PRO         0.1338
     56 C          19.4960   25.1270   16.2920 C.2       1 PRO         0.2042
     57 O          19.5790   23.8970   16.2870 O.2       1 PRO        -0.3944
     58 CB         20.5300   26.2410   18.3420 C.3       1 PRO        -0.0104
     59 CG         19.7940   27.5510   18.4250 C.3       1 PRO        -0.0281
     60 CD         20.4430   28.3580   17.3220 C.3       1 PRO         0.0369
     61 N          18.4420   25.7810   15.8160 N.am      1 THR        -0.2613
     62 CA         17.2740   25.0990   15.2600 C.3       1 THR         0.1565
     63 C          17.0670   25.5670   13.8270 C.2       1 THR         0.2066
     64 O          17.2900   26.7360   13.5190 O.2       1 THR        -0.3943
     65 CB         16.0040   25.4460   16.0520 C.3       1 THR         0.0924
     66 OG1        16.1750   25.0670   17.4240 O.3       1 THR        -0.3874
     67 CG2        14.7920   24.7230   15.4680 C.3       1 THR        -0.0346
     68 N          16.6300   24.6750   12.9470 N.am      1 TYR        -0.2620
     69 CA         16.4110   25.0950   11.5700 C.3       1 TYR         0.1392
     70 C          15.1620   25.9490   11.4460 C.2       1 TYR         0.2082
     71 O          14.1070   25.5640   11.9350 O.2       1 TYR        -0.3940
     72 CB         16.2680   23.9040   10.6210 C.3       1 TYR         0.0164
     73 CG         16.3100   24.3540    9.1770 C.ar      1 TYR        -0.0493
     74 CD1        15.1410   24.5690    8.4420 C.ar      1 TYR        -0.0685
     75 CD2        17.5260   24.6450    8.5710 C.ar      1 TYR        -0.0685
     76 CE1        15.1970   25.0720    7.1250 C.ar      1 TYR        -0.0398
     77 CE2        17.5940   25.1430    7.2770 C.ar      1 TYR        -0.0398
     78 CZ         16.4290   25.3560    6.5580 C.ar      1 TYR         0.0805
     79 OH         16.5200   25.8620    5.2810 O.3       1 TYR        -0.3376
     80 N          15.2750   27.1190   10.7890 N.am      1 PRO        -0.2497
     81 CA         14.1320   28.0130   10.6070 C.3       1 PRO         0.1338
     82 C          12.9560   27.2860    9.9890 C.2       1 PRO         0.2039
     83 O          13.0720   26.6930    8.9170 O.2       1 PRO        -0.3944
     84 CB         14.6890   29.0980    9.6880 C.3       1 PRO        -0.0104
     85 CG         16.0570   29.2660   10.2630 C.3       1 PRO        -0.0281
     86 CD         16.5200   27.8220   10.4430 C.3       1 PRO         0.0369
     87 N          11.8010   27.3470   10.6350 N.am      1 GLY        -0.2664
     88 CA         10.6330   26.6830   10.0960 C.3       1 GLY         0.1201
     89 C          10.3850   25.3310   10.7480 C.2       1 GLY         0.2003
     90 O           9.3030   24.7590   10.5520 O.2       1 GLY        -0.3947
     91 N          11.3500   24.8050   11.5060 N.am      1 TYR        -0.2681
     92 CA         11.1330   23.5260   12.1770 C.3       1 TYR         0.1025
     93 C          10.3260   23.7640   13.4530 C.2       1 TYR         0.0619
     94 O          10.2510   24.9250   13.9120 O.co2     1 TYR        -0.5665
     95 CB         12.4610   22.8620   12.5330 C.3       1 TYR         0.0108
     96 CG         12.3080   21.5250   13.2680 C.ar      1 TYR        -0.0499
     97 CD1        11.9520   20.3540   12.5860 C.ar      1 TYR        -0.0686
     98 CD2        12.5080   21.4360   14.6520 C.ar      1 TYR        -0.0686
     99 CE1        11.8050   19.1360   13.2640 C.ar      1 TYR        -0.0398
    100 CE2        12.3600   20.2280   15.3300 C.ar      1 TYR        -0.0398
    101 CZ         12.0120   19.0830   14.6340 C.ar      1 TYR         0.0805
    102 OH         11.8790   17.8870   15.3100 O.3       1 TYR        -0.3376
    103 OXT         9.8000   22.7750   13.9900 O.co2     1 TYR        -0.5665
    104 H1         39.0664   28.5996   13.9410 H         1 GLN         0.2015
    105 H2         38.2687   27.2477   14.4364 H         1 GLN         0.2015
    106 H3         37.4246   28.6092   14.0574 H         1 GLN         0.2015
    107 H4         38.0684   28.4744   11.7572 H         1 GLN         0.1100
    108 H5         39.4356   25.9181   12.7092 H         1 GLN         0.0370
    109 H6         40.2522   27.4252   12.1721 H         1 GLN         0.0370
    110 H7         38.4292   25.7842   10.3779 H         1 GLN         0.0506
    111 H8         40.1975   25.5003   10.5165 H         1 GLN         0.0506
    112 H9         39.7292   27.6139    7.5460 H         1 GLN         0.1814
    113 H10        39.3524   26.0015    8.0540 H         1 GLN         0.1814
    114 H11        37.2162   25.6837   13.8917 H         1 ALA         0.1884
    115 H12        35.3407   24.5705   11.9928 H         1 ALA         0.0797
    116 H13        34.4927   23.2643   13.9235 H         1 ALA         0.0277
    117 H14        35.4492   24.2917   15.0442 H         1 ALA         0.0277
    118 H15        36.2875   23.2323   13.8603 H         1 ALA         0.0277
    119 H16        33.1500   24.9571   11.7753 H         1 GLN         0.1883
    120 H17        32.0216   27.1639   13.4468 H         1 GLN         0.0801
    121 H18        30.6821   27.8355   11.4665 H         1 GLN         0.0337
    122 H19        31.5651   26.6184   10.4837 H         1 GLN         0.0337
    123 H20        33.6084   27.8577   10.6902 H         1 GLN         0.0504
    124 H21        32.8376   29.0179   11.8243 H         1 GLN         0.0504
    125 H22        30.4937   29.8090    8.8639 H         1 GLN         0.1814
    126 H23        30.2560   28.8049   10.2550 H         1 GLN         0.1814
    127 H24        29.8821   27.0129   14.0352 H         1 GLY         0.1881
    128 H25        28.1835   25.5015   14.8545 H         1 GLY         0.0763
    129 H26        28.6227   24.3498   13.5478 H         1 GLY         0.0763
    130 H27        25.3790   26.0682   11.0284 H         1 PRO         0.0802
    131 H28        23.9803   24.2796   11.6447 H         1 PRO         0.0313
    132 H29        22.9870   25.6109   12.3284 H         1 PRO         0.0313
    133 H30        23.7427   23.6750   13.9652 H         1 PRO         0.0287
    134 H31        23.9850   25.3695   14.5099 H         1 PRO         0.0287
    135 H32        26.1894   24.4410   14.7248 H         1 PRO         0.0524
    136 H33        26.0181   23.4716   13.2223 H         1 PRO         0.0524
    137 H34        24.5046   30.3166   11.8147 H         1 PRO         0.0802
    138 H35        22.9123   31.0411   10.2025 H         1 PRO         0.0313
    139 H36        21.7905   29.6831   10.5551 H         1 PRO         0.0313
    140 H37        24.4880   29.5917    9.1317 H         1 PRO         0.0287
    141 H38        22.8946   29.0092    8.5414 H         1 PRO         0.0287
    142 H39        22.8339   27.2092   10.1272 H         1 PRO         0.0524
    143 H40        24.5804   27.2657    9.7113 H         1 PRO         0.0524
    144 H41        21.8949   28.0633   12.6327 H         1 TYR         0.1885
    145 H42        21.3495   29.6168   15.1270 H         1 TYR         0.0821
    146 H43        18.9457   29.2850   14.8301 H         1 TYR         0.0453
    147 H44        19.2229   28.3973   13.2933 H         1 TYR         0.0453
    148 H45        19.3324   31.7621   14.9006 H         1 TYR         0.0530
    149 H46        19.5123   29.5760   11.2274 H         1 TYR         0.0530
    150 H47        19.0823   33.8745   13.6329 H         1 TYR         0.0525
    151 H48        19.2737   31.6851    9.9542 H         1 TYR         0.0525
    152 H49        18.9348   34.8081   11.6143 H         1 TYR         0.2458
    153 H50        21.5893   25.4870   16.6067 H         1 PRO         0.0802
    154 H51        21.5268   26.3200   18.8003 H         1 PRO         0.0313
    155 H52        19.9620   25.4386   18.8356 H         1 PRO         0.0313
    156 H53        19.9395   28.0279   19.4055 H         1 PRO         0.0287
    157 H54        18.7183   27.4157   18.2390 H         1 PRO         0.0287
    158 H55        19.7851   29.1712   16.9816 H         1 PRO         0.0524
    159 H56        21.4063   28.7775   17.6475 H         1 PRO         0.0524
    160 H57        18.4476   26.7807   15.8389 H         1 THR         0.1884
    161 H58        17.4394   24.0118   15.2829 H         1 THR         0.0826
    162 H59        15.8335   26.5312   15.9960 H         1 THR         0.0639
    163 H60        16.3344   24.1319   17.4755 H         1 THR         0.2101
    164 H61        13.8946   24.9843   16.0481 H         1 THR         0.0257
    165 H62        14.9555   23.6362   15.5151 H         1 THR         0.0257
    166 H63        14.6529   25.0278   14.4203 H         1 THR         0.0257
    167 H64        16.4541   23.7306   13.2247 H         1 TYR         0.1885
    168 H65        17.2799   25.6916   11.2552 H         1 TYR         0.0821
    169 H66        15.3078   23.4033   10.8140 H         1 TYR         0.0453
    170 H67        17.0923   23.1986   10.8021 H         1 TYR         0.0453
    171 H68        14.1790   24.3465    8.8894 H         1 TYR         0.0530
    172 H69        18.4444   24.4790    9.1224 H         1 TYR         0.0530
    173 H70        14.2850   25.2347    6.5621 H         1 TYR         0.0525
    174 H71        18.5564   25.3647    6.8301 H         1 TYR         0.0525
    175 H72        17.0299   25.2686    4.7420 H         1 TYR         0.2458
    176 H73        13.8184   28.4451   11.5687 H         1 PRO         0.0802
    177 H74        14.1035   30.0268    9.7550 H         1 PRO         0.0313
    178 H75        14.7270   28.7632    8.6409 H         1 PRO         0.0313
    179 H76        16.0208   29.7948   11.2269 H         1 PRO         0.0287
    180 H77        16.7151   29.8109    9.5703 H         1 PRO         0.0287
    181 H78        16.9526   27.4261    9.5123 H         1 PRO         0.0524
    182 H79        17.2587   27.7414   11.2541 H         1 PRO         0.0524
    183 H80        11.7359   27.8521   11.4956 H         1 GLY         0.1881
    184 H81        10.7780   26.5335    9.0159 H         1 GLY         0.0763
    185 H82         9.7539   27.3227   10.2629 H         1 GLY         0.0763
    186 H83        12.2200   25.2860   11.6142 H         1 TYR         0.1877
    187 H84        10.5687   22.8604   11.5072 H         1 TYR         0.0747
    188 H85        13.0301   23.5484   13.1771 H         1 TYR         0.0446
    189 H86        13.0200   22.6840   11.6025 H         1 TYR         0.0446
    190 H87        11.7874   20.3906   11.5152 H         1 TYR         0.0530
    191 H88        12.7836   22.3256   15.2067 H         1 TYR         0.0530
    192 H89        11.5307   18.2396   12.7197 H         1 TYR         0.0525
    193 H90        12.5172   20.1846   16.4017 H         1 TYR         0.0525
    194 H91        11.6386   17.2028   14.6964 H         1 TYR         0.2458
@<TRIPOS>BOND
     1    1    2 1  
     2    2    3 1  
     3    2    5 1  
     4    3    4 2  
     5    3   10 am 
     6    5    6 1  
     7    6    7 1  
     8    7    8 2  
     9    7    9 am 
    10   10   11 1  
    11   11   12 1  
    12   11   14 1  
    13   12   13 2  
    14   12   15 am 
    15   15   16 1  
    16   16   17 1  
    17   16   19 1  
    18   17   18 2  
    19   17   24 am 
    20   19   20 1  
    21   20   21 1  
    22   21   22 2  
    23   21   23 am 
    24   24   25 1  
    25   25   26 1  
    26   26   27 2  
    27   26   28 am 
    28   28   29 1  
    29   28   34 1  
    30   29   30 1  
    31   29   32 1  
    32   30   31 2  
    33   30   35 am 
    34   32   33 1  
    35   33   34 1  
    36   35   36 1  
    37   35   41 1  
    38   36   37 1  
    39   36   39 1  
    40   37   38 2  
    41   37   42 am 
    42   39   40 1  
    43   40   41 1  
    44   42   43 1  
    45   43   44 1  
    46   43   46 1  
    47   44   45 2  
    48   44   54 am 
    49   46   47 1  
    50   47   48 ar 
    51   47   49 ar 
    52   48   50 ar 
    53   49   51 ar 
    54   50   52 ar 
    55   51   52 ar 
    56   52   53 1  
    57   54   55 1  
    58   54   60 1  
    59   55   56 1  
    60   55   58 1  
    61   56   57 2  
    62   56   61 am 
    63   58   59 1  
    64   59   60 1  
    65   61   62 1  
    66   62   63 1  
    67   62   65 1  
    68   63   64 2  
    69   63   68 am 
    70   65   66 1  
    71   65   67 1  
    72   68   69 1  
    73   69   70 1  
    74   69   72 1  
    75   70   71 2  
    76   70   80 am 
    77   72   73 1  
    78   73   74 ar 
    79   73   75 ar 
    80   74   76 ar 
    81   75   77 ar 
    82   76   78 ar 
    83   77   78 ar 
    84   78   79 1  
    85   80   81 1  
    86   80   86 1  
    87   81   82 1  
    88   81   84 1  
    89   82   83 2  
    90   82   87 am 
    91   84   85 1  
    92   85   86 1  
    93   87   88 1  
    94   88   89 1  
    95   89   90 2  
    96   89   91 am 
    97   91   92 1  
    98   92   93 1  
    99   92   95 1  
   100   93   94 ar 
   101   93  103 ar 
   102   95   96 1  
   103   96   97 ar 
   104   96   98 ar 
   105   97   99 ar 
   106   98  100 ar 
   107   99  101 ar 
   108  100  101 ar 
   109  101  102 1  
   110    1  104 1  
   111    1  105 1  
   112    1  106 1  
   113    2  107 1  
   114    5  108 1  
   115    5  109 1  
   116    6  110 1  
   117    6  111 1  
   118    9  112 1  
   119    9  113 1  
   120   10  114 1  
   121   11  115 1  
   122   14  116 1  
   123   14  117 1  
   124   14  118 1  
   125   15  119 1  
   126   16  120 1  
   127   19  121 1  
   128   19  122 1  
   129   20  123 1  
   130   20  124 1  
   131   23  125 1  
   132   23  126 1  
   133   24  127 1  
   134   25  128 1  
   135   25  129 1  
   136   29  130 1  
   137   32  131 1  
   138   32  132 1  
   139   33  133 1  
   140   33  134 1  
   141   34  135 1  
   142   34  136 1  
   143   36  137 1  
   144   39  138 1  
   145   39  139 1  
   146   40  140 1  
   147   40  141 1  
   148   41  142 1  
   149   41  143 1  
   150   42  144 1  
   151   43  145 1  
   152   46  146 1  
   153   46  147 1  
   154   48  148 1  
   155   49  149 1  
   156   50  150 1  
   157   51  151 1  
   158   53  152 1  
   159   55  153 1  
   160   58  154 1  
   161   58  155 1  
   162   59  156 1  
   163   59  157 1  
   164   60  158 1  
   165   60  159 1  
   166   61  160 1  
   167   62  161 1  
   168   65  162 1  
   169   66  163 1  
   170   67  164 1  
   171   67  165 1  
   172   67  166 1  
   173   68  167 1  
   174   69  168 1  
   175   72  169 1  
   176   72  170 1  
   177   74  171 1  
   178   75  172 1  
   179   76  173 1  
   180   77  174 1  
   181   79  175 1  
   182   81  176 1  
   183   84  177 1  
   184   84  178 1  
   185   85  179 1  
   186   85  180 1  
   187   86  181 1  
   188   86  182 1  
   189   87  183 1  
   190   88  184 1  
   191   88  185 1  
   192   91  186 1  
   193   92  187 1  
   194   95  188 1  
   195   95  189 1  
   196   97  190 1  
   197   98  191 1  
   198   99  192 1  
   199  100  193 1  
   200  102  194 1  
@<TRIPOS>SUBSTRUCTURE
     1 GLN         1

