3re4_ligand
  -I-interpret- 

 34 36  0  0  0  0  0  0  0  0999 V2000
    7.6150    2.1430   25.3360 C   0  0  0  0  0
    8.4730    2.2490   26.5260 N   0  0  0  0  0
    7.3230    0.7890   24.9830 O   0  0  0  0  0
    8.4550    3.3000   27.3520 C   0  0  0  0  0
    7.7570    4.4380   27.3360 N   0  0  0  0  0
    7.1600    3.3050   23.2260 O   0  0  0  0  0
    7.8870    5.3800   28.2490 C   0  0  0  0  0
    8.7660    5.2100   29.2390 N   0  0  0  0  0
    8.4710    1.9290   21.9510 O   0  0  0  0  0
    9.5430    4.1360   29.4310 C   0  0  0  0  0
   11.8030    0.6450   29.3760 N   0  0  0  0  0
   10.1110   -0.4940   24.1190 O   0  0  0  0  0
    9.4170    3.0680   28.4440 C   0  0  0  0  0
   10.4240    3.9780   30.4450 N   0  0  0  0  0
    9.9800    1.7500   28.0930 C   0  0  0  0  0
    9.3460    1.2600   26.8910 C   0  0  0  0  0
   10.8890    1.0860   28.8100 C   0  0  0  0  0
    8.1970    2.7860   24.0920 C   0  0  0  0  0
    8.7600    1.6430   23.3130 C   0  0  0  0  0
    7.9180    0.4490   23.7190 C   0  0  0  0  0
    8.7320   -0.8220   23.8840 C   0  0  0  0  0
    6.7143    2.6757   25.6409 H   0  0  0  0  0
    6.7356    4.0543   23.6503 H   0  0  0  0  0
    7.2841    6.2865   28.1961 H   0  0  0  0  0
    8.8121    1.2226   21.3975 H   0  0  0  0  0
   10.6180   -1.3026   24.2221 H   0  0  0  0  0
   10.5363    4.7139   31.1423 H   0  0  0  0  0
   10.9761    3.1230   30.5124 H   0  0  0  0  0
    9.5238    0.3108   26.3855 H   0  0  0  0  0
    8.8876    3.5793   24.3781 H   0  0  0  0  0
    9.8253    1.4749   23.4714 H   0  0  0  0  0
    7.1840    0.2467   22.9390 H   0  0  0  0  0
    8.3475   -1.3869   24.7332 H   0  0  0  0  0
    8.6547   -1.4184   22.9749 H   0  0  0  0  0
  1  2  1  0  0  0
  3  1  1  0  0  0
 18  1  1  0  0  0
  2  4  4  0  0  0
  2 16  4  0  0  0
 20  3  1  0  0  0
  4  5  4  0  0  0
  4 13  4  0  0  0
  5  7  4  0  0  0
 18  6  1  0  0  0
  7  8  4  0  0  0
 10  8  4  0  0  0
 19  9  1  0  0  0
 13 10  4  0  0  0
 10 14  1  0  0  0
 17 11  3  0  0  0
 21 12  1  0  0  0
 15 13  4  0  0  0
 16 15  4  0  0  0
 15 17  1  0  0  0
 19 18  1  0  0  0
 20 19  1  0  0  0
 20 21  1  0  0  0
  1 22  1  0  0  0
  6 23  1  0  0  0
  7 24  1  0  0  0
  9 25  1  0  0  0
 12 26  1  0  0  0
 14 27  1  0  0  0
 14 28  1  0  0  0
 16 29  1  0  0  0
 18 30  1  0  0  0
 19 31  1  0  0  0
 20 32  1  0  0  0
 21 33  1  0  0  0
 21 34  1  0  0  0
M  END
$$$$
