4hlc_ligand
  -I-interpret- 

 60 63  0  0  0  0  0  0  0  0999 V2000
    5.6760   -1.9040   50.4660 C   0  0  0  0  0
    3.9370    1.5660   55.0600 C   0  0  0  0  0
    6.6510   -1.7730   49.5040 C   0  0  0  0  0
    5.5880   -0.9510   51.4660 C   0  0  0  0  0
    2.9670    2.2780   54.4000 C   0  0  0  0  0
    7.4510    0.2420   50.5210 C   0  0  0  0  0
    4.2920    2.2130   52.3850 C   0  0  0  0  0
    5.0780    1.1530   54.4010 C   0  0  0  0  0
    7.5370   -0.7140   49.5280 C   0  0  0  0  0
    6.4660    0.1190   51.4780 C   0  0  0  0  0
    5.2520    1.4800   53.0600 C   0  0  0  0  0
    3.1350    2.5830   53.0620 C   0  0  0  0  0
    1.1120   -1.1820   49.0400 C   0  0  0  0  0
    1.5150   -1.9180   47.9900 C   0  0  0  0  0
    1.3540   -1.3300   46.6290 C   0  0  0  0  0
    0.4230    0.6940   47.6770 C   0  0  0  0  0
    6.0670    0.3970   55.1860 C   0  0  0  0  0
   -1.2790    0.8880   52.1760 C   0  0  0  0  0
   -0.8370    0.0290   50.9910 C   0  0  0  0  0
   -0.0560    1.5280   52.8110 C   0  0  0  0  0
    1.2740    1.3890   50.7630 C   0  0  0  0  0
    0.0800    0.8240   50.0540 C   0  0  0  0  0
    8.5850   -0.5690   48.4910 C   0  0  0  0  0
    2.1180   -3.2740   48.1080 C   0  0  0  0  0
    0.8110   -0.0550   46.5980 N   0  0  0  0  0
    0.5430    0.0730   48.9060 N   0  0  0  0  0
    0.7130    2.2900   51.7820 N   0  0  0  0  0
    1.6740   -1.9360   45.6100 O   0  0  0  0  0
    0.0040    1.8360   47.5450 O   0  0  0  0  0
    6.4870    0.9520   56.2350 O   0  0  0  0  0
    1.1320    4.3030   53.2540 O   0  0  0  0  0
    2.4440    4.0990   51.0830 O   0  0  0  0  0
    6.3900   -0.7530   54.7820 O   0  0  0  0  0
    6.4440    1.1180   52.4530 O   0  0  0  0  0
    1.8220    3.5040   52.2530 S   0  0  0  0  0
    4.9835   -2.7454   50.4410 H   0  0  0  0  0
    3.8055    1.3242   56.1147 H   0  0  0  0  0
    6.7252   -2.5167   48.7106 H   0  0  0  0  0
    4.8287   -1.0430   52.2426 H   0  0  0  0  0
    2.0695    2.6011   54.9275 H   0  0  0  0  0
    8.1492    1.0786   50.5477 H   0  0  0  0  0
    4.4398    2.4950   51.3425 H   0  0  0  0  0
    1.2389   -1.5916   50.0421 H   0  0  0  0  0
   -1.7891    0.2645   52.9103 H   0  0  0  0  0
   -1.9614    1.6648   51.8310 H   0  0  0  0  0
   -1.7207   -0.2844   50.4352 H   0  0  0  0  0
   -0.2901   -0.8352   51.3681 H   0  0  0  0  0
    0.5802    0.7485   53.2302 H   0  0  0  0  0
   -0.3760    2.2105   53.5983 H   0  0  0  0  0
    1.9414    1.9141   50.0796 H   0  0  0  0  0
    1.8903    0.6073   51.2070 H   0  0  0  0  0
   -0.5557    1.6342   49.6968 H   0  0  0  0  0
    9.2354   -1.4435   48.5088 H   0  0  0  0  0
    8.1154   -0.4838   47.5111 H   0  0  0  0  0
    9.1726    0.3266   48.6928 H   0  0  0  0  0
    3.0292   -3.2145   48.7032 H   0  0  0  0  0
    1.4088   -3.9447   48.5931 H   0  0  0  0  0
    2.3560   -3.6522   47.1138 H   0  0  0  0  0
    0.6879    0.3684   45.6782 H   0  0  0  0  0
    5.9330   -0.9419   53.9592 H   0  0  0  0  0
  1  3  4  0  0  0
  4  1  4  0  0  0
  5  2  4  0  0  0
  2  8  4  0  0  0
  9  3  4  0  0  0
 10  4  4  0  0  0
 12  5  4  0  0  0
  6  9  4  0  0  0
 10  6  4  0  0  0
  7 11  4  0  0  0
 12  7  4  0  0  0
 11  8  4  0  0  0
  8 17  1  0  0  0
  9 23  1  0  0  0
 34 10  1  0  0  0
 11 34  1  0  0  0
 35 12  1  0  0  0
 13 14  2  0  0  0
 26 13  1  0  0  0
 14 15  1  0  0  0
 14 24  1  0  0  0
 25 15  1  0  0  0
 15 28  2  0  0  0
 16 25  1  0  0  0
 26 16  1  0  0  0
 16 29  2  0  0  0
 17 30  2  0  0  0
 17 33  1  0  0  0
 18 19  1  0  0  0
 20 18  1  0  0  0
 22 19  1  0  0  0
 27 20  1  0  0  0
 21 22  1  0  0  0
 27 21  1  0  0  0
 22 26  1  0  0  0
 27 35  1  0  0  0
 35 31  2  0  0  0
 35 32  2  0  0  0
  1 36  1  0  0  0
  2 37  1  0  0  0
  3 38  1  0  0  0
  4 39  1  0  0  0
  5 40  1  0  0  0
  6 41  1  0  0  0
  7 42  1  0  0  0
 13 43  1  0  0  0
 18 44  1  0  0  0
 18 45  1  0  0  0
 19 46  1  0  0  0
 19 47  1  0  0  0
 20 48  1  0  0  0
 20 49  1  0  0  0
 21 50  1  0  0  0
 21 51  1  0  0  0
 22 52  1  0  0  0
 23 53  1  0  0  0
 23 54  1  0  0  0
 23 55  1  0  0  0
 24 56  1  0  0  0
 24 57  1  0  0  0
 24 58  1  0  0  0
 25 59  1  0  0  0
 33 60  1  0  0  0
M  END
$$$$
