1dif_ligand
  -I-interpret- 

116119  0  0  0  0  0  0  0  0999 V2000
    3.3710    3.2440   10.6920 C   0  0  0  0  0
    3.1580    3.9230   11.6780 O   0  0  0  0  0
    3.9360    3.7880    9.5880 N   0  0  0  0  0
    4.3560    3.0410    8.4100 C   0  0  0  0  0
    4.2080    5.1970    9.5570 C   0  0  0  0  0
    5.5530    5.5010   10.1640 C   0  0  0  0  0
    5.6990    5.5620   11.5750 C   0  0  0  0  0
    6.5630    5.7500    9.2950 N   0  0  0  0  0
    6.9460    5.9050   12.1100 C   0  0  0  0  0
    7.7480    6.1020    9.8440 C   0  0  0  0  0
    7.9940    6.1900   11.2340 C   0  0  0  0  0
    3.0420    1.9380   10.6590 N   0  0  0  0  0
    2.5260    1.2550   11.8400 C   0  0  0  0  0
    3.6010    0.3240   12.3920 C   0  0  0  0  0
    3.6530   -0.8760   12.1430 O   0  0  0  0  0
    1.2120    0.5400   11.5360 C   0  0  0  0  0
    0.6900   -0.1890   12.7810 C   0  0  0  0  0
    0.1270    1.5020   11.0100 C   0  0  0  0  0
    4.4710    0.9440   13.1890 N   0  0  0  0  0
    5.4170    0.2040   14.0260 C   0  0  0  0  0
    6.7580    0.9060   14.0100 C   0  0  0  0  0
    7.1910    0.9950   12.6000 C   0  0  0  0  0
    6.9620    2.1660   11.8770 C   0  0  0  0  0
    7.3180    2.2260   10.5290 C   0  0  0  0  0
    7.8910    1.1110    9.9160 C   0  0  0  0  0
    8.1260   -0.0590   10.6460 C   0  0  0  0  0
    7.7790   -0.1170   11.9860 C   0  0  0  0  0
    4.8310    0.0730   15.4350 C   0  0  0  0  0
    4.9900    1.2280   16.1180 F   0  0  0  0  0
    3.4910   -0.0550   15.3950 F   0  0  0  0  0
    5.3510   -1.0750   16.3120 C   0  0  0  0  0
    6.7280   -1.1480   16.1330 O   0  0  0  0  0
    5.1400   -0.7540   17.6490 O   0  0  0  0  0
    5.6720   -3.4510   16.4150 N   0  0  0  0  0
    4.7250   -2.4420   15.9740 C   0  0  0  0  0
    3.3380   -2.7440   16.5810 C   0  0  0  0  0
    2.9690   -4.1640   16.2730 C   0  0  0  0  0
    2.5230   -4.5260   14.9940 C   0  0  0  0  0
    2.2460   -5.8690   14.6830 C   0  0  0  0  0
    2.4260   -6.8580   15.6460 C   0  0  0  0  0
    2.8700   -6.4950   16.9160 C   0  0  0  0  0
    3.1350   -5.1620   17.2340 C   0  0  0  0  0
    7.0860   -6.1630   16.6480 N   0  0  0  0  0
    7.6010   -4.8630   16.2970 C   0  0  0  0  0
    6.5080   -4.0710   15.5860 C   0  0  0  0  0
    6.4240   -3.9600   14.3810 O   0  0  0  0  0
    8.9080   -4.9760   15.5210 C   0  0  0  0  0
    9.8120   -5.9170   16.3290 C   0  0  0  0  0
    9.5580   -3.5930   15.2780 C   0  0  0  0  0
    6.8600   -6.5570   17.9310 C   0  0  0  0  0
    7.1850   -5.8670   18.8910 O   0  0  0  0  0
    6.2940   -7.7700   18.1310 N   0  0  0  0  0
    5.8690   -8.6300   17.0160 C   0  0  0  0  0
    6.0610   -8.2570   19.4870 C   0  0  0  0  0
    4.6680   -7.8930   19.9620 C   0  0  0  0  0
    4.4290   -6.6260   20.5360 C   0  0  0  0  0
    3.6960   -8.8200   19.8070 N   0  0  0  0  0
    3.1300   -6.3160   20.9580 C   0  0  0  0  0
    2.4620   -8.5000   20.2030 C   0  0  0  0  0
    2.1280   -7.2740   20.7830 C   0  0  0  0  0
    3.8449    3.4337    7.5310 H   0  0  0  0  0
    5.4335    3.1436    8.2814 H   0  0  0  0  0
    4.1027    1.9887    8.5392 H   0  0  0  0  0
    3.4399    5.7141   10.1322 H   0  0  0  0  0
    4.2095    5.5300    8.5191 H   0  0  0  0  0
    4.8550    5.3456   12.2299 H   0  0  0  0  0
    7.0954    5.9486   13.1888 H   0  0  0  0  0
    8.5709    6.3341    9.1679 H   0  0  0  0  0
    8.9767    6.4731   11.6111 H   0  0  0  0  0
    3.1561    1.4160    9.7901 H   0  0  0  0  0
    2.2895    1.9852   12.6139 H   0  0  0  0  0
    1.4266   -0.1841   10.7500 H   0  0  0  0  0
    1.4256   -0.9254   13.1044 H   0  0  0  0  0
    0.5219    0.5334   13.5797 H   0  0  0  0  0
   -0.2470   -0.6911   12.5403 H   0  0  0  0  0
   -0.0716    2.2683   11.7593 H   0  0  0  0  0
    0.4753    1.9727   10.0906 H   0  0  0  0  0
   -0.7867    0.9425   10.8097 H   0  0  0  0  0
    4.4779    1.9636   13.2165 H   0  0  0  0  0
    5.5798   -0.8028   13.6414 H   0  0  0  0  0
    7.4875    0.3514   14.6002 H   0  0  0  0  0
    6.6747    1.9005   14.4484 H   0  0  0  0  0
    6.5074    3.0295   12.3625 H   0  0  0  0  0
    7.1494    3.1390    9.9579 H   0  0  0  0  0
    8.1576    1.1520    8.8599 H   0  0  0  0  0
    8.5810   -0.9230   10.1617 H   0  0  0  0  0
    7.9632   -1.0251   12.5600 H   0  0  0  0  0
    7.0822   -1.8597   16.6711 H   0  0  0  0  0
    5.4631   -1.4682   18.2032 H   0  0  0  0  0
    5.6974   -3.6954   17.4050 H   0  0  0  0  0
    4.5377   -2.4382   14.9002 H   0  0  0  0  0
    2.5952   -2.0703   16.1537 H   0  0  0  0  0
    3.3698   -2.5985   17.6608 H   0  0  0  0  0
    2.3895   -3.7578   14.2323 H   0  0  0  0  0
    1.8903   -6.1357   13.6878 H   0  0  0  0  0
    2.2224   -7.9024   15.4098 H   0  0  0  0  0
    3.0128   -7.2652   17.6740 H   0  0  0  0  0
    3.4728   -4.8997   18.2366 H   0  0  0  0  0
    6.8805   -6.8212   15.8963 H   0  0  0  0  0
    7.8660   -4.3032   17.1939 H   0  0  0  0  0
    8.7358   -5.3791   14.5230 H   0  0  0  0  0
    9.9809   -5.4947   17.3196 H   0  0  0  0  0
    9.3289   -6.8894   16.4247 H   0  0  0  0  0
   10.7660   -6.0328   15.8146 H   0  0  0  0  0
    8.8738   -2.9670   14.7051 H   0  0  0  0  0
    9.7699   -3.1191   16.2365 H   0  0  0  0  0
   10.4865   -3.7220   14.7219 H   0  0  0  0  0
    5.1191   -8.1080   16.4216 H   0  0  0  0  0
    6.7307   -8.8650   16.3912 H   0  0  0  0  0
    5.4433   -9.5521   17.4118 H   0  0  0  0  0
    6.7898   -7.7969   20.1543 H   0  0  0  0  0
    6.1597   -9.3425   19.4909 H   0  0  0  0  0
    5.2380   -5.9042   20.6485 H   0  0  0  0  0
    2.9061   -5.3507   21.4120 H   0  0  0  0  0
    1.6705   -9.2368   20.0660 H   0  0  0  0  0
    1.1037   -7.0682   21.0936 H   0  0  0  0  0
  1  2  2  0  0  0
  1  3  1  0  0  0
 12  1  1  0  0  0
  3  4  1  0  0  0
  3  5  1  0  0  0
  5  6  1  0  0  0
  6  7  4  0  0  0
  6  8  4  0  0  0
  7  9  4  0  0  0
  8 10  4  0  0  0
  9 11  4  0  0  0
 10 11  4  0  0  0
 13 12  1  0  0  0
 14 13  1  0  0  0
 13 16  1  0  0  0
 14 15  2  0  0  0
 19 14  1  0  0  0
 16 17  1  0  0  0
 16 18  1  0  0  0
 20 19  1  0  0  0
 20 21  1  0  0  0
 28 20  1  0  0  0
 21 22  1  0  0  0
 22 23  4  0  0  0
 22 27  4  0  0  0
 23 24  4  0  0  0
 24 25  4  0  0  0
 26 25  4  0  0  0
 27 26  4  0  0  0
 28 29  1  0  0  0
 28 30  1  0  0  0
 31 28  1  0  0  0
 31 32  1  0  0  0
 31 33  1  0  0  0
 35 31  1  0  0  0
 35 36  1  0  0  0
 36 37  1  0  0  0
 37 38  4  0  0  0
 37 42  4  0  0  0
 38 39  4  0  0  0
 39 40  4  0  0  0
 41 40  4  0  0  0
 42 41  4  0  0  0
 44 43  1  0  0  0
 43 50  1  0  0  0
 45 44  1  0  0  0
 44 47  1  0  0  0
 45 46  2  0  0  0
 47 48  1  0  0  0
 47 49  1  0  0  0
 50 51  2  0  0  0
 50 52  1  0  0  0
 52 53  1  0  0  0
 52 54  1  0  0  0
 54 55  1  0  0  0
 55 56  4  0  0  0
 55 57  4  0  0  0
 56 58  4  0  0  0
 57 59  4  0  0  0
 58 60  4  0  0  0
 59 60  4  0  0  0
 34 45  1  0  0  0
 35 34  1  0  0  0
  4 61  1  0  0  0
  4 62  1  0  0  0
  4 63  1  0  0  0
  5 64  1  0  0  0
  5 65  1  0  0  0
  7 66  1  0  0  0
  9 67  1  0  0  0
 10 68  1  0  0  0
 11 69  1  0  0  0
 12 70  1  0  0  0
 13 71  1  0  0  0
 16 72  1  0  0  0
 17 73  1  0  0  0
 17 74  1  0  0  0
 17 75  1  0  0  0
 18 76  1  0  0  0
 18 77  1  0  0  0
 18 78  1  0  0  0
 19 79  1  0  0  0
 20 80  1  0  0  0
 21 81  1  0  0  0
 21 82  1  0  0  0
 23 83  1  0  0  0
 24 84  1  0  0  0
 25 85  1  0  0  0
 26 86  1  0  0  0
 27 87  1  0  0  0
 32 88  1  0  0  0
 33 89  1  0  0  0
 34 90  1  0  0  0
 35 91  1  0  0  0
 36 92  1  0  0  0
 36 93  1  0  0  0
 38 94  1  0  0  0
 39 95  1  0  0  0
 40 96  1  0  0  0
 41 97  1  0  0  0
 42 98  1  0  0  0
 43 99  1  0  0  0
 44100  1  0  0  0
 47101  1  0  0  0
 48102  1  0  0  0
 48103  1  0  0  0
 48104  1  0  0  0
 49105  1  0  0  0
 49106  1  0  0  0
 49107  1  0  0  0
 53108  1  0  0  0
 53109  1  0  0  0
 53110  1  0  0  0
 54111  1  0  0  0
 54112  1  0  0  0
 56113  1  0  0  0
 58114  1  0  0  0
 59115  1  0  0  0
 60116  1  0  0  0
M  END
$$$$
