1lkk_ligand
  -I-interpret- 

 85 85  0  0  0  0  0  0  0  0999 V2000
   28.8610   -4.7940   -3.5820 C   0  0  0  0  0
   28.6600   -4.0550   -2.2920 C   0  0  0  0  0
   29.1410   -4.4820   -1.2000 O   0  0  0  0  0
   27.9920   -2.9090   -2.3540 N   0  0  0  0  0
   27.7720   -2.0420   -1.2120 C   0  0  0  0  0
   26.2910   -1.9860   -0.8630 C   0  0  0  0  0
   25.4100   -1.8900   -1.7450 O   0  0  0  0  0
   28.2900   -0.6370   -1.5010 C   0  0  0  0  0
   29.8120   -0.5510   -1.6050 C   0  0  0  0  0
   30.5680   -0.4220   -0.4380 C   0  0  0  0  0
   30.4580   -0.5760   -2.8230 C   0  0  0  0  0
   31.9510   -0.3440   -0.5240 C   0  0  0  0  0
   31.8470   -0.5120   -2.9190 C   0  0  0  0  0
   32.5660   -0.3850   -1.7380 C   0  0  0  0  0
   33.9590   -0.1890   -1.8140 O   0  0  0  0  0
   26.0100   -1.9430    0.4220 N   0  0  0  0  0
   24.7090   -1.5990    0.9540 C   0  0  0  0  0
   24.5340   -0.0730    0.8900 C   0  0  0  0  0
   25.4950    0.6790    0.9110 O   0  0  0  0  0
   24.6070   -2.0780    2.4120 C   0  0  0  0  0
   24.3580   -3.5510    2.5580 C   0  0  0  0  0
   22.9540   -3.9630    2.1470 C   0  0  0  0  0
   21.9780   -3.5060    2.8140 O   0  0  0  0  0
   22.8010   -4.5810    1.0880 O   0  0  0  0  0
   23.2600    0.3060    0.8790 N   0  0  0  0  0
   22.8070    1.6850    0.9550 C   0  0  0  0  0
   21.9240    1.8330    2.2120 C   0  0  0  0  0
   21.1770    0.9190    2.5730 O   0  0  0  0  0
   21.9690    2.0440   -0.2740 C   0  0  0  0  0
   22.6690    1.9710   -1.5960 C   0  0  0  0  0
   23.5940    3.1020   -1.9320 C   0  0  0  0  0
   23.8730    3.9610   -1.0750 O   0  0  0  0  0
   24.0760    3.1340   -3.0930 O   0  0  0  0  0
   21.9430    3.0130    2.8020 N   0  0  0  0  0
   20.8590    3.3710    3.7270 C   0  0  0  0  0
   19.5540    3.5240    2.9430 C   0  0  0  0  0
   19.5830    4.1690    1.8700 O   0  0  0  0  0
   21.2430    4.6690    4.4870 C   0  0  0  0  0
   22.3670    4.3990    5.4700 C   0  0  0  0  0
   20.0300    5.2890    5.1220 C   0  0  0  0  0
   22.8740    5.5610    6.2660 C   0  0  0  0  0
   18.5250    2.9450    3.3970 O   0  0  0  0  0
   35.0610   -1.3700   -1.5240 P   0  0  0  0  0
   35.5390   -1.8270   -2.8860 O   0  0  0  0  0
   34.3780   -2.4450   -0.7200 O   0  0  0  0  0
   36.1530   -0.5940   -0.7600 O   0  0  0  0  0
   29.9276   -4.8697   -3.7935 H   0  0  0  0  0
   28.4344   -5.7934   -3.4970 H   0  0  0  0  0
   28.3666   -4.2540   -4.3895 H   0  0  0  0  0
   27.6119   -2.6220   -3.2560 H   0  0  0  0  0
   28.3189   -2.4514   -0.3627 H   0  0  0  0  0
   27.9842   -0.0003   -0.6708 H   0  0  0  0  0
   27.8803   -0.3308   -2.4636 H   0  0  0  0  0
   30.0754   -0.3828    0.5336 H   0  0  0  0  0
   29.8663   -0.6478   -3.7356 H   0  0  0  0  0
   32.5470   -0.2496    0.3837 H   0  0  0  0  0
   32.3499   -0.5598   -3.8849 H   0  0  0  0  0
   26.7543   -2.1656    1.0829 H   0  0  0  0  0
   23.9268   -2.0815    0.3679 H   0  0  0  0  0
   23.7591   -1.5617    2.8622 H   0  0  0  0  0
   25.5634   -1.8641    2.8891 H   0  0  0  0  0
   24.4824   -3.8048    3.6107 H   0  0  0  0  0
   25.0597   -4.0714    1.9061 H   0  0  0  0  0
   22.3080   -3.0619    3.5985 H   0  0  0  0  0
   22.5496   -0.4229    0.8125 H   0  0  0  0  0
   23.6720    2.3468    0.9988 H   0  0  0  0  0
   21.6698    3.0842   -0.1451 H   0  0  0  0  0
   21.1618    1.3127   -0.3162 H   0  0  0  0  0
   21.8844    1.9902   -2.3524 H   0  0  0  0  0
   23.2905    1.0764   -1.5574 H   0  0  0  0  0
   23.7405    2.3898   -3.5982 H   0  0  0  0  0
   22.7018    3.6694    2.6180 H   0  0  0  0  0
   20.7090    2.5852    4.4673 H   0  0  0  0  0
   21.6259    5.4032    3.7782 H   0  0  0  0  0
   23.2112    4.0615    4.8687 H   0  0  0  0  0
   21.9611    3.6964    6.1978 H   0  0  0  0  0
   19.3019    5.5342    4.3488 H   0  0  0  0  0
   19.5898    4.5836    5.8268 H   0  0  0  0  0
   20.3217    6.1973    5.6493 H   0  0  0  0  0
   23.2561    6.3247    5.5886 H   0  0  0  0  0
   22.0598    5.9754    6.8606 H   0  0  0  0  0
   23.6739    5.2261    6.9263 H   0  0  0  0  0
   18.7409    2.5168    4.2287 H   0  0  0  0  0
   35.9617   -1.0933   -3.3383 H   0  0  0  0  0
   36.5372    0.0688   -1.3386 H   0  0  0  0  0
  2  3  2  0  0  0
  5  6  1  0  0  0
  8  5  1  0  0  0
  5  4  1  0  0  0
  9  8  1  0  0  0
 11  9  4  0  0  0
 10  9  4  0  0  0
 12 10  4  0  0  0
 14 12  4  0  0  0
 15 14  1  0  0  0
 14 13  4  0  0  0
 13 11  4  0  0  0
  6  7  2  0  0  0
 17 18  1  0  0  0
 17 20  1  0  0  0
 16 17  1  0  0  0
 20 21  1  0  0  0
 21 22  1  0  0  0
 22 23  1  0  0  0
 22 24  2  0  0  0
 18 19  2  0  0  0
 26 27  1  0  0  0
 26 29  1  0  0  0
 25 26  1  0  0  0
 29 30  1  0  0  0
 30 31  1  0  0  0
 31 32  2  0  0  0
 31 33  1  0  0  0
 27 28  2  0  0  0
 35 36  1  0  0  0
 35 38  1  0  0  0
 34 35  1  0  0  0
 38 39  1  0  0  0
 38 40  1  0  0  0
 39 41  1  0  0  0
 36 42  1  0  0  0
 36 37  2  0  0  0
 43 46  1  0  0  0
 43 45  2  0  0  0
 43 44  1  0  0  0
  4  2  1  0  0  0
  6 16  1  0  0  0
 18 25  1  0  0  0
 27 34  1  0  0  0
 15 43  1  0  0  0
  2  1  1  0  0  0
  1 47  1  0  0  0
  1 48  1  0  0  0
  1 49  1  0  0  0
  4 50  1  0  0  0
  5 51  1  0  0  0
  8 52  1  0  0  0
  8 53  1  0  0  0
 10 54  1  0  0  0
 11 55  1  0  0  0
 12 56  1  0  0  0
 13 57  1  0  0  0
 16 58  1  0  0  0
 17 59  1  0  0  0
 20 60  1  0  0  0
 20 61  1  0  0  0
 21 62  1  0  0  0
 21 63  1  0  0  0
 23 64  1  0  0  0
 25 65  1  0  0  0
 26 66  1  0  0  0
 29 67  1  0  0  0
 29 68  1  0  0  0
 30 69  1  0  0  0
 30 70  1  0  0  0
 33 71  1  0  0  0
 34 72  1  0  0  0
 35 73  1  0  0  0
 38 74  1  0  0  0
 39 75  1  0  0  0
 39 76  1  0  0  0
 40 77  1  0  0  0
 40 78  1  0  0  0
 40 79  1  0  0  0
 41 80  1  0  0  0
 41 81  1  0  0  0
 41 82  1  0  0  0
 42 83  1  0  0  0
 44 84  1  0  0  0
 46 85  1  0  0  0
M  END
$$$$
