1awh_ligand
  -I-interpret- 

 87 90  0  0  0  0  0  0  0  0999 V2000
   13.4620   15.2010   57.9020 C   0  0  0  0  0
   13.4510   16.6200   58.4750 C   0  0  0  0  0
   14.5220   17.4680   57.7920 C   0  0  0  0  0
   14.2290   17.5900   56.3090 C   0  0  0  0  0
   14.1060   16.1790   55.6490 C   0  0  0  0  0
   13.7960   16.2010   54.1200 C   0  0  0  0  0
   13.4480   14.8240   53.5690 C   0  0  0  0  0
   13.3680   13.7170   54.3310 C   0  0  0  0  0
   13.5750   13.7490   55.8340 C   0  0  0  0  0
   13.1840   15.1590   56.3960 C   0  0  0  0  0
   12.8570   12.6320   56.5380 C   0  0  0  0  0
   13.0650   11.2580   55.9270 C   0  0  0  0  0
   13.6040   11.2520   54.5020 C   0  0  0  0  0
   12.9860   12.4150   53.7350 C   0  0  0  0  0
   13.3400   12.0780   52.2850 C   0  0  0  0  0
   13.3560   10.5170   52.1870 C   0  0  0  0  0
   13.1510   10.0300   53.6440 C   0  0  0  0  0
   15.1410   11.2730   54.5250 C   0  0  0  0  0
   11.6820   15.4750   56.1700 C   0  0  0  0  0
   13.3980    8.1220   55.3090 C   0  0  0  0  0
   14.5620    7.8370   56.1970 C   0  0  0  0  0
   14.3200    7.1540   57.4930 C   0  0  0  0  0
   15.2110    7.0180   58.5000 C   0  0  0  0  0
   14.8330    6.2020   59.7040 C   0  0  0  0  0
   16.5760    7.6740   58.5800 C   0  0  0  0  0
   11.4600   12.5030   53.7530 C   0  0  0  0  0
   15.3810   18.3820   55.6660 C   0  0  0  0  0
   12.9770   18.4870   56.0900 C   0  0  0  0  0
   16.3710   18.6630   56.2900 O   0  0  0  0  0
   12.4090    9.9840   51.2330 O   0  0  0  0  0
   14.3870    6.8990   52.5330 O   0  0  0  0  0
   15.2220   18.8700   54.5600 O   0  0  0  0  0
   15.6880    8.1390   55.8640 O   0  0  0  0  0
   15.8130   16.8310   58.0270 O   0  0  0  0  0
   16.7740   17.3130   58.8890 C   0  0  0  0  0
   16.4870   18.7120   59.4380 C   0  0  0  0  0
   17.7800   16.7190   59.2940 O   0  0  0  0  0
   13.8230    8.6950   53.9550 C   0  0  0  0  0
   13.4980    7.5390   53.0590 C   0  0  0  0  0
   12.6739   14.6364   58.4002 H   0  0  0  0  0
   14.4558   14.7848   58.0672 H   0  0  0  0  0
   13.6566   16.5763   59.5445 H   0  0  0  0  0
   12.4732   17.0692   58.3010 H   0  0  0  0  0
   14.5324   18.4781   58.2015 H   0  0  0  0  0
   15.1213   15.7993   55.7638 H   0  0  0  0  0
   14.6893   16.5517   53.6031 H   0  0  0  0  0
   12.9352   16.8509   53.9630 H   0  0  0  0  0
   13.2534   14.7300   52.5006 H   0  0  0  0  0
   14.6335   13.5832   56.0344 H   0  0  0  0  0
   11.7910   12.8497   56.4726 H   0  0  0  0  0
   13.2530   12.5907   57.5527 H   0  0  0  0  0
   12.0854   10.7814   55.8915 H   0  0  0  0  0
   13.8084   10.7523   56.5433 H   0  0  0  0  0
   14.3079   12.4975   52.0106 H   0  0  0  0  0
   12.6131   12.5062   51.5948 H   0  0  0  0  0
   14.2972   10.1450   51.7821 H   0  0  0  0  0
   12.1180    9.7631   53.8673 H   0  0  0  0  0
   15.4832   12.1729   55.0361 H   0  0  0  0  0
   15.5073   10.3924   55.0527 H   0  0  0  0  0
   15.5185   11.2686   53.5025 H   0  0  0  0  0
   11.4657   15.4604   55.1018 H   0  0  0  0  0
   11.0741   14.7246   56.6754 H   0  0  0  0  0
   11.4546   16.4613   56.5746 H   0  0  0  0  0
   12.7686    8.8608   55.8051 H   0  0  0  0  0
   12.8741    7.1834   55.1283 H   0  0  0  0  0
   13.3312    6.7219   57.6466 H   0  0  0  0  0
   13.9523    6.6384   60.1752 H   0  0  0  0  0
   14.6123    5.1805   59.3943 H   0  0  0  0  0
   15.6611    6.1973   60.4127 H   0  0  0  0  0
   17.1808    7.3561   57.7308 H   0  0  0  0  0
   16.4588    8.7575   58.5589 H   0  0  0  0  0
   17.0660    7.3783   59.5077 H   0  0  0  0  0
   11.1164   12.6233   54.7804 H   0  0  0  0  0
   11.1397   13.3588   53.1588 H   0  0  0  0  0
   11.0397   11.5894   53.3326 H   0  0  0  0  0
   13.1322   19.4502   56.5762 H   0  0  0  0  0
   12.8225   18.6385   55.0217 H   0  0  0  0  0
   12.1022   17.9986   56.5192 H   0  0  0  0  0
   12.4710    9.0261   51.2233 H   0  0  0  0  0
   14.0033    6.2009   51.9972 H   0  0  0  0  0
   14.3945   18.5555   54.1887 H   0  0  0  0  0
   16.3650   18.6584   60.5198 H   0  0  0  0  0
   17.3195   19.3732   59.1973 H   0  0  0  0  0
   15.5728   19.0976   58.9866 H   0  0  0  0  0
   14.8660    8.9979   53.8624 H   0  0  0  0  0
   13.0019    6.8225   53.7137 H   0  0  0  0  0
   12.9602    7.9886   52.2243 H   0  0  0  0  0
  1  2  1  0  0  0
 10  1  1  0  0  0
  2  3  1  0  0  0
  4  3  1  0  0  0
  3 34  1  0  0  0
  5  4  1  0  0  0
  4 27  1  0  0  0
  4 28  1  0  0  0
  6  5  1  0  0  0
 10  5  1  0  0  0
  7  6  1  0  0  0
  8  7  2  0  0  0
  8  9  1  0  0  0
 14  8  1  0  0  0
  9 10  1  0  0  0
 11  9  1  0  0  0
 10 19  1  0  0  0
 12 11  1  0  0  0
 13 12  1  0  0  0
 13 14  1  0  0  0
 17 13  1  0  0  0
 13 18  1  0  0  0
 15 14  1  0  0  0
 14 26  1  0  0  0
 16 15  1  0  0  0
 17 16  1  0  0  0
 16 30  1  0  0  0
 38 17  1  0  0  0
 20 21  1  0  0  0
 38 20  1  0  0  0
 21 22  1  0  0  0
 21 33  2  0  0  0
 22 23  2  0  0  0
 23 24  1  0  0  0
 23 25  1  0  0  0
 27 29  2  0  0  0
 27 32  1  0  0  0
 39 31  1  0  0  0
 34 35  1  0  0  0
 35 36  1  0  0  0
 35 37  2  0  0  0
 38 39  1  0  0  0
  1 40  1  0  0  0
  1 41  1  0  0  0
  2 42  1  0  0  0
  2 43  1  0  0  0
  3 44  1  0  0  0
  5 45  1  0  0  0
  6 46  1  0  0  0
  6 47  1  0  0  0
  7 48  1  0  0  0
  9 49  1  0  0  0
 11 50  1  0  0  0
 11 51  1  0  0  0
 12 52  1  0  0  0
 12 53  1  0  0  0
 15 54  1  0  0  0
 15 55  1  0  0  0
 16 56  1  0  0  0
 17 57  1  0  0  0
 18 58  1  0  0  0
 18 59  1  0  0  0
 18 60  1  0  0  0
 19 61  1  0  0  0
 19 62  1  0  0  0
 19 63  1  0  0  0
 20 64  1  0  0  0
 20 65  1  0  0  0
 22 66  1  0  0  0
 24 67  1  0  0  0
 24 68  1  0  0  0
 24 69  1  0  0  0
 25 70  1  0  0  0
 25 71  1  0  0  0
 25 72  1  0  0  0
 26 73  1  0  0  0
 26 74  1  0  0  0
 26 75  1  0  0  0
 28 76  1  0  0  0
 28 77  1  0  0  0
 28 78  1  0  0  0
 30 79  1  0  0  0
 31 80  1  0  0  0
 32 81  1  0  0  0
 36 82  1  0  0  0
 36 83  1  0  0  0
 36 84  1  0  0  0
 38 85  1  0  0  0
 39 86  1  0  0  0
 39 87  1  0  0  0
M  END
$$$$
