6g98_ligand
  -I-interpret- 

 73 75  0  0  0  0  0  0  0  0999 V2000
   17.2200  -24.1490  -52.7820 F   0  0  0  0  0
   18.1460  -23.4840  -53.4630 C   0  0  0  0  0
   19.4510  -23.2740  -52.8190 C   0  0  0  0  0
   19.8150  -23.9210  -51.3120 S   0  0  0  0  0
   20.7940  -25.3730  -51.7200 C   0  0  0  0  0
   20.1280  -26.5420  -52.4920 C   0  0  0  0  0
   19.2430  -27.3390  -51.5600 C   0  0  0  0  0
   19.8230  -28.1320  -50.5680 C   0  0  0  0  0
   19.0030  -28.8360  -49.6790 C   0  0  0  0  0
   17.6020  -28.7620  -49.7920 C   0  0  0  0  0
   16.7380  -29.4910  -48.8010 C   0  0  0  0  0
   15.5240  -29.2810  -48.7240 O   0  0  0  0  0
   17.3190  -30.2980  -47.9200 O   0  0  0  0  0
   17.0210  -27.9530  -50.7850 C   0  0  0  0  0
   17.8420  -27.2500  -51.6660 C   0  0  0  0  0
   20.5030  -22.5410  -53.5180 C   0  0  0  0  0
   21.6970  -22.3650  -52.9420 F   0  0  0  0  0
   20.2350  -21.9930  -54.8450 C   0  0  0  0  0
   21.2470  -21.3460  -55.4040 F   0  0  0  0  0
   17.8510  -22.9220  -54.7990 C   0  0  0  0  0
   18.9260  -22.1730  -55.5270 C   0  0  0  0  0
   18.7590  -21.5350  -57.0110 S   0  0  0  0  0
   17.4050  -21.5050  -57.4840 O   0  0  0  0  0
   19.3030  -20.0260  -56.9780 N   0  0  0  0  0
   19.5370  -22.3370  -57.9340 O   0  0  0  0  0
   16.6990  -23.2100  -55.4320 N   0  0  0  0  0
   16.0680  -24.5340  -55.3290 C   0  0  0  0  0
   14.5300  -24.4750  -55.3410 C   0  0  0  0  0
   13.6890  -24.8790  -56.5540 C   0  0  0  0  0
   13.0490  -26.2660  -56.4700 C   0  0  0  0  0
   13.9350  -27.4200  -56.9290 C   0  0  0  0  0
   14.2380  -27.3680  -58.4210 C   0  0  0  0  0
   15.2840  -28.4180  -58.7970 C   0  0  0  0  0
   16.7150  -27.8970  -58.7560 C   0  0  0  0  0
   17.4890  -28.3320  -57.5140 C   0  0  0  0  0
   18.3590  -27.2040  -56.9690 C   0  0  0  0  0
   17.6260  -26.4340  -55.8760 C   0  0  0  0  0
   16.7380  -25.3430  -56.4510 C   0  0  0  0  0
   21.0761  -25.7991  -50.7572 H   0  0  0  0  0
   21.5734  -25.0057  -52.3876 H   0  0  0  0  0
   20.9033  -27.1935  -52.8951 H   0  0  0  0  0
   19.5226  -26.1375  -53.3031 H   0  0  0  0  0
   20.9077  -28.2023  -50.4865 H   0  0  0  0  0
   19.4519  -29.4452  -48.8945 H   0  0  0  0  0
   18.2575  -30.3577  -48.1128 H   0  0  0  0  0
   15.9367  -27.8761  -50.8653 H   0  0  0  0  0
   17.3961  -26.6275  -52.4418 H   0  0  0  0  0
   18.6965  -19.2588  -57.2677 H   0  0  0  0  0
   20.2553  -19.8339  -56.6673 H   0  0  0  0  0
   16.2512  -22.4899  -55.9989 H   0  0  0  0  0
   16.2275  -25.0243  -54.3687 H   0  0  0  0  0
   14.3220  -23.4099  -55.2388 H   0  0  0  0  0
   14.2478  -25.2105  -54.5877 H   0  0  0  0  0
   14.3631  -24.8967  -57.4103 H   0  0  0  0  0
   12.8718  -24.1608  -56.6215 H   0  0  0  0  0
   12.1846  -26.2522  -57.1339 H   0  0  0  0  0
   12.8243  -26.4435  -55.4183 H   0  0  0  0  0
   13.4053  -28.3508  -56.7265 H   0  0  0  0  0
   14.8810  -27.3509  -56.3919 H   0  0  0  0  0
   14.6263  -26.3798  -58.6675 H   0  0  0  0  0
   13.3208  -27.5705  -58.9741 H   0  0  0  0  0
   15.0795  -28.7303  -59.8211 H   0  0  0  0  0
   15.2102  -29.2270  -58.0703 H   0  0  0  0  0
   16.6660  -26.8082  -58.7456 H   0  0  0  0  0
   17.2352  -28.3025  -59.6238 H   0  0  0  0  0
   18.1371  -29.1649  -57.7869 H   0  0  0  0  0
   16.7718  -28.6158  -56.7438 H   0  0  0  0  0
   18.5962  -26.5187  -57.7828 H   0  0  0  0  0
   19.2676  -27.6336  -56.5471 H   0  0  0  0  0
   18.3689  -25.9656  -55.2304 H   0  0  0  0  0
   16.9960  -27.1344  -55.3278 H   0  0  0  0  0
   17.3520  -24.6703  -57.0499 H   0  0  0  0  0
   15.9623  -25.8069  -57.0602 H   0  0  0  0  0
  1  2  1  0  0  0
  2  3  4  0  0  0
  2 20  4  0  0  0
  3  4  1  0  0  0
  3 16  4  0  0  0
  4  5  1  0  0  0
  5  6  1  0  0  0
  6  7  1  0  0  0
  7  8  4  0  0  0
  7 15  4  0  0  0
  8  9  4  0  0  0
  9 10  4  0  0  0
 10 11  1  0  0  0
 10 14  4  0  0  0
 11 12  2  0  0  0
 11 13  1  0  0  0
 14 15  4  0  0  0
 16 17  1  0  0  0
 16 18  4  0  0  0
 18 19  1  0  0  0
 18 21  4  0  0  0
 20 21  4  0  0  0
 20 26  1  0  0  0
 21 22  1  0  0  0
 22 23  2  0  0  0
 22 24  1  0  0  0
 22 25  2  0  0  0
 26 27  1  0  0  0
 27 28  1  0  0  0
 27 38  1  0  0  0
 28 29  1  0  0  0
 29 30  1  0  0  0
 30 31  1  0  0  0
 31 32  1  0  0  0
 32 33  1  0  0  0
 33 34  1  0  0  0
 34 35  1  0  0  0
 35 36  1  0  0  0
 36 37  1  0  0  0
 37 38  1  0  0  0
  5 39  1  0  0  0
  5 40  1  0  0  0
  6 41  1  0  0  0
  6 42  1  0  0  0
  8 43  1  0  0  0
  9 44  1  0  0  0
 13 45  1  0  0  0
 14 46  1  0  0  0
 15 47  1  0  0  0
 24 48  1  0  0  0
 24 49  1  0  0  0
 26 50  1  0  0  0
 27 51  1  0  0  0
 28 52  1  0  0  0
 28 53  1  0  0  0
 29 54  1  0  0  0
 29 55  1  0  0  0
 30 56  1  0  0  0
 30 57  1  0  0  0
 31 58  1  0  0  0
 31 59  1  0  0  0
 32 60  1  0  0  0
 32 61  1  0  0  0
 33 62  1  0  0  0
 33 63  1  0  0  0
 34 64  1  0  0  0
 34 65  1  0  0  0
 35 66  1  0  0  0
 35 67  1  0  0  0
 36 68  1  0  0  0
 36 69  1  0  0  0
 37 70  1  0  0  0
 37 71  1  0  0  0
 38 72  1  0  0  0
 38 73  1  0  0  0
M  END
$$$$
