5jf7_ligand
  -I-interpret- 

 24 25  0  0  0  0  0  0  0  0999 V2000
   -6.2410    1.4210   11.1870 C   0  0  0  0  0
   -6.2240    0.6880   12.3230 C   0  0  0  0  0
   -6.5150    0.5500   10.1050 C   0  0  0  0  0
   -6.6550    0.7090    8.7100 C   0  0  0  0  0
   -6.9670   -0.4030    7.8950 C   0  0  0  0  0
   -7.1530   -0.2240    5.9770 Br  0  0  0  0  0
   -7.1370   -1.6810    8.4600 C   0  0  0  0  0
   -7.0010   -1.8480    9.8430 C   0  0  0  0  0
   -6.6840   -0.7320   10.6580 C   0  0  0  0  0
   -6.5010   -0.5970   11.9820 N   0  0  0  0  0
   -6.6050   -1.7640   12.9040 C   0  0  0  0  0
   -5.3210   -2.6430   12.7690 C   0  0  0  0  0
   -4.2950   -2.3320   13.3790 O   0  0  0  0  0
   -5.4370   -3.7310   11.9740 N   0  0  0  0  0
   -4.4100   -4.5830   11.7420 O   0  0  0  0  0
   -6.0730    2.4957   11.1165 H   0  0  0  0  0
   -6.0246    1.0601   13.3279 H   0  0  0  0  0
   -6.5221    1.6925    8.2593 H   0  0  0  0  0
   -7.3730   -2.5348    7.8248 H   0  0  0  0  0
   -7.1382   -2.8319   10.2916 H   0  0  0  0  0
   -7.4824   -2.3568   12.6454 H   0  0  0  0  0
   -6.6997   -1.4110   13.9309 H   0  0  0  0  0
   -6.3362   -3.9179   11.5303 H   0  0  0  0  0
   -4.7031   -5.2831   11.1541 H   0  0  0  0  0
  1  2  4  0  0  0
  1  3  4  0  0  0
  2 10  4  0  0  0
  3  4  4  0  0  0
  3  9  4  0  0  0
  4  5  4  0  0  0
  5  6  1  0  0  0
  5  7  4  0  0  0
  7  8  4  0  0  0
  8  9  4  0  0  0
  9 10  4  0  0  0
 10 11  1  0  0  0
 11 12  1  0  0  0
 12 13  2  0  0  0
 12 14  1  0  0  0
 14 15  1  0  0  0
  1 16  1  0  0  0
  2 17  1  0  0  0
  4 18  1  0  0  0
  7 19  1  0  0  0
  8 20  1  0  0  0
 11 21  1  0  0  0
 11 22  1  0  0  0
 14 23  1  0  0  0
 15 24  1  0  0  0
M  END
$$$$
