3bxg_ligand
  -I-interpret- 

 29 29  0  0  0  0  0  0  0  0999 V2000
   68.7950   84.7340   60.6060 C   0  0  0  0  0
   68.0100   85.4190   61.7310 C   0  0  0  0  0
   68.1560   84.8970   59.3530 O   0  0  0  0  0
   69.0460   83.3600   60.9700 O   0  0  0  0  0
   68.9700   85.5970   62.9110 C   0  0  0  0  0
   67.4420   86.6780   61.3140 O   0  0  0  0  0
   69.7480   84.2630   63.1350 C   0  0  0  0  0
   68.1700   85.9160   64.1050 O   0  0  0  0  0
   70.1130   83.3610   61.9260 C   0  0  0  0  0
   70.9670   84.5370   63.8340 O   0  0  0  0  0
   70.4700   81.9430   62.4000 C   0  0  0  0  0
   70.5590   80.9820   61.3250 O   0  0  0  0  0
   70.6440   79.3970   61.5930 P   0  0  0  0  0
   70.4280   78.8050   60.2150 O   0  0  0  0  0
   72.0320   79.1270   62.1250 O   0  0  0  0  0
   69.5120   79.0800   62.5640 O   0  0  0  0  0
   69.7658   85.2137   60.4818 H   0  0  0  0  0
   67.1599   84.8005   62.0188 H   0  0  0  0  0
   68.0237   85.8323   59.1818 H   0  0  0  0  0
   69.6830   86.3979   62.7155 H   0  0  0  0  0
   66.8471   86.5303   60.5751 H   0  0  0  0  0
   69.0082   83.6780   63.6814 H   0  0  0  0  0
   67.6945   86.7373   63.9601 H   0  0  0  0  0
   70.9957   83.7647   61.4301 H   0  0  0  0  0
   70.7811   85.0954   64.5924 H   0  0  0  0  0
   69.6770   81.6122   63.0707 H   0  0  0  0  0
   71.4490   81.9934   62.8765 H   0  0  0  0  0
   69.5359   79.0014   59.9198 H   0  0  0  0  0
   68.6700   79.2794   62.1482 H   0  0  0  0  0
  1  2  1  0  0  0
  1  3  1  0  0  0
  1  4  1  0  0  0
  2  5  1  0  0  0
  2  6  1  0  0  0
  4  9  1  0  0  0
  5  7  1  0  0  0
  5  8  1  0  0  0
  7  9  1  0  0  0
  7 10  1  0  0  0
  9 11  1  0  0  0
 11 12  1  0  0  0
 12 13  1  0  0  0
 13 14  1  0  0  0
 13 15  2  0  0  0
 13 16  1  0  0  0
  1 17  1  0  0  0
  2 18  1  0  0  0
  3 19  1  0  0  0
  5 20  1  0  0  0
  6 21  1  0  0  0
  7 22  1  0  0  0
  8 23  1  0  0  0
  9 24  1  0  0  0
 10 25  1  0  0  0
 11 26  1  0  0  0
 11 27  1  0  0  0
 14 28  1  0  0  0
 16 29  1  0  0  0
M  END
$$$$
