4dve_ligand
  -I-interpret- 

 32 33  0  0  0  0  0  0  0  0999 V2000
   45.3660  -46.2240   63.2600 C   0  0  0  0  0
   45.2590  -45.0340   62.8850 O   0  0  0  0  0
   45.9500  -47.0480   62.5420 O   0  0  0  0  0
   44.7640  -46.6990   64.5960 C   0  0  0  0  0
   45.6590  -46.4040   65.8020 C   0  0  0  0  0
   45.0270  -46.9660   67.0970 C   0  0  0  0  0
   45.7390  -46.4230   68.3460 C   0  0  0  0  0
   45.1230  -46.9240   69.6400 C   0  0  0  0  0
   43.4690  -46.2490   69.8720 S   0  0  0  0  0
   43.5130  -46.6550   71.6040 C   0  0  0  0  0
   44.9700  -46.4720   72.0970 C   0  0  0  0  0
   45.1850  -45.1340   72.5840 N   0  0  0  0  0
   46.0450  -44.4420   71.8420 C   0  0  0  0  0
   46.4030  -43.2820   72.0520 O   0  0  0  0  0
   46.4670  -45.2340   70.8410 N   0  0  0  0  0
   45.9090  -46.5620   70.8930 C   0  0  0  0  0
   44.7839  -44.5313   63.5508 H   0  0  0  0  0
   44.6389  -47.7801   64.5352 H   0  0  0  0  0
   43.8258  -46.1641   64.7433 H   0  0  0  0  0
   45.7722  -45.3246   65.9030 H   0  0  0  0  0
   46.6286  -46.8772   65.6472 H   0  0  0  0  0
   45.1226  -48.0518   67.0872 H   0  0  0  0  0
   43.9811  -46.6614   67.1335 H   0  0  0  0  0
   45.6516  -45.3366   68.3338 H   0  0  0  0  0
   46.7736  -46.7646   68.3150 H   0  0  0  0  0
   45.1187  -48.0080   69.5258 H   0  0  0  0  0
   43.1874  -47.6835   71.7597 H   0  0  0  0  0
   42.8403  -46.0039   72.1623 H   0  0  0  0  0
   45.1476  -47.2249   72.8650 H   0  0  0  0  0
   44.7253  -44.7560   73.4124 H   0  0  0  0  0
   47.1167  -44.9261   70.1175 H   0  0  0  0  0
   46.6782  -47.3307   70.9673 H   0  0  0  0  0
  1  2  1  0  0  0
  1  3  2  0  0  0
  1  4  1  0  0  0
  4  5  1  0  0  0
  5  6  1  0  0  0
  6  7  1  0  0  0
  7  8  1  0  0  0
  8  9  1  0  0  0
  8 16  1  0  0  0
  9 10  1  0  0  0
 10 11  1  0  0  0
 11 12  1  0  0  0
 11 16  1  0  0  0
 12 13  1  0  0  0
 13 14  2  0  0  0
 13 15  1  0  0  0
 15 16  1  0  0  0
  2 17  1  0  0  0
  4 18  1  0  0  0
  4 19  1  0  0  0
  5 20  1  0  0  0
  5 21  1  0  0  0
  6 22  1  0  0  0
  6 23  1  0  0  0
  7 24  1  0  0  0
  7 25  1  0  0  0
  8 26  1  0  0  0
 10 27  1  0  0  0
 10 28  1  0  0  0
 11 29  1  0  0  0
 12 30  1  0  0  0
 15 31  1  0  0  0
 16 32  1  0  0  0
M  END
$$$$
