4zz1_ligand
  -I-interpret- 

 50 52  0  0  0  0  0  0  0  0999 V2000
   25.6520  -10.8740  -23.8710 N   0  0  0  0  0
   24.5820  -11.0170  -24.6440 C   0  0  0  0  0
   23.9470  -12.1960  -24.7730 N   0  0  0  0  0
   24.3830  -13.3070  -24.1400 C   0  0  0  0  0
   27.2010  -12.0270  -22.3820 N   0  0  0  0  0
   27.3310  -13.2700  -21.9270 C   0  0  0  0  0
   26.3090  -14.0720  -22.4850 C   0  0  0  0  0
   25.5360  -13.2000  -23.3040 C   0  0  0  0  0
   26.1590  -11.9320  -23.1960 C   0  0  0  0  0
   23.8010  -14.3860  -24.2700 O   0  0  0  0  0
   24.0790   -9.9060  -25.3250 N   0  0  0  0  0
   26.1330  -11.4310  -17.5810 C   0  0  0  0  0
   25.4000  -10.9250  -16.5390 C   0  0  0  0  0
   24.2060  -12.0790  -16.1900 S   0  0  0  0  0
   24.6630  -13.2210  -17.3810 C   0  0  0  0  0
   25.7420  -12.7070  -18.0570 C   0  0  0  0  0
   25.5640   -9.6680  -15.8570 C   0  0  0  0  0
   24.6730   -9.2630  -15.0880 O   0  0  0  0  0
   26.7560   -8.9200  -16.0900 N   0  0  0  0  0
   26.9240   -7.6640  -15.4220 C   0  0  0  0  0
   28.1350   -7.7210  -14.5710 C   0  0  0  0  0
   27.8740   -8.5250  -13.3050 C   0  0  0  0  0
   29.1800   -8.9830  -12.6130 C   0  0  0  0  0
   29.2340  -10.1280  -12.0330 O   0  0  0  0  0
   30.2290   -8.2000  -12.6180 O   0  0  0  0  0
   27.0690   -6.5900  -16.5010 C   0  0  0  0  0
   26.6820   -5.3740  -16.2540 O   0  0  0  0  0
   27.5590   -6.8950  -17.6480 O   0  0  0  0  0
   28.4160  -13.6830  -20.9080 C   0  0  0  0  0
   27.9070  -13.1030  -19.5180 C   0  0  0  0  0
   26.4250  -13.4230  -19.2260 C   0  0  0  0  0
   26.0955   -9.9595  -23.7851 H   0  0  0  0  0
   26.1463  -15.1374  -22.3221 H   0  0  0  0  0
   23.2458   -9.9982  -25.9061 H   0  0  0  0  0
   26.9681  -10.8835  -18.0180 H   0  0  0  0  0
   24.1841  -14.1820  -17.5686 H   0  0  0  0  0
   27.4756   -9.2730  -16.7208 H   0  0  0  0  0
   26.0719   -7.4357  -14.7818 H   0  0  0  0  0
   28.4129   -6.7053  -14.2894 H   0  0  0  0  0
   28.9351   -8.2029  -15.1328 H   0  0  0  0  0
   27.3108   -9.4159  -13.5829 H   0  0  0  0  0
   27.3303   -7.8872  -12.6081 H   0  0  0  0  0
   30.0203   -7.3903  -13.0896 H   0  0  0  0  0
   26.3445   -5.3228  -15.3567 H   0  0  0  0  0
   29.3967  -13.2909  -21.1773 H   0  0  0  0  0
   28.5498  -14.7642  -20.8727 H   0  0  0  0  0
   28.0073  -12.0184  -19.5580 H   0  0  0  0  0
   28.5040  -13.5641  -18.7311 H   0  0  0  0  0
   25.8825  -13.1008  -20.1148 H   0  0  0  0  0
   26.4074  -14.4807  -18.9630 H   0  0  0  0  0
  1  2  1  0  0  0
  9  1  1  0  0  0
  3  2  4  0  0  0
  2 11  2  0  0  0
  4  3  1  0  0  0
  8  4  1  0  0  0
  4 10  2  0  0  0
  6  5  4  0  0  0
  5  9  4  0  0  0
  6  7  4  0  0  0
 29  6  1  0  0  0
  7  8  4  0  0  0
  8  9  4  0  0  0
 12 13  4  0  0  0
 16 12  4  0  0  0
 14 13  4  0  0  0
 13 17  1  0  0  0
 15 14  4  0  0  0
 16 15  4  0  0  0
 31 16  1  0  0  0
 17 18  2  0  0  0
 17 19  1  0  0  0
 19 20  1  0  0  0
 20 21  1  0  0  0
 20 26  1  0  0  0
 21 22  1  0  0  0
 22 23  1  0  0  0
 23 24  2  0  0  0
 23 25  1  0  0  0
 26 27  1  0  0  0
 26 28  2  0  0  0
 30 29  1  0  0  0
 30 31  1  0  0  0
  1 32  1  0  0  0
  7 33  1  0  0  0
 11 34  1  0  0  0
 12 35  1  0  0  0
 15 36  1  0  0  0
 19 37  1  0  0  0
 20 38  1  0  0  0
 21 39  1  0  0  0
 21 40  1  0  0  0
 22 41  1  0  0  0
 22 42  1  0  0  0
 25 43  1  0  0  0
 27 44  1  0  0  0
 29 45  1  0  0  0
 29 46  1  0  0  0
 30 47  1  0  0  0
 30 48  1  0  0  0
 31 49  1  0  0  0
 31 50  1  0  0  0
M  END
$$$$
