5nzn_ligand
  -I-interpret- 

 45 45  0  0  0  0  0  0  0  0999 V2000
   42.9510   -1.2490   17.4520 C   0  0  0  0  0
   42.6670   -0.4830   16.4650 O   0  0  0  0  0
   42.9690   -2.5010   17.3430 O   0  0  0  0  0
   43.2430   -0.7000   18.7880 C   0  0  0  0  0
   43.0120    0.7760   19.0270 C   0  0  0  0  0
   42.7190    1.1270   20.4900 C   0  0  0  0  0
   43.7590    0.4700   21.3890 C   0  0  0  0  0
   43.4600    0.7670   22.7660 N   0  0  0  0  0
   44.2860    1.4530   23.5330 C   0  0  0  0  0
   45.3170    1.9130   23.1700 O   0  0  0  0  0
   43.7750    1.7100   24.9510 C   0  0  0  0  0
   43.7130   -1.0300   21.2440 C   0  0  0  0  0
   43.6560   -1.4900   19.7790 C   0  0  0  0  0
   44.8310   -1.6440   21.8970 O   0  0  0  0  0
   44.3990   -2.7200   22.7650 C   0  0  0  0  0
   44.1120   -4.0680   22.0430 C   0  0  0  0  0
   45.4390   -2.9400   23.8380 C   0  0  0  0  0
   45.6810   -1.7380   24.7030 C   0  0  0  0  0
   45.2740   -4.5580   21.1850 C   0  0  0  0  0
   42.7380    2.5860   20.6130 N   0  3  0  0  0
   42.7071    0.4328   16.7502 H   0  0  0  0  0
   42.1399    1.0676   18.4417 H   0  0  0  0  0
   43.9260    1.2982   18.7441 H   0  0  0  0  0
   41.7416    0.7565   20.7991 H   0  0  0  0  0
   44.7391    0.8505   21.1016 H   0  0  0  0  0
   42.5801    0.4360   23.1618 H   0  0  0  0  0
   44.4970    1.3254   25.6713 H   0  0  0  0  0
   43.6462    2.7820   25.1007 H   0  0  0  0  0
   42.8187    1.2052   25.0883 H   0  0  0  0  0
   42.7880   -1.3493   21.7241 H   0  0  0  0  0
   43.9669   -2.5069   19.5397 H   0  0  0  0  0
   43.4452   -2.4000   23.1845 H   0  0  0  0  0
   43.2600   -3.9105   21.3816 H   0  0  0  0  0
   43.9326   -4.8197   22.8117 H   0  0  0  0  0
   46.3783   -3.1741   23.3369 H   0  0  0  0  0
   45.0745   -3.7378   24.4851 H   0  0  0  0  0
   46.0247   -0.9095   24.0836 H   0  0  0  0  0
   44.7535   -1.4591   25.2030 H   0  0  0  0  0
   46.4400   -1.9753   25.4484 H   0  0  0  0  0
   45.4951   -3.8165   20.4173 H   0  0  0  0  0
   46.1520   -4.7045   21.8141 H   0  0  0  0  0
   45.0024   -5.5020   20.7126 H   0  0  0  0  0
   42.0302    2.9871   19.9978 H   0  0  0  0  0
   42.5385    2.8472   21.5786 H   0  0  0  0  0
   43.6585    2.9364   20.3480 H   0  0  0  0  0
  1  2  1  0  0  0
  1  3  2  0  0  0
  1  4  1  0  0  0
  4  5  1  0  0  0
  4 13  2  0  0  0
  5  6  1  0  0  0
  6  7  1  0  0  0
  6 20  1  0  0  0
  7  8  1  0  0  0
  7 12  1  0  0  0
  8  9  1  0  0  0
  9 10  2  0  0  0
  9 11  1  0  0  0
 12 13  1  0  0  0
 12 14  1  0  0  0
 14 15  1  0  0  0
 15 16  1  0  0  0
 15 17  1  0  0  0
 16 19  1  0  0  0
 17 18  1  0  0  0
  2 21  1  0  0  0
  5 22  1  0  0  0
  5 23  1  0  0  0
  6 24  1  0  0  0
  7 25  1  0  0  0
  8 26  1  0  0  0
 11 27  1  0  0  0
 11 28  1  0  0  0
 11 29  1  0  0  0
 12 30  1  0  0  0
 13 31  1  0  0  0
 15 32  1  0  0  0
 16 33  1  0  0  0
 16 34  1  0  0  0
 17 35  1  0  0  0
 17 36  1  0  0  0
 18 37  1  0  0  0
 18 38  1  0  0  0
 18 39  1  0  0  0
 19 40  1  0  0  0
 19 41  1  0  0  0
 19 42  1  0  0  0
 20 43  1  0  0  0
 20 44  1  0  0  0
 20 45  1  0  0  0
M  END
$$$$
