3qtw_ligand
  -I-interpret- 

 35 37  0  0  0  0  0  0  0  0999 V2000
   92.3700   10.3700  -86.9760 N   0  0  0  0  0
   93.4350    9.6370  -87.3250 C   0  0  0  0  0
   93.9080    9.7100  -88.5750 N   0  0  0  0  0
   93.9520    8.8320  -86.3000 C   0  0  0  0  0
   95.0470    7.9600  -86.3890 C   0  0  0  0  0
   95.5550    7.0720  -85.2750 C   0  0  0  0  0
   96.9630    6.8970  -84.9710 C   0  0  0  0  0
   97.3350    6.0390  -83.9240 N   0  0  0  0  0
   96.4100    5.3280  -83.1400 C   0  0  0  0  0
   95.0130    5.4600  -83.3990 C   0  0  0  0  0
   94.5920    6.3280  -84.4650 C   0  0  0  0  0
   95.7190    7.8530  -87.5460 O   0  0  0  0  0
   93.0330    9.0570  -84.8740 S   0  0  0  0  0
   92.0250   10.1750  -85.7000 C   0  0  0  0  0
   90.9390   10.8670  -85.1920 N   0  0  0  0  0
   90.3440   10.8550  -83.9370 C   0  0  0  0  0
   89.2110   11.7450  -83.7240 C   0  0  0  0  0
   88.5460   11.7920  -82.4520 C   0  0  0  0  0
   88.9940   10.9480  -81.3650 C   0  0  0  0  0
   90.1080   10.0550  -81.5450 C   0  0  0  0  0
   90.7770   10.0070  -82.8090 C   0  0  0  0  0
   93.4576   10.3215  -89.2558 H   0  0  0  0  0
   94.7189    9.1541  -88.8467 H   0  0  0  0  0
   94.4054    8.4787  -85.6767 H   0  0  0  0  0
   97.7221    7.4250  -85.5482 H   0  0  0  0  0
   96.7585    4.6783  -82.3372 H   0  0  0  0  0
   94.2816    4.9151  -82.8022 H   0  0  0  0  0
   93.5276    6.4340  -84.6746 H   0  0  0  0  0
   95.3338    8.4468  -88.1946 H   0  0  0  0  0
   90.4963   11.4991  -85.8590 H   0  0  0  0  0
   88.8644   12.3817  -84.5380 H   0  0  0  0  0
   87.7015   12.4652  -82.3048 H   0  0  0  0  0
   88.4837   10.9891  -80.4027 H   0  0  0  0  0
   90.4400    9.4194  -80.7240 H   0  0  0  0  0
   91.6222    9.3316  -82.9414 H   0  0  0  0  0
  1  2  4  0  0  0
  1 14  4  0  0  0
  2  3  1  0  0  0
  2  4  4  0  0  0
  4  5  1  0  0  0
  4 13  4  0  0  0
  5  6  1  0  0  0
  5 12  1  0  0  0
  6  7  4  0  0  0
  6 11  4  0  0  0
  7  8  4  0  0  0
  8  9  4  0  0  0
  9 10  4  0  0  0
 10 11  4  0  0  0
 13 14  4  0  0  0
 14 15  1  0  0  0
 15 16  1  0  0  0
 16 17  4  0  0  0
 16 21  4  0  0  0
 17 18  4  0  0  0
 18 19  4  0  0  0
 19 20  4  0  0  0
 20 21  4  0  0  0
  3 22  1  0  0  0
  3 23  1  0  0  0
  5 24  1  0  0  0
  7 25  1  0  0  0
  9 26  1  0  0  0
 10 27  1  0  0  0
 11 28  1  0  0  0
 12 29  1  0  0  0
 15 30  1  0  0  0
 17 31  1  0  0  0
 18 32  1  0  0  0
 19 33  1  0  0  0
 20 34  1  0  0  0
 21 35  1  0  0  0
M  END
$$$$
