1l5q_ligand
  -I-interpret- 

 24 25  0  0  0  0  0  0  0  0999 V2000
   38.6960  -58.4400  101.9380 N   0  0  0  0  0
   37.4250  -58.1340  102.7200 C   0  0  0  0  0
   39.9420  -58.1140  102.6770 C   0  0  0  0  0
   38.7410  -58.9840  100.6370 C   0  0  0  0  0
   36.3240  -58.4340  102.0490 N   0  0  0  0  0
   37.5510  -57.6770  103.8030 O   0  0  0  0  0
   34.9970  -58.1780  102.7150 C   0  0  0  0  0
   36.3100  -58.9870  100.7360 C   0  0  0  0  0
   37.4630  -59.2600  100.0450 C   0  0  0  0  0
   35.2490  -59.2960  100.0490 N   0  0  0  0  0
   39.8750  -59.2060  100.0650 O   0  0  0  0  0
   37.0530  -59.7940   98.8110 N   0  0  0  0  0
   35.7130  -59.7850   98.8880 C   0  0  0  0  0
   37.8900  -60.2580   97.6980 C   0  0  0  0  0
   40.5363  -59.0192  102.8017 H   0  0  0  0  0
   40.5144  -57.3767  102.1141 H   0  0  0  0  0
   39.6867  -57.7077  103.6557 H   0  0  0  0  0
   34.4198  -57.4755  102.1139 H   0  0  0  0  0
   34.4499  -59.1165  102.8047 H   0  0  0  0  0
   35.1647  -57.7575  103.7065 H   0  0  0  0  0
   35.0651  -60.1399   98.0865 H   0  0  0  0  0
   38.5067  -59.4334   97.3405 H   0  0  0  0  0
   38.5307  -61.0704   98.0410 H   0  0  0  0  0
   37.2520  -60.6135   96.8889 H   0  0  0  0  0
  1  2  1  0  0  0
  1  3  1  0  0  0
  1  4  1  0  0  0
  2  5  1  0  0  0
  2  6  2  0  0  0
  4  9  1  0  0  0
  4 11  2  0  0  0
  5  7  1  0  0  0
  5  8  1  0  0  0
  8  9  4  0  0  0
  8 10  4  0  0  0
  9 12  4  0  0  0
 10 13  4  0  0  0
 12 13  4  0  0  0
 12 14  1  0  0  0
  3 15  1  0  0  0
  3 16  1  0  0  0
  3 17  1  0  0  0
  7 18  1  0  0  0
  7 19  1  0  0  0
  7 20  1  0  0  0
 13 21  1  0  0  0
 14 22  1  0  0  0
 14 23  1  0  0  0
 14 24  1  0  0  0
M  END
$$$$
