2xbw_ligand
  -I-interpret- 

 57 60  0  0  0  0  0  0  0  0999 V2000
    9.2600   70.4290    3.4600 S   0  0  0  0  0
    9.3870   66.4710    3.2300 C   0  0  0  0  0
   10.1820   66.7570    4.4920 C   0  0  0  0  0
    9.6160   68.7380    3.3110 N   0  0  0  0  0
    8.4580   65.3450    3.3880 C   0  0  0  0  0
    6.8250   58.9940    3.3950 N   0  0  0  0  0
   11.4680   66.0080    4.4820 C   0  0  0  0  0
   10.3720   68.3190    4.5000 C   0  0  0  0  0
    8.6050   67.7520    2.9760 C   0  0  0  0  0
    5.7050   58.6230    2.5810 C   0  0  0  0  0
    7.3050   60.3490    3.3010 C   0  0  0  0  0
    9.0420   64.1820    3.0350 N   0  0  0  0  0
    8.1220   60.6790    2.2470 C   0  0  0  0  0
   12.1630   66.0350    5.7030 N   0  0  0  0  0
    8.4100   62.8870    3.2730 C   0  0  0  0  0
    8.6600   61.9690    2.2760 C   0  0  0  0  0
    8.2170   70.5090    4.4670 O   0  0  0  0  0
   10.4920   71.0500    3.9080 O   0  0  0  0  0
    7.4230   58.0760    4.3050 C   0  0  0  0  0
    7.3060   65.4260    3.8870 O   0  0  0  0  0
   11.8150   65.2590    3.5680 O   0  0  0  0  0
    5.3160   57.2230    2.5810 C   0  0  0  0  0
    5.3260   59.5080    1.7610 O   0  0  0  0  0
    6.9790   61.2430    4.3190 C   0  0  0  0  0
    7.5390   62.5480    4.2950 C   0  0  0  0  0
    6.8680   56.8400    4.4250 C   0  0  0  0  0
    5.8310   56.3840    3.5330 C   0  0  0  0  0
   13.3530   65.3200    6.0680 C   0  0  0  0  0
    8.7910   70.8880    2.0050 N   0  0  0  0  0
    9.4220   62.3630    1.2390 F   0  0  0  0  0
   15.4810   63.8500    6.9430 C   0  0  0  0  0
   16.6960   62.7040    7.4940 Cl  0  0  0  0  0
   13.6670   65.3420    7.4150 C   0  0  0  0  0
   14.0410   64.5420    5.1180 C   0  0  0  0  0
   15.1370   63.7790    5.5690 C   0  0  0  0  0
   14.7550   64.5910    7.8880 C   0  0  0  0  0
   10.0488   66.1916    2.4102 H   0  0  0  0  0
    9.6783   66.4283    5.4010 H   0  0  0  0  0
   11.4186   68.6219    4.4690 H   0  0  0  0  0
   10.0176   68.7874    5.4182 H   0  0  0  0  0
    7.6843   67.8384    3.5530 H   0  0  0  0  0
    8.2065   67.8424    1.9655 H   0  0  0  0  0
    9.9575   64.2076    2.5859 H   0  0  0  0  0
    8.3371   59.9794    1.4393 H   0  0  0  0  0
   11.7710   66.6414    6.4235 H   0  0  0  0  0
    8.3001   58.3558    4.8885 H   0  0  0  0  0
    4.6215   56.8445    1.8310 H   0  0  0  0  0
    6.3043   60.9452    5.1217 H   0  0  0  0  0
    7.2869   63.2722    5.0697 H   0  0  0  0  0
    7.2165   56.1766    5.2166 H   0  0  0  0  0
    5.4544   55.3646    3.6170 H   0  0  0  0  0
    7.8320   71.2005    1.8532 H   0  0  0  0  0
    9.4503   70.8688    1.2270 H   0  0  0  0  0
   13.0725   65.9396    8.1061 H   0  0  0  0  0
   13.7372   64.5300    4.0713 H   0  0  0  0  0
   15.7042   63.1520    4.8811 H   0  0  0  0  0
   15.0242   64.5839    8.9442 H   0  0  0  0  0
  4  1  1  0  0  0
  1 17  2  0  0  0
  1 18  2  0  0  0
  1 29  1  0  0  0
  3  2  1  0  0  0
  2  5  1  0  0  0
  2  9  1  0  0  0
  7  3  1  0  0  0
  3  8  1  0  0  0
  8  4  1  0  0  0
  4  9  1  0  0  0
  5 12  1  0  0  0
  5 20  2  0  0  0
  6 10  1  0  0  0
 11  6  1  0  0  0
  6 19  1  0  0  0
 14  7  1  0  0  0
  7 21  2  0  0  0
 10 22  1  0  0  0
 10 23  2  0  0  0
 13 11  4  0  0  0
 24 11  4  0  0  0
 12 15  1  0  0  0
 16 13  4  0  0  0
 28 14  1  0  0  0
 15 16  4  0  0  0
 15 25  4  0  0  0
 16 30  1  0  0  0
 19 26  2  0  0  0
 22 27  2  0  0  0
 25 24  4  0  0  0
 26 27  1  0  0  0
 33 28  4  0  0  0
 28 34  4  0  0  0
 31 32  1  0  0  0
 31 35  4  0  0  0
 36 31  4  0  0  0
 33 36  4  0  0  0
 34 35  4  0  0  0
  2 37  1  0  0  0
  3 38  1  0  0  0
  8 39  1  0  0  0
  8 40  1  0  0  0
  9 41  1  0  0  0
  9 42  1  0  0  0
 12 43  1  0  0  0
 13 44  1  0  0  0
 14 45  1  0  0  0
 19 46  1  0  0  0
 22 47  1  0  0  0
 24 48  1  0  0  0
 25 49  1  0  0  0
 26 50  1  0  0  0
 27 51  1  0  0  0
 29 52  1  0  0  0
 29 53  1  0  0  0
 33 54  1  0  0  0
 34 55  1  0  0  0
 35 56  1  0  0  0
 36 57  1  0  0  0
M  END
$$$$
