5ov8_ligand
  -I-interpret- 

 63 66  0  0  0  0  0  0  0  0999 V2000
   22.0340    5.1770   16.4850 C   0  0  0  0  0
   23.4520    5.2320   18.5270 C   0  0  0  0  0
   18.9940   -2.4030   17.0140 C   0  0  0  0  0
   16.2530    0.6560   13.0790 C   0  0  0  0  0
   23.8660    2.3990   14.6780 C   0  0  0  0  0
   23.8080    1.5640   16.9390 C   0  0  0  0  0
   23.6730    1.1100   14.1940 C   0  0  0  0  0
   23.6130    0.2760   16.4550 C   0  0  0  0  0
   20.2890   -1.5670   14.6880 C   0  0  0  0  0
   18.9210   -0.0630   12.7540 C   0  0  0  0  0
   22.0230    0.2930    9.4490 C   0  0  0  0  0
   21.2330    1.5510    9.7570 C   0  0  0  0  0
   21.2250   -0.7400   10.2350 C   0  0  0  0  0
   21.1860    1.4440   11.2680 C   0  0  0  0  0
   24.1500    3.9090   16.5380 C   0  0  0  0  0
   23.9420    2.6240   16.0490 C   0  0  0  0  0
   20.9310   -1.1530   13.5300 C   0  0  0  0  0
   23.5450    0.0510   15.0890 C   0  0  0  0  0
   20.2490   -0.4110   12.5720 C   0  0  0  0  0
   17.0100   -1.2770   16.1610 C   0  0  0  0  0
   16.3370   -0.5270   15.2020 C   0  0  0  0  0
   18.9420   -1.2180   14.8720 C   0  0  0  0  0
   18.2650   -0.4680   13.9110 C   0  0  0  0  0
   22.9610    4.3580   17.3730 C   0  0  0  0  0
   22.2090   -1.4410   13.2440 N   0  0  0  0  0
   20.8520    0.0060   11.4650 N   0  0  0  0  0
   18.2980   -1.6050   15.9810 N   0  0  0  0  0
   16.9750   -0.1410   14.0880 N   0  0  0  0  0
   16.4400   -1.6450   17.1880 O   0  0  0  0  0
   15.1580   -0.2180   15.3570 O   0  0  0  0  0
   24.5850   -2.1040   13.8640 O   0  0  0  0  0
   22.8710   -2.5000   15.6040 O   0  0  0  0  0
   23.2960   -1.5660   14.4700 S   0  0  0  0  0
   22.5718    6.0447   16.1030 H   0  0  0  0  0
   21.6948    4.5622   15.6513 H   0  0  0  0  0
   21.1742    5.5083   17.0673 H   0  0  0  0  0
   24.1385    4.6579   19.1493 H   0  0  0  0  0
   23.9666    6.1053   18.1262 H   0  0  0  0  0
   22.5997    5.5538   19.1255 H   0  0  0  0  0
   18.9824   -1.8605   17.9594 H   0  0  0  0  0
   18.4856   -3.3594   17.1362 H   0  0  0  0  0
   20.0250   -2.5750   16.7050 H   0  0  0  0  0
   15.3952    0.0897   12.7163 H   0  0  0  0  0
   15.9106    1.5872   13.5304 H   0  0  0  0  0
   16.9214    0.8782   12.2471 H   0  0  0  0  0
   23.9578    3.2337   13.9831 H   0  0  0  0  0
   23.8558    1.7428   18.0132 H   0  0  0  0  0
   23.6222    0.9295   13.1203 H   0  0  0  0  0
   23.5135   -0.5578   17.1500 H   0  0  0  0  0
   20.8198   -2.1514   15.4396 H   0  0  0  0  0
   18.3960    0.5218   11.9987 H   0  0  0  0  0
   23.0749    0.3491    9.7293 H   0  0  0  0  0
   22.1096    0.0720    8.3852 H   0  0  0  0  0
   20.2588    1.6101    9.2717 H   0  0  0  0  0
   21.6734    2.4727    9.3768 H   0  0  0  0  0
   21.7911   -1.6480   10.4425 H   0  0  0  0  0
   20.3616   -1.1181    9.6876 H   0  0  0  0  0
   20.4662    2.1217   11.7271 H   0  0  0  0  0
   22.1164    1.7418   11.7515 H   0  0  0  0  0
   24.2721    4.5928   15.6980 H   0  0  0  0  0
   25.0432    3.9106   17.1628 H   0  0  0  0  0
   22.4352    3.4917   17.7744 H   0  0  0  0  0
   22.5028   -1.5808   12.2773 H   0  0  0  0  0
 24  1  1  0  0  0
 24  2  1  0  0  0
 27  3  1  0  0  0
 28  4  1  0  0  0
  7  5  4  0  0  0
  5 16  4  0  0  0
  8  6  4  0  0  0
  6 16  4  0  0  0
 18  7  4  0  0  0
 18  8  4  0  0  0
 17  9  4  0  0  0
  9 22  4  0  0  0
 19 10  4  0  0  0
 10 23  4  0  0  0
 12 11  1  0  0  0
 13 11  1  0  0  0
 14 12  1  0  0  0
 26 13  1  0  0  0
 26 14  1  0  0  0
 16 15  1  0  0  0
 15 24  1  0  0  0
 17 19  4  0  0  0
 25 17  1  0  0  0
 33 18  1  0  0  0
 19 26  1  0  0  0
 20 21  1  0  0  0
 27 20  1  0  0  0
 20 29  2  0  0  0
 28 21  1  0  0  0
 21 30  2  0  0  0
 22 23  4  0  0  0
 22 27  1  0  0  0
 23 28  1  0  0  0
 25 33  1  0  0  0
 33 31  2  0  0  0
 33 32  2  0  0  0
  1 34  1  0  0  0
  1 35  1  0  0  0
  1 36  1  0  0  0
  2 37  1  0  0  0
  2 38  1  0  0  0
  2 39  1  0  0  0
  3 40  1  0  0  0
  3 41  1  0  0  0
  3 42  1  0  0  0
  4 43  1  0  0  0
  4 44  1  0  0  0
  4 45  1  0  0  0
  5 46  1  0  0  0
  6 47  1  0  0  0
  7 48  1  0  0  0
  8 49  1  0  0  0
  9 50  1  0  0  0
 10 51  1  0  0  0
 11 52  1  0  0  0
 11 53  1  0  0  0
 12 54  1  0  0  0
 12 55  1  0  0  0
 13 56  1  0  0  0
 13 57  1  0  0  0
 14 58  1  0  0  0
 14 59  1  0  0  0
 15 60  1  0  0  0
 15 61  1  0  0  0
 24 62  1  0  0  0
 25 63  1  0  0  0
M  END
$$$$
