4h2j_ligand
  -I-interpret- 

 60 65  0  0  0  0  0  0  0  0999 V2000
   41.8560   21.4980   62.8040 N   0  0  0  0  0
   42.0720   20.3850   63.7280 C   0  0  0  0  0
   43.5050   20.0830   63.4990 C   0  0  0  0  0
   44.0180   21.2690   62.9310 N   0  0  0  0  0
   43.0340   22.0380   62.4790 C   0  0  0  0  0
   43.2770   23.2320   61.9250 C   0  0  0  0  0
   42.3930   23.8890   61.1040 C   0  0  0  0  0
   42.6960   25.1430   60.5800 C   0  0  0  0  0
   44.4500   23.8970   62.2120 C   0  0  0  0  0
   44.7670   25.1450   61.7010 C   0  0  0  0  0
   43.8930   25.7960   60.8380 C   0  0  0  0  0
   44.1950   27.0370   60.4560 N   0  0  0  0  0
   43.4980   27.7570   59.5740 C   0  0  0  0  0
   42.6240   27.2830   58.9090 O   0  0  0  0  0
   43.7140   29.1500   59.5200 C   0  0  0  0  0
   43.7220   29.8980   58.3640 C   0  0  0  0  0
   43.8480   31.2770   58.3160 C   0  0  0  0  0
   43.6350   29.2370   57.2720 N   0  0  0  0  0
   43.7870   28.4490   57.3050 O   0  0  0  0  0
   43.4260   29.7620   56.3440 O   0  0  0  0  0
   43.7720   29.9020   60.6840 C   0  0  0  0  0
   43.8940   31.2920   60.6620 C   0  0  0  0  0
   43.9440   31.9890   59.4740 C   0  0  0  0  0
   44.0480   33.3750   59.4100 C   0  0  0  0  0
   43.3430   33.9790   58.6170 O   0  0  0  0  0
   44.8950   33.9540   60.2610 N   0  0  0  0  0
   45.0040   35.2950   60.3580 C   0  0  0  0  0
   44.6300   36.1800   59.3770 C   0  0  0  0  0
   44.7650   37.5460   59.5690 C   0  0  0  0  0
   45.5000   35.8270   61.5280 C   0  0  0  0  0
   45.6320   37.1770   61.7340 C   0  0  0  0  0
   45.2590   38.0420   60.7550 C   0  0  0  0  0
   45.4130   39.3500   60.9690 C   0  0  0  0  0
   45.2750   40.2200   59.9790 N   0  0  0  0  0
   45.5320   41.5230   60.4900 C   0  0  0  0  0
   45.5720   41.3260   61.9850 C   0  0  0  0  0
   45.7950   39.9050   62.1230 N   0  0  0  0  0
   41.4134   19.5353   63.5484 H   0  0  0  0  0
   41.8379   20.6273   64.7646 H   0  0  0  0  0
   43.6463   19.2193   62.8493 H   0  0  0  0  0
   44.0213   19.8088   64.4189 H   0  0  0  0  0
   45.0091   21.5034   62.8753 H   0  0  0  0  0
   41.4394   23.4213   60.8589 H   0  0  0  0  0
   41.9619   25.6325   59.9400 H   0  0  0  0  0
   45.1667   23.4148   62.8768 H   0  0  0  0  0
   45.7083   25.6198   61.9776 H   0  0  0  0  0
   45.0214   27.4692   60.8690 H   0  0  0  0  0
   43.8703   31.7908   57.3549 H   0  0  0  0  0
   43.7207   29.3915   61.6457 H   0  0  0  0  0
   43.9509   31.8378   61.6038 H   0  0  0  0  0
   45.4779   33.3657   60.8564 H   0  0  0  0  0
   44.2230   35.8046   58.4381 H   0  0  0  0  0
   44.4775   38.2340   58.7740 H   0  0  0  0  0
   45.8005   35.1461   62.3243 H   0  0  0  0  0
   46.0329   37.5525   62.6755 H   0  0  0  0  0
   44.7716   42.2431   60.1879 H   0  0  0  0  0
   46.4604   41.9433   60.1032 H   0  0  0  0  0
   44.6588   41.6589   62.4783 H   0  0  0  0  0
   46.3459   41.9227   62.4679 H   0  0  0  0  0
   46.1696   39.4215   62.9393 H   0  0  0  0  0
  1  2  1  0  0  0
  1  5  2  0  0  0
  2  3  1  0  0  0
  3  4  1  0  0  0
  4  5  1  0  0  0
  5  6  1  0  0  0
  6  7  4  0  0  0
  6  9  4  0  0  0
  7  8  4  0  0  0
  8 11  4  0  0  0
  9 10  4  0  0  0
 10 11  4  0  0  0
 11 12  1  0  0  0
 12 13  1  0  0  0
 13 14  2  0  0  0
 13 15  1  0  0  0
 15 16  4  0  0  0
 15 21  4  0  0  0
 16 17  4  0  0  0
 16 18  1  0  0  0
 17 23  4  0  0  0
 18 19  1  0  0  0
 18 20  1  0  0  0
 19 20  1  0  0  0
 21 22  4  0  0  0
 22 23  4  0  0  0
 23 24  1  0  0  0
 24 25  2  0  0  0
 24 26  1  0  0  0
 26 27  1  0  0  0
 27 28  4  0  0  0
 27 30  4  0  0  0
 28 29  4  0  0  0
 29 32  4  0  0  0
 30 31  4  0  0  0
 31 32  4  0  0  0
 32 33  1  0  0  0
 33 34  2  0  0  0
 33 37  1  0  0  0
 34 35  1  0  0  0
 35 36  1  0  0  0
 36 37  1  0  0  0
  2 38  1  0  0  0
  2 39  1  0  0  0
  3 40  1  0  0  0
  3 41  1  0  0  0
  4 42  1  0  0  0
  7 43  1  0  0  0
  8 44  1  0  0  0
  9 45  1  0  0  0
 10 46  1  0  0  0
 12 47  1  0  0  0
 17 48  1  0  0  0
 21 49  1  0  0  0
 22 50  1  0  0  0
 26 51  1  0  0  0
 28 52  1  0  0  0
 29 53  1  0  0  0
 30 54  1  0  0  0
 31 55  1  0  0  0
 35 56  1  0  0  0
 35 57  1  0  0  0
 36 58  1  0  0  0
 36 59  1  0  0  0
 37 60  1  0  0  0
M  END
$$$$
