### 
### Created by X-TOOL on Mon Sep 10 21:13:09 2018
### 

@<TRIPOS>MOLECULE
3s9y_ligand
   34    35     1     0     0
SMALL
GAST_HUCK


@<TRIPOS>ATOM
      1 P          13.8590    1.1330   31.1190 P.3       1 FNU         0.2008
      2 N1         10.6990    6.9340   32.3520 N.am      1 FNU        -0.1368
      3 C2         12.0190    7.0720   32.5640 C.2       1 FNU         0.3293
      4 N2         12.5310    8.0970   33.2610 N.am      1 FNU        -0.1903
      5 O2         12.9020    6.1900   32.0790 O.2       1 FNU        -0.3835
      6 N3          8.5320    7.6040   32.7890 N.pl3     1 FNU        -0.3028
      7 C4         11.6880    9.0200   33.7830 C.2       1 FNU         0.1968
      8 O4         12.2560   10.0070   34.4840 O.2       1 FNU        -0.4248
      9 C5         10.3050    8.9180   33.6430 C.2       1 FNU         0.1906
     10 C6          9.8460    7.8280   32.9250 C.2       1 FNU         0.1880
     11 C1'        10.1280    5.7880   31.6250 C.3       1 FNU         0.2053
     12 O1P        13.8490    0.2440   32.3610 O.co2     1 FNU        -0.5537
     13 C2'        10.7200    5.5510   30.1980 C.3       1 FNU         0.1378
     14 O2'        10.0660    6.2680   29.1460 O.3       1 FNU        -0.3837
     15 F24         9.4750    9.8620   34.1400 F         1 FNU        -0.2425
     16 O2P        14.8910    2.2120   31.1510 O.co2     1 FNU        -0.5537
     17 C3'        10.5240    4.0570   30.0160 C.3       1 FNU         0.1148
     18 O3'         9.1760    3.7860   29.6370 O.3       1 FNU        -0.3864
     19 O3P        13.8120    0.3280   29.8140 O.co2     1 FNU        -0.5537
     20 C4'        10.7560    3.5230   31.4240 C.3       1 FNU         0.1181
     21 O4'        10.3830    4.5760   32.3400 O.3       1 FNU        -0.3370
     22 C5'        12.2380    3.1780   31.6130 C.3       1 FNU         0.1071
     23 O5'        12.4200    1.8760   31.0430 O.3       1 FNU        -0.2734
     24 H1         13.5189    8.1786   33.3932 H         1 FNU         0.2244
     25 H2          7.8525    8.2556   33.2069 H         1 FNU         0.1828
     26 H3          8.2014    6.7802   32.2665 H         1 FNU         0.1828
     27 H4          9.0434    5.9493   31.5378 H         1 FNU         0.0985
     28 H5         11.7883    5.8127   30.1856 H         1 FNU         0.0675
     29 H6         10.1262    7.2009   29.3151 H         1 FNU         0.2101
     30 H7         11.2288    3.6324   29.2860 H         1 FNU         0.0648
     31 H8          9.0618    2.8495   29.5252 H         1 FNU         0.2100
     32 H9         10.1407    2.6281   31.5989 H         1 FNU         0.0650
     33 H10        12.4933    3.1652   32.6829 H         1 FNU         0.0639
     34 H11        12.8702    3.9135   31.0939 H         1 FNU         0.0639
@<TRIPOS>BOND
     1    1   12 ar 
     2    1   16 ar 
     3    1   19 ar 
     4   23    1 1  
     5    2    3 am 
     6    2   10 1  
     7   11    2 1  
     8    3    4 am 
     9    3    5 2  
    10    4    7 am 
    11   10    6 1  
    12    7    8 2  
    13    9    7 1  
    14   10    9 2  
    15    9   15 1  
    16   11   13 1  
    17   21   11 1  
    18   13   14 1  
    19   17   13 1  
    20   17   18 1  
    21   20   17 1  
    22   20   21 1  
    23   22   20 1  
    24   22   23 1  
    25    4   24 1  
    26    6   25 1  
    27    6   26 1  
    28   11   27 1  
    29   13   28 1  
    30   14   29 1  
    31   17   30 1  
    32   18   31 1  
    33   20   32 1  
    34   22   33 1  
    35   22   34 1  
@<TRIPOS>SUBSTRUCTURE
     1 FNU         1

