3s9y_ligand
  -I-interpret- 

 36 37  0  0  0  0  0  0  0  0999 V2000
   13.8590    1.1330   31.1190 P   0  0  0  0  0
   10.6990    6.9340   32.3520 N   0  0  0  0  0
   12.0190    7.0720   32.5640 C   0  0  0  0  0
   12.5310    8.0970   33.2610 N   0  0  0  0  0
   12.9020    6.1900   32.0790 O   0  0  0  0  0
    8.5320    7.6040   32.7890 N   0  0  0  0  0
   11.6880    9.0200   33.7830 C   0  0  0  0  0
   12.2560   10.0070   34.4840 O   0  0  0  0  0
   10.3050    8.9180   33.6430 C   0  0  0  0  0
    9.8460    7.8280   32.9250 C   0  0  0  0  0
   10.1280    5.7880   31.6250 C   0  0  0  0  0
   13.8490    0.2440   32.3610 O   0  0  0  0  0
   10.7200    5.5510   30.1980 C   0  0  0  0  0
   10.0660    6.2680   29.1460 O   0  0  0  0  0
    9.4750    9.8620   34.1400 F   0  0  0  0  0
   14.8910    2.2120   31.1510 O   0  0  0  0  0
   10.5240    4.0570   30.0160 C   0  0  0  0  0
    9.1760    3.7860   29.6370 O   0  0  0  0  0
   13.8120    0.3280   29.8140 O   0  0  0  0  0
   10.7560    3.5230   31.4240 C   0  0  0  0  0
   10.3830    4.5760   32.3400 O   0  0  0  0  0
   12.2380    3.1780   31.6130 C   0  0  0  0  0
   12.4200    1.8760   31.0430 O   0  0  0  0  0
   13.5386    8.1802   33.3959 H   0  0  0  0  0
    7.8592    8.2401   33.2169 H   0  0  0  0  0
    8.2045    6.7974   32.2575 H   0  0  0  0  0
    9.0702    6.0352   31.5346 H   0  0  0  0  0
   13.1643   -0.4228   32.2704 H   0  0  0  0  0
   11.7491    5.9049   30.1361 H   0  0  0  0  0
   10.4912    6.0651   28.3096 H   0  0  0  0  0
   11.1728    3.6231   29.2552 H   0  0  0  0  0
    9.0606    2.8397   29.5240 H   0  0  0  0  0
   13.1260   -0.3407   29.8764 H   0  0  0  0  0
   10.1692    2.6214   31.6000 H   0  0  0  0  0
   12.5127    3.1876   32.6678 H   0  0  0  0  0
   12.8783    3.9136   31.1262 H   0  0  0  0  0
  1 12  1  0  0  0
  1 16  2  0  0  0
  1 19  1  0  0  0
 23  1  1  0  0  0
  2  3  1  0  0  0
  2 10  1  0  0  0
 11  2  1  0  0  0
  3  4  1  0  0  0
  3  5  2  0  0  0
  4  7  1  0  0  0
 10  6  1  0  0  0
  7  8  2  0  0  0
  9  7  1  0  0  0
 10  9  2  0  0  0
  9 15  1  0  0  0
 11 13  1  0  0  0
 21 11  1  0  0  0
 13 14  1  0  0  0
 17 13  1  0  0  0
 17 18  1  0  0  0
 20 17  1  0  0  0
 20 21  1  0  0  0
 22 20  1  0  0  0
 22 23  1  0  0  0
  4 24  1  0  0  0
  6 25  1  0  0  0
  6 26  1  0  0  0
 11 27  1  0  0  0
 12 28  1  0  0  0
 13 29  1  0  0  0
 14 30  1  0  0  0
 17 31  1  0  0  0
 18 32  1  0  0  0
 19 33  1  0  0  0
 20 34  1  0  0  0
 22 35  1  0  0  0
 22 36  1  0  0  0
M  END
$$$$
