3a5y_ligand
  -I-interpret- 

 60 62  0  0  0  0  0  0  0  0999 V2000
   -3.7240   -4.2390    3.2760 N   0  3  0  0  0
   -3.1590   -2.8830    3.2590 C   0  0  0  0  0
   -2.2900   -2.6970    2.0130 C   0  0  0  0  0
   -3.0980   -2.8760    0.7260 C   0  0  0  0  0
   -2.2500   -2.4790   -0.4830 C   0  0  0  0  0
   -3.0410   -2.5780   -1.7890 C   0  0  0  0  0
   -3.2670   -3.9910   -2.1280 N   0  3  0  0  0
   -2.2450   -1.8860   -2.8970 C   0  0  0  0  0
   -1.7770   -2.5520   -3.8190 O   0  0  0  0  0
   -2.0920   -0.5690   -2.7960 N   0  0  0  0  0
   -1.3090    0.0800   -4.0700 S   0  0  0  0  0
   -2.0270   -0.2450   -5.3450 O   0  0  0  0  0
   -1.2650    1.5700   -3.9010 O   0  0  0  0  0
    0.0270   -0.4330   -4.1550 O   0  0  0  0  0
    1.0080   -0.0960   -3.1690 C   0  0  0  0  0
    2.2780    0.4700   -3.8100 C   0  0  0  0  0
    2.7420   -0.3700   -4.8750 O   0  0  0  0  0
    2.0290    1.8030   -4.5160 C   0  0  0  0  0
    1.9940    2.8430   -3.5350 O   0  0  0  0  0
    3.3200    1.9040   -5.3300 C   0  0  0  0  0
    4.4020    2.3940   -4.5310 O   0  0  0  0  0
    3.5910    0.4430   -5.7040 C   0  0  0  0  0
    3.2080    0.1630   -7.1040 N   0  0  0  0  0
    1.9730   -0.0650   -7.5450 C   0  0  0  0  0
    2.0110   -0.3080   -8.8530 N   0  0  0  0  0
    3.2790   -0.2360   -9.2480 C   0  0  0  0  0
    4.0440    0.0700   -8.1330 C   0  0  0  0  0
    5.3710    0.2110   -8.2610 N   0  0  0  0  0
    5.9500    0.0600   -9.4390 C   0  0  0  0  0
    5.2550   -0.2370  -10.5220 N   0  0  0  0  0
    3.9250   -0.3950  -10.4680 C   0  0  0  0  0
    3.2390   -0.7120  -11.5630 N   0  0  0  0  0
   -4.3014   -4.3550    4.1088 H   0  0  0  0  0
   -4.2953   -4.3785    2.4426 H   0  0  0  0  0
   -2.9662   -4.9216    3.2884 H   0  0  0  0  0
   -2.5473   -2.7370    4.1493 H   0  0  0  0  0
   -3.9704   -2.1554    3.2435 H   0  0  0  0  0
   -1.5009   -3.4487    2.0299 H   0  0  0  0  0
   -1.8846   -1.6853    2.0255 H   0  0  0  0  0
   -3.9833   -2.2415    0.7671 H   0  0  0  0  0
   -3.3927   -3.9210    0.6299 H   0  0  0  0  0
   -1.4009   -3.1597   -0.5443 H   0  0  0  0  0
   -1.9312   -1.4448   -0.3531 H   0  0  0  0  0
   -4.0100   -2.0913   -1.6779 H   0  0  0  0  0
   -3.7982   -4.4379   -1.3807 H   0  0  0  0  0
   -3.7906   -4.0503   -3.0013 H   0  0  0  0  0
   -2.3684   -4.4613   -2.2363 H   0  0  0  0  0
   -2.4294   -0.0219   -2.0040 H   0  0  0  0  0
    1.2718   -1.0009   -2.6216 H   0  0  0  0  0
    0.5872    0.6626   -2.5091 H   0  0  0  0  0
    2.9820    0.5581   -2.9825 H   0  0  0  0  0
    1.1075    1.8768   -5.0934 H   0  0  0  0  0
    1.8380    3.6852   -3.9686 H   0  0  0  0  0
    3.2311    2.5828   -6.1782 H   0  0  0  0  0
    5.1964    2.4464   -5.0675 H   0  0  0  0  0
    4.6533    0.2371   -5.5729 H   0  0  0  0  0
    1.0722   -0.0544   -6.9314 H   0  0  0  0  0
    7.0300    0.1838   -9.5191 H   0  0  0  0  0
    2.2284   -0.8408  -11.5123 H   0  0  0  0  0
    3.7236   -0.8262  -12.4532 H   0  0  0  0  0
  1  2  1  0  0  0
  2  3  1  0  0  0
  3  4  1  0  0  0
  4  5  1  0  0  0
  5  6  1  0  0  0
  6  7  1  0  0  0
  6  8  1  0  0  0
  8  9  2  0  0  0
  8 10  1  0  0  0
 10 11  1  0  0  0
 11 12  2  0  0  0
 11 13  2  0  0  0
 11 14  1  0  0  0
 14 15  1  0  0  0
 15 16  1  0  0  0
 16 17  1  0  0  0
 16 18  1  0  0  0
 17 22  1  0  0  0
 18 19  1  0  0  0
 18 20  1  0  0  0
 20 21  1  0  0  0
 20 22  1  0  0  0
 22 23  1  0  0  0
 23 24  4  0  0  0
 23 27  4  0  0  0
 24 25  4  0  0  0
 25 26  4  0  0  0
 26 27  4  0  0  0
 26 31  4  0  0  0
 27 28  4  0  0  0
 28 29  4  0  0  0
 29 30  4  0  0  0
 30 31  4  0  0  0
 31 32  1  0  0  0
  1 33  1  0  0  0
  1 34  1  0  0  0
  1 35  1  0  0  0
  2 36  1  0  0  0
  2 37  1  0  0  0
  3 38  1  0  0  0
  3 39  1  0  0  0
  4 40  1  0  0  0
  4 41  1  0  0  0
  5 42  1  0  0  0
  5 43  1  0  0  0
  6 44  1  0  0  0
  7 45  1  0  0  0
  7 46  1  0  0  0
  7 47  1  0  0  0
 10 48  1  0  0  0
 15 49  1  0  0  0
 15 50  1  0  0  0
 16 51  1  0  0  0
 18 52  1  0  0  0
 19 53  1  0  0  0
 20 54  1  0  0  0
 21 55  1  0  0  0
 22 56  1  0  0  0
 24 57  1  0  0  0
 29 58  1  0  0  0
 32 59  1  0  0  0
 32 60  1  0  0  0
M  END
$$$$
