### 
### Created by X-TOOL on Mon Sep 10 21:13:00 2018
### 

@<TRIPOS>MOLECULE
3ft3_ligand
  142   142     1     0     0
SMALL
GAST_HUCK


@<TRIPOS>ATOM
      1 N         -15.0420    1.4900    8.4940 N.4       1 VAL         0.2381
      2 CA        -15.6960    2.8010    8.2220 C.3       1 VAL         0.0673
      3 C         -15.2120    3.8720    9.2180 C.2       1 VAL         0.2270
      4 O         -15.0360    3.5860   10.4130 O.2       1 VAL        -0.3907
      5 CB        -17.2470    2.6190    8.2540 C.3       1 VAL         0.0139
      6 CG1       -17.9440    3.6940    9.0250 C.3       1 VAL        -0.0553
      7 CG2       -17.8250    2.4130    6.8510 C.3       1 VAL        -0.0553
      8 N         -14.9720    5.0790    8.6930 N.am      1 LEU        -0.2610
      9 CA        -14.5100    6.2450    9.4400 C.3       1 LEU         0.1313
     10 C         -15.5580    6.7720   10.3940 C.2       1 LEU         0.2040
     11 O         -16.7470    6.6080   10.1590 O.2       1 LEU        -0.3944
     12 CB        -14.1700    7.3810    8.4680 C.3       1 LEU        -0.0101
     13 CG        -12.9060    7.2050    7.6290 C.3       1 LEU        -0.0425
     14 CD1       -12.7520    8.3770    6.6700 C.3       1 LEU        -0.0625
     15 CD2       -11.6890    7.0760    8.5260 C.3       1 LEU        -0.0625
     16 N         -15.1080    7.4130   11.4680 N.am      1 HIS        -0.2625
     17 CA        -16.0060    8.1730   12.3320 C.3       1 HIS         0.1369
     18 C         -16.6090    9.3230   11.5180 C.2       1 HIS         0.2054
     19 O         -15.9430    9.8620   10.6250 O.2       1 HIS        -0.3942
     20 CB        -15.2610    8.6930   13.5650 C.3       1 HIS         0.0145
     21 CG        -16.1660    9.2920   14.5970 C.2       1 HIS        -0.0027
     22 ND1       -15.8870   10.4750   15.2460 N.2       1 HIS        -0.3252
     23 CD2       -17.3710    8.8890   15.0580 C.2       1 HIS         0.0291
     24 CE1       -16.8700   10.7590   16.0810 C.2       1 HIS         0.0907
     25 NE2       -17.7840    9.8130   15.9860 N.pl3     1 HIS        -0.2752
     26 N         -17.8510    9.6870   11.8260 N.am      1 ASP        -0.2621
     27 CA        -18.6010   10.6200   10.9860 C.3       1 ASP         0.1423
     28 C         -18.1650   12.0800   11.1080 C.2       1 ASP         0.2057
     29 O         -18.1860   12.8250   10.1180 O.2       1 ASP        -0.3943
     30 CB        -20.1070   10.4850   11.2410 C.3       1 ASP         0.0406
     31 CG        -20.4670   10.6350   12.7020 C.2       1 ASP         0.0393
     32 OD1       -20.0450   11.6330   13.3230 O.co2     1 ASP        -0.5688
     33 OD2       -21.1760    9.7570   13.2350 O.co2     1 ASP        -0.5688
     34 N         -17.7750   12.4910   12.3090 N.am      1 ASP        -0.2621
     35 CA        -17.4850   13.9120   12.5620 C.3       1 ASP         0.1423
     36 C         -16.4960   14.1090   13.7030 C.2       1 ASP         0.2056
     37 O         -16.8430   13.9080   14.8610 O.2       1 ASP        -0.3943
     38 CB        -18.7850   14.6940   12.8560 C.3       1 ASP         0.0406
     39 CG        -18.5810   16.2330   12.8820 C.2       1 ASP         0.0393
     40 OD1       -17.4350   16.7040   13.0880 O.co2     1 ASP        -0.5688
     41 OD2       -19.5840   16.9710   12.6950 O.co2     1 ASP        -0.5688
     42 N         -15.2740   14.5200   13.3650 N.am      1 LEU        -0.2636
     43 CA        -14.2590   14.8790   14.3640 C.3       1 LEU         0.1312
     44 C         -14.3150   16.3480   14.7860 C.2       1 LEU         0.2039
     45 O         -14.4200   17.2440   13.9460 O.2       1 LEU        -0.3944
     46 CB        -12.8660   14.5940   13.8080 C.3       1 LEU        -0.0101
     47 CG        -12.5010   13.1350   13.5610 C.3       1 LEU        -0.0425
     48 CD1       -11.0890   13.0590   13.0280 C.3       1 LEU        -0.0625
     49 CD2       -12.6410   12.3310   14.8550 C.3       1 LEU        -0.0625
     50 N         -14.2030   16.6100   16.0820 N.am      1 LEU        -0.2637
     51 CA        -14.1340   17.9940   16.5520 C.3       1 LEU         0.1312
     52 C         -12.7100   18.5570   16.4510 C.2       1 LEU         0.2039
     53 O         -11.7300   17.8540   16.6920 O.2       1 LEU        -0.3944
     54 CB        -14.6480   18.1040   17.9910 C.3       1 LEU        -0.0101
     55 CG        -15.0490   19.5000   18.4740 C.3       1 LEU        -0.0425
     56 CD1       -16.3320   19.9630   17.7810 C.3       1 LEU        -0.0625
     57 CD2       -15.2170   19.5210   20.0010 C.3       1 LEU        -0.0625
     58 N         -12.6110   19.8340   16.1060 N.am      1 GLU        -0.2636
     59 CA        -11.3300   20.5230   16.0190 C.3       1 GLU         0.1324
     60 C         -10.6510   20.5770   17.3950 C.2       1 GLU         0.2034
     61 O         -11.3310   20.6310   18.4020 O.2       1 GLU        -0.3944
     62 CB        -11.5560   21.9290   15.4670 C.3       1 GLU        -0.0008
     63 CG        -11.9300   21.9400   13.9790 C.3       1 GLU         0.0044
     64 CD        -12.4870   23.2730   13.4950 C.2       1 GLU         0.0350
     65 OE1       -12.4000   24.2910   14.2280 O.co2     1 GLU        -0.5690
     66 OE2       -13.0240   23.2990   12.3660 O.co2     1 GLU        -0.5690
     67 N          -9.3190   20.5530   17.4270 N.am      1 ALA        -0.2698
     68 CA         -8.5670   20.6530   18.6850 C.3       1 ALA         0.0916
     69 C          -8.5650   22.0560   19.2950 C.2       1 ALA         0.0598
     70 O          -8.1210   22.2470   20.4360 O.co2     1 ALA        -0.5666
     71 CB         -7.1350   20.1820   18.4890 C.3       1 ALA        -0.0300
     72 OXT        -8.9660   23.0390   18.6650 O.co2     1 ALA        -0.5666
     73 H1        -14.0406    1.6036    8.4742 H         1 VAL         0.2015
     74 H2        -15.3186    0.8240    7.7898 H         1 VAL         0.2015
     75 H3        -15.3243    1.1557    9.4021 H         1 VAL         0.2015
     76 H4        -15.4109    3.1284    7.2113 H         1 VAL         0.1101
     77 H5        -17.4348    1.6841    8.8024 H         1 VAL         0.0376
     78 H6        -19.0286    3.5109    9.0109 H         1 VAL         0.0236
     79 H7        -17.7311    4.6709    8.5665 H         1 VAL         0.0236
     80 H8        -17.5852    3.6909   10.0648 H         1 VAL         0.0236
     81 H9        -17.2702    1.6124    6.3398 H         1 VAL         0.0236
     82 H10       -17.7343    3.3465    6.2763 H         1 VAL         0.0236
     83 H11       -18.8856    2.1320    6.9290 H         1 VAL         0.0236
     84 H12       -15.1210    5.1914    7.7106 H         1 LEU         0.1884
     85 H13       -13.6122    5.9641   10.0101 H         1 LEU         0.0800
     86 H14       -14.0538    8.3021    9.0580 H         1 LEU         0.0315
     87 H15       -15.0175    7.4934    7.7758 H         1 LEU         0.0315
     88 H16       -13.0022    6.2815    7.0391 H         1 LEU         0.0298
     89 H17       -11.8399    8.2424    6.0700 H         1 LEU         0.0232
     90 H18       -12.6789    9.3129    7.2434 H         1 LEU         0.0232
     91 H19       -13.6258    8.4227    6.0035 H         1 LEU         0.0232
     92 H20       -11.8249    6.2237    9.2080 H         1 LEU         0.0232
     93 H21       -11.5660    7.9986    9.1122 H         1 LEU         0.0232
     94 H22       -10.7938    6.9120    7.9082 H         1 LEU         0.0232
     95 H23       -14.1335    7.3737   11.6888 H         1 HIS         0.1885
     96 H24       -16.8188    7.5136   12.6704 H         1 HIS         0.0817
     97 H25       -14.5443    9.4620   13.2410 H         1 HIS         0.0420
     98 H26       -14.7166    7.8541   14.0232 H         1 HIS         0.0420
     99 H27       -17.9139    7.9965   14.7503 H         1 HIS         0.0729
    100 H28       -16.9178   11.6271   16.7368 H         1 HIS         0.1199
    101 H29       -18.6636    9.7737   16.5204 H         1 HIS         0.2361
    102 H30       -18.2805    9.3150   12.6488 H         1 ASP         0.1884
    103 H31       -18.4158   10.3226    9.9433 H         1 ASP         0.0819
    104 H32       -20.4345    9.4925   10.8980 H         1 ASP         0.0478
    105 H33       -20.6322   11.2629   10.6675 H         1 ASP         0.0478
    106 H34       -17.6771   11.8272   13.0505 H         1 ASP         0.1884
    107 H35       -17.0337   14.3278   11.6491 H         1 ASP         0.0819
    108 H36       -19.1702   14.3759   13.8360 H         1 ASP         0.0478
    109 H37       -19.5222   14.4523   12.0762 H         1 ASP         0.0478
    110 H38       -15.0395   14.5864   12.3951 H         1 LEU         0.1883
    111 H39       -14.4240   14.2566   15.2559 H         1 LEU         0.0800
    112 H40       -12.1348   15.0020   14.5214 H         1 LEU         0.0315
    113 H41       -12.7775   15.1245   12.8484 H         1 LEU         0.0315
    114 H42       -13.1872   12.7161   12.8103 H         1 LEU         0.0298
    115 H43       -10.8211   12.0074   12.8482 H         1 LEU         0.0232
    116 H44       -10.3956   13.4934   13.7632 H         1 LEU         0.0232
    117 H45       -11.0224   13.6208   12.0846 H         1 LEU         0.0232
    118 H46       -13.6758   12.4027   15.2211 H         1 LEU         0.0232
    119 H47       -11.9548   12.7351   15.6138 H         1 LEU         0.0232
    120 H48       -12.3931   11.2771   14.6605 H         1 LEU         0.0232
    121 H49       -14.1656   15.8583   16.7404 H         1 LEU         0.1883
    122 H50       -14.7858   18.6024   15.9078 H         1 LEU         0.0800
    123 H51       -13.8538   17.7364   18.6574 H         1 LEU         0.0315
    124 H52       -15.5312   17.4544   18.0798 H         1 LEU         0.0315
    125 H53       -14.2432   20.2000   18.2080 H         1 LEU         0.0298
    126 H54       -16.6019   20.9665   18.1418 H         1 LEU         0.0232
    127 H55       -17.1465   19.2599   18.0095 H         1 LEU         0.0232
    128 H56       -16.1701   19.9957   16.6935 H         1 LEU         0.0232
    129 H57       -14.2841   19.1850   20.4771 H         1 LEU         0.0232
    130 H58       -16.0384   18.8484   20.2888 H         1 LEU         0.0232
    131 H59       -15.4487   20.5446   20.3304 H         1 LEU         0.0232
    132 H60       -13.4464   20.3427   15.8979 H         1 GLU         0.1883
    133 H61       -10.6755   19.9716   15.3280 H         1 GLU         0.0801
    134 H62       -10.6312   22.5097   15.5995 H         1 GLU         0.0330
    135 H63       -12.3704   22.4015   16.0358 H         1 GLU         0.0330
    136 H64       -12.6898   21.1635   13.8066 H         1 GLU         0.0433
    137 H65       -11.0286   21.7075   13.3930 H         1 GLU         0.0433
    138 H66        -8.8155   20.4641   16.5676 H         1 ALA         0.1875
    139 H67        -9.0514   19.9804   19.4082 H         1 ALA         0.0723
    140 H68        -6.5886   20.2641   19.4402 H         1 ALA         0.0270
    141 H69        -6.6440   20.8075   17.7290 H         1 ALA         0.0270
    142 H70        -7.1361   19.1336   18.1562 H         1 ALA         0.0270
@<TRIPOS>BOND
     1    1    2 1  
     2    2    3 1  
     3    2    5 1  
     4    3    4 2  
     5    3    8 am 
     6    5    6 1  
     7    5    7 1  
     8    8    9 1  
     9    9   10 1  
    10    9   12 1  
    11   10   11 2  
    12   10   16 am 
    13   12   13 1  
    14   13   14 1  
    15   13   15 1  
    16   16   17 1  
    17   17   18 1  
    18   17   20 1  
    19   18   19 2  
    20   18   26 am 
    21   20   21 1  
    22   21   22 1  
    23   21   23 2  
    24   22   24 2  
    25   23   25 1  
    26   24   25 1  
    27   26   27 1  
    28   27   28 1  
    29   27   30 1  
    30   28   29 2  
    31   28   34 am 
    32   30   31 1  
    33   31   32 ar 
    34   31   33 ar 
    35   34   35 1  
    36   35   36 1  
    37   35   38 1  
    38   36   37 2  
    39   36   42 am 
    40   38   39 1  
    41   39   40 ar 
    42   39   41 ar 
    43   42   43 1  
    44   43   44 1  
    45   43   46 1  
    46   44   45 2  
    47   44   50 am 
    48   46   47 1  
    49   47   48 1  
    50   47   49 1  
    51   50   51 1  
    52   51   52 1  
    53   51   54 1  
    54   52   53 2  
    55   52   58 am 
    56   54   55 1  
    57   55   56 1  
    58   55   57 1  
    59   58   59 1  
    60   59   60 1  
    61   59   62 1  
    62   60   61 2  
    63   60   67 am 
    64   62   63 1  
    65   63   64 1  
    66   64   65 ar 
    67   64   66 ar 
    68   67   68 1  
    69   68   69 1  
    70   68   71 1  
    71   69   70 ar 
    72   69   72 ar 
    73    1   73 1  
    74    1   74 1  
    75    1   75 1  
    76    2   76 1  
    77    5   77 1  
    78    6   78 1  
    79    6   79 1  
    80    6   80 1  
    81    7   81 1  
    82    7   82 1  
    83    7   83 1  
    84    8   84 1  
    85    9   85 1  
    86   12   86 1  
    87   12   87 1  
    88   13   88 1  
    89   14   89 1  
    90   14   90 1  
    91   14   91 1  
    92   15   92 1  
    93   15   93 1  
    94   15   94 1  
    95   16   95 1  
    96   17   96 1  
    97   20   97 1  
    98   20   98 1  
    99   23   99 1  
   100   24  100 1  
   101   25  101 1  
   102   26  102 1  
   103   27  103 1  
   104   30  104 1  
   105   30  105 1  
   106   34  106 1  
   107   35  107 1  
   108   38  108 1  
   109   38  109 1  
   110   42  110 1  
   111   43  111 1  
   112   46  112 1  
   113   46  113 1  
   114   47  114 1  
   115   48  115 1  
   116   48  116 1  
   117   48  117 1  
   118   49  118 1  
   119   49  119 1  
   120   49  120 1  
   121   50  121 1  
   122   51  122 1  
   123   54  123 1  
   124   54  124 1  
   125   55  125 1  
   126   56  126 1  
   127   56  127 1  
   128   56  128 1  
   129   57  129 1  
   130   57  130 1  
   131   57  131 1  
   132   58  132 1  
   133   59  133 1  
   134   62  134 1  
   135   62  135 1  
   136   63  136 1  
   137   63  137 1  
   138   67  138 1  
   139   68  139 1  
   140   71  140 1  
   141   71  141 1  
   142   71  142 1  
@<TRIPOS>SUBSTRUCTURE
     1 VAL         1

