3ft3_ligand
  -I-interpret- 

145145  0  0  0  0  0  0  0  0999 V2000
  -15.0420    1.4900    8.4940 N   0  3  0  0  0
  -15.6960    2.8010    8.2220 C   0  0  0  0  0
  -15.2120    3.8720    9.2180 C   0  0  0  0  0
  -15.0360    3.5860   10.4130 O   0  0  0  0  0
  -17.2470    2.6190    8.2540 C   0  0  0  0  0
  -17.9440    3.6940    9.0250 C   0  0  0  0  0
  -17.8250    2.4130    6.8510 C   0  0  0  0  0
  -14.9720    5.0790    8.6930 N   0  0  0  0  0
  -14.5100    6.2450    9.4400 C   0  0  0  0  0
  -15.5580    6.7720   10.3940 C   0  0  0  0  0
  -16.7470    6.6080   10.1590 O   0  0  0  0  0
  -14.1700    7.3810    8.4680 C   0  0  0  0  0
  -12.9060    7.2050    7.6290 C   0  0  0  0  0
  -12.7520    8.3770    6.6700 C   0  0  0  0  0
  -11.6890    7.0760    8.5260 C   0  0  0  0  0
  -15.1080    7.4130   11.4680 N   0  0  0  0  0
  -16.0060    8.1730   12.3320 C   0  0  0  0  0
  -16.6090    9.3230   11.5180 C   0  0  0  0  0
  -15.9430    9.8620   10.6250 O   0  0  0  0  0
  -15.2610    8.6930   13.5650 C   0  0  0  0  0
  -16.1660    9.2920   14.5970 C   0  0  0  0  0
  -15.8870   10.4750   15.2460 N   0  0  0  0  0
  -17.3710    8.8890   15.0580 C   0  0  0  0  0
  -16.8700   10.7590   16.0810 C   0  0  0  0  0
  -17.7840    9.8130   15.9860 N   0  0  0  0  0
  -17.8510    9.6870   11.8260 N   0  0  0  0  0
  -18.6010   10.6200   10.9860 C   0  0  0  0  0
  -18.1650   12.0800   11.1080 C   0  0  0  0  0
  -18.1860   12.8250   10.1180 O   0  0  0  0  0
  -20.1070   10.4850   11.2410 C   0  0  0  0  0
  -20.4670   10.6350   12.7020 C   0  0  0  0  0
  -20.0450   11.6330   13.3230 O   0  0  0  0  0
  -21.1760    9.7570   13.2350 O   0  0  0  0  0
  -17.7750   12.4910   12.3090 N   0  0  0  0  0
  -17.4850   13.9120   12.5620 C   0  0  0  0  0
  -16.4960   14.1090   13.7030 C   0  0  0  0  0
  -16.8430   13.9080   14.8610 O   0  0  0  0  0
  -18.7850   14.6940   12.8560 C   0  0  0  0  0
  -18.5810   16.2330   12.8820 C   0  0  0  0  0
  -17.4350   16.7040   13.0880 O   0  0  0  0  0
  -19.5840   16.9710   12.6950 O   0  0  0  0  0
  -15.2740   14.5200   13.3650 N   0  0  0  0  0
  -14.2590   14.8790   14.3640 C   0  0  0  0  0
  -14.3150   16.3480   14.7860 C   0  0  0  0  0
  -14.4200   17.2440   13.9460 O   0  0  0  0  0
  -12.8660   14.5940   13.8080 C   0  0  0  0  0
  -12.5010   13.1350   13.5610 C   0  0  0  0  0
  -11.0890   13.0590   13.0280 C   0  0  0  0  0
  -12.6410   12.3310   14.8550 C   0  0  0  0  0
  -14.2030   16.6100   16.0820 N   0  0  0  0  0
  -14.1340   17.9940   16.5520 C   0  0  0  0  0
  -12.7100   18.5570   16.4510 C   0  0  0  0  0
  -11.7300   17.8540   16.6920 O   0  0  0  0  0
  -14.6480   18.1040   17.9910 C   0  0  0  0  0
  -15.0490   19.5000   18.4740 C   0  0  0  0  0
  -16.3320   19.9630   17.7810 C   0  0  0  0  0
  -15.2170   19.5210   20.0010 C   0  0  0  0  0
  -12.6110   19.8340   16.1060 N   0  0  0  0  0
  -11.3300   20.5230   16.0190 C   0  0  0  0  0
  -10.6510   20.5770   17.3950 C   0  0  0  0  0
  -11.3310   20.6310   18.4020 O   0  0  0  0  0
  -11.5560   21.9290   15.4670 C   0  0  0  0  0
  -11.9300   21.9400   13.9790 C   0  0  0  0  0
  -12.4870   23.2730   13.4950 C   0  0  0  0  0
  -12.4000   24.2910   14.2280 O   0  0  0  0  0
  -13.0240   23.2990   12.3660 O   0  0  0  0  0
   -9.3190   20.5530   17.4270 N   0  0  0  0  0
   -8.5670   20.6530   18.6850 C   0  0  0  0  0
   -8.5650   22.0560   19.2950 C   0  0  0  0  0
   -8.1210   22.2470   20.4360 O   0  0  0  0  0
   -7.1350   20.1820   18.4890 C   0  0  0  0  0
   -8.9660   23.0390   18.6650 O   0  0  0  0  0
  -14.0288    1.6061    8.4737 H   0  0  0  0  0
  -15.3284    1.1527    9.4130 H   0  0  0  0  0
  -15.3227    0.8169    7.7808 H   0  0  0  0  0
  -15.4156    3.1529    7.2292 H   0  0  0  0  0
  -17.4429    1.6999    8.8062 H   0  0  0  0  0
  -17.8556    4.6391    8.4893 H   0  0  0  0  0
  -18.9969    3.4351    9.1363 H   0  0  0  0  0
  -17.4858    3.7886   10.0095 H   0  0  0  0  0
  -18.8759    2.1346    6.9297 H   0  0  0  0  0
  -17.7346    3.3387    6.2827 H   0  0  0  0  0
  -17.2745    1.6196    6.3455 H   0  0  0  0  0
  -15.1240    5.1936    7.6909 H   0  0  0  0  0
  -13.6381    5.9233   10.0096 H   0  0  0  0  0
  -14.0029    8.2649    9.0836 H   0  0  0  0  0
  -14.9975    7.4303    7.7602 H   0  0  0  0  0
  -12.9926    6.2890    7.0446 H   0  0  0  0  0
  -13.6185    8.4212    6.0102 H   0  0  0  0  0
  -12.6797    9.3036    7.2394 H   0  0  0  0  0
  -11.8479    8.2425    6.0761 H   0  0  0  0  0
  -11.5900    7.9756    9.1335 H   0  0  0  0  0
  -11.8082    6.2087    9.1754 H   0  0  0  0  0
  -10.7976    6.9513    7.9112 H   0  0  0  0  0
  -14.1140    7.3729   11.6932 H   0  0  0  0  0
  -16.8079    7.5285   12.6921 H   0  0  0  0  0
  -14.5792    9.4754   13.2316 H   0  0  0  0  0
  -14.7539    7.8448   14.0248 H   0  0  0  0  0
  -17.9144    7.9957   14.7501 H   0  0  0  0  0
  -16.9178   11.6279   16.7374 H   0  0  0  0  0
  -18.2891    9.3075   12.6653 H   0  0  0  0  0
  -18.3708   10.3335    9.9598 H   0  0  0  0  0
  -20.4126    9.4887   10.9215 H   0  0  0  0  0
  -20.6124   11.2772   10.6886 H   0  0  0  0  0
  -19.5225   12.1793   12.7313 H   0  0  0  0  0
  -17.6752   11.8140   13.0654 H   0  0  0  0  0
  -17.0252   14.3021   11.6540 H   0  0  0  0  0
  -19.1367   14.3909   13.8422 H   0  0  0  0  0
  -19.4934   14.4683   12.0590 H   0  0  0  0  0
  -20.3609   16.4242   12.5567 H   0  0  0  0  0
  -15.0348   14.5877   12.3758 H   0  0  0  0  0
  -14.4707   14.2724   15.2445 H   0  0  0  0  0
  -12.1665   14.9506   14.5641 H   0  0  0  0  0
  -12.8320   15.0774   12.8316 H   0  0  0  0  0
  -13.1798   12.7059   12.8240 H   0  0  0  0  0
  -11.0244   13.6160   12.0933 H   0  0  0  0  0
  -10.4030   13.4898   13.7574 H   0  0  0  0  0
  -10.8247   12.0166   12.8502 H   0  0  0  0  0
  -11.9739   12.7438   15.6117 H   0  0  0  0  0
  -13.6711   12.3878   15.2069 H   0  0  0  0  0
  -12.3774   11.2905   14.6651 H   0  0  0  0  0
  -14.1648   15.8432   16.7536 H   0  0  0  0  0
  -14.7751   18.5903   15.9027 H   0  0  0  0  0
  -13.8215   17.7918   18.6293 H   0  0  0  0  0
  -15.5547   17.5004   18.0325 H   0  0  0  0  0
  -14.2502   20.1937   18.2115 H   0  0  0  0  0
  -16.1703   19.9949   16.7035 H   0  0  0  0  0
  -17.1382   19.2655   18.0082 H   0  0  0  0  0
  -16.5984   20.9574   18.1393 H   0  0  0  0  0
  -15.9930   18.8121   20.2896 H   0  0  0  0  0
  -14.2747   19.2423   20.4728 H   0  0  0  0  0
  -15.5020   20.5235   20.3201 H   0  0  0  0  0
  -13.4631   20.3529   15.8938 H   0  0  0  0  0
  -10.6685   19.9768   15.3466 H   0  0  0  0  0
  -10.6230   22.4816   15.5776 H   0  0  0  0  0
  -12.3846   22.3720   16.0195 H   0  0  0  0  0
  -12.7080   21.1906   13.8338 H   0  0  0  0  0
  -11.0192   21.7436   13.4134 H   0  0  0  0  0
  -11.9563   24.0575   15.0467 H   0  0  0  0  0
   -8.8054   20.4623   16.5504 H   0  0  0  0  0
   -9.0860   20.0043   19.3907 H   0  0  0  0  0
   -7.8445   21.4094   20.8149 H   0  0  0  0  0
   -7.1375   19.1431   18.1592 H   0  0  0  0  0
   -6.6497   20.8025   17.7357 H   0  0  0  0  0
   -6.5947   20.2638   19.4321 H   0  0  0  0  0
  1  2  1  0  0  0
  2  3  1  0  0  0
  2  5  1  0  0  0
  3  4  2  0  0  0
  3  8  1  0  0  0
  5  6  1  0  0  0
  5  7  1  0  0  0
  8  9  1  0  0  0
  9 10  1  0  0  0
  9 12  1  0  0  0
 10 11  2  0  0  0
 10 16  1  0  0  0
 12 13  1  0  0  0
 13 14  1  0  0  0
 13 15  1  0  0  0
 16 17  1  0  0  0
 17 18  1  0  0  0
 17 20  1  0  0  0
 18 19  2  0  0  0
 18 26  1  0  0  0
 20 21  1  0  0  0
 21 22  4  0  0  0
 21 23  4  0  0  0
 22 24  4  0  0  0
 23 25  4  0  0  0
 24 25  4  0  0  0
 26 27  1  0  0  0
 27 28  1  0  0  0
 27 30  1  0  0  0
 28 29  2  0  0  0
 28 34  1  0  0  0
 30 31  1  0  0  0
 31 32  1  0  0  0
 31 33  2  0  0  0
 34 35  1  0  0  0
 35 36  1  0  0  0
 35 38  1  0  0  0
 36 37  2  0  0  0
 36 42  1  0  0  0
 38 39  1  0  0  0
 39 40  2  0  0  0
 39 41  1  0  0  0
 42 43  1  0  0  0
 43 44  1  0  0  0
 43 46  1  0  0  0
 44 45  2  0  0  0
 44 50  1  0  0  0
 46 47  1  0  0  0
 47 48  1  0  0  0
 47 49  1  0  0  0
 50 51  1  0  0  0
 51 52  1  0  0  0
 51 54  1  0  0  0
 52 53  2  0  0  0
 52 58  1  0  0  0
 54 55  1  0  0  0
 55 56  1  0  0  0
 55 57  1  0  0  0
 58 59  1  0  0  0
 59 60  1  0  0  0
 59 62  1  0  0  0
 60 61  2  0  0  0
 60 67  1  0  0  0
 62 63  1  0  0  0
 63 64  1  0  0  0
 64 65  1  0  0  0
 64 66  2  0  0  0
 67 68  1  0  0  0
 68 69  1  0  0  0
 68 71  1  0  0  0
 69 70  1  0  0  0
 69 72  2  0  0  0
  1 73  1  0  0  0
  1 74  1  0  0  0
  1 75  1  0  0  0
  2 76  1  0  0  0
  5 77  1  0  0  0
  6 78  1  0  0  0
  6 79  1  0  0  0
  6 80  1  0  0  0
  7 81  1  0  0  0
  7 82  1  0  0  0
  7 83  1  0  0  0
  8 84  1  0  0  0
  9 85  1  0  0  0
 12 86  1  0  0  0
 12 87  1  0  0  0
 13 88  1  0  0  0
 14 89  1  0  0  0
 14 90  1  0  0  0
 14 91  1  0  0  0
 15 92  1  0  0  0
 15 93  1  0  0  0
 15 94  1  0  0  0
 16 95  1  0  0  0
 17 96  1  0  0  0
 20 97  1  0  0  0
 20 98  1  0  0  0
 23 99  1  0  0  0
 24100  1  0  0  0
 26101  1  0  0  0
 27102  1  0  0  0
 30103  1  0  0  0
 30104  1  0  0  0
 32105  1  0  0  0
 34106  1  0  0  0
 35107  1  0  0  0
 38108  1  0  0  0
 38109  1  0  0  0
 41110  1  0  0  0
 42111  1  0  0  0
 43112  1  0  0  0
 46113  1  0  0  0
 46114  1  0  0  0
 47115  1  0  0  0
 48116  1  0  0  0
 48117  1  0  0  0
 48118  1  0  0  0
 49119  1  0  0  0
 49120  1  0  0  0
 49121  1  0  0  0
 50122  1  0  0  0
 51123  1  0  0  0
 54124  1  0  0  0
 54125  1  0  0  0
 55126  1  0  0  0
 56127  1  0  0  0
 56128  1  0  0  0
 56129  1  0  0  0
 57130  1  0  0  0
 57131  1  0  0  0
 57132  1  0  0  0
 58133  1  0  0  0
 59134  1  0  0  0
 62135  1  0  0  0
 62136  1  0  0  0
 63137  1  0  0  0
 63138  1  0  0  0
 65139  1  0  0  0
 67140  1  0  0  0
 68141  1  0  0  0
 70142  1  0  0  0
 71143  1  0  0  0
 71144  1  0  0  0
 71145  1  0  0  0
M  END
$$$$
