### 
### Created by X-TOOL on Mon Aug  2 16:16:55 2021
### 

@<TRIPOS>MOLECULE
6ten_ligand
   59    63     1     0     0
SMALL
GAST_HUCK


@<TRIPOS>ATOM
      1 C1         31.0790  -10.5480   10.6390 C.ar      1 N5K         0.0684
      2 C2         30.8600  -11.0000    9.3210 C.ar      1 N5K        -0.0507
      3 C3         29.6090  -11.5060    8.9600 C.ar      1 N5K        -0.0584
      4 C12        33.3770   -9.7510   10.1490 C.3       1 N5K         0.1117
      5 C13        33.1450   -8.5120    9.2570 C.ar      1 N5K         0.0161
      6 C14        33.3920   -8.5590    7.8580 C.ar      1 N5K         0.1348
      7 C15        33.1490   -7.4960    7.0010 C.ar      1 N5K         0.1235
      8 C16        32.7240   -6.2500    7.5060 C.ar      1 N5K        -0.0475
      9 C17        32.4220   -6.1840    8.8860 C.ar      1 N5K        -0.0875
     10 C18        32.6030   -7.3010    9.7430 C.ar      1 N5K        -0.0752
     11 C19        34.6480   -9.4680   10.9550 C.ar      1 N5K         0.0752
     12 C20        35.9290   -9.8670   10.5050 C.ar      1 N5K         0.0731
     13 C21        37.0850   -9.5480   11.2290 C.ar      1 N5K        -0.0347
     14 C22        36.9530   -8.7640   12.3940 C.ar      1 N5K        -0.0406
     15 C23        35.6650   -8.3760   12.8120 C.ar      1 N5K         0.0031
     16 C28        34.0050   -9.1180    5.8330 C.3       1 N5K         0.5255
     17 C4         28.5830  -11.5910    9.9170 C.ar      1 N5K         0.0855
     18 C5         28.7910  -11.1750   11.2380 C.ar      1 N5K        -0.0219
     19 C6         30.0470  -10.6320   11.6010 C.ar      1 N5K         0.0892
     20 N7         30.2860  -10.1020   12.8320 N.pl3     1 N5K        -0.2455
     21 S8         27.0100  -12.2660    9.4700 S.o2      1 N5K         0.0576
     22 O9         27.2490  -13.4400    8.6610 O.2       1 N5K        -0.1523
     23 O10        26.1660  -12.3670   10.6300 O.2       1 N5K        -0.1523
     24 N11        26.4230  -11.0150    8.5710 N.am      1 N5K        -0.2625
     25 N24        34.5650   -8.7230   12.0850 N.ar      1 N5K        -0.2936
     26 CL1        36.0850  -10.8330    9.0750 Cl        1 N5K        -0.0668
     27 N26        32.2660  -10.0490   11.0420 N.pl3     1 N5K        -0.3009
     28 O27        33.8310   -9.6640    7.1560 O.3       1 N5K        -0.2342
     29 O29        33.5120   -7.7550    5.6700 O.3       1 N5K        -0.2323
     30 F30        35.2890   -9.2370    5.4790 F         1 N5K        -0.1404
     31 F31        33.3010   -9.9210    5.0170 F         1 N5K        -0.1404
     32 C32        29.8650  -10.6010   14.0080 C.ar      1 N5K         0.1920
     33 N33        30.2060   -9.9820   15.1580 N.ar      1 N5K        -0.2309
     34 C34        29.7850  -10.4870   16.3440 C.ar      1 N5K         0.1728
     35 N35        29.0670  -11.6410   16.3670 N.ar      1 N5K        -0.2238
     36 C36        28.7200  -12.2690   15.2180 C.ar      1 N5K         0.2287
     37 N37        29.1620  -11.7540   14.0480 N.ar      1 N5K        -0.2209
     38 O38        27.9670  -13.4540   15.2250 O.3       1 N5K        -0.2788
     39 C39        27.2470  -13.8650   14.0420 C.3       1 N5K         0.0702
     40 N40        30.1000   -9.8500   17.4940 N.pl3     1 N5K        -0.3023
     41 H1         31.6598  -10.9549    8.5907 H         1 N5K         0.0481
     42 H2         29.4295  -11.8330    7.9422 H         1 N5K         0.0509
     43 H3         33.5388  -10.6270    9.5037 H         1 N5K         0.0873
     44 H4         32.6328   -5.3809    6.8646 H         1 N5K         0.0459
     45 H5         32.0426   -5.2567    9.2999 H         1 N5K         0.0480
     46 H6         32.3210   -7.2237   10.7868 H         1 N5K         0.0443
     47 H7         38.0582   -9.8955   10.9016 H         1 N5K         0.0724
     48 H8         37.8287   -8.4648   12.9586 H         1 N5K         0.0652
     49 H9         35.5473   -7.7961   13.7202 H         1 N5K         0.0803
     50 H10        28.0000  -11.2676   11.9734 H         1 N5K         0.0519
     51 H11        30.8425   -9.2359   12.8661 H         1 N5K         0.2177
     52 H12        25.5158  -11.0804    8.1554 H         1 N5K         0.1633
     53 H13        26.9741  -10.1907    8.4413 H         1 N5K         0.1633
     54 H14        32.3948   -9.8668   12.0475 H         1 N5K         0.1780
     55 H15        26.7217  -14.8104   14.2425 H         1 N5K         0.0595
     56 H16        27.9554  -14.0079   13.2127 H         1 N5K         0.0595
     57 H17        26.5156  -13.0897   13.7700 H         1 N5K         0.0595
     58 H18        30.6445   -8.9761   17.4662 H         1 N5K         0.1859
     59 H19        29.7956  -10.2386   18.3980 H         1 N5K         0.1859
@<TRIPOS>BOND
     1    1    2 ar 
     2    1   19 ar 
     3   27    1 1  
     4    2    3 ar 
     5    3   17 ar 
     6    4    5 1  
     7    4   11 1  
     8    4   27 1  
     9    5    6 ar 
    10    5   10 ar 
    11    6    7 ar 
    12    6   28 1  
    13    7    8 ar 
    14    7   29 1  
    15    8    9 ar 
    16    9   10 ar 
    17   11   12 ar 
    18   11   25 ar 
    19   12   13 ar 
    20   12   26 1  
    21   13   14 ar 
    22   14   15 ar 
    23   15   25 ar 
    24   28   16 1  
    25   16   29 1  
    26   16   30 1  
    27   16   31 1  
    28   17   18 ar 
    29   17   21 1  
    30   18   19 ar 
    31   19   20 1  
    32   20   32 1  
    33   21   22 2  
    34   21   23 2  
    35   21   24 am 
    36   32   33 ar 
    37   32   37 ar 
    38   33   34 ar 
    39   34   35 ar 
    40   34   40 1  
    41   35   36 ar 
    42   36   37 ar 
    43   36   38 1  
    44   38   39 1  
    45    2   41 1  
    46    3   42 1  
    47    4   43 1  
    48    8   44 1  
    49    9   45 1  
    50   10   46 1  
    51   13   47 1  
    52   14   48 1  
    53   15   49 1  
    54   18   50 1  
    55   20   51 1  
    56   24   52 1  
    57   24   53 1  
    58   27   54 1  
    59   39   55 1  
    60   39   56 1  
    61   39   57 1  
    62   40   58 1  
    63   40   59 1  
@<TRIPOS>SUBSTRUCTURE
     1 N5K         1

