6ten_ligand
  -I-interpret- 

 59 63  0  0  0  0  0  0  0  0999 V2000
   31.0790  -10.5480   10.6390 C   0  0  0  0  0
   30.8600  -11.0000    9.3210 C   0  0  0  0  0
   29.6090  -11.5060    8.9600 C   0  0  0  0  0
   33.3770   -9.7510   10.1490 C   0  0  0  0  0
   33.1450   -8.5120    9.2570 C   0  0  0  0  0
   33.3920   -8.5590    7.8580 C   0  0  0  0  0
   33.1490   -7.4960    7.0010 C   0  0  0  0  0
   32.7240   -6.2500    7.5060 C   0  0  0  0  0
   32.4220   -6.1840    8.8860 C   0  0  0  0  0
   32.6030   -7.3010    9.7430 C   0  0  0  0  0
   34.6480   -9.4680   10.9550 C   0  0  0  0  0
   35.9290   -9.8670   10.5050 C   0  0  0  0  0
   37.0850   -9.5480   11.2290 C   0  0  0  0  0
   36.9530   -8.7640   12.3940 C   0  0  0  0  0
   35.6650   -8.3760   12.8120 C   0  0  0  0  0
   34.0050   -9.1180    5.8330 C   0  0  0  0  0
   28.5830  -11.5910    9.9170 C   0  0  0  0  0
   28.7910  -11.1750   11.2380 C   0  0  0  0  0
   30.0470  -10.6320   11.6010 C   0  0  0  0  0
   30.2860  -10.1020   12.8320 N   0  0  0  0  0
   27.0100  -12.2660    9.4700 S   0  0  0  0  0
   27.2490  -13.4400    8.6610 O   0  0  0  0  0
   26.1660  -12.3670   10.6300 O   0  0  0  0  0
   26.4230  -11.0150    8.5710 N   0  0  0  0  0
   34.5650   -8.7230   12.0850 N   0  0  0  0  0
   36.0850  -10.8330    9.0750 Cl  0  0  0  0  0
   32.2660  -10.0490   11.0420 N   0  0  0  0  0
   33.8310   -9.6640    7.1560 O   0  0  0  0  0
   33.5120   -7.7550    5.6700 O   0  0  0  0  0
   35.2890   -9.2370    5.4790 F   0  0  0  0  0
   33.3010   -9.9210    5.0170 F   0  0  0  0  0
   29.8650  -10.6010   14.0080 C   0  0  0  0  0
   30.2060   -9.9820   15.1580 N   0  0  0  0  0
   29.7850  -10.4870   16.3440 C   0  0  0  0  0
   29.0670  -11.6410   16.3670 N   0  0  0  0  0
   28.7200  -12.2690   15.2180 C   0  0  0  0  0
   29.1620  -11.7540   14.0480 N   0  0  0  0  0
   27.9670  -13.4540   15.2250 O   0  0  0  0  0
   27.2470  -13.8650   14.0420 C   0  0  0  0  0
   30.1000   -9.8500   17.4940 N   0  0  0  0  0
   31.6642  -10.9546    8.5866 H   0  0  0  0  0
   29.4285  -11.8348    7.9366 H   0  0  0  0  0
   33.4708  -10.6331    9.5156 H   0  0  0  0  0
   32.6323   -5.3761    6.8611 H   0  0  0  0  0
   32.0405   -5.2516    9.3022 H   0  0  0  0  0
   32.3194   -7.2233   10.7926 H   0  0  0  0  0
   38.0636   -9.8975   10.8998 H   0  0  0  0  0
   37.8335   -8.4632   12.9618 H   0  0  0  0  0
   35.5466   -7.7929   13.7253 H   0  0  0  0  0
   27.9957  -11.2682   11.9775 H   0  0  0  0  0
   30.8371   -9.2444   12.8658 H   0  0  0  0  0
   26.2734  -11.1332    7.5690 H   0  0  0  0  0
   26.2095  -10.1228    9.0168 H   0  0  0  0  0
   32.3936   -9.8686   12.0378 H   0  0  0  0  0
   26.5227  -13.0960   13.7735 H   0  0  0  0  0
   27.9500  -14.0062   13.2211 H   0  0  0  0  0
   26.7269  -14.8018   14.2419 H   0  0  0  0  0
   30.6523   -8.9929   17.4675 H   0  0  0  0  0
   29.7853  -10.2265   18.3882 H   0  0  0  0  0
  1  2  4  0  0  0
  1 19  4  0  0  0
 27  1  1  0  0  0
  2  3  4  0  0  0
  3 17  4  0  0  0
  4  5  1  0  0  0
  4 11  1  0  0  0
  4 27  1  0  0  0
  5  6  4  0  0  0
  5 10  4  0  0  0
  6  7  4  0  0  0
  6 28  1  0  0  0
  7  8  4  0  0  0
  7 29  1  0  0  0
  8  9  4  0  0  0
  9 10  4  0  0  0
 11 12  4  0  0  0
 11 25  4  0  0  0
 12 13  4  0  0  0
 12 26  1  0  0  0
 13 14  4  0  0  0
 14 15  4  0  0  0
 15 25  4  0  0  0
 28 16  1  0  0  0
 16 29  1  0  0  0
 16 30  1  0  0  0
 16 31  1  0  0  0
 17 18  4  0  0  0
 17 21  1  0  0  0
 18 19  4  0  0  0
 19 20  1  0  0  0
 20 32  1  0  0  0
 21 22  2  0  0  0
 21 23  2  0  0  0
 21 24  1  0  0  0
 32 33  4  0  0  0
 32 37  4  0  0  0
 33 34  4  0  0  0
 34 35  4  0  0  0
 34 40  1  0  0  0
 35 36  4  0  0  0
 36 37  4  0  0  0
 36 38  1  0  0  0
 38 39  1  0  0  0
  2 41  1  0  0  0
  3 42  1  0  0  0
  4 43  1  0  0  0
  8 44  1  0  0  0
  9 45  1  0  0  0
 10 46  1  0  0  0
 13 47  1  0  0  0
 14 48  1  0  0  0
 15 49  1  0  0  0
 18 50  1  0  0  0
 20 51  1  0  0  0
 24 52  1  0  0  0
 24 53  1  0  0  0
 27 54  1  0  0  0
 39 55  1  0  0  0
 39 56  1  0  0  0
 39 57  1  0  0  0
 40 58  1  0  0  0
 40 59  1  0  0  0
M  END
$$$$
