3luo_ligand
  -I-interpret- 

 83 84  0  0  0  0  0  0  0  0999 V2000
   16.2240  -17.0060  -23.3300 C   0  0  0  0  0
   17.4530  -17.0550  -23.5560 O   0  0  0  0  0
   15.3850  -16.7460  -24.2180 O   0  0  0  0  0
   15.7380  -17.2760  -21.9240 C   0  0  0  0  0
   14.2130  -17.2640  -21.8800 C   0  0  0  0  0
   13.7070  -18.6270  -21.4660 C   0  0  0  0  0
   14.3430  -19.6320  -21.7370 O   0  0  0  0  0
   12.5040  -18.5470  -22.0340 N   0  3  0  0  0
   11.5060  -19.2670  -22.8210 C   0  0  0  0  0
   10.3810  -18.3530  -23.3030 C   0  0  0  0  0
   10.4780  -17.7470  -24.3720 O   0  0  0  0  0
   10.9400  -20.4350  -22.0240 C   0  0  0  0  0
    9.3130  -18.2650  -22.5140 N   0  0  0  0  0
    8.1540  -17.4470  -22.8680 C   0  0  0  0  0
    8.5670  -15.9930  -23.1380 C   0  0  0  0  0
    9.5860  -15.5330  -22.6200 O   0  0  0  0  0
    7.0990  -17.5200  -21.7580 C   0  0  0  0  0
    6.7470  -18.9290  -21.2710 C   0  0  0  0  0
    5.6980  -18.8970  -20.1550 C   0  0  0  0  0
    6.2790  -19.7930  -22.4330 C   0  0  0  0  0
    7.7740  -15.2560  -23.9410 N   0  0  0  0  0
    6.4770  -15.5860  -24.5550 C   0  0  0  0  0
    6.5290  -16.6940  -25.6100 C   0  0  0  0  0
    7.2830  -16.5940  -26.5820 O   0  0  0  0  0
    6.0640  -14.2710  -25.2320 C   0  0  0  0  0
    6.9040  -13.2190  -24.6030 C   0  0  0  0  0
    8.1950  -13.8870  -24.2840 C   0  0  0  0  0
    5.7120  -17.7270  -25.4210 N   0  0  0  0  0
    5.5840  -18.7990  -26.4030 C   0  0  0  0  0
    4.1270  -18.9820  -26.8260 C   0  0  0  0  0
    3.8010  -19.8940  -27.5870 O   0  0  0  0  0
    6.1500  -20.1010  -25.8520 C   0  0  0  0  0
    3.0420  -18.2350  -26.6230 N   0  0  0  0  0
    1.7680  -18.0480  -27.0530 C   0  0  0  0  0
    1.5070  -17.9670  -28.4170 C   0  0  0  0  0
    0.2060  -17.7760  -28.8670 C   0  0  0  0  0
   -0.8370  -17.6700  -27.9530 C   0  0  0  0  0
   -2.1440  -17.4790  -28.4180 N   0  0  0  0  0
   -2.3300  -17.0980  -29.5630 O   0  0  0  0  0
   -3.1640  -17.7190  -27.6340 O   0  0  0  0  0
   -0.5790  -17.7510  -26.5880 C   0  0  0  0  0
    0.7240  -17.9400  -26.1380 C   0  0  0  0  0
   17.9183  -17.2687  -22.7439 H   0  0  0  0  0
   16.1195  -16.5001  -21.2603 H   0  0  0  0  0
   16.0957  -18.2552  -21.6055 H   0  0  0  0  0
   13.8240  -17.0180  -22.8681 H   0  0  0  0  0
   13.8773  -16.5186  -21.1590 H   0  0  0  0  0
   13.7613  -18.7879  -20.3893 H   0  0  0  0  0
   15.1905  -19.6041  -21.2869 H   0  0  0  0  0
   12.8005  -17.9363  -22.7952 H   0  0  0  0  0
   11.9837  -18.5938  -21.1579 H   0  0  0  0  0
   12.0104  -19.6521  -23.7072 H   0  0  0  0  0
   11.7469  -21.1195  -21.7623 H   0  0  0  0  0
   10.4712  -20.0593  -21.1145 H   0  0  0  0  0
   10.1983  -20.9591  -22.6268 H   0  0  0  0  0
    9.3026  -18.7838  -21.6359 H   0  0  0  0  0
    7.7199  -17.8420  -23.7865 H   0  0  0  0  0
    6.1835  -17.0982  -22.1729 H   0  0  0  0  0
    7.5149  -16.9910  -20.9005 H   0  0  0  0  0
    7.6511  -19.3712  -20.8524 H   0  0  0  0  0
    6.0856  -18.3280  -19.3099 H   0  0  0  0  0
    4.7886  -18.4244  -20.5263 H   0  0  0  0  0
    5.4760  -19.9158  -19.8375 H   0  0  0  0  0
    5.3954  -19.3431  -22.8858 H   0  0  0  0  0
    7.0739  -19.8626  -23.1756 H   0  0  0  0  0
    6.0336  -20.7900  -22.0670 H   0  0  0  0  0
    5.7909  -15.9649  -23.7975 H   0  0  0  0  0
    5.0018  -14.0682  -25.0955 H   0  0  0  0  0
    6.2169  -14.3121  -26.3104 H   0  0  0  0  0
    6.4324  -12.8095  -23.7097 H   0  0  0  0  0
    7.0462  -12.3676  -25.2685 H   0  0  0  0  0
    8.9062  -13.8547  -25.1094 H   0  0  0  0  0
    8.7410  -13.3954  -23.4788 H   0  0  0  0  0
    5.1591  -17.7710  -24.5650 H   0  0  0  0  0
    6.1593  -18.5193  -27.2855 H   0  0  0  0  0
    7.2046  -19.9647  -25.6125 H   0  0  0  0  0
    5.6045  -20.3801  -24.9505 H   0  0  0  0  0
    6.0446  -20.8868  -26.5999 H   0  0  0  0  0
    3.2392  -17.5650  -25.8796 H   0  0  0  0  0
    2.3237  -18.0534  -29.1336 H   0  0  0  0  0
    0.0031  -17.7093  -29.9359 H   0  0  0  0  0
   -1.3966  -17.6665  -25.8722 H   0  0  0  0  0
    0.9275  -18.0035  -25.0691 H   0  0  0  0  0
  1  2  1  0  0  0
  1  3  2  0  0  0
  1  4  1  0  0  0
  4  5  1  0  0  0
  5  6  1  0  0  0
  6  7  1  0  0  0
  6  8  1  0  0  0
  8  9  1  0  0  0
  9 10  1  0  0  0
  9 12  1  0  0  0
 10 11  2  0  0  0
 10 13  1  0  0  0
 13 14  1  0  0  0
 14 15  1  0  0  0
 14 17  1  0  0  0
 15 16  2  0  0  0
 15 21  1  0  0  0
 17 18  1  0  0  0
 18 19  1  0  0  0
 18 20  1  0  0  0
 21 22  1  0  0  0
 21 27  1  0  0  0
 22 23  1  0  0  0
 22 25  1  0  0  0
 23 24  2  0  0  0
 23 28  1  0  0  0
 25 26  1  0  0  0
 26 27  1  0  0  0
 28 29  1  0  0  0
 29 30  1  0  0  0
 29 32  1  0  0  0
 30 31  2  0  0  0
 30 33  1  0  0  0
 33 34  1  0  0  0
 34 35  4  0  0  0
 34 42  4  0  0  0
 35 36  4  0  0  0
 36 37  4  0  0  0
 37 38  1  0  0  0
 37 41  4  0  0  0
 38 39  2  0  0  0
 38 40  2  0  0  0
 41 42  4  0  0  0
  2 43  1  0  0  0
  4 44  1  0  0  0
  4 45  1  0  0  0
  5 46  1  0  0  0
  5 47  1  0  0  0
  6 48  1  0  0  0
  7 49  1  0  0  0
  8 50  1  0  0  0
  8 51  1  0  0  0
  9 52  1  0  0  0
 12 53  1  0  0  0
 12 54  1  0  0  0
 12 55  1  0  0  0
 13 56  1  0  0  0
 14 57  1  0  0  0
 17 58  1  0  0  0
 17 59  1  0  0  0
 18 60  1  0  0  0
 19 61  1  0  0  0
 19 62  1  0  0  0
 19 63  1  0  0  0
 20 64  1  0  0  0
 20 65  1  0  0  0
 20 66  1  0  0  0
 22 67  1  0  0  0
 25 68  1  0  0  0
 25 69  1  0  0  0
 26 70  1  0  0  0
 26 71  1  0  0  0
 27 72  1  0  0  0
 27 73  1  0  0  0
 28 74  1  0  0  0
 29 75  1  0  0  0
 32 76  1  0  0  0
 32 77  1  0  0  0
 32 78  1  0  0  0
 33 79  1  0  0  0
 35 80  1  0  0  0
 36 81  1  0  0  0
 41 82  1  0  0  0
 42 83  1  0  0  0
M  END
$$$$
