6qgh_ligand
  -I-interpret- 

122128  0  0  0  0  0  0  0  0999 V2000
   -0.9430   -2.0120   16.4300 C   0  0  0  0  0
    1.1760   -3.1590   16.4420 C   0  0  0  0  0
    1.1050    5.0820   10.5640 C   0  0  0  0  0
   -0.7510    5.5780   12.0030 C   0  0  0  0  0
    1.5630    4.1490   11.5190 C   0  0  0  0  0
   -1.9510    7.1450    5.2970 C   0  0  0  0  0
   -1.6680    7.7810    6.5150 C   0  0  0  0  0
    0.6570   -4.1370   15.5870 C   0  0  0  0  0
    0.3940   -2.0770   16.8300 C   0  0  0  0  0
   -3.1340    6.4070    5.1660 C   0  0  0  0  0
   -1.8140    3.2750    5.2080 C   0  0  0  0  0
   -2.5300    7.6040    7.6140 C   0  0  0  0  0
   -0.6440   -4.0280   15.1310 C   0  0  0  0  0
    1.9760   -0.2160   17.5380 C   0  0  0  0  0
    0.3580   -1.1400   19.3000 C   0  0  0  0  0
   -1.7660    3.2740    8.0060 C   0  0  0  0  0
   -2.8190    2.6610    7.3270 C   0  0  0  0  0
   -0.7180    3.8730    7.2790 C   0  0  0  0  0
   -0.2900    4.6770   12.9510 C   0  0  0  0  0
   -2.8430    2.6550    5.9450 C   0  0  0  0  0
   -0.7420    3.8610    5.8770 C   0  0  0  0  0
   -1.4600   -2.9680   15.5750 C   0  0  0  0  0
   -3.7300    6.9320    7.4480 C   0  0  0  0  0
   -0.0260    5.8110   10.8210 C   0  0  0  0  0
    0.8230    3.9200   12.6860 C   0  0  0  0  0
   -3.9980    6.2710    6.2790 C   0  0  0  0  0
    0.9290   -1.0760   17.8520 C   0  0  0  0  0
   -0.5490    6.8500    9.8120 C   0  0  0  0  0
    2.5290    0.8350   18.5960 C   0  0  0  0  0
    0.5910    0.1850   20.0160 C   0  0  0  0  0
    2.7000    2.6560   13.5600 C   0  0  0  0  0
    0.5140    2.8490   14.8650 C   0  0  0  0  0
    2.8650    1.2550   14.1670 C   0  0  0  0  0
    0.8230    1.4680   15.4820 C   0  0  0  0  0
   -4.0500    4.2800   -1.1640 C   0  0  0  0  0
   -3.0700    6.2790   -2.1100 C   0  0  0  0  0
   -4.9860    4.1720   -2.3680 C   0  0  0  0  0
   -4.0300    6.2390   -3.2720 C   0  0  0  0  0
    2.0710    0.4830   20.0170 C   0  0  0  0  0
    2.8210   -0.7240   20.4810 C   0  0  0  0  0
    2.3560    1.6510   20.9720 C   0  0  0  0  0
    2.5040   -0.1480   16.0950 C   0  0  0  0  0
   -3.4990    5.4760    1.5200 C   0  0  0  0  0
   -2.7770    5.7720    0.2070 C   0  0  0  0  0
   -1.3960    4.9090    2.9230 C   0  0  0  0  0
   -2.6100    5.8700    2.7930 C   0  0  0  0  0
   -6.6350    6.6600    5.3900 C   0  0  0  0  0
    1.2820    3.0510   13.6080 N   0  0  0  0  0
   -3.4390    5.7440    3.9860 N   0  0  0  0  0
   -1.6600    7.4590   10.0730 N   0  0  0  0  0
    2.2890    1.2260   15.5420 N   0  3  0  0  0
   -3.7140    5.7000   -0.9120 N   0  3  0  0  0
    0.0470    7.0740    8.7590 O   0  0  0  0  0
   -6.0880    5.1910    7.4440 O   0  0  0  0  0
   -5.4890    4.3250    5.2230 O   0  0  0  0  0
   -1.3240    9.6490    8.8700 O   0  0  0  0  0
   -3.5840    8.9010    9.6230 O   0  0  0  0  0
   -4.4090    4.8260   -3.5470 O   0  0  0  0  0
   -6.9170    7.6340    6.2850 F   0  0  0  0  0
   -6.0220    7.2120    4.3020 F   0  0  0  0  0
   -7.7660    6.0370    5.0450 F   0  0  0  0  0
   -1.8600    3.2110    3.4260 S   0  0  0  0  0
   -5.4910    5.5010    6.1280 S   0  0  0  0  0
   -2.2740    8.4700    9.0980 S   0  0  0  0  0
   -1.2950   -5.2460   14.1060 Cl  0  0  0  0  0
   -1.5803   -1.2056   16.7928 H   0  0  0  0  0
    2.1997   -3.2458   16.8062 H   0  0  0  0  0
    1.6473    5.2214    9.6288 H   0  0  0  0  0
   -1.6857    6.1114   12.1761 H   0  0  0  0  0
    2.4929    3.6065   11.3483 H   0  0  0  0  0
   -1.2567    7.2245    4.4605 H   0  0  0  0  0
   -0.7832    8.4104    6.6102 H   0  0  0  0  0
    1.2752   -4.9812   15.2816 H   0  0  0  0  0
    0.8629   -1.9355   19.8480 H   0  0  0  0  0
   -0.7130   -1.3369   19.2530 H   0  0  0  0  0
   -1.7538    3.2896    9.0958 H   0  0  0  0  0
   -3.6243    2.1859    7.8872 H   0  0  0  0  0
    0.1109    4.3454    7.8062 H   0  0  0  0  0
   -0.8100    4.5707   13.9031 H   0  0  0  0  0
   -3.6645    2.1667    5.4208 H   0  0  0  0  0
    0.0758    4.3089    5.3124 H   0  0  0  0  0
   -2.4967   -2.9019   15.2450 H   0  0  0  0  0
   -4.4653    6.9294    8.2527 H   0  0  0  0  0
    2.1439    1.8222   18.3404 H   0  0  0  0  0
    3.6185    0.8182   18.5669 H   0  0  0  0  0
    0.2263    0.1203   21.0411 H   0  0  0  0  0
    0.0538    0.9822   19.5022 H   0  0  0  0  0
    3.0379    2.6440   12.5238 H   0  0  0  0  0
    3.2945    3.3701   14.1299 H   0  0  0  0  0
    0.7976    3.6233   15.5778 H   0  0  0  0  0
   -0.5508    2.9017   14.6380 H   0  0  0  0  0
    3.9254    1.0074   14.2163 H   0  0  0  0  0
    2.3428    0.5294   13.5433 H   0  0  0  0  0
    0.3669    0.6976   14.8602 H   0  0  0  0  0
    0.4227    1.4407   16.4955 H   0  0  0  0  0
   -3.1346    3.7252   -1.3696 H   0  0  0  0  0
   -4.5454    3.8666   -0.2855 H   0  0  0  0  0
   -2.7916    7.3130   -1.9066 H   0  0  0  0  0
   -2.1795    5.7008   -2.3568 H   0  0  0  0  0
   -5.9274    4.6636   -2.1227 H   0  0  0  0  0
   -5.1408    3.1173   -2.5954 H   0  0  0  0  0
   -3.5542    6.6679   -4.1539 H   0  0  0  0  0
   -4.9223    6.8159   -3.0287 H   0  0  0  0  0
    2.6162   -1.5578   19.8095 H   0  0  0  0  0
    3.8896   -0.5089   20.4798 H   0  0  0  0  0
    2.5022   -0.9823   21.4908 H   0  0  0  0  0
    3.4263    1.8570   20.9827 H   0  0  0  0  0
    1.8177    2.5359   20.6324 H   0  0  0  0  0
    2.0256    1.3863   21.9764 H   0  0  0  0  0
    1.9690   -0.8721   15.4805 H   0  0  0  0  0
    3.5698   -0.3764   16.0896 H   0  0  0  0  0
   -3.7033    4.4062    1.5639 H   0  0  0  0  0
   -4.4148    6.0664    1.5469 H   0  0  0  0  0
   -1.9882    5.0344    0.0596 H   0  0  0  0  0
   -2.3517    6.7746    0.2520 H   0  0  0  0  0
   -0.7403    5.3118    3.6949 H   0  0  0  0  0
   -0.9238    4.8430    1.9428 H   0  0  0  0  0
   -2.2430    6.8899    2.6781 H   0  0  0  0  0
   -4.2680    5.1507    3.9520 H   0  0  0  0  0
   -2.1402    7.2612   10.9509 H   0  0  0  0  0
    2.7322    1.9413   16.1185 H   0  0  0  0  0
   -4.5654    6.2188   -0.6968 H   0  0  0  0  0
  9  1  4  0  0  0
  1 22  4  0  0  0
  2  8  4  0  0  0
  9  2  4  0  0  0
  3  5  4  0  0  0
 24  3  4  0  0  0
  4 19  4  0  0  0
 24  4  4  0  0  0
  5 25  4  0  0  0
  7  6  4  0  0  0
  6 10  4  0  0  0
 12  7  4  0  0  0
  8 13  4  0  0  0
 27  9  1  0  0  0
 26 10  4  0  0  0
 10 49  1  0  0  0
 11 20  4  0  0  0
 11 21  4  0  0  0
 62 11  1  0  0  0
 12 23  4  0  0  0
 64 12  1  0  0  0
 22 13  4  0  0  0
 13 65  1  0  0  0
 14 27  2  0  0  0
 14 29  1  0  0  0
 42 14  1  0  0  0
 27 15  1  0  0  0
 15 30  1  0  0  0
 17 16  4  0  0  0
 18 16  4  0  0  0
 20 17  4  0  0  0
 21 18  4  0  0  0
 19 25  4  0  0  0
 23 26  4  0  0  0
 28 24  1  0  0  0
 25 48  1  0  0  0
 26 63  1  0  0  0
 50 28  1  0  0  0
 28 53  2  0  0  0
 29 39  1  0  0  0
 39 30  1  0  0  0
 31 33  1  0  0  0
 48 31  1  0  0  0
 32 34  1  0  0  0
 48 32  1  0  0  0
 33 51  1  0  0  0
 34 51  1  0  0  0
 35 37  1  0  0  0
 52 35  1  0  0  0
 36 38  1  0  0  0
 52 36  1  0  0  0
 37 58  1  0  0  0
 38 58  1  0  0  0
 39 40  1  0  0  0
 39 41  1  0  0  0
 51 42  1  0  0  0
 43 44  1  0  0  0
 46 43  1  0  0  0
 44 52  1  0  0  0
 46 45  1  0  0  0
 45 62  1  0  0  0
 49 46  1  0  0  0
 47 59  1  0  0  0
 47 60  1  0  0  0
 47 61  1  0  0  0
 63 47  1  0  0  0
 50 64  1  0  0  0
 63 54  2  0  0  0
 63 55  2  0  0  0
 64 56  2  0  0  0
 64 57  2  0  0  0
  1 66  1  0  0  0
  2 67  1  0  0  0
  3 68  1  0  0  0
  4 69  1  0  0  0
  5 70  1  0  0  0
  6 71  1  0  0  0
  7 72  1  0  0  0
  8 73  1  0  0  0
 15 74  1  0  0  0
 15 75  1  0  0  0
 16 76  1  0  0  0
 17 77  1  0  0  0
 18 78  1  0  0  0
 19 79  1  0  0  0
 20 80  1  0  0  0
 21 81  1  0  0  0
 22 82  1  0  0  0
 23 83  1  0  0  0
 29 84  1  0  0  0
 29 85  1  0  0  0
 30 86  1  0  0  0
 30 87  1  0  0  0
 31 88  1  0  0  0
 31 89  1  0  0  0
 32 90  1  0  0  0
 32 91  1  0  0  0
 33 92  1  0  0  0
 33 93  1  0  0  0
 34 94  1  0  0  0
 34 95  1  0  0  0
 35 96  1  0  0  0
 35 97  1  0  0  0
 36 98  1  0  0  0
 36 99  1  0  0  0
 37100  1  0  0  0
 37101  1  0  0  0
 38102  1  0  0  0
 38103  1  0  0  0
 40104  1  0  0  0
 40105  1  0  0  0
 40106  1  0  0  0
 41107  1  0  0  0
 41108  1  0  0  0
 41109  1  0  0  0
 42110  1  0  0  0
 42111  1  0  0  0
 43112  1  0  0  0
 43113  1  0  0  0
 44114  1  0  0  0
 44115  1  0  0  0
 45116  1  0  0  0
 45117  1  0  0  0
 46118  1  0  0  0
 49119  1  0  0  0
 50120  1  0  0  0
 51121  1  0  0  0
 52122  1  0  0  0
M  END
$$$$
