5gnk_ligand
  -I-interpret- 

 62 66  0  0  0  0  0  0  0  0999 V2000
   26.1190   12.8390   38.8090 C   0  0  0  0  0
   27.2750   13.2070   39.3550 C   0  0  0  0  0
   27.7390   14.4490   39.2150 C   0  0  0  0  0
   27.0630   15.3740   38.5230 N   0  0  0  0  0
   25.3870   13.7120   38.1020 N   0  0  0  0  0
   25.8460   15.0210   37.9380 C   0  0  0  0  0
   34.6550   13.3190   43.0800 C   0  0  0  0  0
   35.5490   11.6950   39.9980 C   0  0  0  0  0
   29.7650   11.0010   40.2890 C   0  0  0  0  0
   30.9300   10.8240   41.0280 C   0  0  0  0  0
   35.6450   12.7140   40.8530 C   0  0  0  0  0
   29.0630   12.7360   41.7990 C   0  0  0  0  0
   22.4890    9.9750   39.4700 C   0  0  0  0  0
   24.2150    6.9150   34.8690 C   0  0  0  0  0
   24.8050    7.5520   36.1300 C   0  0  0  0  0
   23.7190   10.7810   39.8360 C   0  0  0  0  0
   22.8990    8.5350   39.2880 C   0  0  0  0  0
   33.2970   10.5960   42.5990 C   0  0  0  0  0
   25.1250    9.3270   38.3410 C   0  0  0  0  0
   23.7240    7.6040   37.2140 C   0  0  0  0  0
   30.2280   12.5630   42.5410 C   0  0  0  0  0
   28.8330   11.9620   40.6650 C   0  0  0  0  0
   31.1610   11.6090   42.1580 C   0  0  0  0  0
   34.2880   11.2860   41.6620 C   0  0  0  0  0
   27.7120   12.1120   39.9600 C   0  0  0  0  0
   24.7420   10.7620   38.7040 C   0  0  0  0  0
   28.9030   14.7240   39.7950 N   0  0  0  0  0
   34.7020   10.8000   40.4990 N   0  0  0  0  0
   26.8280   11.1380   39.7740 N   0  0  0  0  0
   23.9270    8.4540   38.2360 N   0  0  0  0  0
   34.8560   12.4600   41.8940 N   0  0  0  0  0
   25.9220   11.5540   39.1100 N   0  0  0  0  0
   22.7280    6.8890   37.1280 O   0  0  0  0  0
   32.2670   11.5280   42.9670 O   0  0  0  0  0
   30.5310   13.5260   43.9450 Cl  0  0  0  0  0
   25.2684   15.7484   37.3676 H   0  0  0  0  0
   35.6086   13.4642   43.5877 H   0  0  0  0  0
   34.2590   14.2844   42.7649 H   0  0  0  0  0
   33.9498   12.8396   43.7589 H   0  0  0  0  0
   36.0763   11.6098   39.0478 H   0  0  0  0  0
   29.5816   10.3829   39.4101 H   0  0  0  0  0
   31.6606   10.0739   40.7251 H   0  0  0  0  0
   36.2633   13.6020   40.7217 H   0  0  0  0  0
   28.3284   13.4800   42.1069 H   0  0  0  0  0
   22.0536   10.3580   38.5470 H   0  0  0  0  0
   21.7434   10.0530   40.2612 H   0  0  0  0  0
   23.8747    5.9053   35.0987 H   0  0  0  0  0
   23.3729    7.5133   34.5212 H   0  0  0  0  0
   24.9789    6.8745   34.0925 H   0  0  0  0  0
   25.1496    8.5614   35.9055 H   0  0  0  0  0
   25.6496    6.9591   36.4809 H   0  0  0  0  0
   24.1727   10.3425   40.7248 H   0  0  0  0  0
   23.4192   11.8128   40.0191 H   0  0  0  0  0
   22.0318    7.9413   38.9989 H   0  0  0  0  0
   23.3018    8.1480   40.2240 H   0  0  0  0  0
   33.8171   10.2537   43.4936 H   0  0  0  0  0
   32.8514    9.7393   42.0934 H   0  0  0  0  0
   25.7717    8.9332   39.1251 H   0  0  0  0  0
   25.6301    9.3381   37.3751 H   0  0  0  0  0
   24.3078   11.2097   37.8101 H   0  0  0  0  0
   29.3966   13.9997   40.3166 H   0  0  0  0  0
   29.3026   15.6593   39.7184 H   0  0  0  0  0
  1  2  4  0  0  0
  1  5  4  0  0  0
 32  1  4  0  0  0
  2  3  4  0  0  0
  2 25  4  0  0  0
  3  4  4  0  0  0
  3 27  1  0  0  0
  6  4  4  0  0  0
  5  6  4  0  0  0
 31  7  1  0  0  0
 11  8  4  0  0  0
 28  8  4  0  0  0
  9 10  4  0  0  0
 22  9  4  0  0  0
 10 23  4  0  0  0
 31 11  4  0  0  0
 12 21  4  0  0  0
 22 12  4  0  0  0
 16 13  1  0  0  0
 13 17  1  0  0  0
 15 14  1  0  0  0
 20 15  1  0  0  0
 26 16  1  0  0  0
 30 17  1  0  0  0
 18 24  1  0  0  0
 34 18  1  0  0  0
 26 19  1  0  0  0
 19 30  1  0  0  0
 30 20  1  0  0  0
 20 33  2  0  0  0
 21 23  4  0  0  0
 21 35  1  0  0  0
 25 22  1  0  0  0
 23 34  1  0  0  0
 24 28  4  0  0  0
 24 31  4  0  0  0
 25 29  4  0  0  0
 26 32  1  0  0  0
 29 32  4  0  0  0
  6 36  1  0  0  0
  7 37  1  0  0  0
  7 38  1  0  0  0
  7 39  1  0  0  0
  8 40  1  0  0  0
  9 41  1  0  0  0
 10 42  1  0  0  0
 11 43  1  0  0  0
 12 44  1  0  0  0
 13 45  1  0  0  0
 13 46  1  0  0  0
 14 47  1  0  0  0
 14 48  1  0  0  0
 14 49  1  0  0  0
 15 50  1  0  0  0
 15 51  1  0  0  0
 16 52  1  0  0  0
 16 53  1  0  0  0
 17 54  1  0  0  0
 17 55  1  0  0  0
 18 56  1  0  0  0
 18 57  1  0  0  0
 19 58  1  0  0  0
 19 59  1  0  0  0
 26 60  1  0  0  0
 27 61  1  0  0  0
 27 62  1  0  0  0
M  END
$$$$
