4ra1_ligand
  -I-interpret- 

 29 29  0  0  0  0  0  0  0  0999 V2000
  -16.2530  -27.4870   17.1550 C   0  0  0  0  0
  -15.9300  -26.2620   16.5930 O   0  0  0  0  0
  -15.7010  -26.6310   19.3030 O   0  0  0  0  0
  -15.5350  -27.7140   18.4590 C   0  0  0  0  0
  -14.0750  -28.0290   18.2680 C   0  0  0  0  0
  -14.6450  -28.6910   15.9580 C   0  0  0  0  0
  -14.5130  -29.7370   14.8970 C   0  0  0  0  0
  -17.3250  -25.3390   20.7310 O   0  0  0  0  0
  -16.6550  -26.6620   20.5550 P   0  0  0  0  0
  -17.7260  -27.6950   20.5090 O   0  0  0  0  0
  -15.9010  -26.9430   21.8190 O   0  0  0  0  0
  -13.4690  -28.4450   19.4550 O   0  0  0  0  0
  -13.8560  -29.0490   17.1890 C   0  0  0  0  0
  -12.5080  -29.0900   16.8900 O   0  0  0  0  0
  -14.9650  -31.0020   15.1910 O   0  0  0  0  0
  -15.9910  -28.5080   16.2610 O   0  0  0  0  0
  -17.3203  -27.4804   17.3761 H   0  0  0  0  0
  -16.1166  -25.5627   17.2237 H   0  0  0  0  0
  -15.9864  -28.5914   18.9222 H   0  0  0  0  0
  -13.6028  -27.0978   17.9552 H   0  0  0  0  0
  -14.2331  -27.7556   15.5793 H   0  0  0  0  0
  -13.4425  -29.8421   14.7209 H   0  0  0  0  0
  -15.1291  -29.3915   14.0668 H   0  0  0  0  0
  -16.6605  -24.6470   20.7648 H   0  0  0  0  0
  -15.1879  -26.3071   21.9130 H   0  0  0  0  0
  -13.6160  -27.7850   20.1364 H   0  0  0  0  0
  -14.1925  -30.0260   17.5360 H   0  0  0  0  0
  -12.0130  -29.3188   17.6800 H   0  0  0  0  0
  -14.8244  -31.5749   14.4336 H   0  0  0  0  0
  1  2  1  0  0  0
  4  1  1  0  0  0
  1 16  1  0  0  0
  4  3  1  0  0  0
  3  9  1  0  0  0
  5  4  1  0  0  0
  5 12  1  0  0  0
 13  5  1  0  0  0
  6  7  1  0  0  0
  6 13  1  0  0  0
  6 16  1  0  0  0
  7 15  1  0  0  0
  9  8  1  0  0  0
  9 10  2  0  0  0
  9 11  1  0  0  0
 13 14  1  0  0  0
  1 17  1  0  0  0
  2 18  1  0  0  0
  4 19  1  0  0  0
  5 20  1  0  0  0
  6 21  1  0  0  0
  7 22  1  0  0  0
  7 23  1  0  0  0
  8 24  1  0  0  0
 11 25  1  0  0  0
 12 26  1  0  0  0
 13 27  1  0  0  0
 14 28  1  0  0  0
 15 29  1  0  0  0
M  END
$$$$
