### 
### Created by X-TOOL on Mon Aug  2 16:10:07 2021
### 

@<TRIPOS>MOLECULE
6htd_ligand
   84    85     1     0     0
SMALL
GAST_HUCK


@<TRIPOS>ATOM
      1 C6         58.8550 -134.1840   33.8980 C.3       1 GQH         0.3131
      2 C7         60.1330 -134.5120   34.6520 C.2       1 GQH         0.2449
      3 C10        61.6540 -133.9920   37.0370 C.2       1 GQH         0.2039
      4 C13        62.9490 -135.5930   39.9390 C.2       1 GQH         0.2018
      5 C15        64.0130 -135.1360   42.1000 C.3       1 GQH         0.0542
      6 C17        64.6040 -132.7530   42.2250 C.ar      1 GQH        -0.0325
      7 C20        65.5540 -130.4400   40.8890 C.ar      1 GQH         0.0061
      8 C21        66.0460 -129.3500   40.1740 C.2       1 GQH         0.0101
      9 C24        65.1860 -132.8310   40.9400 C.ar      1 GQH        -0.0508
     10 C26        62.2080 -136.5280   43.2360 C.3       1 GQH         0.0677
     11 C28        62.1970 -139.4820   42.3940 C.3       1 GQH         0.0544
     12 C18        64.5170 -131.4860   42.8220 C.ar      1 GQH        -0.0508
     13 C19        64.9850 -130.3390   42.1680 C.ar      1 GQH        -0.0481
     14 N22        66.1720 -128.1510   40.7520 N.2       1 GQH        -0.3549
     15 C23        65.6430 -131.6900   40.2890 C.ar      1 GQH        -0.0481
     16 C16        64.1130 -133.8330   42.9640 C.3       1 GQH         0.0079
     17 C25        63.7170 -136.4280   42.8990 C.3       1 GQH        -0.0084
     18 S27        61.5750 -138.2200   43.5050 S.o2      1 GQH        -0.0337
     19 O29        60.0670 -138.1620   43.2460 O.2       1 GQH        -0.1746
     20 O30        61.8490 -138.6040   44.9620 O.2       1 GQH        -0.1746
     21 N14        62.9560 -134.9430   41.1040 N.am      1 GQH        -0.2798
     22 O31        63.8370 -136.3500   39.5300 O.2       1 GQH        -0.3945
     23 C12        61.7130 -135.2770   39.1020 C.3       1 GQH         0.1281
     24 C32        60.7200 -136.4420   39.1380 C.3       1 GQH        -0.0244
     25 N11        62.1530 -135.0180   37.7310 N.am      1 GQH        -0.2640
     26 O39        60.7310 -133.2570   37.4190 O.2       1 GQH        -0.3944
     27 C9         62.2070 -133.8780   35.6220 C.3       1 GQH         0.1313
     28 C40        63.3150 -132.8270   35.5740 C.3       1 GQH        -0.0101
     29 C41        63.9260 -132.7920   34.1570 C.3       1 GQH        -0.0425
     30 C42        64.8550 -131.5670   34.0260 C.3       1 GQH        -0.0625
     31 C43        64.6810 -134.1060   33.8240 C.3       1 GQH        -0.0625
     32 N8         61.0280 -133.5430   34.8220 N.am      1 GQH        -0.2609
     33 O44        60.3230 -135.6670   35.0510 O.2       1 GQH        -0.3906
     34 N51        58.9800 -135.2810   32.9140 N.2       1 GQH         0.1934
     35 N52        58.5410 -135.3160   32.0870 N.1       1 GQH         0.1323
     36 N53        58.0330 -135.3730   31.1230 N.1       1 GQH         0.2336
     37 C54        57.7470 -134.2820   34.9900 C.3       1 GQH         0.0575
     38 C55        56.4160 -133.9100   34.6690 C.ar      1 GQH        -0.0354
     39 C60        55.5750 -133.4640   35.7090 C.ar      1 GQH        -0.0600
     40 C59        54.2360 -133.1030   35.4790 C.ar      1 GQH        -0.0686
     41 C58        53.6940 -133.1890   34.1920 C.ar      1 GQH        -0.0687
     42 C57        54.5080 -133.6430   33.1510 C.ar      1 GQH        -0.0686
     43 C56        55.8440 -134.0030   33.3870 C.ar      1 GQH        -0.0600
     44 H1         58.8336 -133.1964   33.4141 H         1 GQH         0.1271
     45 H2         64.9743 -135.2737   41.5834 H         1 GQH         0.0581
     46 H3         66.3316 -129.4763   39.1307 H         1 GQH         0.1084
     47 H4         65.2778 -133.7954   40.4537 H         1 GQH         0.0581
     48 H5         61.6441 -136.0834   42.4027 H         1 GQH         0.0500
     49 H6         62.0260 -135.9480   44.1528 H         1 GQH         0.0500
     50 H7         61.7472 -140.4520   42.6524 H         1 GQH         0.0464
     51 H8         63.2908 -139.5480   42.4896 H         1 GQH         0.0464
     52 H9         61.9346 -139.2205   41.3583 H         1 GQH         0.0464
     53 H10        64.0788 -131.3930   43.8091 H         1 GQH         0.0581
     54 H11        64.9075 -129.3715   42.6507 H         1 GQH         0.0677
     55 H12        66.5294 -127.3713   40.2225 H         1 GQH         0.1192
     56 H13        66.0751 -131.7773   39.2987 H         1 GQH         0.0677
     57 H14        64.7883 -134.0197   43.8120 H         1 GQH         0.0467
     58 H15        63.1116 -133.5792   43.3417 H         1 GQH         0.0467
     59 H16        64.2960 -136.4152   43.8342 H         1 GQH         0.0305
     60 H17        64.0114 -137.3005   42.2973 H         1 GQH         0.0305
     61 H18        62.2147 -134.3024   41.3042 H         1 GQH         0.1857
     62 H19        61.2209 -134.3788   39.5034 H         1 GQH         0.0797
     63 H20        59.8389 -136.1917   38.5289 H         1 GQH         0.0277
     64 H21        60.4075 -136.6255   40.1766 H         1 GQH         0.0277
     65 H22        61.2001 -137.3456   38.7344 H         1 GQH         0.0277
     66 H23        62.8347 -135.6157   37.3090 H         1 GQH         0.1883
     67 H24        62.6229 -134.8403   35.2887 H         1 GQH         0.0800
     68 H25        64.0964 -133.0836   36.3045 H         1 GQH         0.0315
     69 H26        62.8954 -131.8397   35.8174 H         1 GQH         0.0315
     70 H27        63.1057 -132.6819   33.4325 H         1 GQH         0.0298
     71 H28        65.2899 -131.5430   33.0159 H         1 GQH         0.0232
     72 H29        65.6615 -131.6371   34.7708 H         1 GQH         0.0232
     73 H30        64.2760 -130.6476   34.1978 H         1 GQH         0.0232
     74 H31        63.9944 -134.9593   33.9259 H         1 GQH         0.0232
     75 H32        65.5253 -134.2298   34.5182 H         1 GQH         0.0232
     76 H33        65.0585 -134.0605   32.7918 H         1 GQH         0.0232
     77 H34        60.9021 -132.6341   34.4245 H         1 GQH         0.1884
     78 H35        58.0649 -133.6429   35.8269 H         1 GQH         0.0506
     79 H36        57.7153 -135.3306   35.3208 H         1 GQH         0.0506
     80 H37        55.9725 -133.3975   36.7153 H         1 GQH         0.0557
     81 H38        53.6211 -132.7567   36.3018 H         1 GQH         0.0599
     82 H39        52.6634 -132.9091   34.0062 H         1 GQH         0.0559
     83 H40        54.1026 -133.7181   32.1485 H         1 GQH         0.0599
     84 H41        56.4493 -134.3611   32.5621 H         1 GQH         0.0557
@<TRIPOS>BOND
     1    2    1 1  
     2    1   34 1  
     3    1   37 1  
     4   32    2 am 
     5    2   33 2  
     6    3   25 am 
     7    3   26 2  
     8   27    3 1  
     9    4   21 am 
    10    4   22 2  
    11   23    4 1  
    12    5   16 1  
    13    5   17 1  
    14   21    5 1  
    15    6    9 ar 
    16    6   12 ar 
    17   16    6 1  
    18    7    8 1  
    19   13    7 ar 
    20   15    7 ar 
    21    8   14 2  
    22    9   15 ar 
    23   17   10 1  
    24   10   18 1  
    25   18   11 1  
    26   12   13 ar 
    27   18   19 2  
    28   18   20 2  
    29   23   24 1  
    30   25   23 1  
    31   27   28 1  
    32   27   32 1  
    33   28   29 1  
    34   29   30 1  
    35   29   31 1  
    36   34   35 2  
    37   35   36 3  
    38   37   38 1  
    39   38   39 ar 
    40   38   43 ar 
    41   39   40 ar 
    42   40   41 ar 
    43   41   42 ar 
    44   42   43 ar 
    45    1   44 1  
    46    5   45 1  
    47    8   46 1  
    48    9   47 1  
    49   10   48 1  
    50   10   49 1  
    51   11   50 1  
    52   11   51 1  
    53   11   52 1  
    54   12   53 1  
    55   13   54 1  
    56   14   55 1  
    57   15   56 1  
    58   16   57 1  
    59   16   58 1  
    60   17   59 1  
    61   17   60 1  
    62   21   61 1  
    63   23   62 1  
    64   24   63 1  
    65   24   64 1  
    66   24   65 1  
    67   25   66 1  
    68   27   67 1  
    69   28   68 1  
    70   28   69 1  
    71   29   70 1  
    72   30   71 1  
    73   30   72 1  
    74   30   73 1  
    75   31   74 1  
    76   31   75 1  
    77   31   76 1  
    78   32   77 1  
    79   37   78 1  
    80   37   79 1  
    81   39   80 1  
    82   40   81 1  
    83   41   82 1  
    84   42   83 1  
    85   43   84 1  
@<TRIPOS>SUBSTRUCTURE
     1 GQH         1

