6htd_ligand
  -I-interpret- 

 84 85  0  0  0  0  0  0  0  0999 V2000
   58.8550 -134.1840   33.8980 C   0  0  0  0  0
   60.1330 -134.5120   34.6520 C   0  0  0  0  0
   61.6540 -133.9920   37.0370 C   0  0  0  0  0
   62.9490 -135.5930   39.9390 C   0  0  0  0  0
   64.0130 -135.1360   42.1000 C   0  0  0  0  0
   64.6040 -132.7530   42.2250 C   0  0  0  0  0
   65.5540 -130.4400   40.8890 C   0  0  0  0  0
   66.0460 -129.3500   40.1740 C   0  0  0  0  0
   65.1860 -132.8310   40.9400 C   0  0  0  0  0
   62.2080 -136.5280   43.2360 C   0  0  0  0  0
   62.1970 -139.4820   42.3940 C   0  0  0  0  0
   64.5170 -131.4860   42.8220 C   0  0  0  0  0
   64.9850 -130.3390   42.1680 C   0  0  0  0  0
   66.1720 -128.1510   40.7520 N   0  0  0  0  0
   65.6430 -131.6900   40.2890 C   0  0  0  0  0
   64.1130 -133.8330   42.9640 C   0  0  0  0  0
   63.7170 -136.4280   42.8990 C   0  0  0  0  0
   61.5750 -138.2200   43.5050 S   0  0  0  0  0
   60.0670 -138.1620   43.2460 O   0  0  0  0  0
   61.8490 -138.6040   44.9620 O   0  0  0  0  0
   62.9560 -134.9430   41.1040 N   0  0  0  0  0
   63.8370 -136.3500   39.5300 O   0  0  0  0  0
   61.7130 -135.2770   39.1020 C   0  0  0  0  0
   60.7200 -136.4420   39.1380 C   0  0  0  0  0
   62.1530 -135.0180   37.7310 N   0  0  0  0  0
   60.7310 -133.2570   37.4190 O   0  0  0  0  0
   62.2070 -133.8780   35.6220 C   0  0  0  0  0
   63.3150 -132.8270   35.5740 C   0  0  0  0  0
   63.9260 -132.7920   34.1570 C   0  0  0  0  0
   64.8550 -131.5670   34.0260 C   0  0  0  0  0
   64.6810 -134.1060   33.8240 C   0  0  0  0  0
   61.0280 -133.5430   34.8220 N   0  0  0  0  0
   60.3230 -135.6670   35.0510 O   0  0  0  0  0
   58.9800 -135.2810   32.9140 N   0  0  0  0  0
   58.5410 -135.3160   32.0870 N   0  0  0  0  0
   58.0330 -135.3730   31.1230 N   0  0  0  0  0
   57.7470 -134.2820   34.9900 C   0  0  0  0  0
   56.4160 -133.9100   34.6690 C   0  0  0  0  0
   55.5750 -133.4640   35.7090 C   0  0  0  0  0
   54.2360 -133.1030   35.4790 C   0  0  0  0  0
   53.6940 -133.1890   34.1920 C   0  0  0  0  0
   54.5080 -133.6430   33.1510 C   0  0  0  0  0
   55.8440 -134.0030   33.3870 C   0  0  0  0  0
   58.6551 -133.2336   33.4031 H   0  0  0  0  0
   64.9951 -135.2848   41.6512 H   0  0  0  0  0
   66.3319 -129.4764   39.1298 H   0  0  0  0  0
   65.2783 -133.8008   40.4510 H   0  0  0  0  0
   61.6702 -136.1277   42.3765 H   0  0  0  0  0
   62.0620 -135.9889   44.1720 H   0  0  0  0  0
   61.7149 -140.4331   42.6202 H   0  0  0  0  0
   61.9781 -139.1980   41.3647 H   0  0  0  0  0
   63.2748 -139.5795   42.5240 H   0  0  0  0  0
   64.0764 -131.3925   43.8146 H   0  0  0  0  0
   64.9071 -129.3662   42.6534 H   0  0  0  0  0
   65.9064 -128.0253   41.7288 H   0  0  0  0  0
   66.0775 -131.7778   39.2932 H   0  0  0  0  0
   64.7995 -134.0223   43.7892 H   0  0  0  0  0
   63.1132 -133.5793   43.3162 H   0  0  0  0  0
   64.2855 -136.4061   43.8287 H   0  0  0  0  0
   64.0016 -137.2895   42.2949 H   0  0  0  0  0
   62.1999 -134.2896   41.3082 H   0  0  0  0  0
   61.2020 -134.4028   39.5055 H   0  0  0  0  0
   59.8509 -136.1959   38.5280 H   0  0  0  0  0
   61.1993 -137.3386   38.7449 H   0  0  0  0  0
   60.4054 -136.6180   40.1667 H   0  0  0  0  0
   62.8484 -135.6276   37.3006 H   0  0  0  0  0
   62.6835 -134.7829   35.2450 H   0  0  0  0  0
   64.0891 -133.0803   36.2984 H   0  0  0  0  0
   62.8999 -131.8486   35.8160 H   0  0  0  0  0
   63.1156 -132.7035   33.4335 H   0  0  0  0  0
   64.2801 -130.6568   34.1965 H   0  0  0  0  0
   65.6536 -131.6376   34.7645 H   0  0  0  0  0
   65.2853 -131.5443   33.0248 H   0  0  0  0  0
   65.4878 -134.2520   34.5423 H   0  0  0  0  0
   63.9880 -134.9455   33.8784 H   0  0  0  0  0
   65.0958 -134.0403   32.8182 H   0  0  0  0  0
   60.8996 -132.6159   34.4165 H   0  0  0  0  0
   58.0541 -133.5747   35.7604 H   0  0  0  0  0
   57.6877 -135.3436   35.2298 H   0  0  0  0  0
   55.9747 -133.3972   36.7209 H   0  0  0  0  0
   53.6177 -132.7548   36.3064 H   0  0  0  0  0
   52.6577 -132.9075   34.0052 H   0  0  0  0  0
   54.1004 -133.7186   32.1429 H   0  0  0  0  0
   56.4526 -134.3631   32.5575 H   0  0  0  0  0
  2  1  1  0  0  0
  1 34  1  0  0  0
  1 37  1  0  0  0
 32  2  1  0  0  0
  2 33  2  0  0  0
  3 25  1  0  0  0
  3 26  2  0  0  0
 27  3  1  0  0  0
  4 21  1  0  0  0
  4 22  2  0  0  0
 23  4  1  0  0  0
  5 16  1  0  0  0
  5 17  1  0  0  0
 21  5  1  0  0  0
  6  9  4  0  0  0
  6 12  4  0  0  0
 16  6  1  0  0  0
  7  8  1  0  0  0
 13  7  4  0  0  0
 15  7  4  0  0  0
  8 14  2  0  0  0
  9 15  4  0  0  0
 17 10  1  0  0  0
 10 18  1  0  0  0
 18 11  1  0  0  0
 12 13  4  0  0  0
 18 19  2  0  0  0
 18 20  2  0  0  0
 23 24  1  0  0  0
 25 23  1  0  0  0
 27 28  1  0  0  0
 27 32  1  0  0  0
 28 29  1  0  0  0
 29 30  1  0  0  0
 29 31  1  0  0  0
 34 35  2  0  0  0
 35 36  3  0  0  0
 37 38  1  0  0  0
 38 39  4  0  0  0
 38 43  4  0  0  0
 39 40  4  0  0  0
 40 41  4  0  0  0
 41 42  4  0  0  0
 42 43  4  0  0  0
  1 44  1  0  0  0
  5 45  1  0  0  0
  8 46  1  0  0  0
  9 47  1  0  0  0
 10 48  1  0  0  0
 10 49  1  0  0  0
 11 50  1  0  0  0
 11 51  1  0  0  0
 11 52  1  0  0  0
 12 53  1  0  0  0
 13 54  1  0  0  0
 14 55  1  0  0  0
 15 56  1  0  0  0
 16 57  1  0  0  0
 16 58  1  0  0  0
 17 59  1  0  0  0
 17 60  1  0  0  0
 21 61  1  0  0  0
 23 62  1  0  0  0
 24 63  1  0  0  0
 24 64  1  0  0  0
 24 65  1  0  0  0
 25 66  1  0  0  0
 27 67  1  0  0  0
 28 68  1  0  0  0
 28 69  1  0  0  0
 29 70  1  0  0  0
 30 71  1  0  0  0
 30 72  1  0  0  0
 30 73  1  0  0  0
 31 74  1  0  0  0
 31 75  1  0  0  0
 31 76  1  0  0  0
 32 77  1  0  0  0
 37 78  1  0  0  0
 37 79  1  0  0  0
 39 80  1  0  0  0
 40 81  1  0  0  0
 41 82  1  0  0  0
 42 83  1  0  0  0
 43 84  1  0  0  0
M  END
$$$$
