3lir_ligand
  -I-interpret- 

 60 61  0  0  0  0  0  0  0  0999 V2000
    6.7240   31.0410    8.3400 C   0  0  0  0  0
    8.4530   29.5660    7.4880 N   0  0  0  0  0
    6.6730   28.5230    6.5970 O   0  0  0  0  0
    7.6960   29.9370    8.6710 C   0  0  0  0  0
    8.0150   27.4730    4.5940 N   0  0  0  0  0
    9.8760   26.1830    4.3700 O   0  0  0  0  0
    8.7430   30.4620    9.6410 C   0  0  0  0  0
    5.6310   22.2820    6.4150 N   0  0  0  0  0
    9.1500   29.3750   10.6210 C   0  0  0  0  0
    9.7360   32.1640    3.2120 O   0  0  0  0  0
   10.1000   29.9660   11.6400 C   0  0  0  0  0
    6.9020   22.6120    5.8790 O   0  0  0  0  0
    7.8500   28.8630    6.5330 C   0  0  0  0  0
    8.6640   28.5480    5.3210 C   0  0  0  0  0
    8.4910   29.7930    4.4610 C   0  0  0  0  0
   10.3700   31.1930   11.5930 O   0  0  0  0  0
    9.3250   29.8280    3.1910 C   0  0  0  0  0
    7.0430   31.8180    7.3980 N   0  0  0  0  0
    5.6800   31.1710    8.9630 O   0  0  0  0  0
    9.1330   31.2230    2.6470 C   0  0  0  0  0
    8.6790   26.3970    4.1820 C   0  0  0  0  0
    7.8260   25.3950    3.4700 C   0  0  0  0  0
    8.0490   24.1130    4.2270 C   0  0  0  0  0
    5.4760   23.9440    4.8860 C   0  0  0  0  0
    4.7730   23.1150    5.7930 C   0  0  0  0  0
    3.3150   23.0670    6.0910 C   0  0  0  0  0
    2.3930   23.6940    5.2590 C   0  0  0  0  0
    1.0410   23.6290    5.5580 C   0  0  0  0  0
    0.6260   22.9250    6.6890 C   0  0  0  0  0
    1.5440   22.2910    7.5220 C   0  0  0  0  0
    2.8950   22.3620    7.2200 C   0  0  0  0  0
    6.8360   23.6020    4.9560 C   0  0  0  0  0
    8.3640   31.3850    1.6730 O   0  0  0  0  0
   10.5840   29.1950   12.5010 O   0  0  0  0  0
    9.4307   29.8400    7.3911 H   0  0  0  0  0
    7.1223   29.1021    9.0733 H   0  0  0  0  0
    7.0177   27.5449    4.3925 H   0  0  0  0  0
    8.3235   31.3011   10.1959 H   0  0  0  0  0
    9.6209   30.7791    9.0781 H   0  0  0  0  0
    9.6413   28.5618   10.0868 H   0  0  0  0  0
    8.2665   28.9826   11.1245 H   0  0  0  0  0
   10.2687   31.8155    3.9306 H   0  0  0  0  0
    9.6938   28.2803    5.5577 H   0  0  0  0  0
    8.8131   30.6386    5.0687 H   0  0  0  0  0
    7.4469   29.8133    4.1487 H   0  0  0  0  0
    9.8960   31.5960   10.8619 H   0  0  0  0  0
    9.0123   29.0658    2.4772 H   0  0  0  0  0
   10.3745   29.6080    3.3867 H   0  0  0  0  0
    6.4218   32.5833    7.1356 H   0  0  0  0  0
    7.9220   31.6807    6.8991 H   0  0  0  0  0
    8.0934   25.3022    2.4174 H   0  0  0  0  0
    6.7757   25.6861    3.4558 H   0  0  0  0  0
    8.8125   24.3142    4.9785 H   0  0  0  0  0
    8.3257   23.3538    3.4955 H   0  0  0  0  0
    5.0392   24.7114    4.2469 H   0  0  0  0  0
    2.7325   24.2343    4.3753 H   0  0  0  0  0
    0.3104   24.1222    4.9169 H   0  0  0  0  0
   -0.4368   22.8704    6.9248 H   0  0  0  0  0
    1.2041   21.7448    8.4019 H   0  0  0  0  0
    3.6260   21.8695    7.8613 H   0  0  0  0  0
  4  1  1  0  0  0
  1 18  1  0  0  0
  1 19  2  0  0  0
  2  4  1  0  0  0
 13  2  1  0  0  0
 13  3  2  0  0  0
  4  7  1  0  0  0
  5 14  1  0  0  0
 21  5  1  0  0  0
 21  6  2  0  0  0
  7  9  1  0  0  0
 12  8  4  0  0  0
  8 25  4  0  0  0
  9 11  1  0  0  0
 20 10  1  0  0  0
 11 16  1  0  0  0
 11 34  2  0  0  0
 32 12  4  0  0  0
 14 13  1  0  0  0
 14 15  1  0  0  0
 15 17  1  0  0  0
 17 20  1  0  0  0
 20 33  2  0  0  0
 22 21  1  0  0  0
 23 22  1  0  0  0
 23 32  1  0  0  0
 25 24  4  0  0  0
 24 32  4  0  0  0
 25 26  1  0  0  0
 26 27  4  0  0  0
 26 31  4  0  0  0
 27 28  4  0  0  0
 28 29  4  0  0  0
 29 30  4  0  0  0
 30 31  4  0  0  0
  2 35  1  0  0  0
  4 36  1  0  0  0
  5 37  1  0  0  0
  7 38  1  0  0  0
  7 39  1  0  0  0
  9 40  1  0  0  0
  9 41  1  0  0  0
 10 42  1  0  0  0
 14 43  1  0  0  0
 15 44  1  0  0  0
 15 45  1  0  0  0
 16 46  1  0  0  0
 17 47  1  0  0  0
 17 48  1  0  0  0
 18 49  1  0  0  0
 18 50  1  0  0  0
 22 51  1  0  0  0
 22 52  1  0  0  0
 23 53  1  0  0  0
 23 54  1  0  0  0
 24 55  1  0  0  0
 27 56  1  0  0  0
 28 57  1  0  0  0
 29 58  1  0  0  0
 30 59  1  0  0  0
 31 60  1  0  0  0
M  END
$$$$
