2r3m_ligand
  -I-interpret- 

 45 48  0  0  0  0  0  0  0  0999 V2000
   -0.6750   31.1570    8.2220 C   0  0  0  0  0
   -0.1090   29.9570    8.6070 C   0  0  0  0  0
    1.1270   29.8800    7.9750 N   0  0  0  0  0
    1.3770   30.9910    7.1940 N   0  0  0  0  0
    0.2940   31.7540    7.3650 C   0  0  0  0  0
   -0.5640   28.9690    9.4520 N   0  0  0  0  0
    0.2110   27.9490    9.6250 C   0  0  0  0  0
    1.5520   27.7780    8.9910 C   0  0  0  0  0
    1.9960   28.7820    8.1990 C   0  0  0  0  0
    3.2400   28.8300    7.5860 N   0  0  0  0  0
   -0.2180   26.8670   10.5410 C   0  0  0  0  0
    4.4410   28.0740    7.8790 C   0  0  0  0  0
    4.5400   26.8800    7.0050 C   0  0  0  0  0
    4.5030   25.6060    7.5170 C   0  0  0  0  0
    4.5570   24.4960    6.7580 N   0  0  0  0  0
    4.6320   24.6840    5.4280 C   0  0  0  0  0
    4.6710   25.8800    4.8190 N   0  0  0  0  0
    4.6060   26.9530    5.6180 C   0  0  0  0  0
   -0.3360   27.1440   11.9000 C   0  0  0  0  0
   -0.7560   26.1690   12.8100 C   0  0  0  0  0
   -1.0380   24.8760   12.3640 C   0  0  0  0  0
   -0.9130   24.5770   11.0080 C   0  0  0  0  0
   -0.5110   25.5750   10.1050 C   0  0  0  0  0
   -1.9940   31.7000    8.6330 C   0  0  0  0  0
    4.6680   23.5820    4.6420 N   0  0  0  0  0
   -3.1350   30.7520    8.3120 C   0  0  0  0  0
   -0.0790   28.3540   12.3720 F   0  0  0  0  0
   -0.4140   25.2420    8.8070 F   0  0  0  0  0
    0.1652   32.7305    6.8981 H   0  0  0  0  0
    2.1489   26.8816    9.1590 H   0  0  0  0  0
    3.3208   29.4947    6.8166 H   0  0  0  0  0
    4.4046   27.7463    8.9179 H   0  0  0  0  0
    5.3081   28.7106    7.7029 H   0  0  0  0  0
    4.4256   25.4875    8.5978 H   0  0  0  0  0
    4.6048   27.9396    5.1546 H   0  0  0  0  0
   -0.8631   26.4177   13.8658 H   0  0  0  0  0
   -1.3530   24.1074   13.0698 H   0  0  0  0  0
   -1.1269   23.5703   10.6491 H   0  0  0  0  0
   -2.1622   32.6278    8.0861 H   0  0  0  0  0
   -1.9749   31.8518    9.7122 H   0  0  0  0  0
    4.6383   22.6537    5.0636 H   0  0  0  0  0
    4.7249   23.6802    3.6283 H   0  0  0  0  0
   -3.1644   30.5716    7.2374 H   0  0  0  0  0
   -2.9803   29.8088    8.8360 H   0  0  0  0  0
   -4.0768   31.1972    8.6329 H   0  0  0  0  0
  1  2  4  0  0  0
  1  5  4  0  0  0
  1 24  1  0  0  0
  2  3  4  0  0  0
  2  6  4  0  0  0
  3  4  4  0  0  0
  3  9  4  0  0  0
  4  5  4  0  0  0
  6  7  4  0  0  0
  7  8  4  0  0  0
  7 11  1  0  0  0
  8  9  4  0  0  0
  9 10  1  0  0  0
 10 12  1  0  0  0
 11 19  4  0  0  0
 11 23  4  0  0  0
 12 13  1  0  0  0
 13 14  4  0  0  0
 13 18  4  0  0  0
 14 15  4  0  0  0
 15 16  4  0  0  0
 16 17  4  0  0  0
 16 25  1  0  0  0
 17 18  4  0  0  0
 19 20  4  0  0  0
 19 27  1  0  0  0
 20 21  4  0  0  0
 21 22  4  0  0  0
 22 23  4  0  0  0
 23 28  1  0  0  0
 24 26  1  0  0  0
  5 29  1  0  0  0
  8 30  1  0  0  0
 10 31  1  0  0  0
 12 32  1  0  0  0
 12 33  1  0  0  0
 14 34  1  0  0  0
 18 35  1  0  0  0
 20 36  1  0  0  0
 21 37  1  0  0  0
 22 38  1  0  0  0
 24 39  1  0  0  0
 24 40  1  0  0  0
 25 41  1  0  0  0
 25 42  1  0  0  0
 26 43  1  0  0  0
 26 44  1  0  0  0
 26 45  1  0  0  0
M  END
$$$$
