2o9j_ligand
  -I-interpret- 

 44 48  0  0  0  0  0  0  0  0999 V2000
   34.3080   10.5230   13.5530 O   0  0  0  0  0
   34.1590   11.0130   12.3680 C   0  0  0  0  0
   35.3190   11.0730   11.4340 C   0  0  0  0  0
   36.7090   10.5750   11.5980 C   0  0  0  0  0
   37.3290   10.8380   12.6200 O   0  0  0  0  0
   37.2650    9.7640   10.4590 C   0  0  0  0  0
   32.8760   11.6320   11.9390 C   0  0  0  0  0
   31.6820   10.8670   11.3810 C   0  0  0  0  0
   30.6420   10.6740   12.4150 C   0  0  0  0  0
   30.6670    9.7980   13.4810 C   0  0  0  0  0
   29.4760   10.0310   14.1100 N   0  0  0  0  0
   28.7670   10.9960   13.4650 C   0  0  0  0  0
   29.5080   11.4140   12.3760 C   0  0  0  0  0
   27.5280   11.6010   13.6730 C   0  0  0  0  0
   27.0780   12.5930   12.7910 C   0  0  0  0  0
   27.8540   12.9910   11.6990 C   0  0  0  0  0
   29.0880   12.3800   11.5010 C   0  0  0  0  0
   30.0140   12.7220   10.3610 C   0  0  0  0  0
   31.2120   11.7620   10.1930 C   0  0  0  0  0
   32.4140   12.6060    9.7530 C   0  0  0  0  0
   32.7250   12.3750    8.2780 C   0  0  0  0  0
   32.1760   14.0820   10.0390 C   0  0  0  0  0
   33.4400   12.0240   10.6320 N   0  0  0  0  0
   34.6920   11.7380   10.2640 C   0  0  0  0  0
   35.3480   12.0640    8.9780 O   0  0  0  0  0
   38.1509   10.2587   10.0609 H   0  0  0  0  0
   37.5329    8.7706   10.8188 H   0  0  0  0  0
   36.5126    9.6773    9.6751 H   0  0  0  0  0
   32.4745   12.2005   12.7779 H   0  0  0  0  0
   31.9187    9.8540   11.0556 H   0  0  0  0  0
   31.4490    9.0900   13.7556 H   0  0  0  0  0
   26.9104   11.3029   14.5202 H   0  0  0  0  0
   26.1081   13.0611   12.9593 H   0  0  0  0  0
   27.4998   13.7639   11.0168 H   0  0  0  0  0
   30.4254   13.7092   10.5715 H   0  0  0  0  0
   29.4264   12.6596    9.4451 H   0  0  0  0  0
   30.8334   11.0302    9.4794 H   0  0  0  0  0
   32.9559   11.3219    8.1173 H   0  0  0  0  0
   31.8593   12.6543    7.6774 H   0  0  0  0  0
   33.5813   12.9843    7.9888 H   0  0  0  0  0
   31.2933   14.4184    9.4952 H   0  0  0  0  0
   32.0210   14.2231   11.1087 H   0  0  0  0  0
   33.0439   14.6577    9.7172 H   0  0  0  0  0
   34.7149   12.4913    8.3964 H   0  0  0  0  0
  1  2  2  0  0  0
  2  3  1  0  0  0
  2  7  1  0  0  0
  3  4  1  0  0  0
  3 24  2  0  0  0
  4  5  2  0  0  0
  4  6  1  0  0  0
  7  8  1  0  0  0
  7 23  1  0  0  0
  8  9  1  0  0  0
  8 19  1  0  0  0
  9 10  4  0  0  0
  9 13  4  0  0  0
 10 11  4  0  0  0
 11 12  4  0  0  0
 12 13  4  0  0  0
 12 14  4  0  0  0
 13 17  4  0  0  0
 14 15  4  0  0  0
 15 16  4  0  0  0
 16 17  4  0  0  0
 17 18  1  0  0  0
 18 19  1  0  0  0
 19 20  1  0  0  0
 20 21  1  0  0  0
 20 22  1  0  0  0
 20 23  1  0  0  0
 23 24  1  0  0  0
 24 25  1  0  0  0
  6 26  1  0  0  0
  6 27  1  0  0  0
  6 28  1  0  0  0
  7 29  1  0  0  0
  8 30  1  0  0  0
 10 31  1  0  0  0
 14 32  1  0  0  0
 15 33  1  0  0  0
 16 34  1  0  0  0
 18 35  1  0  0  0
 18 36  1  0  0  0
 19 37  1  0  0  0
 21 38  1  0  0  0
 21 39  1  0  0  0
 21 40  1  0  0  0
 22 41  1  0  0  0
 22 42  1  0  0  0
 22 43  1  0  0  0
 25 44  1  0  0  0
M  END
$$$$
