1df8_ligand
  -I-interpret- 

 32 33  0  0  0  0  0  0  0  0999 V2000
   32.5640   18.1390   14.0710 C   0  0  0  0  0
   33.4260   17.4630   13.4730 O   0  0  0  0  0
   32.5320   19.3920   13.9660 O   0  0  0  0  0
   31.5990   17.4500   14.9620 C   0  0  0  0  0
   31.2260   16.0460   14.5600 C   0  0  0  0  0
   30.5160   16.0360   13.2000 C   0  0  0  0  0
   30.0160   14.6260   12.8220 C   0  0  0  0  0
   29.2080   14.5510   11.5450 C   0  0  0  0  0
   27.5110   15.2280   11.7030 S   0  0  0  0  0
   27.1670   14.6500   10.0230 C   0  0  0  0  0
   27.7360   13.2480    9.9740 C   0  0  0  0  0
   26.8850   12.1810   10.4970 N   0  0  0  0  0
   27.4580   11.5460   11.5290 C   0  0  0  0  0
   26.9770   10.6020   12.2050 O   0  0  0  0  0
   28.6480   12.1210   11.8210 N   0  0  0  0  0
   28.9670   13.2060   10.9010 C   0  0  0  0  0
   31.8071   19.7377   14.4920 H   0  0  0  0  0
   30.6794   18.0344   14.9319 H   0  0  0  0  0
   32.0792   17.3746   15.9376 H   0  0  0  0  0
   30.5514   15.6341   15.3105 H   0  0  0  0  0
   32.1353   15.4497   14.4850 H   0  0  0  0  0
   31.2273   16.3612   12.4408 H   0  0  0  0  0
   29.6534   16.6997   13.2600 H   0  0  0  0  0
   29.3588   14.3000   13.6282 H   0  0  0  0  0
   30.9021   14.0100   12.6688 H   0  0  0  0  0
   29.8880   15.1332   10.9231 H   0  0  0  0  0
   27.6168   15.2976    9.2704 H   0  0  0  0  0
   26.1004   14.6637    9.7990 H   0  0  0  0  0
   27.9068   13.0673    8.9127 H   0  0  0  0  0
   25.9657   11.9477   10.1218 H   0  0  0  0  0
   29.2492   11.8302   12.5919 H   0  0  0  0  0
   29.9145   13.0145   10.3973 H   0  0  0  0  0
  1  4  1  0  0  0
  1  3  1  0  0  0
  1  2  2  0  0  0
  4  5  1  0  0  0
  5  6  1  0  0  0
  6  7  1  0  0  0
  7  8  1  0  0  0
  8 16  1  0  0  0
  8  9  1  0  0  0
  9 10  1  0  0  0
 10 11  1  0  0  0
 11 16  1  0  0  0
 11 12  1  0  0  0
 12 13  1  0  0  0
 13 15  1  0  0  0
 13 14  2  0  0  0
 15 16  1  0  0  0
  3 17  1  0  0  0
  4 18  1  0  0  0
  4 19  1  0  0  0
  5 20  1  0  0  0
  5 21  1  0  0  0
  6 22  1  0  0  0
  6 23  1  0  0  0
  7 24  1  0  0  0
  7 25  1  0  0  0
  8 26  1  0  0  0
 10 27  1  0  0  0
 10 28  1  0  0  0
 11 29  1  0  0  0
 12 30  1  0  0  0
 15 31  1  0  0  0
 16 32  1  0  0  0
M  END
$$$$
