2ay7_ligand
  -I-interpret- 

 24 24  0  0  0  0  0  0  0  0999 V2000
  103.2640   46.0900   12.1020 C   0  0  0  0  0
  102.5500   46.3080   10.7660 C   0  0  0  0  0
  101.0320   46.2220   10.9040 C   0  0  0  0  0
  100.5360   44.8920   11.3990 C   0  0  0  0  0
  100.6980   43.7460   10.6330 C   0  0  0  0  0
   99.9080   44.7890   12.6330 C   0  0  0  0  0
  100.2370   42.5160   11.0860 C   0  0  0  0  0
   99.4440   43.5660   13.0940 C   0  0  0  0  0
   99.6130   42.4250   12.3180 C   0  0  0  0  0
  102.9120   47.1340   13.1490 C   0  0  0  0  0
  103.0390   46.8410   14.3570 O   0  0  0  0  0
  102.5020   48.2500   12.7720 O   0  0  0  0  0
  104.3362   46.1570   11.9174 H   0  0  0  0  0
  102.9528   45.1190   12.4873 H   0  0  0  0  0
  102.8731   45.5276   10.0770 H   0  0  0  0  0
  102.8022   47.3051   10.4049 H   0  0  0  0  0
  100.6084   46.3755    9.9115 H   0  0  0  0  0
  100.7314   46.9715   11.6361 H   0  0  0  0  0
  101.1930   43.8117    9.6641 H   0  0  0  0  0
   99.7781   45.6802   13.2470 H   0  0  0  0  0
  100.3665   41.6245   10.4723 H   0  0  0  0  0
   98.9480   43.4996   14.0624 H   0  0  0  0  0
   99.2549   41.4609   12.6790 H   0  0  0  0  0
  103.3655   45.9415   14.4343 H   0  0  0  0  0
  1  2  1  0  0  0
  1 10  1  0  0  0
  2  3  1  0  0  0
  3  4  1  0  0  0
  4  5  4  0  0  0
  4  6  4  0  0  0
  5  7  4  0  0  0
  6  8  4  0  0  0
  7  9  4  0  0  0
  8  9  4  0  0  0
 10 11  1  0  0  0
 10 12  2  0  0  0
  1 13  1  0  0  0
  1 14  1  0  0  0
  2 15  1  0  0  0
  2 16  1  0  0  0
  3 17  1  0  0  0
  3 18  1  0  0  0
  5 19  1  0  0  0
  6 20  1  0  0  0
  7 21  1  0  0  0
  8 22  1  0  0  0
  9 23  1  0  0  0
 11 24  1  0  0  0
M  END
$$$$
