4b6p_ligand
  -I-interpret- 

 36 37  0  0  0  0  0  0  0  0999 V2000
   29.7750   46.6210    4.2740 F   0  0  0  0  0
   29.6810   47.4700    5.3030 C   0  0  0  0  0
   29.4280   48.7870    5.0150 C   0  0  0  0  0
   29.3070   49.1930    3.7370 F   0  0  0  0  0
   29.3190   49.6660    6.0740 C   0  0  0  0  0
   29.0870   50.9610    5.9400 F   0  0  0  0  0
   29.4620   49.2700    7.3570 C   0  0  0  0  0
   29.3220   50.1970    8.3030 F   0  0  0  0  0
   29.7210   47.9650    7.6630 C   0  0  0  0  0
   29.8460   47.6520    8.9780 F   0  0  0  0  0
   29.8280   47.0380    6.6220 C   0  0  0  0  0
   30.1230   45.5930    6.9310 C   0  0  0  0  0
   28.8620   44.7570    7.1580 C   0  0  0  0  0
   29.1690   43.2630    7.1710 C   0  0  0  0  0
   27.8840   42.6350    7.0220 O   0  0  0  0  0
   30.0220   42.9490    5.9320 C   0  0  0  0  0
   29.3860   42.9380    4.8760 O   0  0  0  0  0
   31.2750   42.8340    6.0500 O   0  0  0  0  0
   28.2330   45.1690    8.4850 C   0  0  0  0  0
   27.3450   46.0200    8.4590 O   0  0  0  0  0
   28.8220   44.6090    9.8050 C   0  0  0  0  0
   28.0440   44.9340   10.9620 O   0  0  0  0  0
   29.0460   43.0850    9.6910 C   0  0  0  0  0
   29.7460   42.6720   10.8720 O   0  0  0  0  0
   29.9090   42.7860    8.4550 C   0  0  0  0  0
   30.7088   45.5641    7.8497 H   0  0  0  0  0
   30.6490   45.1722    6.0741 H   0  0  0  0  0
   28.1711   44.9406    6.3352 H   0  0  0  0  0
   27.9934   41.6813    7.0208 H   0  0  0  0  0
   31.5129   42.8753    6.9791 H   0  0  0  0  0
   29.7837   45.1012    9.9498 H   0  0  0  0  0
   28.4606   44.5599   11.7418 H   0  0  0  0  0
   28.0976   42.5567    9.5932 H   0  0  0  0  0
   29.9030   41.7256   10.8351 H   0  0  0  0  0
   30.8592   43.3131    8.5415 H   0  0  0  0  0
   30.0890   41.7129    8.3909 H   0  0  0  0  0
  1  2  1  0  0  0
  2  3  4  0  0  0
  2 11  4  0  0  0
  3  4  1  0  0  0
  3  5  4  0  0  0
  5  6  1  0  0  0
  5  7  4  0  0  0
  7  8  1  0  0  0
  7  9  4  0  0  0
  9 10  1  0  0  0
  9 11  4  0  0  0
 11 12  1  0  0  0
 12 13  1  0  0  0
 13 14  1  0  0  0
 13 19  1  0  0  0
 14 15  1  0  0  0
 14 16  1  0  0  0
 14 25  1  0  0  0
 16 17  2  0  0  0
 16 18  1  0  0  0
 19 20  2  0  0  0
 19 21  1  0  0  0
 21 22  1  0  0  0
 21 23  1  0  0  0
 23 24  1  0  0  0
 23 25  1  0  0  0
 12 26  1  0  0  0
 12 27  1  0  0  0
 13 28  1  0  0  0
 15 29  1  0  0  0
 18 30  1  0  0  0
 21 31  1  0  0  0
 22 32  1  0  0  0
 23 33  1  0  0  0
 24 34  1  0  0  0
 25 35  1  0  0  0
 25 36  1  0  0  0
M  END
$$$$
