5moo_ligand
  -I-interpret- 

 14 14  0  0  0  0  0  0  0  0999 V2000
   -1.6310  -15.2520  -17.0480 C   0  0  0  0  0
   -1.0160  -15.5760  -15.8580 C   0  0  0  0  0
   -1.0080  -14.6460  -14.8340 C   0  0  0  0  0
   -1.6060  -13.4170  -15.0070 C   0  0  0  0  0
   -2.2130  -13.1070  -16.2060 C   0  0  0  0  0
   -2.2290  -14.0250  -17.2400 C   0  0  0  0  0
   -1.6500  -16.2350  -18.1330 N   0  0  0  0  0
   -0.5435  -16.5493  -15.7258 H   0  0  0  0  0
   -0.5265  -14.8866  -13.8862 H   0  0  0  0  0
   -1.5994  -12.6891  -14.1957 H   0  0  0  0  0
   -2.6829  -12.1326  -16.3393 H   0  0  0  0  0
   -2.7059  -13.7827  -18.1897 H   0  0  0  0  0
   -1.2115  -17.1467  -18.0029 H   0  0  0  0  0
   -2.1018  -16.0081  -19.0189 H   0  0  0  0  0
  1  2  4  0  0  0
  1  6  4  0  0  0
  1  7  1  0  0  0
  2  3  4  0  0  0
  3  4  4  0  0  0
  4  5  4  0  0  0
  5  6  4  0  0  0
  2  8  1  0  0  0
  3  9  1  0  0  0
  4 10  1  0  0  0
  5 11  1  0  0  0
  6 12  1  0  0  0
  7 13  1  0  0  0
  7 14  1  0  0  0
M  END
$$$$
