3udq_ligand
  -I-interpret- 

 50 54  0  0  0  0  0  0  0  0999 V2000
   24.3670   37.4750   41.4680 C   0  0  0  0  0
   22.9980   36.9410   41.8140 C   0  0  0  0  0
   24.9240   37.8430   40.2350 C   0  0  0  0  0
   21.8760   37.9320   41.4500 C   0  0  0  0  0
   26.2620   38.2890   40.2370 C   0  0  0  0  0
   26.4660   38.0000   42.6660 C   0  0  0  0  0
   20.8790   37.0920   40.6400 C   0  0  0  0  0
   27.0260   38.3350   41.4180 C   0  0  0  0  0
   19.7090   36.5690   41.5090 C   0  0  0  0  0
   21.6010   35.8980   40.1160 N   0  3  0  0  0
   19.1400   35.4790   41.4360 O   0  0  0  0  0
   22.6360   35.5840   41.1250 C   0  0  0  0  0
   23.0890   36.7320   43.3520 C   0  0  0  0  0
   22.2250   36.3400   44.1200 O   0  0  0  0  0
   24.3660   37.1350   43.7750 N   0  0  0  0  0
   25.1380   37.5710   42.6740 C   0  0  0  0  0
   18.2430   37.2200   43.2990 C   0  0  0  0  0
   18.8670   36.3770   44.4610 C   0  0  0  0  0
   19.3020   37.5150   42.4110 O   0  0  0  0  0
   17.8140   36.1880   45.5430 C   0  0  0  0  0
   17.5350   37.6430   46.3770 S   0  0  0  0  0
   17.3980   38.8030   45.1300 C   0  0  0  0  0
   17.6980   38.5690   43.7420 C   0  0  0  0  0
   17.4980   39.5700   42.7630 C   0  0  0  0  0
   17.0010   40.7980   43.1610 C   0  0  0  0  0
   16.6950   41.0910   44.5120 C   0  0  0  0  0
   16.8740   40.0980   45.4850 C   0  0  0  0  0
   16.7100   42.1160   41.8080 Br  0  0  0  0  0
   16.2540   37.5430   46.9760 O   0  0  0  0  0
   18.6700   37.8890   47.1990 O   0  0  0  0  0
   24.3464   37.7867   39.3124 H   0  0  0  0  0
   22.2491   38.7857   40.8843 H   0  0  0  0  0
   21.4171   38.3760   42.3334 H   0  0  0  0  0
   26.7166   38.6066   39.2986 H   0  0  0  0  0
   27.0452   38.0727   43.5865 H   0  0  0  0  0
   20.4740   37.7252   39.8507 H   0  0  0  0  0
   28.0723   38.6360   41.3657 H   0  0  0  0  0
   22.0152   36.0840   39.2026 H   0  0  0  0  0
   20.9672   35.1114   39.9750 H   0  0  0  0  0
   22.2696   34.8592   41.8520 H   0  0  0  0  0
   23.5129   35.1319   40.6615 H   0  0  0  0  0
   24.6911   37.1158   44.7416 H   0  0  0  0  0
   17.4217   36.6405   42.8775 H   0  0  0  0  0
   19.7329   36.8957   44.8723 H   0  0  0  0  0
   19.1899   35.4067   44.0837 H   0  0  0  0  0
   18.1693   35.4399   46.2516 H   0  0  0  0  0
   16.8832   35.8679   45.0747 H   0  0  0  0  0
   17.7309   39.3776   41.7157 H   0  0  0  0  0
   16.3246   42.0771   44.7921 H   0  0  0  0  0
   16.6138   40.3076   46.5225 H   0  0  0  0  0
  2  1  1  0  0  0
  1  3  4  0  0  0
  1 16  4  0  0  0
  4  2  1  0  0  0
 12  2  1  0  0  0
  2 13  1  0  0  0
  3  5  4  0  0  0
  7  4  1  0  0  0
  5  8  4  0  0  0
  6  8  4  0  0  0
 16  6  4  0  0  0
  9  7  1  0  0  0
  7 10  1  0  0  0
  9 11  2  0  0  0
 19  9  1  0  0  0
 10 12  1  0  0  0
 13 14  2  0  0  0
 13 15  1  0  0  0
 15 16  1  0  0  0
 17 18  1  0  0  0
 17 19  1  0  0  0
 17 23  1  0  0  0
 18 20  1  0  0  0
 20 21  1  0  0  0
 21 22  1  0  0  0
 21 29  2  0  0  0
 21 30  2  0  0  0
 22 23  4  0  0  0
 22 27  4  0  0  0
 23 24  4  0  0  0
 24 25  4  0  0  0
 25 26  4  0  0  0
 25 28  1  0  0  0
 26 27  4  0  0  0
  3 31  1  0  0  0
  4 32  1  0  0  0
  4 33  1  0  0  0
  5 34  1  0  0  0
  6 35  1  0  0  0
  7 36  1  0  0  0
  8 37  1  0  0  0
 10 38  1  0  0  0
 10 39  1  0  0  0
 12 40  1  0  0  0
 12 41  1  0  0  0
 15 42  1  0  0  0
 17 43  1  0  0  0
 18 44  1  0  0  0
 18 45  1  0  0  0
 20 46  1  0  0  0
 20 47  1  0  0  0
 24 48  1  0  0  0
 26 49  1  0  0  0
 27 50  1  0  0  0
M  END
$$$$
