2qmf_ligand
  -I-interpret- 

 85 88  0  0  0  0  0  0  0  0999 V2000
   26.9660   15.4650   24.4540 C   0  0  0  0  0
   25.6910   15.8920   24.8960 C   0  0  0  0  0
   24.5420   15.0930   24.5950 C   0  0  0  0  0
   24.6700   13.8780   23.8590 C   0  0  0  0  0
   25.9520   13.4760   23.4300 C   0  0  0  0  0
   27.1080   14.2640   23.7190 C   0  0  0  0  0
   28.4460   13.8110   23.2680 C   0  0  0  0  0
   28.7600   13.6120   21.9020 N   0  0  0  0  0
   29.2900   13.5930   24.1280 O   0  0  0  0  0
   27.8460   13.8410   20.7410 C   0  0  0  0  0
   28.3380   14.9910   19.8340 C   0  0  0  0  0
   28.6820   16.2760   20.6100 C   0  0  0  0  0
   30.1370   13.1380   21.5920 C   0  0  0  0  0
   30.1420   11.6760   21.0550 C   0  0  0  0  0
   29.3500   10.6670   21.9170 C   0  0  0  0  0
   25.5610   17.1790   25.6760 C   0  0  0  0  0
   23.4650   13.0710   23.5510 C   0  0  0  0  0
   23.6660   11.7170   23.4310 N   0  0  0  0  0
   22.3450   13.5710   23.4020 O   0  0  0  0  0
   22.5760   10.7620   23.1090 C   0  0  0  0  0
   22.1620    9.9200   24.3330 C   0  0  0  0  0
   23.0630    9.8610   21.9360 C   0  0  0  0  0
   21.1060    9.0640   23.9540 O   0  0  0  0  0
   23.6920   10.6500   20.8050 C   0  0  0  0  0
   25.0300   10.3790   20.4130 C   0  0  0  0  0
   25.6110   11.1200   19.3560 C   0  0  0  0  0
   24.9100   12.1310   18.6680 C   0  0  0  0  0
   23.5810   12.3880   19.0730 C   0  0  0  0  0
   22.9650   11.6700   20.1210 C   0  0  0  0  0
   26.8620   10.8520   19.0050 F   0  0  0  0  0
   22.8880   13.3380   18.4440 F   0  0  0  0  0
   19.5270   11.4560   26.5140 C   0  0  0  0  0
   20.4640   10.7800   27.5110 C   0  0  0  0  0
   21.2560    9.8830   26.6650 N   0  3  0  0  0
   20.4410   11.6420   25.2790 C   0  0  0  0  0
   21.6690   10.7450   25.5520 C   0  0  0  0  0
   18.4550   10.5210   26.3000 O   0  0  0  0  0
   17.4720   10.8120   25.3380 C   0  0  0  0  0
   17.0020   12.1230   24.9740 C   0  0  0  0  0
   16.0070   12.2680   23.9850 C   0  0  0  0  0
   15.4670   11.1270   23.3460 C   0  0  0  0  0
   15.9230    9.8300   23.6980 C   0  0  0  0  0
   16.9200    9.6780   24.6880 C   0  0  0  0  0
   27.8461   16.0664   24.6817 H   0  0  0  0  0
   23.5575   15.4170   24.9323 H   0  0  0  0  0
   26.0626   12.5484   22.8684 H   0  0  0  0  0
   26.8635   14.1098   21.1289 H   0  0  0  0  0
   27.8152   12.9279   20.1466 H   0  0  0  0  0
   27.5318   15.2312   19.1408 H   0  0  0  0  0
   29.2478   14.6526   19.3381 H   0  0  0  0  0
   27.7954   16.6293   21.1365 H   0  0  0  0  0
   29.4729   16.0638   21.3294 H   0  0  0  0  0
   29.0203   17.0412   19.9114 H   0  0  0  0  0
   30.7227   13.1662   22.5108 H   0  0  0  0  0
   30.5558   13.7859   20.8220 H   0  0  0  0  0
   31.1800   11.3434   21.0516 H   0  0  0  0  0
   29.6661   11.6971   20.0746 H   0  0  0  0  0
   29.7752   10.6357   22.9202 H   0  0  0  0  0
   28.3070   10.9787   21.9727 H   0  0  0  0  0
   29.4112    9.6775   21.4640 H   0  0  0  0  0
   26.1509   17.1096   26.5900 H   0  0  0  0  0
   25.9247   18.0083   25.0694 H   0  0  0  0  0
   24.5139   17.3445   25.9295 H   0  0  0  0  0
   24.6080   11.3511   23.5696 H   0  0  0  0  0
   21.6834   11.3137   22.8140 H   0  0  0  0  0
   23.0613    9.3890   24.6453 H   0  0  0  0  0
   22.1938    9.3402   21.5343 H   0  0  0  0  0
   23.8207    9.1837   22.3300 H   0  0  0  0  0
   20.8389    8.5338   24.7084 H   0  0  0  0  0
   25.6053    9.6060   20.9224 H   0  0  0  0  0
   25.3742   12.6916   17.8567 H   0  0  0  0  0
   21.9373   11.8940   20.4068 H   0  0  0  0  0
   19.0780   12.4069   26.8009 H   0  0  0  0  0
   19.9298   10.2524   28.3012 H   0  0  0  0  0
   21.0784   11.4919   28.0622 H   0  0  0  0  0
   20.7274    9.0677   26.3547 H   0  0  0  0  0
   22.0487    9.4747   27.1602 H   0  0  0  0  0
   20.7254   12.6851   25.1402 H   0  0  0  0  0
   19.9340   11.3628   24.3554 H   0  0  0  0  0
   22.5374   11.3613   25.7847 H   0  0  0  0  0
   17.4156   13.0048   25.4633 H   0  0  0  0  0
   15.6530   13.2621   23.7121 H   0  0  0  0  0
   14.6989   11.2444   22.5815 H   0  0  0  0  0
   15.5048    8.9522   23.2054 H   0  0  0  0  0
   17.2682    8.6802   24.9548 H   0  0  0  0  0
  2  1  4  0  0  0
  6  1  4  0  0  0
  3  2  4  0  0  0
  2 16  1  0  0  0
  4  3  4  0  0  0
  4  5  4  0  0  0
 17  4  1  0  0  0
  5  6  4  0  0  0
  6  7  1  0  0  0
  7  8  1  0  0  0
  7  9  2  0  0  0
  8 10  1  0  0  0
  8 13  1  0  0  0
 10 11  1  0  0  0
 11 12  1  0  0  0
 13 14  1  0  0  0
 14 15  1  0  0  0
 18 17  1  0  0  0
 17 19  2  0  0  0
 20 18  1  0  0  0
 21 20  1  0  0  0
 20 22  1  0  0  0
 21 23  1  0  0  0
 36 21  1  0  0  0
 22 24  1  0  0  0
 24 25  4  0  0  0
 24 29  4  0  0  0
 25 26  4  0  0  0
 26 27  4  0  0  0
 26 30  1  0  0  0
 28 27  4  0  0  0
 29 28  4  0  0  0
 28 31  1  0  0  0
 33 32  1  0  0  0
 32 35  1  0  0  0
 32 37  1  0  0  0
 34 33  1  0  0  0
 34 36  1  0  0  0
 35 36  1  0  0  0
 37 38  1  0  0  0
 38 39  4  0  0  0
 38 43  4  0  0  0
 39 40  4  0  0  0
 40 41  4  0  0  0
 41 42  4  0  0  0
 42 43  4  0  0  0
  1 44  1  0  0  0
  3 45  1  0  0  0
  5 46  1  0  0  0
 10 47  1  0  0  0
 10 48  1  0  0  0
 11 49  1  0  0  0
 11 50  1  0  0  0
 12 51  1  0  0  0
 12 52  1  0  0  0
 12 53  1  0  0  0
 13 54  1  0  0  0
 13 55  1  0  0  0
 14 56  1  0  0  0
 14 57  1  0  0  0
 15 58  1  0  0  0
 15 59  1  0  0  0
 15 60  1  0  0  0
 16 61  1  0  0  0
 16 62  1  0  0  0
 16 63  1  0  0  0
 18 64  1  0  0  0
 20 65  1  0  0  0
 21 66  1  0  0  0
 22 67  1  0  0  0
 22 68  1  0  0  0
 23 69  1  0  0  0
 25 70  1  0  0  0
 27 71  1  0  0  0
 29 72  1  0  0  0
 32 73  1  0  0  0
 33 74  1  0  0  0
 33 75  1  0  0  0
 34 76  1  0  0  0
 34 77  1  0  0  0
 35 78  1  0  0  0
 35 79  1  0  0  0
 36 80  1  0  0  0
 39 81  1  0  0  0
 40 82  1  0  0  0
 41 83  1  0  0  0
 42 84  1  0  0  0
 43 85  1  0  0  0
M  END
$$$$
