5j4y_ligand
  -I-interpret- 

 41 44  0  0  0  0  0  0  0  0999 V2000
  -40.7470    5.6870   23.0910 C   0  0  0  0  0
  -39.7500    6.2680   23.8660 C   0  0  0  0  0
  -39.0440    5.5010   24.7840 C   0  0  0  0  0
  -38.7930   11.7980   23.6210 N   0  0  0  0  0
  -39.3380    4.1550   24.9280 C   0  0  0  0  0
  -38.7100    8.1780   22.7140 C   0  0  0  0  0
  -40.3140   13.5410   27.1180 N   0  0  0  0  0
  -38.1800    7.3500   21.7260 C   0  0  0  0  0
  -37.4850    7.9090   20.6620 C   0  0  0  0  0
  -37.3340    9.2790   20.5700 C   0  0  0  0  0
  -37.8500   10.1060   21.5560 C   0  0  0  0  0
  -38.5320    9.5720   22.6580 C   0  0  0  0  0
  -38.9850   10.5110   23.6990 C   0  0  0  0  0
  -39.2950   12.4470   24.7500 C   0  0  0  0  0
  -38.6260    1.2000   24.3110 O   0  0  0  0  0
  -39.8520    1.1120   24.3460 C   0  0  0  0  0
  -40.5520   -0.2120   24.4550 C   0  0  0  0  0
  -40.6750    2.1940   24.2950 N   0  0  0  0  0
  -40.3340    3.5630   24.1530 C   0  0  0  0  0
  -41.0340    4.3400   23.2330 C   0  0  0  0  0
  -39.4660    7.6320   23.7580 O   0  0  0  0  0
  -39.8080    9.9580   25.1480 S   0  0  0  0  0
  -39.8850   11.6050   25.7020 C   0  0  0  0  0
  -40.3830   12.2250   26.8760 C   0  0  0  0  0
  -39.7470   14.3080   26.1820 C   0  0  0  0  0
  -39.2370   13.8220   24.9920 C   0  0  0  0  0
  -41.3018    6.2907   22.3728 H   0  0  0  0  0
  -38.2607    5.9571   25.3895 H   0  0  0  0  0
  -38.7869    3.5549   25.6521 H   0  0  0  0  0
  -38.3104    6.2696   21.7883 H   0  0  0  0  0
  -37.0563    7.2635   19.8954 H   0  0  0  0  0
  -36.8073    9.7114   19.7193 H   0  0  0  0  0
  -37.7237   11.1855   21.4731 H   0  0  0  0  0
  -40.2870   -0.8331   23.5994 H   0  0  0  0  0
  -40.2453   -0.7090   25.3753 H   0  0  0  0  0
  -41.6300   -0.0515   24.4692 H   0  0  0  0  0
  -41.6723    1.9933   24.3689 H   0  0  0  0  0
  -41.8126    3.8847   22.6210 H   0  0  0  0  0
  -40.8514   11.5911   27.6289 H   0  0  0  0  0
  -39.6827   15.3802   26.3675 H   0  0  0  0  0
  -38.7987   14.4978   24.2577 H   0  0  0  0  0
  2  1  4  0  0  0
  1 20  4  0  0  0
  2  3  4  0  0  0
 21  2  1  0  0  0
  3  5  4  0  0  0
 13  4  4  0  0  0
 14  4  4  0  0  0
  5 19  4  0  0  0
  6  8  4  0  0  0
 12  6  4  0  0  0
  6 21  1  0  0  0
 24  7  4  0  0  0
  7 25  4  0  0  0
  8  9  4  0  0  0
 10  9  4  0  0  0
 11 10  4  0  0  0
 12 11  4  0  0  0
 13 12  1  0  0  0
 22 13  4  0  0  0
 23 14  4  0  0  0
 14 26  4  0  0  0
 16 15  2  0  0  0
 16 17  1  0  0  0
 18 16  1  0  0  0
 19 18  1  0  0  0
 20 19  4  0  0  0
 23 22  4  0  0  0
 23 24  4  0  0  0
 25 26  4  0  0  0
  1 27  1  0  0  0
  3 28  1  0  0  0
  5 29  1  0  0  0
  8 30  1  0  0  0
  9 31  1  0  0  0
 10 32  1  0  0  0
 11 33  1  0  0  0
 17 34  1  0  0  0
 17 35  1  0  0  0
 17 36  1  0  0  0
 18 37  1  0  0  0
 20 38  1  0  0  0
 24 39  1  0  0  0
 25 40  1  0  0  0
 26 41  1  0  0  0
M  END
$$$$
