3nu3_ligand
  -I-interpret- 

 70 72  0  0  0  0  0  0  0  0999 V2000
   12.4560   18.0160   19.7620 C   0  0  0  0  0
   14.4290   18.7200   20.8760 C   0  0  0  0  0
   14.6150   20.5140   18.2890 C   0  0  0  0  0
   13.8340   18.5760   19.4830 C   0  0  0  0  0
   15.1800   22.6440   17.1740 C   0  0  0  0  0
   15.6420   23.7670   18.0870 C   0  0  0  0  0
   14.4840   23.1260   15.9110 C   0  0  0  0  0
   14.0720   21.9840   14.9890 C   0  0  0  0  0
   12.7980   21.4770   14.9830 C   0  0  0  0  0
   15.0220   21.3710   14.1580 C   0  0  0  0  0
   12.4520   20.3800   14.2270 C   0  0  0  0  0
   14.6940   20.2900   13.3760 C   0  0  0  0  0
   13.4110   19.8100   13.4310 C   0  0  0  0  0
   16.7590   24.6690   17.5750 C   0  0  0  0  0
   19.0180   24.3960   18.5690 C   0  0  0  0  0
   18.6750   23.8240   19.9270 C   0  0  0  0  0
   19.5070   25.0860   15.3930 C   0  0  0  0  0
   18.7370   26.0010   14.6500 C   0  0  0  0  0
   19.2680   27.1610   14.1740 C   0  0  0  0  0
   20.6050   27.4550   14.3740 C   0  0  0  0  0
   21.4030   26.5730   15.1280 C   0  0  0  0  0
   20.8550   25.3770   15.6600 C   0  0  0  0  0
   18.6000   22.2940   19.9200 C   0  0  0  0  0
   19.6840   24.2860   20.9880 C   0  0  0  0  0
   13.2970   18.3110   21.8450 C   0  0  0  0  0
   14.2780   21.7450   17.9010 N   0  0  0  0  0
   18.0690   24.0060   17.5200 N   0  0  0  0  0
   21.1080   28.6900   14.0090 N   0  0  0  0  0
   13.5750   19.8880   18.8630 O   0  0  0  0  0
   15.7730   19.9990   18.1850 O   0  0  0  0  0
   14.4720   24.5600   18.4230 O   0  0  0  0  0
   17.6060   23.4010   15.1600 O   0  0  0  0  0
   19.7300   22.6620   16.2780 O   0  0  0  0  0
   12.0980   18.4530   21.0540 O   0  0  0  0  0
   18.7070   23.6850   16.0520 S   0  0  0  0  0
   12.4593   16.9274   19.7061 H   0  0  0  0  0
   11.7369   18.3634   19.0202 H   0  0  0  0  0
   14.7706   19.7379   21.0638 H   0  0  0  0  0
   15.3121   18.0938   21.0025 H   0  0  0  0  0
   14.4929   17.9934   18.8392 H   0  0  0  0  0
   16.0846   22.1226   16.8609 H   0  0  0  0  0
   16.1014   23.2810   18.9477 H   0  0  0  0  0
   15.1842   23.7586   15.3655 H   0  0  0  0  0
   13.5795   23.6554   16.2104 H   0  0  0  0  0
   12.0355   21.9576   15.5960 H   0  0  0  0  0
   16.0399   21.7600   14.1324 H   0  0  0  0  0
   11.4407   19.9748   14.2606 H   0  0  0  0  0
   15.4363   19.8250   12.7272 H   0  0  0  0  0
   13.1449   18.9464   12.8215 H   0  0  0  0  0
   16.8452   25.5079   18.2656 H   0  0  0  0  0
   16.4997   24.9670   16.5591 H   0  0  0  0  0
   19.9981   24.0113   18.2869 H   0  0  0  0  0
   18.9900   25.4825   18.6520 H   0  0  0  0  0
   17.6844   24.2034   20.1775 H   0  0  0  0  0
   17.6894   25.7751   14.4508 H   0  0  0  0  0
   18.6350   27.8631   13.6314 H   0  0  0  0  0
   22.4518   26.8113   15.3047 H   0  0  0  0  0
   21.4644   24.7015   16.2604 H   0  0  0  0  0
   17.8316   21.9724   19.2169 H   0  0  0  0  0
   19.5644   21.8856   19.6181 H   0  0  0  0  0
   18.3507   21.9391   20.9200 H   0  0  0  0  0
   20.6827   23.9505   20.7083 H   0  0  0  0  0
   19.6695   25.3740   21.0520 H   0  0  0  0  0
   19.4137   23.8603   21.9543 H   0  0  0  0  0
   13.2768   18.9280   22.7433 H   0  0  0  0  0
   13.4241   17.2983   22.2275 H   0  0  0  0  0
   13.3403   22.0797   18.1224 H   0  0  0  0  0
   20.4928   29.3879   13.5908 H   0  0  0  0  0
   22.0943   28.9033   14.1580 H   0  0  0  0  0
   13.7762   23.9816   18.7438 H   0  0  0  0  0
  4  1  1  0  0  0
  1 34  1  0  0  0
  4  2  1  0  0  0
  2 25  1  0  0  0
 26  3  1  0  0  0
  3 29  1  0  0  0
  3 30  2  0  0  0
 29  4  1  0  0  0
  6  5  1  0  0  0
  5  7  1  0  0  0
  5 26  1  0  0  0
 14  6  1  0  0  0
  6 31  1  0  0  0
  7  8  1  0  0  0
  8  9  4  0  0  0
  8 10  4  0  0  0
  9 11  4  0  0  0
 10 12  4  0  0  0
 11 13  4  0  0  0
 12 13  4  0  0  0
 27 14  1  0  0  0
 15 16  1  0  0  0
 27 15  1  0  0  0
 16 23  1  0  0  0
 16 24  1  0  0  0
 17 18  4  0  0  0
 17 22  4  0  0  0
 35 17  1  0  0  0
 18 19  4  0  0  0
 19 20  4  0  0  0
 21 20  4  0  0  0
 20 28  1  0  0  0
 22 21  4  0  0  0
 25 34  1  0  0  0
 27 35  1  0  0  0
 35 32  2  0  0  0
 35 33  2  0  0  0
  1 36  1  0  0  0
  1 37  1  0  0  0
  2 38  1  0  0  0
  2 39  1  0  0  0
  4 40  1  0  0  0
  5 41  1  0  0  0
  6 42  1  0  0  0
  7 43  1  0  0  0
  7 44  1  0  0  0
  9 45  1  0  0  0
 10 46  1  0  0  0
 11 47  1  0  0  0
 12 48  1  0  0  0
 13 49  1  0  0  0
 14 50  1  0  0  0
 14 51  1  0  0  0
 15 52  1  0  0  0
 15 53  1  0  0  0
 16 54  1  0  0  0
 18 55  1  0  0  0
 19 56  1  0  0  0
 21 57  1  0  0  0
 22 58  1  0  0  0
 23 59  1  0  0  0
 23 60  1  0  0  0
 23 61  1  0  0  0
 24 62  1  0  0  0
 24 63  1  0  0  0
 24 64  1  0  0  0
 25 65  1  0  0  0
 25 66  1  0  0  0
 26 67  1  0  0  0
 28 68  1  0  0  0
 28 69  1  0  0  0
 31 70  1  0  0  0
M  END
$$$$
