1xxe_ligand
  -I-interpret- 

 71 71  0  0  0  0  0  0  0  0999 V2000
  -10.7240    3.1650   -2.7820 C   0  0  0  0  0
  -11.1710    1.8330   -3.3560 C   0  0  0  0  0
  -10.9630    0.7050   -2.3520 C   0  0  0  0  0
   -9.2980    3.0660   -2.2750 C   0  0  0  0  0
   -9.1520    1.9050   -1.2970 C   0  0  0  0  0
   -9.5970    0.6650   -1.8880 O   0  0  0  0  0
  -10.8290    4.1970   -3.7820 O   0  0  0  0  0
  -12.7720    4.9120   -2.7680 O   0  0  0  0  0
  -11.8010    5.2030   -3.4390 C   0  0  0  0  0
  -11.6230    6.6290   -3.9360 C   0  0  0  0  0
  -10.9370    7.4640   -2.8600 C   0  0  0  0  0
  -11.6710    8.7850   -2.6500 C   0  0  0  0  0
  -11.5000    9.7000   -3.8610 C   0  0  0  0  0
  -12.6740   10.6740   -3.9810 C   0  0  0  0  0
  -13.5280   10.3610   -5.2080 C   0  0  0  0  0
  -13.0920   11.2100   -6.4000 C   0  0  0  0  0
  -14.0600   11.0240   -7.5660 C   0  0  0  0  0
  -13.7390   11.9950   -8.7010 C   0  0  0  0  0
  -15.0210   12.6010   -9.2710 C   0  0  0  0  0
  -16.0420   11.5080   -9.5780 C   0  0  0  0  0
  -16.7790   11.8060  -10.8820 C   0  0  0  0  0
  -17.7950   10.7070  -11.1850 C   0  0  0  0  0
   -8.8780    4.3810   -1.6240 C   0  0  0  0  0
   -7.3630    4.5070   -1.6620 C   0  0  0  0  0
   -6.7950    4.7340   -2.7130 O   0  0  0  0  0
   -6.7040    4.3670   -0.5460 N   0  0  0  0  0
   -5.2730    4.5060   -0.5340 O   0  0  0  0  0
  -12.5440    1.9060   -3.7150 O   0  0  0  0  0
  -11.2680   -0.6490   -2.9600 C   0  0  0  0  0
  -10.1260   -1.1870   -3.6110 O   0  0  0  0  0
  -11.3735    3.4220   -1.9452 H   0  0  0  0  0
  -10.5684    1.6202   -4.2390 H   0  0  0  0  0
  -11.6443    0.9079   -1.5257 H   0  0  0  0  0
   -8.6401    2.8747   -3.1227 H   0  0  0  0  0
   -9.7638    2.1110   -0.4187 H   0  0  0  0  0
   -8.0999    1.8052   -1.0301 H   0  0  0  0  0
  -12.5992    7.0588   -4.1604 H   0  0  0  0  0
  -11.0095    6.6246   -4.8369 H   0  0  0  0  0
   -9.9158    7.6757   -3.1769 H   0  0  0  0  0
  -10.9435    6.9054   -1.9240 H   0  0  0  0  0
  -11.2559    9.2818   -1.7731 H   0  0  0  0  0
  -12.7325    8.5789   -2.5127 H   0  0  0  0  0
  -11.4610    9.0862   -4.7609 H   0  0  0  0  0
  -10.5807   10.2730   -3.7398 H   0  0  0  0  0
  -12.2787   11.6849   -4.0809 H   0  0  0  0  0
  -13.2962   10.5803   -3.0909 H   0  0  0  0  0
  -14.5698   10.5846   -4.9785 H   0  0  0  0  0
  -13.4068    9.3080   -5.4623 H   0  0  0  0  0
  -12.0950   10.8992   -6.7123 H   0  0  0  0  0
  -13.0867   12.2596   -6.1061 H   0  0  0  0  0
  -15.0734   11.2180   -7.2147 H   0  0  0  0  0
  -13.9666   10.0044   -7.9399 H   0  0  0  0  0
  -13.2224   11.4531   -9.4932 H   0  0  0  0  0
  -13.1122   12.7974   -8.3120 H   0  0  0  0  0
  -14.7818   13.1299  -10.1935 H   0  0  0  0  0
  -15.4457   13.2845   -8.5358 H   0  0  0  0  0
  -16.7675   11.4662   -8.7656 H   0  0  0  0  0
  -15.5193   10.5568   -9.6789 H   0  0  0  0  0
  -16.0549   11.8530  -11.6954 H   0  0  0  0  0
  -17.3039   12.7562  -10.7830 H   0  0  0  0  0
  -17.2780    9.7521  -11.2799 H   0  0  0  0  0
  -18.5198   10.6501  -10.3729 H   0  0  0  0  0
  -18.3099   10.9371  -12.1177 H   0  0  0  0  0
   -9.2172    4.3973   -0.5883 H   0  0  0  0  0
   -9.3247    5.2135   -2.1676 H   0  0  0  0  0
   -7.2035    4.1589    0.3186 H   0  0  0  0  0
   -4.9473    4.3740    0.3594 H   0  0  0  0  0
  -12.6709    2.6173   -4.3471 H   0  0  0  0  0
  -12.0642   -0.5297   -3.6949 H   0  0  0  0  0
  -11.5676   -1.3294   -2.1629 H   0  0  0  0  0
  -10.3464   -2.0427   -3.9863 H   0  0  0  0  0
  1  2  1  0  0  0
  1  4  1  0  0  0
  1  7  1  0  0  0
  2  3  1  0  0  0
  2 28  1  0  0  0
  3  6  1  0  0  0
  3 29  1  0  0  0
  4  5  1  0  0  0
  4 23  1  0  0  0
  5  6  1  0  0  0
  7  9  1  0  0  0
  9  8  2  0  0  0
  9 10  1  0  0  0
 10 11  1  0  0  0
 11 12  1  0  0  0
 12 13  1  0  0  0
 13 14  1  0  0  0
 14 15  1  0  0  0
 15 16  1  0  0  0
 16 17  1  0  0  0
 17 18  1  0  0  0
 18 19  1  0  0  0
 19 20  1  0  0  0
 20 21  1  0  0  0
 21 22  1  0  0  0
 23 24  1  0  0  0
 24 25  2  0  0  0
 24 26  1  0  0  0
 26 27  1  0  0  0
 29 30  1  0  0  0
  1 31  1  0  0  0
  2 32  1  0  0  0
  3 33  1  0  0  0
  4 34  1  0  0  0
  5 35  1  0  0  0
  5 36  1  0  0  0
 10 37  1  0  0  0
 10 38  1  0  0  0
 11 39  1  0  0  0
 11 40  1  0  0  0
 12 41  1  0  0  0
 12 42  1  0  0  0
 13 43  1  0  0  0
 13 44  1  0  0  0
 14 45  1  0  0  0
 14 46  1  0  0  0
 15 47  1  0  0  0
 15 48  1  0  0  0
 16 49  1  0  0  0
 16 50  1  0  0  0
 17 51  1  0  0  0
 17 52  1  0  0  0
 18 53  1  0  0  0
 18 54  1  0  0  0
 19 55  1  0  0  0
 19 56  1  0  0  0
 20 57  1  0  0  0
 20 58  1  0  0  0
 21 59  1  0  0  0
 21 60  1  0  0  0
 22 61  1  0  0  0
 22 62  1  0  0  0
 22 63  1  0  0  0
 23 64  1  0  0  0
 23 65  1  0  0  0
 26 66  1  0  0  0
 27 67  1  0  0  0
 28 68  1  0  0  0
 29 69  1  0  0  0
 29 70  1  0  0  0
 30 71  1  0  0  0
M  END
$$$$
