1if7_ligand
  -I-interpret- 

 47 49  0  0  0  0  0  0  0  0999 V2000
   -1.4150    7.5700   12.4240 C   0  0  0  0  0
   -2.4830    6.7100   13.1760 C   0  0  0  0  0
   -2.9290    5.5870   12.2330 C   0  0  0  0  0
   -3.1040    4.2970   13.0760 N   0  0  0  0  0
   -4.4140    4.2160   13.6600 C   0  0  0  0  0
   -5.2100    5.1280   13.4560 O   0  0  0  0  0
   -4.7370    3.1110   14.4160 C   0  0  0  0  0
   -3.8070    2.0420   14.6420 C   0  0  0  0  0
   -4.1770    0.8990   15.4200 C   0  0  0  0  0
   -5.5020    0.8150   15.9910 C   0  0  0  0  0
   -6.3960    1.8940   15.7530 C   0  0  0  0  0
   -6.0180    3.0150   14.9830 C   0  0  0  0  0
   -6.0080   -0.3710   16.8450 S   0  0  0  0  0
   -5.4510   -0.3090   18.1820 O   0  0  0  0  0
   -7.4220   -0.2950   16.9430 O   0  0  0  0  0
   -5.6630   -1.6830   16.2030 N   0  0  0  0  0
   -0.9680    8.6830   13.2440 N   0  0  0  0  0
   -0.0340    8.5850   14.2160 C   0  0  0  0  0
    0.1420    9.9250   14.8090 C   0  0  0  0  0
   -1.3740    9.9150   13.1760 C   0  0  0  0  0
   -2.3340   10.5280   12.3300 C   0  0  0  0  0
   -2.6030   11.9090   12.4500 C   0  0  0  0  0
   -1.9160   12.6800   13.4200 C   0  0  0  0  0
   -0.9570   12.0700   14.2680 C   0  0  0  0  0
   -0.6860   10.6870   14.1470 C   0  0  0  0  0
   -1.8740    6.1190   14.4700 C   0  0  0  0  0
   -0.5566    6.9384   12.1954 H   0  0  0  0  0
   -1.8644    7.9661   11.5133 H   0  0  0  0  0
   -3.3377    7.3245   13.4588 H   0  0  0  0  0
   -2.1831    5.4302   11.4538 H   0  0  0  0  0
   -3.8691    5.8518   11.7491 H   0  0  0  0  0
   -2.3775    3.5920   13.2006 H   0  0  0  0  0
   -2.8056    2.1011   14.2156 H   0  0  0  0  0
   -3.4608    0.0934   15.5815 H   0  0  0  0  0
   -7.3997    1.8548   16.1761 H   0  0  0  0  0
   -6.7341    3.8215   14.8255 H   0  0  0  0  0
   -6.4048   -2.3268   15.9277 H   0  0  0  0  0
   -4.6868   -1.9309   16.0420 H   0  0  0  0  0
    0.4948    7.6782   14.5095 H   0  0  0  0  0
    0.8128   10.2137   15.6182 H   0  0  0  0  0
   -2.8643    9.9325   11.5869 H   0  0  0  0  0
   -3.3377   12.3809   11.7977 H   0  0  0  0  0
   -2.1253   13.7455   13.5147 H   0  0  0  0  0
   -0.4292   12.6663   15.0123 H   0  0  0  0  0
   -2.6212    5.5068   14.9750 H   0  0  0  0  0
   -1.0103    5.5045   14.2158 H   0  0  0  0  0
   -1.5630    6.9309   15.1274 H   0  0  0  0  0
  1 17  1  0  0  0
  1  2  1  0  0  0
  2 26  1  0  0  0
  2  3  1  0  0  0
  3  4  1  0  0  0
  4  5  1  0  0  0
  5  7  1  0  0  0
  5  6  2  0  0  0
  7 12  4  0  0  0
  7  8  4  0  0  0
  8  9  4  0  0  0
  9 10  4  0  0  0
 10 13  1  0  0  0
 10 11  4  0  0  0
 11 12  4  0  0  0
 13 16  1  0  0  0
 13 15  2  0  0  0
 13 14  2  0  0  0
 17 20  4  0  0  0
 17 18  4  0  0  0
 18 19  4  0  0  0
 19 25  4  0  0  0
 25 24  4  0  0  0
 25 20  4  0  0  0
 20 21  4  0  0  0
 21 22  4  0  0  0
 22 23  4  0  0  0
 23 24  4  0  0  0
  1 27  1  0  0  0
  1 28  1  0  0  0
  2 29  1  0  0  0
  3 30  1  0  0  0
  3 31  1  0  0  0
  4 32  1  0  0  0
  8 33  1  0  0  0
  9 34  1  0  0  0
 11 35  1  0  0  0
 12 36  1  0  0  0
 16 37  1  0  0  0
 16 38  1  0  0  0
 18 39  1  0  0  0
 19 40  1  0  0  0
 21 41  1  0  0  0
 22 42  1  0  0  0
 23 43  1  0  0  0
 24 44  1  0  0  0
 26 45  1  0  0  0
 26 46  1  0  0  0
 26 47  1  0  0  0
M  END
$$$$
