3kqs_ligand
  -I-interpret- 

 17 18  0  0  0  0  0  0  0  0999 V2000
   28.2530   46.1410   15.8830 N   0  0  0  0  0
   27.8390   44.8770   15.2060 C   0  0  0  0  0
   27.4580   44.6050   13.8530 C   0  0  0  0  0
   27.0940   43.2620   13.4640 C   0  0  0  0  0
   27.1210   42.1900   14.4390 C   0  0  0  0  0
   27.5040   42.4690   15.8000 C   0  0  0  0  0
   27.8610   43.8010   16.1890 C   0  0  0  0  0
   28.3070   44.3920   17.5220 N   0  0  0  0  0
   28.5420   45.8300   17.3210 C   0  0  0  0  0
   28.9780   46.7740   18.3420 N   0  0  0  0  0
   28.3266   47.0584   15.4432 H   0  0  0  0  0
   27.4426   45.4096   13.1178 H   0  0  0  0  0
   26.7986   43.0547   12.4355 H   0  0  0  0  0
   26.8524   41.1757   14.1437 H   0  0  0  0  0
   27.5221   41.6646   16.5354 H   0  0  0  0  0
   28.4219   43.8811   18.3973 H   0  0  0  0  0
   29.1473   46.4523   19.2950 H   0  0  0  0  0
  1  2  1  0  0  0
  1  9  1  0  0  0
  2  3  4  0  0  0
  2  7  4  0  0  0
  3  4  4  0  0  0
  4  5  4  0  0  0
  5  6  4  0  0  0
  6  7  4  0  0  0
  7  8  1  0  0  0
  8  9  1  0  0  0
  9 10  2  0  0  0
  1 11  1  0  0  0
  3 12  1  0  0  0
  4 13  1  0  0  0
  5 14  1  0  0  0
  6 15  1  0  0  0
  8 16  1  0  0  0
 10 17  1  0  0  0
M  END
$$$$
