6jio_ligand
  -I-interpret- 

 38 39  0  0  0  0  0  0  0  0999 V2000
   12.1040  -13.0390  -34.1510 C   0  0  0  0  0
   13.4670  -12.9460  -33.4900 C   0  0  0  0  0
   10.4610  -11.2870  -34.7290 C   0  0  0  0  0
   11.1580  -13.9160  -33.3490 C   0  0  0  0  0
   12.2170  -13.5060  -35.5920 C   0  0  0  0  0
   11.6100  -11.6350  -34.1310 O   0  0  0  0  0
    9.4640  -11.9660  -34.7750 O   0  0  0  0  0
   10.5510  -10.0510  -35.2740 N   0  0  0  0  0
    9.4210   -9.4540  -35.9960 C   0  0  0  0  0
    8.8620   -8.3110  -35.1790 C   0  0  0  0  0
    9.9560   -7.3390  -34.8180 C   0  0  0  0  0
    9.6400   -6.0340  -34.4500 C   0  0  0  0  0
   10.6250   -5.1130  -34.1440 C   0  0  0  0  0
   11.9710   -5.4740  -34.2100 C   0  0  0  0  0
   12.9580   -4.5560  -33.9430 N   0  0  0  0  0
   12.2910   -6.7830  -34.5720 C   0  0  0  0  0
   11.3080   -7.7250  -34.8720 C   0  0  0  0  0
   11.7060   -9.1400  -35.2430 C   0  0  0  0  0
   14.1035  -12.2740  -34.0657 H   0  0  0  0  0
   13.3525  -12.5609  -32.4768 H   0  0  0  0  0
   13.9205  -13.9365  -33.4545 H   0  0  0  0  0
   11.1167  -13.5578  -32.3203 H   0  0  0  0  0
   10.1623  -13.8727  -33.7904 H   0  0  0  0  0
   11.5185  -14.9446  -33.3628 H   0  0  0  0  0
   11.2373  -13.4546  -36.0671 H   0  0  0  0  0
   12.9159  -12.8632  -36.1272 H   0  0  0  0  0
   12.5785  -14.5341  -35.6121 H   0  0  0  0  0
    8.6474  -10.2056  -36.1533 H   0  0  0  0  0
    9.7584   -9.0830  -36.9638 H   0  0  0  0  0
    8.4248   -8.7095  -34.2635 H   0  0  0  0  0
    8.1051   -7.7914  -35.7666 H   0  0  0  0  0
    8.5938   -5.7318  -34.4021 H   0  0  0  0  0
   10.3486   -4.1005  -33.8499 H   0  0  0  0  0
   12.7100   -3.5986  -33.6933 H   0  0  0  0  0
   13.9386   -4.8319  -33.9945 H   0  0  0  0  0
   13.3393   -7.0774  -34.6216 H   0  0  0  0  0
   12.1481   -9.1183  -36.2391 H   0  0  0  0  0
   12.4057   -9.5042  -34.4907 H   0  0  0  0  0
  1  2  1  0  0  0
  1  4  1  0  0  0
  1  5  1  0  0  0
  1  6  1  0  0  0
  6  3  1  0  0  0
  3  7  2  0  0  0
  3  8  1  0  0  0
  8  9  1  0  0  0
  8 18  1  0  0  0
  9 10  1  0  0  0
 10 11  1  0  0  0
 11 12  4  0  0  0
 11 17  4  0  0  0
 12 13  4  0  0  0
 13 14  4  0  0  0
 14 15  1  0  0  0
 14 16  4  0  0  0
 16 17  4  0  0  0
 17 18  1  0  0  0
  2 19  1  0  0  0
  2 20  1  0  0  0
  2 21  1  0  0  0
  4 22  1  0  0  0
  4 23  1  0  0  0
  4 24  1  0  0  0
  5 25  1  0  0  0
  5 26  1  0  0  0
  5 27  1  0  0  0
  9 28  1  0  0  0
  9 29  1  0  0  0
 10 30  1  0  0  0
 10 31  1  0  0  0
 12 32  1  0  0  0
 13 33  1  0  0  0
 15 34  1  0  0  0
 15 35  1  0  0  0
 16 36  1  0  0  0
 18 37  1  0  0  0
 18 38  1  0  0  0
M  END
$$$$
