6qwa_ligand
  -I-interpret- 

 47 48  0  0  0  0  0  0  0  0999 V2000
   17.0730    8.0620   22.2060 C   0  0  0  0  0
   14.8510    5.0790   24.9030 C   0  0  0  0  0
   13.4110    3.7770   23.5700 C   0  0  0  0  0
   16.0060   10.3360   22.5090 C   0  0  0  0  0
   14.4310   10.7760   20.7110 C   0  0  0  0  0
   14.6360    8.5180   21.4440 C   0  0  0  0  0
   15.9220    7.6940   21.2590 C   0  0  0  0  0
   13.7460    6.1150   25.1370 C   0  0  0  0  0
   12.2710    4.7910   23.6100 C   0  0  0  0  0
   12.8080    6.1780   23.9300 C   0  0  0  0  0
   13.8360    8.0820   22.6940 C   0  0  0  0  0
   17.3440    9.5660   22.2710 C   0  0  0  0  0
   14.2530    3.7900   24.7290 N   0  3  0  0  0
   13.5560    6.6690   22.7820 N   0  0  0  0  0
   18.1320   10.0620   21.1280 N   0  3  0  0  0
   14.9800    9.9250   21.5260 N   0  0  0  0  0
   17.3080    9.4600   18.4510 O   0  0  0  0  0
   13.7560   10.4500   19.7250 O   0  0  0  0  0
   13.4180    8.8540   23.5140 O   0  0  0  0  0
   19.1740   10.8670   18.6510 O   0  0  0  0  0
   17.0390   11.8390   18.0730 O   0  0  0  0  0
   17.3070   10.9550   20.4300 O   0  0  0  0  0
   17.7080   10.8080   18.8380 S   0  0  0  0  0
   17.9758    7.5801   21.8308 H   0  0  0  0  0
   16.7943    7.7335   23.2072 H   0  0  0  0  0
   15.5235    5.0592   25.7606 H   0  0  0  0  0
   15.4197    5.3435   24.0115 H   0  0  0  0  0
   14.0377    4.0327   22.7156 H   0  0  0  0  0
   12.9579    2.7872   23.5140 H   0  0  0  0  0
   16.1912   11.4043   22.3972 H   0  0  0  0  0
   15.6432   10.1079   23.5112 H   0  0  0  0  0
   14.5730   11.8388   20.9068 H   0  0  0  0  0
   13.9925    8.3416   20.5821 H   0  0  0  0  0
   15.6627    6.6562   21.4686 H   0  0  0  0  0
   16.2752    7.8867   20.2460 H   0  0  0  0  0
   14.2028    7.0939   25.2825 H   0  0  0  0  0
   13.1716    5.8280   26.0178 H   0  0  0  0  0
   11.5610    4.4975   24.3832 H   0  0  0  0  0
   11.7821    4.8150   22.6361 H   0  0  0  0  0
   11.9735    6.8416   24.1566 H   0  0  0  0  0
   17.9872    9.7642   23.1283 H   0  0  0  0  0
   13.6880    3.5742   25.5504 H   0  0  0  0  0
   14.9914    3.0966   24.6088 H   0  0  0  0  0
   13.8754    6.0283   22.0554 H   0  0  0  0  0
   18.4262    9.2922   20.5270 H   0  0  0  0  0
   18.9833   10.5252   21.4461 H   0  0  0  0  0
   19.4915   11.7400   18.8934 H   0  0  0  0  0
  1  7  1  0  0  0
 12  1  1  0  0  0
  8  2  1  0  0  0
  2 13  1  0  0  0
  9  3  1  0  0  0
  3 13  1  0  0  0
 12  4  1  0  0  0
  4 16  1  0  0  0
 16  5  1  0  0  0
  5 18  2  0  0  0
  7  6  1  0  0  0
  6 11  1  0  0  0
 16  6  1  0  0  0
 10  8  1  0  0  0
 10  9  1  0  0  0
 14 10  1  0  0  0
 11 14  1  0  0  0
 11 19  2  0  0  0
 15 12  1  0  0  0
 22 15  1  0  0  0
 23 17  2  0  0  0
 23 20  1  0  0  0
 23 21  2  0  0  0
 22 23  1  0  0  0
  1 24  1  0  0  0
  1 25  1  0  0  0
  2 26  1  0  0  0
  2 27  1  0  0  0
  3 28  1  0  0  0
  3 29  1  0  0  0
  4 30  1  0  0  0
  4 31  1  0  0  0
  5 32  1  0  0  0
  6 33  1  0  0  0
  7 34  1  0  0  0
  7 35  1  0  0  0
  8 36  1  0  0  0
  8 37  1  0  0  0
  9 38  1  0  0  0
  9 39  1  0  0  0
 10 40  1  0  0  0
 12 41  1  0  0  0
 13 42  1  0  0  0
 13 43  1  0  0  0
 14 44  1  0  0  0
 15 45  1  0  0  0
 15 46  1  0  0  0
 20 47  1  0  0  0
M  END
$$$$
