1yej_ligand
  -I-interpret- 

 50 50  0  0  0  0  0  0  0  0999 V2000
   11.7240   37.6520   61.5920 C   0  0  0  0  0
   11.5950   38.9440   61.0990 C   0  0  0  0  0
   10.3830   39.5810   61.2410 C   0  0  0  0  0
    9.3230   38.9240   61.8670 C   0  0  0  0  0
    9.4940   37.6010   62.3560 C   0  0  0  0  0
   10.7220   36.9360   62.2210 C   0  0  0  0  0
   14.2130   37.5270   62.3610 P   0  0  0  0  0
   12.9460   37.0450   61.4460 O   0  0  0  0  0
   14.4460   38.9260   62.1110 O   0  0  0  0  0
   13.9650   37.0920   63.7470 O   0  0  0  0  0
   15.5100   36.5790   61.7560 C   0  0  0  0  0
   16.0650   37.0440   60.4760 C   0  0  0  0  0
   17.2700   36.1540   60.2140 C   0  0  0  0  0
   17.6240   36.0770   58.7520 C   0  0  0  0  0
   17.3290   34.9030   58.0520 N   0  0  0  0  0
   18.1670   37.0950   58.2460 O   0  0  0  0  0
   17.5900   34.6900   56.7120 C   0  0  0  0  0
   16.5890   33.7390   56.0350 C   0  0  0  0  0
   17.2310   32.9210   54.8670 C   0  0  0  0  0
   17.0470   31.3850   54.9810 C   0  0  0  0  0
   16.7600   30.6380   53.6670 C   0  0  0  0  0
   15.7740   29.4520   53.7680 C   0  0  0  0  0
   15.6460   28.8790   54.7890 O   0  0  0  0  0
   15.0990   29.0450   52.8370 O   0  0  0  0  0
    8.0130   39.6060   62.0260 N   0  0  0  0  0
    7.8500   40.7940   61.7110 O   0  0  0  0  0
    7.0620   38.9830   62.4940 O   0  0  0  0  0
   12.4333   39.4416   60.6114 H   0  0  0  0  0
   10.2517   40.5958   60.8655 H   0  0  0  0  0
    8.6597   37.0958   62.8427 H   0  0  0  0  0
   10.8762   35.9213   62.5879 H   0  0  0  0  0
   13.8274   36.1421   63.7633 H   0  0  0  0  0
   15.1183   35.5760   61.5867 H   0  0  0  0  0
   16.3139   36.6354   62.4899 H   0  0  0  0  0
   16.3454   38.0964   60.5190 H   0  0  0  0  0
   15.3323   36.9741   59.6720 H   0  0  0  0  0
   17.0248   35.1478   60.5539 H   0  0  0  0  0
   18.1226   36.5781   60.7444 H   0  0  0  0  0
   16.8866   34.1446   58.5712 H   0  0  0  0  0
   18.5767   34.2325   56.6394 H   0  0  0  0  0
   17.5188   35.6535   56.2074 H   0  0  0  0  0
   15.7828   34.3425   55.6179 H   0  0  0  0  0
   16.2381   33.0315   56.7863 H   0  0  0  0  0
   18.3030   33.1167   54.8918 H   0  0  0  0  0
   16.7358   33.2344   53.9480 H   0  0  0  0  0
   16.1761   31.2284   55.6175 H   0  0  0  0  0
   17.9919   30.9915   55.3556 H   0  0  0  0  0
   17.7110   30.2200   53.3369 H   0  0  0  0  0
   16.3010   31.3631   52.9950 H   0  0  0  0  0
   15.2770   29.5766   52.0577 H   0  0  0  0  0
  1  8  1  0  0  0
  1  6  4  0  0  0
  1  2  4  0  0  0
  2  3  4  0  0  0
  3  4  4  0  0  0
  4 25  1  0  0  0
  4  5  4  0  0  0
  5  6  4  0  0  0
 25 27  2  0  0  0
 25 26  2  0  0  0
  8  7  1  0  0  0
  7  9  2  0  0  0
  7 10  1  0  0  0
  7 11  1  0  0  0
 11 12  1  0  0  0
 12 13  1  0  0  0
 13 14  1  0  0  0
 14 16  2  0  0  0
 14 15  1  0  0  0
 15 17  1  0  0  0
 17 18  1  0  0  0
 18 19  1  0  0  0
 19 20  1  0  0  0
 20 21  1  0  0  0
 21 22  1  0  0  0
 22 24  1  0  0  0
 22 23  2  0  0  0
  2 28  1  0  0  0
  3 29  1  0  0  0
  5 30  1  0  0  0
  6 31  1  0  0  0
 10 32  1  0  0  0
 11 33  1  0  0  0
 11 34  1  0  0  0
 12 35  1  0  0  0
 12 36  1  0  0  0
 13 37  1  0  0  0
 13 38  1  0  0  0
 15 39  1  0  0  0
 17 40  1  0  0  0
 17 41  1  0  0  0
 18 42  1  0  0  0
 18 43  1  0  0  0
 19 44  1  0  0  0
 19 45  1  0  0  0
 20 46  1  0  0  0
 20 47  1  0  0  0
 21 48  1  0  0  0
 21 49  1  0  0  0
 24 50  1  0  0  0
M  END
$$$$
