1jut_ligand
  -I-interpret- 

 51 53  0  0  0  0  0  0  0  0999 V2000
   16.2710   14.1400   34.8440 C   0  0  0  0  0
   15.9790   13.9600   33.4750 C   0  0  0  0  0
   14.6720   13.6520   33.0820 C   0  0  0  0  0
   13.6810   13.5130   34.0620 C   0  0  0  0  0
   13.9660   13.6740   35.4380 C   0  0  0  0  0
   15.2720   13.9980   35.8200 C   0  0  0  0  0
   12.9470   13.3100   36.4470 C   0  0  0  0  0
   11.7440   13.1300   36.1770 O   0  0  0  0  0
   13.4000   13.1300   37.7290 N   0  0  0  0  0
   12.5170   12.7010   38.8430 C   0  0  0  0  0
   12.5550   11.1730   39.0130 C   0  0  0  0  0
   12.1310   10.5130   37.7110 C   0  0  0  0  0
   11.6640   10.6630   40.1700 C   0  0  0  0  0
   17.0850   14.1000   32.4320 C   0  0  0  0  0
   17.1860   15.5340   31.8670 C   0  0  0  0  0
   15.8950   15.9590   31.1920 C   0  0  0  0  0
   12.9290   13.3750   40.1230 C   0  0  0  0  0
   14.1280   13.7090   40.1860 O   0  0  0  0  0
   12.0910   13.5040   41.0340 O   0  0  0  0  0
   15.4610   15.4320   30.0020 C   0  0  0  0  0
   14.3460   16.1660   29.5550 N   0  0  0  0  0
   14.1150   17.1650   30.4800 C   0  0  0  0  0
   15.0160   17.0520   31.5230 C   0  0  0  0  0
   14.9640   17.9840   32.6190 C   0  0  0  0  0
   15.7450   18.0520   33.5870 O   0  0  0  0  0
   13.9470   18.9760   32.5330 N   0  0  0  0  0
   12.9750   19.0190   31.5050 C   0  0  0  0  0
   13.0950   18.1440   30.4240 N   0  0  0  0  0
   11.8760   19.8550   31.6360 N   0  0  0  0  0
   17.2868   14.3929   35.1479 H   0  0  0  0  0
   14.4283   13.5220   32.0276 H   0  0  0  0  0
   12.6625   13.2743   33.7559 H   0  0  0  0  0
   15.5136   14.1399   36.8734 H   0  0  0  0  0
   14.3866   13.2982   37.9258 H   0  0  0  0  0
   11.4954   12.9944   38.6014 H   0  0  0  0  0
   13.5803   10.9053   39.2684 H   0  0  0  0  0
   11.1185   10.8280   37.4584 H   0  0  0  0  0
   12.8144   10.8097   36.9154 H   0  0  0  0  0
   12.1571    9.4297   37.8289 H   0  0  0  0  0
   11.9992   11.1064   41.1076 H   0  0  0  0  0
   10.6286   10.9471   39.9819 H   0  0  0  0  0
   11.7385    9.5774   40.2329 H   0  0  0  0  0
   16.8550   13.4279   31.6053 H   0  0  0  0  0
   18.0334   13.8601   32.9128 H   0  0  0  0  0
   17.9861   15.5577   31.1271 H   0  0  0  0  0
   17.3845   16.2170   32.6930 H   0  0  0  0  0
   14.5601   13.5048   39.3534 H   0  0  0  0  0
   15.9075   14.5821   29.4859 H   0  0  0  0  0
   13.9169   19.6973   33.2535 H   0  0  0  0  0
   11.1357   19.8379   30.9345 H   0  0  0  0  0
   11.8081   20.4869   32.4338 H   0  0  0  0  0
  1  2  4  0  0  0
  1  6  4  0  0  0
  2  3  4  0  0  0
  2 14  1  0  0  0
  3  4  4  0  0  0
  4  5  4  0  0  0
  5  6  4  0  0  0
  5  7  1  0  0  0
  7  8  2  0  0  0
  7  9  1  0  0  0
  9 10  1  0  0  0
 10 11  1  0  0  0
 10 17  1  0  0  0
 11 12  1  0  0  0
 11 13  1  0  0  0
 14 15  1  0  0  0
 15 16  1  0  0  0
 16 20  4  0  0  0
 16 23  4  0  0  0
 17 18  1  0  0  0
 17 19  2  0  0  0
 20 21  4  0  0  0
 21 22  4  0  0  0
 22 23  4  0  0  0
 22 28  1  0  0  0
 23 24  1  0  0  0
 24 25  2  0  0  0
 24 26  1  0  0  0
 26 27  1  0  0  0
 27 28  2  0  0  0
 27 29  1  0  0  0
  1 30  1  0  0  0
  3 31  1  0  0  0
  4 32  1  0  0  0
  6 33  1  0  0  0
  9 34  1  0  0  0
 10 35  1  0  0  0
 11 36  1  0  0  0
 12 37  1  0  0  0
 12 38  1  0  0  0
 12 39  1  0  0  0
 13 40  1  0  0  0
 13 41  1  0  0  0
 13 42  1  0  0  0
 14 43  1  0  0  0
 14 44  1  0  0  0
 15 45  1  0  0  0
 15 46  1  0  0  0
 18 47  1  0  0  0
 20 48  1  0  0  0
 26 49  1  0  0  0
 29 50  1  0  0  0
 29 51  1  0  0  0
M  END
$$$$
