2jh5_ligand
  -I-interpret- 

 50 52  0  0  0  0  0  0  0  0999 V2000
    9.8460   25.2660   46.2660 Cl  0  0  0  0  0
   10.0930   23.7440   47.0190 C   0  0  0  0  0
   11.0130   22.7720   46.6030 C   0  0  0  0  0
   10.9590   21.6550   47.4570 C   0  0  0  0  0
   10.0190   21.7880   48.4920 C   0  0  0  0  0
    9.7120   20.7810   49.5520 C   0  0  0  0  0
    9.4770   18.1510   50.2600 S   0  0  0  0  0
   10.1710   18.2570   51.5080 O   0  0  0  0  0
    9.6200   16.9960   49.4270 O   0  0  0  0  0
    7.9130   18.4340   50.6100 N   0  0  0  0  0
    6.9070   17.9340   49.7000 C   0  0  0  0  0
    5.9600   16.9300   50.3840 C   0  0  0  0  0
    4.5590   17.2850   49.8640 C   0  0  0  0  0
    6.0270   18.9850   49.0710 C   0  0  0  0  0
    6.4080   20.0860   48.6950 O   0  0  0  0  0
    4.7790   18.4540   49.0060 N   0  0  0  0  0
    3.7220   18.9920   48.1480 C   0  0  0  0  0
    3.6730   18.1820   46.8430 C   0  0  0  0  0
    2.3500   19.0290   48.8330 C   0  0  0  0  0
    1.4240   18.3890   48.3260 O   0  0  0  0  0
    2.2400   19.7860   49.9960 N   0  0  0  0  0
    0.9810   19.7960   50.7500 C   0  0  0  0  0
    1.1690   19.7670   52.2710 C   0  0  0  0  0
    2.1840   20.6690   52.7120 O   0  0  0  0  0
    3.4420   20.4180   52.0890 C   0  0  0  0  0
    3.2850   20.6600   50.5780 C   0  0  0  0  0
    9.2340   23.2760   48.4210 S   0  0  0  0  0
    9.9270   19.4860   49.2390 C   0  0  0  0  0
   11.6748   22.8675   45.7422 H   0  0  0  0  0
   11.5856   20.7725   47.3279 H   0  0  0  0  0
    9.3330   21.0776   50.5300 H   0  0  0  0  0
    7.6495   18.9505   51.4492 H   0  0  0  0  0
    7.5059   17.4680   48.9175 H   0  0  0  0  0
    6.0163   16.9981   51.4704 H   0  0  0  0  0
    6.2278   15.8995   50.1506 H   0  0  0  0  0
    3.8607   17.4951   50.6741 H   0  0  0  0  0
    4.0996   16.4581   49.3225 H   0  0  0  0  0
    3.9659   20.0315   47.9289 H   0  0  0  0  0
    4.6337   18.2576   46.3337 H   0  0  0  0  0
    3.4634   17.1373   47.0729 H   0  0  0  0  0
    2.8872   18.5786   46.2000 H   0  0  0  0  0
    0.4301   18.8969   50.4738 H   0  0  0  0  0
    0.4631   20.7232   50.5046 H   0  0  0  0  0
    1.4686   18.7580   52.5543 H   0  0  0  0  0
    0.2281   20.0667   52.7326 H   0  0  0  0  0
    3.7540   19.3901   52.2740 H   0  0  0  0  0
    4.2028   21.0826   52.4985 H   0  0  0  0  0
    2.9935   21.6987   50.4224 H   0  0  0  0  0
    4.2341   20.4358   50.0912 H   0  0  0  0  0
   10.4121   19.2628   48.2887 H   0  0  0  0  0
  2  1  1  0  0  0
  2  3  4  0  0  0
 27  2  4  0  0  0
  4  3  4  0  0  0
  5  4  4  0  0  0
  6  5  1  0  0  0
  5 27  4  0  0  0
 28  6  2  0  0  0
  7  8  2  0  0  0
  7  9  2  0  0  0
  7 10  1  0  0  0
  7 28  1  0  0  0
 10 11  1  0  0  0
 11 12  1  0  0  0
 11 14  1  0  0  0
 12 13  1  0  0  0
 13 16  1  0  0  0
 14 15  2  0  0  0
 14 16  1  0  0  0
 16 17  1  0  0  0
 17 18  1  0  0  0
 17 19  1  0  0  0
 19 20  2  0  0  0
 19 21  1  0  0  0
 21 22  1  0  0  0
 21 26  1  0  0  0
 22 23  1  0  0  0
 23 24  1  0  0  0
 24 25  1  0  0  0
 25 26  1  0  0  0
  3 29  1  0  0  0
  4 30  1  0  0  0
  6 31  1  0  0  0
 10 32  1  0  0  0
 11 33  1  0  0  0
 12 34  1  0  0  0
 12 35  1  0  0  0
 13 36  1  0  0  0
 13 37  1  0  0  0
 17 38  1  0  0  0
 18 39  1  0  0  0
 18 40  1  0  0  0
 18 41  1  0  0  0
 22 42  1  0  0  0
 22 43  1  0  0  0
 23 44  1  0  0  0
 23 45  1  0  0  0
 25 46  1  0  0  0
 25 47  1  0  0  0
 26 48  1  0  0  0
 26 49  1  0  0  0
 28 50  1  0  0  0
M  END
$$$$
