2e7l_ligand
  -I-interpret- 

151154  0  0  0  0  0  0  0  0999 V2000
   32.3210  -44.1700   61.1760 N   0  3  0  0  0
   33.4600  -43.2760   61.5160 C   0  0  0  0  0
   33.2190  -41.8240   61.2060 C   0  0  0  0  0
   32.6560  -41.4680   60.1740 O   0  0  0  0  0
   34.7220  -43.7290   60.8240 C   0  0  0  0  0
   35.2850  -44.9600   61.4340 C   0  0  0  0  0
   34.7660  -45.1480   62.8090 C   0  0  0  0  0
   35.4700  -44.8930   63.7860 O   0  0  0  0  0
   33.5090  -45.5730   62.9120 N   0  0  0  0  0
   33.6830  -41.0040   62.1330 N   0  0  0  0  0
   33.4320  -39.5910   62.1330 C   0  0  0  0  0
   34.6050  -38.8080   61.5610 C   0  0  0  0  0
   35.6950  -39.3450   61.3690 O   0  0  0  0  0
   33.1710  -39.1570   63.5750 C   0  0  0  0  0
   31.7580  -39.2920   64.1590 C   0  0  0  0  0
   30.8650  -40.2970   63.4230 C   0  0  0  0  0
   31.8590  -39.6220   65.6470 C   0  0  0  0  0
   34.3630  -37.5300   61.3080 N   0  0  0  0  0
   35.3960  -36.5880   60.9370 C   0  0  0  0  0
   36.4650  -36.5180   62.0240 C   0  0  0  0  0
   36.1440  -36.5670   63.2150 O   0  0  0  0  0
   34.7740  -35.2030   60.7450 C   0  0  0  0  0
   35.7720  -34.2080   60.6050 O   0  0  0  0  0
   37.7430  -36.3660   61.6180 N   0  0  0  0  0
   38.8250  -36.1900   62.5830 C   0  0  0  0  0
   38.6240  -34.8930   63.3400 C   0  0  0  0  0
   37.7470  -34.0970   62.9870 O   0  0  0  0  0
   40.0680  -36.0790   61.6990 C   0  0  0  0  0
   39.5470  -35.5150   60.4070 C   0  0  0  0  0
   38.2500  -36.2970   60.2330 C   0  0  0  0  0
   39.4280  -34.7070   64.3860 N   0  0  0  0  0
   39.4350  -33.5010   65.1990 C   0  0  0  0  0
   39.6360  -32.2630   64.3090 C   0  0  0  0  0
   40.5570  -32.2370   63.4890 O   0  0  0  0  0
   40.5920  -33.6210   66.1870 C   0  0  0  0  0
   40.5390  -32.6540   67.3350 C   0  0  0  0  0
   39.8190  -32.9580   68.4880 C   0  0  0  0  0
   41.2400  -31.4640   67.2800 C   0  0  0  0  0
   39.7870  -32.0710   69.5640 C   0  0  0  0  0
   41.2200  -30.5740   68.3410 C   0  0  0  0  0
   40.5010  -30.8870   69.4960 C   0  0  0  0  0
   38.7820  -31.2370   64.4670 N   0  0  0  0  0
   38.8490  -30.0330   63.6300 C   0  0  0  0  0
   40.0720  -29.1690   63.9340 C   0  0  0  0  0
   40.6670  -29.3080   64.9930 O   0  0  0  0  0
   37.5730  -29.2660   64.0180 C   0  0  0  0  0
   36.7340  -30.2350   64.7280 C   0  0  0  0  0
   37.6830  -31.1330   65.4340 C   0  0  0  0  0
   40.4310  -28.2750   63.0160 N   0  0  0  0  0
   41.5090  -27.3180   63.2590 C   0  0  0  0  0
   41.0670  -26.2490   64.2420 C   0  0  0  0  0
   39.8600  -26.0690   64.4860 O   0  0  0  0  0
   41.9560  -26.6770   61.9550 C   0  0  0  0  0
   42.9370  -27.5130   61.1590 C   0  0  0  0  0
   43.8990  -26.8960   60.3650 C   0  0  0  0  0
   42.9040  -28.9090   61.2040 C   0  0  0  0  0
   44.8080  -27.6560   59.6150 C   0  0  0  0  0
   43.8110  -29.6720   60.4660 C   0  0  0  0  0
   44.7590  -29.0440   59.6600 C   0  0  0  0  0
   42.0480  -25.5670   64.8320 N   0  0  0  0  0
   41.7890  -24.4160   65.6880 C   0  0  0  0  0
   41.0570  -23.3460   64.8840 C   0  0  0  0  0
   41.4190  -23.0490   63.7290 O   0  0  0  0  0
   43.0980  -23.7970   66.1780 C   0  0  0  0  0
   43.8890  -24.6970   67.1270 C   0  0  0  0  0
   43.6150  -25.9200   67.2410 O   0  0  0  0  0
   44.8180  -24.1540   67.7650 O   0  0  0  0  0
   40.0240  -22.7740   65.4880 N   0  0  0  0  0
   39.4460  -21.5460   64.9830 C   0  0  0  0  0
   40.4150  -20.3910   65.2290 C   0  0  0  0  0
   40.4080  -19.3940   64.4860 O   0  0  0  0  0
   38.1060  -21.2760   65.6690 C   0  0  0  0  0
   36.7820  -21.6860   65.0030 C   0  0  0  0  0
   36.8770  -22.9070   64.1040 C   0  0  0  0  0
   35.7020  -21.8610   66.0540 C   0  0  0  0  0
   41.2717  -20.4522   66.2445 O   0  0  0  0  0
   32.5622  -45.1318   61.4150 H   0  0  0  0  0
   31.4964  -43.8838   61.7038 H   0  0  0  0  0
   32.1260  -44.1053   60.1769 H   0  0  0  0  0
   33.5686  -43.3535   62.5978 H   0  0  0  0  0
   35.4632  -42.9351   60.9164 H   0  0  0  0  0
   34.4792  -43.9464   59.7839 H   0  0  0  0  0
   36.3702  -44.8674   61.4767 H   0  0  0  0  0
   34.9949  -45.8180   60.8276 H   0  0  0  0  0
   33.0877  -45.7009   63.8321 H   0  0  0  0  0
   32.9670  -45.7708   62.0709 H   0  0  0  0  0
   34.2481  -41.3953   62.8866 H   0  0  0  0  0
   32.5688  -39.3836   61.5006 H   0  0  0  0  0
   33.3732  -38.0860   63.5831 H   0  0  0  0  0
   33.7861  -39.8226   64.1806 H   0  0  0  0  0
   31.2626  -38.3311   64.0199 H   0  0  0  0  0
   30.7531  -39.9885   62.3836 H   0  0  0  0  0
   31.3231  -41.2853   63.4628 H   0  0  0  0  0
   29.8860  -40.3294   63.9011 H   0  0  0  0  0
   32.3991  -40.5602   65.7739 H   0  0  0  0  0
   32.3926  -38.8218   66.1599 H   0  0  0  0  0
   30.8571  -39.7186   66.0652 H   0  0  0  0  0
   33.4023  -37.1945   61.3782 H   0  0  0  0  0
   35.8593  -36.9183   60.0073 H   0  0  0  0  0
   34.1697  -34.9686   61.6213 H   0  0  0  0  0
   34.1672  -35.2167   59.8397 H   0  0  0  0  0
   35.3543  -33.3518   60.4864 H   0  0  0  0  0
   38.8854  -36.9931   63.3176 H   0  0  0  0  0
   40.5631  -37.0401   61.5601 H   0  0  0  0  0
   40.8367  -35.4478   62.1448 H   0  0  0  0  0
   39.4047  -34.4346   60.4292 H   0  0  0  0  0
   40.2388  -35.6273   59.5722 H   0  0  0  0  0
   37.5518  -35.8255   59.5414 H   0  0  0  0  0
   38.3951  -37.2767   59.7778 H   0  0  0  0  0
   40.0771  -35.4547   64.6312 H   0  0  0  0  0
   38.4867  -33.3907   65.7250 H   0  0  0  0  0
   41.5060  -33.4065   65.6332 H   0  0  0  0  0
   40.5428  -34.6230   66.6133 H   0  0  0  0  0
   39.2742  -33.9000   68.5501 H   0  0  0  0  0
   41.8175  -31.2223   66.3877 H   0  0  0  0  0
   39.2032  -32.3088   70.4532 H   0  0  0  0  0
   41.7641  -29.6319   68.2744 H   0  0  0  0  0
   40.5018  -30.2004   70.3426 H   0  0  0  0  0
   38.9262  -30.2854   62.5724 H   0  0  0  0  0
   37.0653  -28.8657   63.1404 H   0  0  0  0  0
   37.8008  -28.4020   64.6423 H   0  0  0  0  0
   36.0544  -29.7430   65.4239 H   0  0  0  0  0
   36.0929  -30.7887   64.0421 H   0  0  0  0  0
   37.9974  -30.7509   66.4052 H   0  0  0  0  0
   37.2489  -32.0970   65.6992 H   0  0  0  0  0
   39.9421  -28.2571   62.1210 H   0  0  0  0  0
   42.3514  -27.8584   63.6907 H   0  0  0  0  0
   42.4597  -25.7446   62.2101 H   0  0  0  0  0
   41.0669  -26.5482   61.3377 H   0  0  0  0  0
   43.9466  -25.8078   60.3256 H   0  0  0  0  0
   42.1599  -29.4094   61.8238 H   0  0  0  0  0
   45.5539  -27.1574   58.9960 H   0  0  0  0  0
   43.7777  -30.7601   60.5202 H   0  0  0  0  0
   45.4569  -29.6374   59.0693 H   0  0  0  0  0
   43.0129  -25.8603   64.6794 H   0  0  0  0  0
   41.1960  -24.7549   66.5374 H   0  0  0  0  0
   42.8433  -22.8903   66.7268 H   0  0  0  0  0
   43.7220  -23.6205   65.3019 H   0  0  0  0  0
   42.8739  -26.1353   66.6701 H   0  0  0  0  0
   39.6296  -23.2068   66.3232 H   0  0  0  0  0
   39.2701  -21.6407   63.9115 H   0  0  0  0  0
   38.0501  -20.1888   65.7236 H   0  0  0  0  0
   38.1454  -21.8801   66.5754 H   0  0  0  0  0
   36.5166  -20.8680   64.3333 H   0  0  0  0  0
   37.5877  -22.7110   63.3011 H   0  0  0  0  0
   37.2149  -23.7622   64.6893 H   0  0  0  0  0
   35.8964  -23.1207   63.6788 H   0  0  0  0  0
   36.0041  -22.6364   66.7580 H   0  0  0  0  0
   35.5592  -20.9207   66.5864 H   0  0  0  0  0
   34.7695  -22.1513   65.5700 H   0  0  0  0  0
   41.1491  -21.2796   66.7157 H   0  0  0  0  0
  2  1  1  0  0  0
  2  5  1  0  0  0
  3  2  1  0  0  0
  3  4  2  0  0  0
  5  6  1  0  0  0
  6  7  1  0  0  0
  7  9  1  0  0  0
  7  8  2  0  0  0
 11 10  1  0  0  0
 11 14  1  0  0  0
 12 11  1  0  0  0
 12 13  2  0  0  0
 14 15  1  0  0  0
 15 16  1  0  0  0
 15 17  1  0  0  0
 10  3  1  0  0  0
 19 18  1  0  0  0
 19 22  1  0  0  0
 20 19  1  0  0  0
 20 21  2  0  0  0
 22 23  1  0  0  0
 18 12  1  0  0  0
 26 25  1  0  0  0
 25 28  1  0  0  0
 25 24  1  0  0  0
 24 30  1  0  0  0
 30 29  1  0  0  0
 28 29  1  0  0  0
 26 27  2  0  0  0
 24 20  1  0  0  0
 32 31  1  0  0  0
 32 35  1  0  0  0
 33 32  1  0  0  0
 33 34  2  0  0  0
 35 36  1  0  0  0
 36 37  4  0  0  0
 36 38  4  0  0  0
 38 40  4  0  0  0
 40 41  4  0  0  0
 39 41  4  0  0  0
 37 39  4  0  0  0
 31 26  1  0  0  0
 44 43  1  0  0  0
 43 46  1  0  0  0
 43 42  1  0  0  0
 42 48  1  0  0  0
 48 47  1  0  0  0
 46 47  1  0  0  0
 44 45  2  0  0  0
 42 33  1  0  0  0
 50 49  1  0  0  0
 50 53  1  0  0  0
 51 50  1  0  0  0
 51 52  2  0  0  0
 53 54  1  0  0  0
 54 55  4  0  0  0
 54 56  4  0  0  0
 56 58  4  0  0  0
 58 59  4  0  0  0
 57 59  4  0  0  0
 55 57  4  0  0  0
 49 44  1  0  0  0
 61 60  1  0  0  0
 61 64  1  0  0  0
 62 61  1  0  0  0
 62 63  2  0  0  0
 64 65  1  0  0  0
 65 66  1  0  0  0
 65 67  2  0  0  0
 60 51  1  0  0  0
 68 69  1  0  0  0
 69 72  1  0  0  0
 69 70  1  0  0  0
 70 71  2  0  0  0
 72 73  1  0  0  0
 73 74  1  0  0  0
 73 75  1  0  0  0
 62 68  1  0  0  0
 70 76  1  0  0  0
  1 77  1  0  0  0
  1 78  1  0  0  0
  1 79  1  0  0  0
  2 80  1  0  0  0
  5 81  1  0  0  0
  5 82  1  0  0  0
  6 83  1  0  0  0
  6 84  1  0  0  0
  9 85  1  0  0  0
  9 86  1  0  0  0
 10 87  1  0  0  0
 11 88  1  0  0  0
 14 89  1  0  0  0
 14 90  1  0  0  0
 15 91  1  0  0  0
 16 92  1  0  0  0
 16 93  1  0  0  0
 16 94  1  0  0  0
 17 95  1  0  0  0
 17 96  1  0  0  0
 17 97  1  0  0  0
 18 98  1  0  0  0
 19 99  1  0  0  0
 22100  1  0  0  0
 22101  1  0  0  0
 23102  1  0  0  0
 25103  1  0  0  0
 28104  1  0  0  0
 28105  1  0  0  0
 29106  1  0  0  0
 29107  1  0  0  0
 30108  1  0  0  0
 30109  1  0  0  0
 31110  1  0  0  0
 32111  1  0  0  0
 35112  1  0  0  0
 35113  1  0  0  0
 37114  1  0  0  0
 38115  1  0  0  0
 39116  1  0  0  0
 40117  1  0  0  0
 41118  1  0  0  0
 43119  1  0  0  0
 46120  1  0  0  0
 46121  1  0  0  0
 47122  1  0  0  0
 47123  1  0  0  0
 48124  1  0  0  0
 48125  1  0  0  0
 49126  1  0  0  0
 50127  1  0  0  0
 53128  1  0  0  0
 53129  1  0  0  0
 55130  1  0  0  0
 56131  1  0  0  0
 57132  1  0  0  0
 58133  1  0  0  0
 59134  1  0  0  0
 60135  1  0  0  0
 61136  1  0  0  0
 64137  1  0  0  0
 64138  1  0  0  0
 66139  1  0  0  0
 68140  1  0  0  0
 69141  1  0  0  0
 72142  1  0  0  0
 72143  1  0  0  0
 73144  1  0  0  0
 74145  1  0  0  0
 74146  1  0  0  0
 74147  1  0  0  0
 75148  1  0  0  0
 75149  1  0  0  0
 75150  1  0  0  0
 76151  1  0  0  0
M  END
$$$$
