### 
### Created by X-TOOL on Mon Sep 10 21:12:56 2018
### 

@<TRIPOS>MOLECULE
2e7l_ligand
  150   153     1     0     0
SMALL
GAST_HUCK


@<TRIPOS>ATOM
      1 N          32.3210  -44.1700   61.1760 N.4       1 GLN         0.2380
      2 CA         33.4600  -43.2760   61.5160 C.3       1 GLN         0.0671
      3 C          33.2190  -41.8240   61.2060 C.2       1 GLN         0.2269
      4 O          32.6560  -41.4680   60.1740 O.2       1 GLN        -0.3907
      5 CB         34.7220  -43.7290   60.8240 C.3       1 GLN         0.0247
      6 CG         35.2850  -44.9600   61.4340 C.3       1 GLN         0.0443
      7 CD         34.7660  -45.1480   62.8090 C.2       1 GLN         0.1738
      8 OE1        35.4700  -44.8930   63.7860 O.2       1 GLN        -0.3973
      9 NE2        33.5090  -45.5730   62.9120 N.am      1 GLN        -0.3009
     10 N          33.6830  -41.0040   62.1330 N.am      1 LEU        -0.2610
     11 CA         33.4320  -39.5910   62.1330 C.3       1 LEU         0.1313
     12 C          34.6050  -38.8080   61.5610 C.2       1 LEU         0.2040
     13 O          35.6950  -39.3450   61.3690 O.2       1 LEU        -0.3944
     14 CB         33.1710  -39.1570   63.5750 C.3       1 LEU        -0.0101
     15 CG         31.7580  -39.2920   64.1590 C.3       1 LEU        -0.0425
     16 CD1        30.8650  -40.2970   63.4230 C.3       1 LEU        -0.0625
     17 CD2        31.8590  -39.6220   65.6470 C.3       1 LEU        -0.0625
     18 N          34.3630  -37.5300   61.3080 N.am      1 SER        -0.2616
     19 CA         35.3960  -36.5880   60.9370 C.3       1 SER         0.1541
     20 C          36.4650  -36.5180   62.0240 C.2       1 SER         0.2087
     21 O          36.1440  -36.5670   63.2150 O.2       1 SER        -0.3941
     22 CB         34.7740  -35.2030   60.7450 C.3       1 SER         0.0843
     23 OG         35.7720  -34.2080   60.6050 O.3       1 SER        -0.3903
     24 N          37.7430  -36.3660   61.6180 N.am      1 PRO        -0.2498
     25 CA         38.8250  -36.1900   62.5830 C.3       1 PRO         0.1338
     26 C          38.6240  -34.8930   63.3400 C.2       1 PRO         0.2042
     27 O          37.7470  -34.0970   62.9870 O.2       1 PRO        -0.3944
     28 CB         40.0680  -36.0790   61.6990 C.3       1 PRO        -0.0104
     29 CG         39.5470  -35.5150   60.4070 C.3       1 PRO        -0.0281
     30 CD         38.2500  -36.2970   60.2330 C.3       1 PRO         0.0369
     31 N          39.4280  -34.7070   64.3860 N.am      1 PHE        -0.2619
     32 CA         39.4350  -33.5010   65.1990 C.3       1 PHE         0.1406
     33 C          39.6360  -32.2630   64.3090 C.2       1 PHE         0.2085
     34 O          40.5570  -32.2370   63.4890 O.2       1 PHE        -0.3940
     35 CB         40.5920  -33.6210   66.1870 C.3       1 PHE         0.0214
     36 CG         40.5390  -32.6540   67.3350 C.ar      1 PHE        -0.0386
     37 CD1        39.8190  -32.9580   68.4880 C.ar      1 PHE        -0.0601
     38 CD2        41.2400  -31.4640   67.2800 C.ar      1 PHE        -0.0601
     39 CE1        39.7870  -32.0710   69.5640 C.ar      1 PHE        -0.0686
     40 CE2        41.2200  -30.5740   68.3410 C.ar      1 PHE        -0.0686
     41 CZ         40.5010  -30.8870   69.4960 C.ar      1 PHE        -0.0687
     42 N          38.7820  -31.2370   64.4670 N.am      1 PRO        -0.2497
     43 CA         38.8490  -30.0330   63.6300 C.3       1 PRO         0.1338
     44 C          40.0720  -29.1690   63.9340 C.2       1 PRO         0.2042
     45 O          40.6670  -29.3080   64.9930 O.2       1 PRO        -0.3944
     46 CB         37.5730  -29.2660   64.0180 C.3       1 PRO        -0.0104
     47 CG         36.7340  -30.2350   64.7280 C.3       1 PRO        -0.0281
     48 CD         37.6830  -31.1330   65.4340 C.3       1 PRO         0.0369
     49 N          40.4310  -28.2750   63.0160 N.am      1 PHE        -0.2619
     50 CA         41.5090  -27.3180   63.2590 C.3       1 PHE         0.1404
     51 C          41.0670  -26.2490   64.2420 C.2       1 PHE         0.2060
     52 O          39.8600  -26.0690   64.4860 O.2       1 PHE        -0.3942
     53 CB         41.9560  -26.6770   61.9550 C.3       1 PHE         0.0214
     54 CG         42.9370  -27.5130   61.1590 C.ar      1 PHE        -0.0386
     55 CD1        43.8990  -26.8960   60.3650 C.ar      1 PHE        -0.0601
     56 CD2        42.9040  -28.9090   61.2040 C.ar      1 PHE        -0.0601
     57 CE1        44.8080  -27.6560   59.6150 C.ar      1 PHE        -0.0686
     58 CE2        43.8110  -29.6720   60.4660 C.ar      1 PHE        -0.0686
     59 CZ         44.7590  -29.0440   59.6600 C.ar      1 PHE        -0.0687
     60 N          42.0480  -25.5670   64.8320 N.am      1 ASP        -0.2620
     61 CA         41.7890  -24.4160   65.6880 C.3       1 ASP         0.1423
     62 C          41.0570  -23.3460   64.8840 C.2       1 ASP         0.2057
     63 O          41.4190  -23.0490   63.7290 O.2       1 ASP        -0.3943
     64 CB         43.0980  -23.7970   66.1780 C.3       1 ASP         0.0406
     65 CG         43.8890  -24.6970   67.1270 C.2       1 ASP         0.0393
     66 OD1        43.6150  -25.9200   67.2410 O.co2     1 ASP        -0.5688
     67 OD2        44.8180  -24.1540   67.7650 O.co2     1 ASP        -0.5688
     68 N          40.0240  -22.7740   65.4880 N.am      1 LEU        -0.2623
     69 CA         39.4460  -21.5460   64.9830 C.3       1 LEU         0.1422
     70 C          40.4150  -20.3910   65.2290 C.2       1 LEU         0.2571
     71 O          40.4080  -19.3940   64.4860 O.2       1 LEU        -0.3680
     72 CB         38.1060  -21.2760   65.6690 C.3       1 LEU        -0.0087
     73 CG         36.7820  -21.6860   65.0030 C.3       1 LEU        -0.0424
     74 CD1        36.8770  -22.9070   64.1040 C.3       1 LEU        -0.0624
     75 CD2        35.7020  -21.8610   66.0540 C.3       1 LEU        -0.0624
     76 O1         41.2717  -20.4522   66.2445 O.3       1 LEU        -0.2910
     77 H1         32.5583  -45.1209   61.4118 H         1 GLN         0.2015
     78 H2         32.1274  -44.1069   60.1888 H         1 GLN         0.2015
     79 H3         31.5055  -43.8882   61.6970 H         1 GLN         0.2015
     80 H4         33.6197  -43.3568   62.6013 H         1 GLN         0.1100
     81 H5         35.4707  -42.9260   60.8913 H         1 GLN         0.0370
     82 H6         34.4938  -43.9300   59.7669 H         1 GLN         0.0370
     83 H7         36.3812  -44.8762   61.4702 H         1 GLN         0.0506
     84 H8         35.0037  -45.8283   60.8201 H         1 GLN         0.0506
     85 H9         33.1027  -45.7185   63.8141 H         1 GLN         0.1814
     86 H10        32.9708  -45.7468   62.0873 H         1 GLN         0.1814
     87 H11        34.2370  -41.3877   62.8718 H         1 LEU         0.1884
     88 H12        32.5405  -39.3853   61.5223 H         1 LEU         0.0800
     89 H13        33.4461  -38.0942   63.6444 H         1 LEU         0.0315
     90 H14        33.8400  -39.7515   64.2145 H         1 LEU         0.0315
     91 H15        31.2728  -38.3092   64.0657 H         1 LEU         0.0298
     92 H16        29.8766  -40.3306   63.9046 H         1 LEU         0.0232
     93 H17        31.3262  -41.2949   63.4624 H         1 LEU         0.0232
     94 H18        30.7512  -39.9868   62.3738 H         1 LEU         0.0232
     95 H19        32.5053  -38.8831   66.1434 H         1 LEU         0.0232
     96 H20        32.2884  -40.6270   65.7714 H         1 LEU         0.0232
     97 H21        30.8561  -39.5934   66.0979 H         1 LEU         0.0232
     98 H22        33.4212  -37.2011   61.3769 H         1 SER         0.1884
     99 H23        35.8602  -36.9133   59.9943 H         1 SER         0.0823
    100 H24        34.1507  -34.9653   61.6196 H         1 SER         0.0606
    101 H25        34.1481  -35.2131   59.8405 H         1 SER         0.0606
    102 H26        36.3133  -34.1920   61.3855 H         1 SER         0.2097
    103 H27        38.8931  -37.0380   63.2803 H         1 PRO         0.0802
    104 H28        40.5231  -37.0675   61.5386 H         1 PRO         0.0313
    105 H29        40.8092  -35.4028   62.1499 H         1 PRO         0.0313
    106 H30        39.3567  -34.4347   60.4883 H         1 PRO         0.0287
    107 H31        40.2438  -35.7031   59.5769 H         1 PRO         0.0287
    108 H32        37.5470  -35.7634   59.5765 H         1 PRO         0.0524
    109 H33        38.4407  -37.3014   59.8270 H         1 PRO         0.0524
    110 H34        40.0643  -35.4400   64.6264 H         1 PHE         0.1885
    111 H35        38.4834  -33.4103   65.7433 H         1 PHE         0.0823
    112 H36        41.5302  -33.4507   65.6385 H         1 PHE         0.0474
    113 H37        40.5874  -34.6413   66.5979 H         1 PHE         0.0474
    114 H38        39.2772  -33.8949   68.5498 H         1 PHE         0.0557
    115 H39        41.8143  -31.2236   66.3926 H         1 PHE         0.0557
    116 H40        39.2064  -32.3074   70.4483 H         1 PHE         0.0599
    117 H41        41.7611  -29.6370   68.2748 H         1 PHE         0.0599
    118 H42        40.5018  -30.2042   70.3379 H         1 PHE         0.0559
    119 H43        38.8464  -30.3015   62.5633 H         1 PRO         0.0802
    120 H44        37.0576  -28.8975   63.1188 H         1 PRO         0.0313
    121 H45        37.8189  -28.4175   64.6734 H         1 PRO         0.0313
    122 H46        36.0797  -29.7227   65.4488 H         1 PRO         0.0287
    123 H47        36.1196  -30.8065   64.0168 H         1 PRO         0.0287
    124 H48        38.0243  -30.6888   66.3807 H         1 PRO         0.0524
    125 H49        37.2307  -32.1159   65.6322 H         1 PRO         0.0524
    126 H50        39.9517  -28.2574   62.1385 H         1 PHE         0.1885
    127 H51        42.3626  -27.8592   63.6930 H         1 PHE         0.0823
    128 H52        42.4334  -25.7141   62.1893 H         1 PHE         0.0474
    129 H53        41.0658  -26.5032   61.3326 H         1 PHE         0.0474
    130 H54        43.9463  -25.8137   60.3258 H         1 PHE         0.0557
    131 H55        42.1640  -29.4066   61.8204 H         1 PHE         0.0557
    132 H56        45.5498  -27.1602   58.9994 H         1 PHE         0.0599
    133 H57        43.7779  -30.7542   60.5199 H         1 PHE         0.0599
    134 H58        45.4530  -29.6341   59.0725 H         1 PHE         0.0559
    135 H59        42.9940  -25.8546   64.6824 H         1 ASP         0.1884
    136 H60        41.1785  -24.7287   66.5479 H         1 ASP         0.0819
    137 H61        42.8630  -22.8600   66.7041 H         1 ASP         0.0478
    138 H62        43.7272  -23.5782   65.3027 H         1 ASP         0.0478
    139 H63        39.6373  -23.1983   66.3068 H         1 LEU         0.1885
    140 H64        39.2771  -21.6468   63.9007 H         1 LEU         0.0816
    141 H65        38.0511  -20.1897   65.8329 H         1 LEU         0.0316
    142 H66        38.1413  -21.7920   66.6398 H         1 LEU         0.0316
    143 H67        36.4798  -20.8473   64.3586 H         1 LEU         0.0298
    144 H68        35.8879  -23.1237   63.6743 H         1 LEU         0.0232
    145 H69        37.2179  -23.7708   64.6936 H         1 LEU         0.0232
    146 H70        37.5939  -22.7105   63.2932 H         1 LEU         0.0232
    147 H71        35.6579  -20.9628   66.6875 H         1 LEU         0.0232
    148 H72        35.9347  -22.7376   66.6764 H         1 LEU         0.0232
    149 H73        34.7304  -22.0094   65.5602 H         1 LEU         0.0232
    150 H74        42.1600  -20.4049   65.9112 H         1 LEU         0.2540
@<TRIPOS>BOND
     1    2    1 1  
     2    2    5 1  
     3    3    2 1  
     4    3    4 2  
     5    5    6 1  
     6    6    7 1  
     7    7    9 am 
     8    7    8 2  
     9   11   10 1  
    10   11   14 1  
    11   12   11 1  
    12   12   13 2  
    13   14   15 1  
    14   15   16 1  
    15   15   17 1  
    16   10    3 am 
    17   19   18 1  
    18   19   22 1  
    19   20   19 1  
    20   20   21 2  
    21   22   23 1  
    22   18   12 am 
    23   26   25 1  
    24   25   28 1  
    25   25   24 1  
    26   24   30 1  
    27   30   29 1  
    28   28   29 1  
    29   26   27 2  
    30   24   20 am 
    31   32   31 1  
    32   32   35 1  
    33   33   32 1  
    34   33   34 2  
    35   35   36 1  
    36   36   37 ar 
    37   36   38 ar 
    38   38   40 ar 
    39   40   41 ar 
    40   39   41 ar 
    41   37   39 ar 
    42   31   26 am 
    43   44   43 1  
    44   43   46 1  
    45   43   42 1  
    46   42   48 1  
    47   48   47 1  
    48   46   47 1  
    49   44   45 2  
    50   42   33 am 
    51   50   49 1  
    52   50   53 1  
    53   51   50 1  
    54   51   52 2  
    55   53   54 1  
    56   54   55 ar 
    57   54   56 ar 
    58   56   58 ar 
    59   58   59 ar 
    60   57   59 ar 
    61   55   57 ar 
    62   49   44 am 
    63   61   60 1  
    64   61   64 1  
    65   62   61 1  
    66   62   63 2  
    67   64   65 1  
    68   65   66 ar 
    69   65   67 ar 
    70   60   51 am 
    71   68   69 1  
    72   69   72 1  
    73   69   70 1  
    74   70   71 2  
    75   72   73 1  
    76   73   74 1  
    77   73   75 1  
    78   62   68 am 
    79   70   76 1  
    80    1   77 1  
    81    1   78 1  
    82    1   79 1  
    83    2   80 1  
    84    5   81 1  
    85    5   82 1  
    86    6   83 1  
    87    6   84 1  
    88    9   85 1  
    89    9   86 1  
    90   10   87 1  
    91   11   88 1  
    92   14   89 1  
    93   14   90 1  
    94   15   91 1  
    95   16   92 1  
    96   16   93 1  
    97   16   94 1  
    98   17   95 1  
    99   17   96 1  
   100   17   97 1  
   101   18   98 1  
   102   19   99 1  
   103   22  100 1  
   104   22  101 1  
   105   23  102 1  
   106   25  103 1  
   107   28  104 1  
   108   28  105 1  
   109   29  106 1  
   110   29  107 1  
   111   30  108 1  
   112   30  109 1  
   113   31  110 1  
   114   32  111 1  
   115   35  112 1  
   116   35  113 1  
   117   37  114 1  
   118   38  115 1  
   119   39  116 1  
   120   40  117 1  
   121   41  118 1  
   122   43  119 1  
   123   46  120 1  
   124   46  121 1  
   125   47  122 1  
   126   47  123 1  
   127   48  124 1  
   128   48  125 1  
   129   49  126 1  
   130   50  127 1  
   131   53  128 1  
   132   53  129 1  
   133   55  130 1  
   134   56  131 1  
   135   57  132 1  
   136   58  133 1  
   137   59  134 1  
   138   60  135 1  
   139   61  136 1  
   140   64  137 1  
   141   64  138 1  
   142   68  139 1  
   143   69  140 1  
   144   72  141 1  
   145   72  142 1  
   146   73  143 1  
   147   74  144 1  
   148   74  145 1  
   149   74  146 1  
   150   75  147 1  
   151   75  148 1  
   152   75  149 1  
   153   76  150 1  
@<TRIPOS>SUBSTRUCTURE
     1 GLN         1

