5m3a_ligand
  -I-interpret- 

 37 40  0  0  0  0  0  0  0  0999 V2000
   27.3360   50.2650   -5.2170 C   0  0  0  0  0
   27.2400   51.2380   -4.2390 C   0  0  0  0  0
   28.0030   51.1210   -3.0900 C   0  0  0  0  0
   28.5070   51.8080   -0.9070 C   0  0  0  0  0
   29.2420   51.1070    1.0420 C   0  0  0  0  0
   29.7640   52.3170   -0.6290 N   0  0  0  0  0
   26.8720   50.3500    0.3370 C   0  0  0  0  0
   25.4330   48.8960    1.6360 C   0  0  0  0  0
   24.4120   49.1580    0.6940 C   0  0  0  0  0
   23.4500   51.0210   -2.2710 C   0  0  0  0  0
   28.8570   50.0450   -2.9190 C   0  0  0  0  0
   26.6380   49.4910    1.4650 C   0  0  0  0  0
   23.5770   50.1400   -1.0820 C   0  0  0  0  0
   28.9450   49.0860   -3.9110 C   0  0  0  0  0
   30.6190   53.1880   -1.4250 C   0  0  0  0  0
   28.1870   49.1940   -5.0550 C   0  0  0  0  0
   28.1570   51.0300    0.1520 C   0  0  0  0  0
   30.2070   51.8830    0.5780 N   0  0  0  0  0
   25.9360   50.6210   -0.5620 N   0  0  0  0  0
   23.1560   48.7690    0.5760 N   0  0  0  0  0
   22.6360   49.3990   -0.5570 N   0  0  0  0  0
   24.7260   50.0160   -0.3380 N   0  0  0  0  0
   27.8520   52.0690   -2.0650 O   0  0  0  0  0
   26.7342   50.3461   -6.1222 H   0  0  0  0  0
   26.5706   52.0880   -4.3715 H   0  0  0  0  0
   29.2831   50.5890    2.0002 H   0  0  0  0  0
   25.2548   48.2305    2.4806 H   0  0  0  0  0
   23.1647   50.4226   -3.1362 H   0  0  0  0  0
   22.6869   51.7761   -2.0823 H   0  0  0  0  0
   24.4055   51.5086   -2.4640 H   0  0  0  0  0
   29.4540   49.9547   -2.0115 H   0  0  0  0  0
   27.4352   49.3170    2.1877 H   0  0  0  0  0
   29.6192   48.2386   -3.7864 H   0  0  0  0  0
   30.8482   52.7020   -2.3734 H   0  0  0  0  0
   30.1022   54.1291   -1.6131 H   0  0  0  0  0
   31.5439   53.3822   -0.8819 H   0  0  0  0  0
   28.2601   48.4329   -5.8318 H   0  0  0  0  0
  2  1  4  0  0  0
  1 16  4  0  0  0
  3  2  4  0  0  0
  3 11  4  0  0  0
 23  3  1  0  0  0
  4  6  4  0  0  0
 17  4  4  0  0  0
  4 23  1  0  0  0
 17  5  4  0  0  0
  5 18  4  0  0  0
  6 15  1  0  0  0
 18  6  4  0  0  0
 12  7  4  0  0  0
  7 17  1  0  0  0
  7 19  4  0  0  0
  9  8  4  0  0  0
  8 12  4  0  0  0
  9 20  4  0  0  0
 22  9  4  0  0  0
 13 10  1  0  0  0
 11 14  4  0  0  0
 13 21  4  0  0  0
 13 22  4  0  0  0
 14 16  4  0  0  0
 19 22  4  0  0  0
 20 21  4  0  0  0
  1 24  1  0  0  0
  2 25  1  0  0  0
  5 26  1  0  0  0
  8 27  1  0  0  0
 10 28  1  0  0  0
 10 29  1  0  0  0
 10 30  1  0  0  0
 11 31  1  0  0  0
 12 32  1  0  0  0
 14 33  1  0  0  0
 15 34  1  0  0  0
 15 35  1  0  0  0
 15 36  1  0  0  0
 16 37  1  0  0  0
M  END
$$$$
