2ydk_ligand
  -I-interpret- 

 45 47  0  0  0  0  0  0  0  0999 V2000
    1.2590   71.9410   10.0000 S   0  0  0  0  0
    2.7360   72.8250    9.7660 C   0  0  0  0  0
    2.9350   73.8130   10.7180 C   0  0  0  0  0
    1.8450   73.8320   11.6340 C   0  0  0  0  0
    0.8610   72.8960   11.3850 C   0  0  0  0  0
    3.5990   72.5150    8.7140 N   0  0  0  0  0
    3.3740   71.4330    7.9070 C   0  0  0  0  0
    4.4360   71.0590    7.1280 N   0  0  0  0  0
    2.3180   70.8440    7.8680 O   0  0  0  0  0
    4.1220   74.6620   10.7220 C   0  0  0  0  0
    5.0040   74.5430    9.8990 O   0  0  0  0  0
    4.2280   75.5830   11.7290 N   0  0  0  0  0
    5.5240   76.1430   12.0570 C   0  0  0  0  0
    6.2170   75.2340   13.0390 C   0  0  0  0  0
    7.5240   75.8190   13.4510 N   0  3  0  0  0
    7.4040   77.1600   14.0990 C   0  0  0  0  0
    6.7580   78.0830   13.0800 C   0  0  0  0  0
    5.4040   77.5620   12.6190 C   0  0  0  0  0
   -0.3740   72.6280   12.1140 C   0  0  0  0  0
   -0.8100   73.4350   13.1440 C   0  0  0  0  0
   -1.9880   73.1630   13.8240 C   0  0  0  0  0
   -2.7240   72.0570   13.4540 C   0  0  0  0  0
   -2.3000   71.2370   12.4270 C   0  0  0  0  0
   -1.1290   71.5280   11.7660 C   0  0  0  0  0
    1.7915   74.5319   12.4679 H   0  0  0  0  0
    4.4127   73.1060    8.5434 H   0  0  0  0  0
    4.3486   70.2650    6.4937 H   0  0  0  0  0
    5.3146   71.5744    7.1819 H   0  0  0  0  0
    3.3985   75.8740   12.2464 H   0  0  0  0  0
    6.1148   76.2152   11.1438 H   0  0  0  0  0
    6.3926   74.2675   12.5667 H   0  0  0  0  0
    5.5866   75.1151   13.9202 H   0  0  0  0  0
    8.0849   75.9370   12.6073 H   0  0  0  0  0
    7.9397   75.1861   14.1344 H   0  0  0  0  0
    8.3829   77.5357   14.3968 H   0  0  0  0  0
    6.8011   77.1002   15.0051 H   0  0  0  0  0
    7.4137   78.1451   12.2115 H   0  0  0  0  0
    6.6083   79.0562   13.5474 H   0  0  0  0  0
    4.7273   77.5435   13.4733 H   0  0  0  0  0
    5.0258   78.2177   11.8347 H   0  0  0  0  0
   -0.2170   74.3039   13.4294 H   0  0  0  0  0
   -2.3249   73.8100   14.6339 H   0  0  0  0  0
   -3.6515   71.8273   13.9785 H   0  0  0  0  0
   -2.8890   70.3652   12.1420 H   0  0  0  0  0
   -0.7935   70.8801   10.9562 H   0  0  0  0  0
  1  2  4  0  0  0
  1  5  4  0  0  0
  2  3  4  0  0  0
  2  6  1  0  0  0
  3  4  4  0  0  0
  3 10  1  0  0  0
  4  5  4  0  0  0
  5 19  1  0  0  0
  6  7  1  0  0  0
  7  8  1  0  0  0
  7  9  2  0  0  0
 10 11  2  0  0  0
 10 12  1  0  0  0
 12 13  1  0  0  0
 13 14  1  0  0  0
 13 18  1  0  0  0
 14 15  1  0  0  0
 15 16  1  0  0  0
 16 17  1  0  0  0
 17 18  1  0  0  0
 19 20  4  0  0  0
 19 24  4  0  0  0
 20 21  4  0  0  0
 21 22  4  0  0  0
 22 23  4  0  0  0
 23 24  4  0  0  0
  4 25  1  0  0  0
  6 26  1  0  0  0
  8 27  1  0  0  0
  8 28  1  0  0  0
 12 29  1  0  0  0
 13 30  1  0  0  0
 14 31  1  0  0  0
 14 32  1  0  0  0
 15 33  1  0  0  0
 15 34  1  0  0  0
 16 35  1  0  0  0
 16 36  1  0  0  0
 17 37  1  0  0  0
 17 38  1  0  0  0
 18 39  1  0  0  0
 18 40  1  0  0  0
 20 41  1  0  0  0
 21 42  1  0  0  0
 22 43  1  0  0  0
 23 44  1  0  0  0
 24 45  1  0  0  0
M  END
$$$$
