4dgn_ligand
  -I-interpret- 

 31 33  0  0  0  0  0  0  0  0999 V2000
   22.0320    6.1610   21.4750 C   0  0  0  0  0
   21.7400    5.1570   23.6370 O   0  0  0  0  0
   21.4640    6.1600   22.7530 C   0  0  0  0  0
   19.4520    9.1480   22.6590 O   0  0  0  0  0
   20.6010    7.1740   23.1280 C   0  0  0  0  0
   19.7350   10.2230   20.2790 O   0  0  0  0  0
   20.2870    8.1850   22.2350 C   0  0  0  0  0
   22.2710    7.2150   19.3280 O   0  0  0  0  0
   20.8580    8.2300   20.9580 C   0  0  0  0  0
   24.8460    5.4670   15.8420 O   0  0  0  0  0
   21.7280    7.2070   20.5930 C   0  0  0  0  0
   24.3840    7.1870   13.6790 O   0  0  0  0  0
   20.5150    9.2920   19.9610 C   0  0  0  0  0
   21.1090    9.2730   18.6940 C   0  0  0  0  0
   21.9920    8.2330   18.4590 C   0  0  0  0  0
   22.6490    8.0010   17.2010 C   0  0  0  0  0
   23.4460    6.8450   17.1660 C   0  0  0  0  0
   24.0510    6.5640   15.9470 C   0  0  0  0  0
   23.8190    7.4030   14.8780 C   0  0  0  0  0
   23.0260    8.5390   14.9430 C   0  0  0  0  0
   22.4110    8.8520   16.1410 C   0  0  0  0  0
   22.7028    5.3583   21.1687 H   0  0  0  0  0
   21.2683    5.3166   24.4578 H   0  0  0  0  0
   19.3147    9.7844   21.9535 H   0  0  0  0  0
   20.1674    7.1773   24.1280 H   0  0  0  0  0
   25.1892    5.4063   14.9475 H   0  0  0  0  0
   24.1051    7.8721   13.0670 H   0  0  0  0  0
   20.8903   10.0291   17.9400 H   0  0  0  0  0
   23.5815    6.2082   18.0402 H   0  0  0  0  0
   22.8903    9.1727   14.0666 H   0  0  0  0  0
   21.7699    9.7276   16.2432 H   0  0  0  0  0
  1  3  4  0  0  0
 11  1  4  0  0  0
  3  2  1  0  0  0
  3  5  4  0  0  0
  7  4  1  0  0  0
  7  5  4  0  0  0
 13  6  2  0  0  0
  9  7  4  0  0  0
  8 11  1  0  0  0
 15  8  1  0  0  0
 11  9  4  0  0  0
 13  9  1  0  0  0
 18 10  1  0  0  0
 19 12  1  0  0  0
 14 13  1  0  0  0
 15 14  2  0  0  0
 16 15  1  0  0  0
 17 16  4  0  0  0
 16 21  4  0  0  0
 18 17  4  0  0  0
 18 19  4  0  0  0
 19 20  4  0  0  0
 20 21  4  0  0  0
  1 22  1  0  0  0
  2 23  1  0  0  0
  4 24  1  0  0  0
  5 25  1  0  0  0
 10 26  1  0  0  0
 12 27  1  0  0  0
 14 28  1  0  0  0
 17 29  1  0  0  0
 20 30  1  0  0  0
 21 31  1  0  0  0
M  END
$$$$
