1jqe_ligand
  -I-interpret- 

 59 61  0  0  0  0  0  0  0  0999 V2000
   41.6650  -31.1290    4.2750 C   0  0  0  0  0
   40.4360  -30.7000    5.0250 C   0  0  0  0  0
   39.4220  -31.7070    5.4890 C   0  0  0  0  0
   39.6240  -33.1750    5.2080 C   0  0  0  0  0
   40.9070  -33.6220    4.4270 C   0  0  0  0  0
   41.8640  -32.5680    4.0010 C   0  0  0  0  0
   38.6510  -34.1250    5.6560 N   0  0  0  0  0
   38.8290  -35.5270    5.3920 C   0  0  0  0  0
   40.0720  -36.0780    4.6280 C   0  0  0  0  0
   41.1140  -35.1620    4.1350 C   0  0  0  0  0
   37.8190  -36.5020    5.8680 C   0  0  0  0  0
   38.0080  -37.9840    5.5990 C   0  0  0  0  0
   39.1880  -38.4890    4.8670 C   0  0  0  0  0
   40.2050  -37.5440    4.3850 C   0  0  0  0  0
   36.8820  -39.0590    6.1370 Cl  0  0  0  0  0
   42.6930  -30.0960    3.7940 O   0  0  0  0  0
   43.5960  -29.6970    4.7700 C   0  0  0  0  0
   42.3760  -35.8550    3.3560 N   0  0  0  0  0
   42.9940  -35.5190    1.9830 C   0  0  0  0  0
   43.9280  -34.3130    2.0780 C   0  0  0  0  0
   41.9070  -35.3260    1.0170 C   0  0  0  0  0
   42.2820  -34.9680   -0.3890 C   0  0  0  0  0
   40.9470  -34.8860   -0.9480 C   0  0  0  0  0
   40.7170  -34.4950   -2.3570 N   0  3  0  0  0
   39.2470  -34.5690   -2.4480 C   0  0  0  0  0
   41.3410  -35.3620   -3.4010 C   0  0  0  0  0
   38.5020  -35.9590   -2.2620 C   0  0  0  0  0
   41.0260  -34.7940   -4.8390 C   0  0  0  0  0
   40.2775  -29.6424    5.2357 H   0  0  0  0  0
   38.5365  -31.3751    6.0311 H   0  0  0  0  0
   42.7592  -32.8717    3.4583 H   0  0  0  0  0
   36.9403  -36.1547    6.4114 H   0  0  0  0  0
   39.3036  -39.5575    4.6854 H   0  0  0  0  0
   41.0711  -37.9205    3.8408 H   0  0  0  0  0
   43.0544  -29.2475    5.6023 H   0  0  0  0  0
   44.1536  -30.5643    5.1237 H   0  0  0  0  0
   44.2865  -28.9670    4.3477 H   0  0  0  0  0
   42.8213  -36.6259    3.8539 H   0  0  0  0  0
   43.6169  -36.3443    1.6382 H   0  0  0  0  0
   43.3666  -33.4470    2.4288 H   0  0  0  0  0
   44.7337  -34.5333    2.7783 H   0  0  0  0  0
   44.3475  -34.1016    1.0944 H   0  0  0  0  0
   41.3311  -34.4792    1.3904 H   0  0  0  0  0
   41.4024  -36.2898    0.9485 H   0  0  0  0  0
   42.9528  -35.6692   -0.8854 H   0  0  0  0  0
   42.8877  -34.0680   -0.4950 H   0  0  0  0  0
   40.4761  -34.0857   -0.3771 H   0  0  0  0  0
   40.5835  -35.9125   -0.9016 H   0  0  0  0  0
   41.1456  -33.5899   -2.5504 H   0  0  0  0  0
   39.0250  -34.2788   -3.4749 H   0  0  0  0  0
   38.8938  -33.9598   -1.6160 H   0  0  0  0  0
   40.9343  -36.3699   -3.3181 H   0  0  0  0  0
   42.4207  -35.3792   -3.2524 H   0  0  0  0  0
   38.8465  -36.6591   -3.0231 H   0  0  0  0  0
   38.7230  -36.3586   -1.2723 H   0  0  0  0  0
   37.4270  -35.8100   -2.3634 H   0  0  0  0  0
   39.9469  -34.7713   -4.9909 H   0  0  0  0  0
   41.4277  -33.7844   -4.9255 H   0  0  0  0  0
   41.4866  -35.4353   -5.5905 H   0  0  0  0  0
  1  2  4  0  0  0
  1  6  4  0  0  0
  1 16  1  0  0  0
  2  3  4  0  0  0
  3  4  4  0  0  0
  4  5  4  0  0  0
  4  7  4  0  0  0
  5  6  4  0  0  0
  5 10  4  0  0  0
  7  8  4  0  0  0
  8  9  4  0  0  0
  8 11  4  0  0  0
  9 10  4  0  0  0
  9 14  4  0  0  0
 10 18  1  0  0  0
 11 12  4  0  0  0
 12 13  4  0  0  0
 12 15  1  0  0  0
 13 14  4  0  0  0
 16 17  1  0  0  0
 18 19  1  0  0  0
 19 20  1  0  0  0
 19 21  1  0  0  0
 21 22  1  0  0  0
 22 23  1  0  0  0
 23 24  1  0  0  0
 24 25  1  0  0  0
 24 26  1  0  0  0
 25 27  1  0  0  0
 26 28  1  0  0  0
  2 29  1  0  0  0
  3 30  1  0  0  0
  6 31  1  0  0  0
 11 32  1  0  0  0
 13 33  1  0  0  0
 14 34  1  0  0  0
 17 35  1  0  0  0
 17 36  1  0  0  0
 17 37  1  0  0  0
 18 38  1  0  0  0
 19 39  1  0  0  0
 20 40  1  0  0  0
 20 41  1  0  0  0
 20 42  1  0  0  0
 21 43  1  0  0  0
 21 44  1  0  0  0
 22 45  1  0  0  0
 22 46  1  0  0  0
 23 47  1  0  0  0
 23 48  1  0  0  0
 24 49  1  0  0  0
 25 50  1  0  0  0
 25 51  1  0  0  0
 26 52  1  0  0  0
 26 53  1  0  0  0
 27 54  1  0  0  0
 27 55  1  0  0  0
 27 56  1  0  0  0
 28 57  1  0  0  0
 28 58  1  0  0  0
 28 59  1  0  0  0
M  END
$$$$
