5q1f_ligand
  -I-interpret- 

 74 78  0  0  0  0  0  0  0  0999 V2000
   13.1370   26.0660    2.3550 N   0  0  0  0  0
   15.2190   24.8730    2.9450 C   0  0  0  0  0
   11.7970   25.9650    2.7280 C   0  0  0  0  0
   12.5500   21.8990    4.3700 C   0  0  0  0  0
   11.6200   24.9370    3.6500 C   0  0  0  0  0
   15.7600   23.8950    2.0850 C   0  0  0  0  0
   13.3100   23.2590    4.7420 C   0  0  0  0  0
   16.1220   25.6010    3.7220 C   0  0  0  0  0
   17.9100   24.3570    2.7310 C   0  0  0  0  0
   13.1800   23.6400    6.2400 C   0  0  0  0  0
    9.4680   26.3870    2.8620 C   0  0  0  0  0
   10.5960   19.2620    0.6300 C   0  0  0  0  0
   17.4890   25.3510    3.6230 C   0  0  0  0  0
   11.2780   20.6400    2.6450 C   0  0  0  0  0
   19.7170   22.8750    2.1840 C   0  0  0  0  0
   19.2670   24.1360    2.6550 O   0  0  0  0  0
   14.8760   23.1950    1.3420 O   0  0  0  0  0
   15.3990   22.2290    0.4240 C   0  0  0  0  0
   17.0690   23.6380    1.9720 N   0  0  0  0  0
   13.7600   25.1160    3.0360 C   0  0  0  0  0
   10.6940   26.7080    2.3230 C   0  0  0  0  0
    8.3900   27.1110    2.4710 F   0  0  0  0  0
    9.2750   25.3700    3.7760 C   0  0  0  0  0
   10.3730   24.6220    4.1850 C   0  0  0  0  0
   12.8980   24.3900    3.8370 N   0  0  0  0  0
   14.0990   22.7870    7.1250 C   0  0  0  0  0
   13.9410   23.1360    8.6100 C   0  0  0  0  0
   14.2120   24.6190    8.8700 C   0  0  0  0  0
   13.3430   25.5220    7.9640 C   0  0  0  0  0
   13.4890   25.1330    6.4810 C   0  0  0  0  0
   12.4810   20.9810    5.1840 O   0  0  0  0  0
   12.0080   21.8250    3.1370 N   0  0  0  0  0
    9.8490   20.6010    3.1690 C   0  0  0  0  0
    9.1210   19.3120    2.7270 C   0  0  0  0  0
    9.1300   19.1520    1.1750 C   0  0  0  0  0
   11.2840   20.5560    1.1280 C   0  0  0  0  0
    8.4510   17.8570    0.7420 C   0  0  0  0  0
    7.2110   18.0130    0.3530 O   0  0  0  0  0
    9.0190   16.7860    0.7610 O   0  0  0  0  0
   14.3703   23.0709    4.5731 H   0  0  0  0  0
   15.7569   26.3661    4.4071 H   0  0  0  0  0
   12.1430   23.4452    6.5136 H   0  0  0  0  0
   10.5610   19.2841   -0.4592 H   0  0  0  0  0
   11.1656   18.4051    0.9896 H   0  0  0  0  0
   18.2079   25.9113    4.2208 H   0  0  0  0  0
   11.8085   19.7700    3.0319 H   0  0  0  0  0
   19.3400   22.0887    2.8380 H   0  0  0  0  0
   19.3485   22.7144    1.1708 H   0  0  0  0  0
   20.8068   22.8569    2.1828 H   0  0  0  0  0
   16.0483   22.7278   -0.2955 H   0  0  0  0  0
   15.9702   21.4802    0.9728 H   0  0  0  0  0
   14.5753   21.7461   -0.1017 H   0  0  0  0  0
   10.7963   27.5188    1.6018 H   0  0  0  0  0
    8.2808   25.1578    4.1692 H   0  0  0  0  0
   10.2612   23.8111    4.9047 H   0  0  0  0  0
   15.1316   22.9809    6.8348 H   0  0  0  0  0
   13.8314   21.7392    6.9883 H   0  0  0  0  0
   14.6601   22.5486    9.1809 H   0  0  0  0  0
   12.9165   22.9148    8.9093 H   0  0  0  0  0
   15.2611   24.8211    8.6540 H   0  0  0  0  0
   13.9685   24.8371    9.9098 H   0  0  0  0  0
   13.6712   26.5543    8.0859 H   0  0  0  0  0
   12.2990   25.4015    8.2531 H   0  0  0  0  0
   12.7797   25.7250    5.9025 H   0  0  0  0  0
   14.5198   25.3200    6.1801 H   0  0  0  0  0
   12.1074   22.6268    2.5144 H   0  0  0  0  0
    9.3094   21.4584    2.7667 H   0  0  0  0  0
    9.8792   20.6251    4.2583 H   0  0  0  0  0
    8.0852   19.3690    3.0617 H   0  0  0  0  0
    9.6369   18.4574    3.1647 H   0  0  0  0  0
    8.5488   19.9644    0.7389 H   0  0  0  0  0
   10.7378   21.4122    0.7322 H   0  0  0  0  0
   12.3190   20.5508    0.7862 H   0  0  0  0  0
    6.9699   18.9398    0.4202 H   0  0  0  0  0
  3  1  4  0  0  0
  1 20  4  0  0  0
  2  6  4  0  0  0
  2  8  4  0  0  0
 20  2  1  0  0  0
  5  3  4  0  0  0
  3 21  4  0  0  0
  4  7  1  0  0  0
  4 31  2  0  0  0
 32  4  1  0  0  0
  5 24  4  0  0  0
 25  5  4  0  0  0
  6 17  1  0  0  0
  6 19  4  0  0  0
  7 10  1  0  0  0
  7 25  1  0  0  0
  8 13  4  0  0  0
 13  9  4  0  0  0
  9 16  1  0  0  0
 19  9  4  0  0  0
 10 26  1  0  0  0
 10 30  1  0  0  0
 21 11  4  0  0  0
 11 22  1  0  0  0
 11 23  4  0  0  0
 12 35  1  0  0  0
 36 12  1  0  0  0
 14 32  1  0  0  0
 14 33  1  0  0  0
 14 36  1  0  0  0
 16 15  1  0  0  0
 17 18  1  0  0  0
 20 25  4  0  0  0
 23 24  4  0  0  0
 26 27  1  0  0  0
 27 28  1  0  0  0
 28 29  1  0  0  0
 29 30  1  0  0  0
 33 34  1  0  0  0
 34 35  1  0  0  0
 35 37  1  0  0  0
 37 38  1  0  0  0
 37 39  2  0  0  0
  7 40  1  0  0  0
  8 41  1  0  0  0
 10 42  1  0  0  0
 12 43  1  0  0  0
 12 44  1  0  0  0
 13 45  1  0  0  0
 14 46  1  0  0  0
 15 47  1  0  0  0
 15 48  1  0  0  0
 15 49  1  0  0  0
 18 50  1  0  0  0
 18 51  1  0  0  0
 18 52  1  0  0  0
 21 53  1  0  0  0
 23 54  1  0  0  0
 24 55  1  0  0  0
 26 56  1  0  0  0
 26 57  1  0  0  0
 27 58  1  0  0  0
 27 59  1  0  0  0
 28 60  1  0  0  0
 28 61  1  0  0  0
 29 62  1  0  0  0
 29 63  1  0  0  0
 30 64  1  0  0  0
 30 65  1  0  0  0
 32 66  1  0  0  0
 33 67  1  0  0  0
 33 68  1  0  0  0
 34 69  1  0  0  0
 34 70  1  0  0  0
 35 71  1  0  0  0
 36 72  1  0  0  0
 36 73  1  0  0  0
 38 74  1  0  0  0
M  END
$$$$
