### 
### Created by X-TOOL on Mon Sep 10 21:12:44 2018
### 

@<TRIPOS>MOLECULE
6rsa_ligand
   21    23     1     0     0
SMALL
GAST_HUCK


@<TRIPOS>ATOM
      1 N1         31.9690   13.6610    9.3520 N.am      1 UVC        -0.6629
      2 C2         31.6560   13.9990   10.6120 C.2       1 UVC         0.0372
      3 N3         32.6700   13.7320   11.4680 N.am      1 UVC        -0.2562
      4 C4         33.9450   13.2830   11.1760 C.2       1 UVC        -0.1029
      5 C5         34.1750   13.0030    9.7950 C.2       1 UVC        -0.5127
      6 C6         33.1740   13.1820    8.9370 C.2       1 UVC        -0.5471
      7 O2         30.5780   14.3910   10.9970 O.2       1 UVC        -0.6514
      8 O4         34.7720   13.2010   12.0750 O.2       1 UVC        -0.6395
      9 C1         30.8990   13.8900    8.3080 C.3       1 UVC        -0.3987
     10 C2         31.0410   15.3680    7.8540 C.3       1 UVC        -0.8329
     11 O2         29.7220   15.8340    7.6390 O.3       1 UVC        -1.0731
     12 C3         31.8620   15.3730    6.5900 C.3       1 UVC        -0.8939
     13 C4         31.4720   13.9450    6.1120 C.3       1 UVC        -0.7908
     14 O3         31.4880   16.4980    5.7190 O.3       1 UVC        -1.0763
     15 O4         31.4320   13.0330    7.2580 O.3       1 UVC        -0.8009
     16 C5         32.3320   13.2310    5.1080 C.3       1 UVC        -1.5738
     17 O5         33.5140   12.8460    5.8130 O.3       1 UVC        -1.2241
     18 O1V        28.2280   17.0980    5.7410 O.2       1 UVC        -1.0000
     19 O2V        30.1590   18.2580    4.7970 O.2       1 UVC        -1.0000
     20 O3V        29.9270   18.6250    7.3880 O.2       1 UVC        -1.0000
     21 V          29.8540   17.2100    6.3660 V         1 UVC         5.0000
@<TRIPOS>BOND
     1    1    2 am 
     2    1    6 1  
     3    1    9 1  
     4    2    3 am 
     5    2    7 2  
     6    3    4 am 
     7    4    5 1  
     8    4    8 2  
     9    5    6 2  
    10    9   10 1  
    11    9   15 1  
    12   10   11 1  
    13   10   12 1  
    14   12   13 1  
    15   12   14 1  
    16   13   15 1  
    17   13   16 1  
    18   16   17 1  
    19   11   21 1  
    20   21   14 1  
    21   21   18 2  
    22   21   19 2  
    23   21   20 2  
@<TRIPOS>SUBSTRUCTURE
     1 UVC         1

