### 
### Created by X-TOOL on Mon Sep 10 21:12:51 2018
### 

@<TRIPOS>MOLECULE
1oxg_ligand
  166   171     1     0     0
SMALL
GAST_HUCK


@<TRIPOS>ATOM
      1 N          38.8620    2.0280   54.7500 N.4       1 ILE         0.2357
      2 CA         39.1020    2.4720   53.3900 C.3       1 ILE         0.0545
      3 C          40.6090    2.5400   53.1190 C.2       1 ILE         0.2234
      4 O          41.4060    1.8640   53.7740 O.2       1 ILE        -0.3911
      5 N          40.9690    3.3380   52.0960 N.am      1 VAL        -0.2639
      6 CA         42.4110    3.5130   51.7960 C.3       1 VAL         0.1202
      7 C          42.7940    4.0160   50.3640 C.2       1 VAL         0.2005
      8 O          42.9180    3.2100   49.4400 O.2       1 VAL        -0.3947
      9 N          42.9680    5.3320   50.2330 N.am      1 ASN        -0.2666
     10 CA         43.3160    5.9720   48.9820 C.3       1 ASN         0.1201
     11 C          42.3870    7.1720   48.9250 C.2       1 ASN         0.2005
     12 O          42.1800    7.8360   49.9270 O.2       1 ASN        -0.3947
     13 N          41.8030    7.4400   47.7680 N.am      1 GLY        -0.2666
     14 CA         40.8860    8.5760   47.6750 C.3       1 GLY         0.1201
     15 C          39.4540    8.0700   47.6120 C.2       1 GLY         0.2005
     16 O          38.5990    8.7050   47.0130 O.2       1 GLY        -0.3947
     17 N          39.1870    6.8900   48.2160 N.am      1 GLU        -0.2666
     18 CA         37.8760    6.2690   48.1800 C.3       1 GLU         0.1201
     19 C          37.0540    6.8000   49.3040 C.2       1 GLU         0.2005
     20 O          35.9230    6.3510   49.5490 O.2       1 GLU        -0.3947
     21 N          37.6110    7.7710   49.9860 N.am      1 GLU        -0.2666
     22 CA         36.9180    8.3280   51.1210 C.3       1 GLU         0.1201
     23 C          36.4640    9.7440   50.9380 C.2       1 GLU         0.2007
     24 O          36.9240   10.6170   51.6670 O.2       1 GLU        -0.3947
     25 N          35.5980    9.9990   49.9990 N.am      1 ALA        -0.2642
     26 CA         35.1780   11.3800   49.8810 C.3       1 ALA         0.1282
     27 C          34.3320   11.7820   51.1230 C.2       1 ALA         0.2036
     28 O          33.3880   11.0710   51.4720 O.2       1 ALA        -0.3944
     29 CB         34.3550   11.5780   48.6150 C.3       1 ALA        -0.0244
     30 N          34.6430   12.9140   51.7720 N.am      1 VAL        -0.2635
     31 CA         33.8800   13.4710   52.8320 C.3       1 VAL         0.1334
     32 C          33.4940   14.9610   52.4920 C.2       1 VAL         0.2066
     33 O          34.2860   15.9390   52.5000 O.2       1 VAL        -0.3942
     34 CB         34.7000   13.3320   54.1940 C.3       1 VAL        -0.0062
     35 CG1        33.9230   14.0460   55.3130 C.3       1 VAL        -0.0584
     36 CG2        34.9930   11.9630   54.5810 C.3       1 VAL        -0.0584
     37 N          32.2840   14.7930   52.0230 N.am      1 PRO        -0.2498
     38 CA         30.9570   14.7080   51.4960 C.3       1 PRO         0.1338
     39 C          31.0110   13.7080   50.4110 C.2       1 PRO         0.2039
     40 O          31.5510   13.9440   49.3310 O.2       1 PRO        -0.3944
     41 CB         30.1490   15.9720   51.3350 C.3       1 PRO        -0.0104
     42 CG         30.5780   16.6070   52.5360 C.3       1 PRO        -0.0281
     43 CD         31.9810   16.1420   52.5830 C.3       1 PRO         0.0369
     44 N          30.4630   12.5960   50.6880 N.am      1 GLY        -0.2664
     45 CA         30.4750   11.6690   49.5860 C.3       1 GLY         0.1201
     46 C          29.2420   11.9610   48.7360 C.2       1 GLY         0.2008
     47 O          29.2440   11.6700   47.5400 O.2       1 GLY        -0.3947
     48 N          28.2120   12.5020   49.3370 N.am      1 SER        -0.2618
     49 CA         26.9770   12.8110   48.6260 C.3       1 SER         0.1539
     50 C          26.6150   14.2510   48.8710 C.2       1 SER         0.2063
     51 O          27.0740   14.8450   49.8530 O.2       1 SER        -0.3943
     52 CB         25.8270   11.9460   49.1160 C.3       1 SER         0.0843
     53 OG         25.4770   12.2300   50.4460 O.3       1 SER        -0.3903
     54 N          25.8040   14.8370   47.9650 N.am      1 TRP        -0.2626
     55 CA         25.3700   16.1770   48.0750 C.3       1 TRP         0.1354
     56 C          24.2150   16.4750   47.1680 C.2       1 TRP         0.2077
     57 O          24.0550   15.8700   46.1180 O.2       1 TRP        -0.3940
     58 CB         26.4910   17.0770   47.5410 C.3       1 TRP         0.0042
     59 CG         26.3820   18.4550   47.8070 C.2       1 TRP        -0.0418
     60 CD1        25.9670   19.4380   46.9730 C.2       1 TRP         0.0167
     61 CD2        26.7450   19.0670   49.0060 C.ar      1 TRP        -0.0214
     62 NE1        26.0530   20.6490   47.6010 N.pl3     1 TRP        -0.2890
     63 CE2        26.5380   20.4500   48.8580 C.ar      1 TRP         0.0603
     64 CE3        27.1980   18.5930   50.2050 C.ar      1 TRP        -0.0747
     65 CZ2        26.8010   21.3610   49.8790 C.ar      1 TRP        -0.0443
     66 CZ3        27.4780   19.4660   51.1940 C.ar      1 TRP        -0.0792
     67 CH2        27.2830   20.8510   51.0420 C.ar      1 TRP        -0.0768
     68 N          23.3390   17.3460   47.6050 N.am      1 PRO        -0.2497
     69 CA         22.2340   17.8520   46.8090 C.3       1 PRO         0.1338
     70 C          22.7530   18.4770   45.5930 C.2       1 PRO         0.2043
     71 O          23.7620   19.1570   45.6490 O.2       1 PRO        -0.3944
     72 CB         21.5810   18.8490   47.7420 C.3       1 PRO        -0.0104
     73 CG         21.7640   18.1800   49.0500 C.3       1 PRO        -0.0281
     74 CD         23.0770   17.5020   49.0390 C.3       1 PRO         0.0369
     75 N          22.0840   18.2240   44.4830 N.am      1 TRP        -0.2613
     76 CA         22.5670   18.7950   43.2740 C.3       1 TRP         0.1462
     77 C          21.8720   20.0350   42.8920 C.2       1 TRP         0.2583
     78 O          22.2150   20.7180   41.9560 O.2       1 TRP        -0.3679
     79 CB         22.6410   17.7480   42.1930 C.3       1 TRP         0.0056
     80 CG         23.7900   16.7320   42.3420 C.2       1 TRP        -0.0417
     81 CD1        24.9500   16.8180   43.0450 C.2       1 TRP         0.0167
     82 CD2        23.8510   15.5250   41.6020 C.ar      1 TRP        -0.0214
     83 NE1        25.7560   15.7280   42.7550 N.pl3     1 TRP        -0.2890
     84 CE2        25.0940   14.9170   41.8700 C.ar      1 TRP         0.0603
     85 CE3        22.9580   14.8910   40.7270 C.ar      1 TRP        -0.0747
     86 CZ2        25.4550   13.7240   41.2830 C.ar      1 TRP        -0.0443
     87 CZ3        23.3210   13.7140   40.1760 C.ar      1 TRP        -0.0792
     88 CH2        24.5610   13.1460   40.4650 C.ar      1 TRP        -0.0768
     89 O1         20.8201   20.4207   43.6086 O.3       1 TRP        -0.2909
     90 H1         37.8692    1.9862   54.9195 H         1 ILE         0.2012
     91 H2         39.2859    2.6764   55.3949 H         1 ILE         0.2012
     92 H3         39.2640    1.1129   54.8806 H         1 ILE         0.2012
     93 H4         38.6613    3.4700   53.2495 H         1 ILE         0.1061
     94 H5         38.6373    1.7638   52.6882 H         1 ILE         0.1061
     95 H6         40.2755    3.8051   51.5474 H         1 VAL         0.1882
     96 H7         42.8994    2.5387   51.9448 H         1 VAL         0.0763
     97 H8         42.8125    4.2386   52.5187 H         1 VAL         0.0763
     98 H9         42.8518    5.9075   51.0425 H         1 ASN         0.1881
     99 H10        43.1378    5.2966   48.1323 H         1 ASN         0.0763
    100 H11        44.3690    6.2901   48.9830 H         1 ASN         0.0763
    101 H12        41.9866    6.8719   46.9658 H         1 GLY         0.1881
    102 H13        41.1103    9.1545   46.7667 H         1 GLY         0.0763
    103 H14        41.0086    9.2191   48.5589 H         1 GLY         0.0763
    104 H15        39.9237    6.4260   48.7080 H         1 GLU         0.1881
    105 H16        37.9817    5.1790   48.2839 H         1 GLU         0.0763
    106 H17        37.3850    6.5003   47.2233 H         1 GLU         0.0763
    107 H18        38.5090    8.1225   49.7213 H         1 GLU         0.1881
    108 H19        37.5946    8.2935   51.9876 H         1 GLU         0.0763
    109 H20        36.0328    7.7067   51.3219 H         1 GLU         0.0763
    110 H21        35.2444    9.2841   49.3958 H         1 ALA         0.1883
    111 H22        36.0703   12.0213   49.8311 H         1 ALA         0.0797
    112 H23        34.0443   12.6306   48.5405 H         1 ALA         0.0277
    113 H24        33.4637   10.9345   48.6527 H         1 ALA         0.0277
    114 H25        34.9625   11.3121   47.7374 H         1 ALA         0.0277
    115 H26        35.4702   13.3997   51.4895 H         1 VAL         0.1883
    116 H27        32.9480   12.8960   52.9351 H         1 VAL         0.0803
    117 H28        35.6626   13.8462   54.0564 H         1 VAL         0.0343
    118 H29        34.4780   13.9577   56.2586 H         1 VAL         0.0234
    119 H30        32.9319   13.5821   55.4248 H         1 VAL         0.0234
    120 H31        33.8035   15.1088   55.0559 H         1 VAL         0.0234
    121 H32        35.5482   11.4644   53.7729 H         1 VAL         0.0234
    122 H33        34.0517   11.4246   54.7655 H         1 VAL         0.0234
    123 H34        35.6010   11.9632   55.4977 H         1 VAL         0.0234
    124 H35        30.3922   14.1961   52.2891 H         1 PRO         0.0802
    125 H36        29.0659   15.7805   51.3241 H         1 PRO         0.0313
    126 H37        30.4301   16.5394   50.4355 H         1 PRO         0.0313
    127 H38        30.5129   17.7027   52.4645 H         1 PRO         0.0287
    128 H39        30.0037   16.2617   53.4083 H         1 PRO         0.0287
    129 H40        32.5877   16.8721   52.0273 H         1 PRO         0.0524
    130 H41        32.2899   16.1363   53.6387 H         1 PRO         0.0524
    131 H42        30.0639   12.3857   51.5805 H         1 GLY         0.1881
    132 H43        30.4371   10.6360   49.9622 H         1 GLY         0.0763
    133 H44        31.3870   11.8078   48.9869 H         1 GLY         0.0763
    134 H45        28.2743   12.7095   50.3132 H         1 SER         0.1884
    135 H46        27.1278   12.6423   47.5495 H         1 SER         0.0823
    136 H47        26.1242   10.8892   49.0462 H         1 SER         0.0606
    137 H48        24.9517   12.1239   48.4740 H         1 SER         0.0606
    138 H49        24.7573   11.6687   50.7096 H         1 SER         0.2097
    139 H50        25.4965   14.2984   47.1806 H         1 TRP         0.1884
    140 H51        25.1197   16.4099   49.1205 H         1 TRP         0.0815
    141 H52        26.5266   16.9511   46.4488 H         1 TRP         0.0397
    142 H53        27.4364   16.7273   47.9814 H         1 TRP         0.0397
    143 H54        25.6167   19.2861   45.9531 H         1 TRP         0.0795
    144 H55        25.7946   21.5586   47.1925 H         1 TRP         0.2216
    145 H56        27.3307   17.5283   50.3592 H         1 TRP         0.0540
    146 H57        26.6295   22.4237   49.7515 H         1 TRP         0.0541
    147 H58        27.8648   19.0894   52.1340 H         1 TRP         0.0510
    148 H59        27.5201   21.5187   51.8624 H         1 TRP         0.0530
    149 H60        21.5313   17.0499   46.5389 H         1 PRO         0.0802
    150 H61        20.5157   18.9857   47.5046 H         1 PRO         0.0313
    151 H62        22.0912   19.8231   47.7124 H         1 PRO         0.0313
    152 H63        21.7365   18.9263   49.8576 H         1 PRO         0.0287
    153 H64        20.9641   17.4412   49.2060 H         1 PRO         0.0287
    154 H65        23.8487   18.1214   49.5194 H         1 PRO         0.0524
    155 H66        23.0247   16.5254   49.5425 H         1 PRO         0.0524
    156 H67        21.2652   17.6501   44.4925 H         1 TRP         0.1886
    157 H68        23.6064   19.0958   43.4720 H         1 TRP         0.0831
    158 H69        22.7645   18.2625   41.2286 H         1 TRP         0.0398
    159 H70        21.6923   17.1913   42.1927 H         1 TRP         0.0398
    160 H71        25.2076   17.6222   43.7327 H         1 TRP         0.0795
    161 H72        26.6956   15.5561   43.1403 H         1 TRP         0.2216
    162 H73        21.9967   15.3366   40.4980 H         1 TRP         0.0540
    163 H74        26.4210   13.2707   41.4737 H         1 TRP         0.0541
    164 H75        22.6417   13.2050   39.5019 H         1 TRP         0.0510
    165 H76        24.8145   12.1957   40.0091 H         1 TRP         0.0530
    166 H77        20.6666   19.7942   44.3061 H         1 TRP         0.2540
@<TRIPOS>BOND
     1    2    1 1  
     2    3    2 1  
     3    3    4 2  
     4    6    5 1  
     5    7    6 1  
     6    7    8 2  
     7    5    3 am 
     8   10    9 1  
     9   11   10 1  
    10   11   12 2  
    11    9    7 am 
    12   14   13 1  
    13   15   14 1  
    14   15   16 2  
    15   13   11 am 
    16   18   17 1  
    17   19   18 1  
    18   19   20 2  
    19   17   15 am 
    20   22   21 1  
    21   23   22 1  
    22   23   24 2  
    23   21   19 am 
    24   26   25 1  
    25   26   29 1  
    26   27   26 1  
    27   27   28 2  
    28   25   23 am 
    29   31   30 1  
    30   31   34 1  
    31   32   31 1  
    32   32   33 2  
    33   34   36 1  
    34   34   35 1  
    35   30   27 am 
    36   39   38 1  
    37   38   41 1  
    38   38   37 1  
    39   37   43 1  
    40   43   42 1  
    41   41   42 1  
    42   39   40 2  
    43   37   32 am 
    44   45   44 1  
    45   46   45 1  
    46   46   47 2  
    47   44   39 am 
    48   49   48 1  
    49   49   52 1  
    50   50   49 1  
    51   50   51 2  
    52   52   53 1  
    53   48   46 am 
    54   55   54 1  
    55   55   58 1  
    56   56   55 1  
    57   56   57 2  
    58   58   59 1  
    59   59   60 2  
    60   59   61 1  
    61   61   64 ar 
    62   61   63 ar 
    63   63   65 ar 
    64   63   62 1  
    65   60   62 1  
    66   65   67 ar 
    67   66   67 ar 
    68   64   66 ar 
    69   54   50 am 
    70   70   69 1  
    71   69   72 1  
    72   69   68 1  
    73   68   74 1  
    74   74   73 1  
    75   72   73 1  
    76   70   71 2  
    77   68   56 am 
    78   75   76 1  
    79   76   79 1  
    80   76   77 1  
    81   77   78 2  
    82   79   80 1  
    83   80   81 2  
    84   80   82 1  
    85   82   85 ar 
    86   82   84 ar 
    87   84   86 ar 
    88   84   83 1  
    89   81   83 1  
    90   86   88 ar 
    91   87   88 ar 
    92   85   87 ar 
    93   70   75 am 
    94   77   89 1  
    95    1   90 1  
    96    1   91 1  
    97    1   92 1  
    98    2   93 1  
    99    2   94 1  
   100    5   95 1  
   101    6   96 1  
   102    6   97 1  
   103    9   98 1  
   104   10   99 1  
   105   10  100 1  
   106   13  101 1  
   107   14  102 1  
   108   14  103 1  
   109   17  104 1  
   110   18  105 1  
   111   18  106 1  
   112   21  107 1  
   113   22  108 1  
   114   22  109 1  
   115   25  110 1  
   116   26  111 1  
   117   29  112 1  
   118   29  113 1  
   119   29  114 1  
   120   30  115 1  
   121   31  116 1  
   122   34  117 1  
   123   35  118 1  
   124   35  119 1  
   125   35  120 1  
   126   36  121 1  
   127   36  122 1  
   128   36  123 1  
   129   38  124 1  
   130   41  125 1  
   131   41  126 1  
   132   42  127 1  
   133   42  128 1  
   134   43  129 1  
   135   43  130 1  
   136   44  131 1  
   137   45  132 1  
   138   45  133 1  
   139   48  134 1  
   140   49  135 1  
   141   52  136 1  
   142   52  137 1  
   143   53  138 1  
   144   54  139 1  
   145   55  140 1  
   146   58  141 1  
   147   58  142 1  
   148   60  143 1  
   149   62  144 1  
   150   64  145 1  
   151   65  146 1  
   152   66  147 1  
   153   67  148 1  
   154   69  149 1  
   155   72  150 1  
   156   72  151 1  
   157   73  152 1  
   158   73  153 1  
   159   74  154 1  
   160   74  155 1  
   161   75  156 1  
   162   76  157 1  
   163   79  158 1  
   164   79  159 1  
   165   81  160 1  
   166   83  161 1  
   167   85  162 1  
   168   86  163 1  
   169   87  164 1  
   170   88  165 1  
   171   89  166 1  
@<TRIPOS>SUBSTRUCTURE
     1 ILE         1

