1oxg_ligand
  -I-interpret- 

164169  0  0  0  0  0  0  0  0999 V2000
   38.8620    2.0280   54.7500 N   0  3  0  0  0
   39.1020    2.4720   53.3900 C   0  0  0  0  0
   40.6090    2.5400   53.1190 C   0  0  0  0  0
   41.4060    1.8640   53.7740 O   0  0  0  0  0
   40.9690    3.3380   52.0960 N   0  0  0  0  0
   42.4110    3.5130   51.7960 C   0  0  0  0  0
   42.7940    4.0160   50.3640 C   0  0  0  0  0
   42.9180    3.2100   49.4400 O   0  0  0  0  0
   42.9680    5.3320   50.2330 N   0  0  0  0  0
   43.3160    5.9720   48.9820 C   0  0  0  0  0
   42.3870    7.1720   48.9250 C   0  0  0  0  0
   42.1800    7.8360   49.9270 O   0  0  0  0  0
   41.8030    7.4400   47.7680 N   0  0  0  0  0
   40.8860    8.5760   47.6750 C   0  0  0  0  0
   39.4540    8.0700   47.6120 C   0  0  0  0  0
   38.5990    8.7050   47.0130 O   0  0  0  0  0
   39.1870    6.8900   48.2160 N   0  0  0  0  0
   37.8760    6.2690   48.1800 C   0  0  0  0  0
   37.0540    6.8000   49.3040 C   0  0  0  0  0
   35.9230    6.3510   49.5490 O   0  0  0  0  0
   37.6110    7.7710   49.9860 N   0  0  0  0  0
   36.9180    8.3280   51.1210 C   0  0  0  0  0
   36.4640    9.7440   50.9380 C   0  0  0  0  0
   36.9240   10.6170   51.6670 O   0  0  0  0  0
   35.5980    9.9990   49.9990 N   0  0  0  0  0
   35.1780   11.3800   49.8810 C   0  0  0  0  0
   34.3320   11.7820   51.1230 C   0  0  0  0  0
   33.3880   11.0710   51.4720 O   0  0  0  0  0
   34.3550   11.5780   48.6150 C   0  0  0  0  0
   34.6430   12.9140   51.7720 N   0  0  0  0  0
   33.8800   13.4710   52.8320 C   0  0  0  0  0
   33.4940   14.9610   52.4920 C   0  0  0  0  0
   34.2860   15.9390   52.5000 O   0  0  0  0  0
   34.7000   13.3320   54.1940 C   0  0  0  0  0
   33.9230   14.0460   55.3130 C   0  0  0  0  0
   34.9930   11.9630   54.5810 C   0  0  0  0  0
   32.2840   14.7930   52.0230 N   0  0  0  0  0
   30.9570   14.7080   51.4960 C   0  0  0  0  0
   31.0110   13.7080   50.4110 C   0  0  0  0  0
   31.5510   13.9440   49.3310 O   0  0  0  0  0
   30.1490   15.9720   51.3350 C   0  0  0  0  0
   30.5780   16.6070   52.5360 C   0  0  0  0  0
   31.9810   16.1420   52.5830 C   0  0  0  0  0
   30.4630   12.5960   50.6880 N   0  0  0  0  0
   30.4750   11.6690   49.5860 C   0  0  0  0  0
   29.2420   11.9610   48.7360 C   0  0  0  0  0
   29.2440   11.6700   47.5400 O   0  0  0  0  0
   28.2120   12.5020   49.3370 N   0  0  0  0  0
   26.9770   12.8110   48.6260 C   0  0  0  0  0
   26.6150   14.2510   48.8710 C   0  0  0  0  0
   27.0740   14.8450   49.8530 O   0  0  0  0  0
   25.8270   11.9460   49.1160 C   0  0  0  0  0
   25.4770   12.2300   50.4460 O   0  0  0  0  0
   25.8040   14.8370   47.9650 N   0  0  0  0  0
   25.3700   16.1770   48.0750 C   0  0  0  0  0
   24.2150   16.4750   47.1680 C   0  0  0  0  0
   24.0550   15.8700   46.1180 O   0  0  0  0  0
   26.4910   17.0770   47.5410 C   0  0  0  0  0
   26.3820   18.4550   47.8070 C   0  0  0  0  0
   25.9670   19.4380   46.9730 C   0  0  0  0  0
   26.7450   19.0670   49.0060 C   0  0  0  0  0
   26.0530   20.6490   47.6010 N   0  0  0  0  0
   26.5380   20.4500   48.8580 C   0  0  0  0  0
   27.1980   18.5930   50.2050 C   0  0  0  0  0
   26.8010   21.3610   49.8790 C   0  0  0  0  0
   27.4780   19.4660   51.1940 C   0  0  0  0  0
   27.2830   20.8510   51.0420 C   0  0  0  0  0
   23.3390   17.3460   47.6050 N   0  0  0  0  0
   22.2340   17.8520   46.8090 C   0  0  0  0  0
   22.7530   18.4770   45.5930 C   0  0  0  0  0
   23.7620   19.1570   45.6490 O   0  0  0  0  0
   21.5810   18.8490   47.7420 C   0  0  0  0  0
   21.7640   18.1800   49.0500 C   0  0  0  0  0
   23.0770   17.5020   49.0390 C   0  0  0  0  0
   22.0840   18.2240   44.4830 N   0  0  0  0  0
   22.5670   18.7950   43.2740 C   0  0  0  0  0
   21.8720   20.0350   42.8920 C   0  0  0  0  0
   22.2150   20.7180   41.9560 O   0  0  0  0  0
   22.6410   17.7480   42.1930 C   0  0  0  0  0
   23.7900   16.7320   42.3420 C   0  0  0  0  0
   24.9500   16.8180   43.0450 C   0  0  0  0  0
   23.8510   15.5250   41.6020 C   0  0  0  0  0
   25.7560   15.7280   42.7550 N   0  0  0  0  0
   25.0940   14.9170   41.8700 C   0  0  0  0  0
   22.9580   14.8910   40.7270 C   0  0  0  0  0
   25.4550   13.7240   41.2830 C   0  0  0  0  0
   23.3210   13.7140   40.1760 C   0  0  0  0  0
   24.5610   13.1460   40.4650 C   0  0  0  0  0
   20.8201   20.4207   43.6086 O   0  0  0  0  0
   37.8572    1.9861   54.9204 H   0  0  0  0  0
   39.2692    1.1020   54.8809 H   0  0  0  0  0
   39.2914    2.6848   55.4016 H   0  0  0  0  0
   38.6682    3.4627   53.2544 H   0  0  0  0  0
   38.6444    1.7665   52.6964 H   0  0  0  0  0
   40.2616    3.8144   51.5365 H   0  0  0  0  0
   42.8526    2.5206   51.8867 H   0  0  0  0  0
   42.7624    4.2838   52.4819 H   0  0  0  0  0
   42.8495    5.9190   51.0587 H   0  0  0  0  0
   43.1934    5.3086   48.1259 H   0  0  0  0  0
   44.3674    6.2560   48.9371 H   0  0  0  0  0
   41.9903    6.8606   46.9497 H   0  0  0  0  0
   41.1082    9.1486   46.7745 H   0  0  0  0  0
   41.0074    9.2127   48.5514 H   0  0  0  0  0
   39.9384    6.4167   48.7178 H   0  0  0  0  0
   37.9792    5.1885   48.2797 H   0  0  0  0  0
   37.3893    6.4947   47.2312 H   0  0  0  0  0
   38.5270    8.1295   49.7160 H   0  0  0  0  0
   37.6182    8.3229   51.9563 H   0  0  0  0  0
   36.0241    7.7240   51.2769 H   0  0  0  0  0
   35.2373    9.2698   49.3837 H   0  0  0  0  0
   36.0650   12.0111   49.8267 H   0  0  0  0  0
   34.9580   11.3141   47.7462 H   0  0  0  0  0
   33.4722   10.9398   48.6535 H   0  0  0  0  0
   34.0478   12.6213   48.5424 H   0  0  0  0  0
   35.4868   13.4094   51.4838 H   0  0  0  0  0
   32.9426   12.9294   52.9585 H   0  0  0  0  0
   35.6716   13.7970   54.0270 H   0  0  0  0  0
   33.8052   15.0990   55.0570 H   0  0  0  0  0
   32.9412   13.5855   55.4228 H   0  0  0  0  0
   34.4739   13.9578   56.2494 H   0  0  0  0  0
   34.0593   11.4167   54.7142 H   0  0  0  0  0
   35.5868   11.4856   53.8015 H   0  0  0  0  0
   35.5520   11.9630   55.5167 H   0  0  0  0  0
   30.2649   14.3530   52.2596 H   0  0  0  0  0
   29.0729   15.8407   51.2213 H   0  0  0  0  0
   30.3131   16.5306   50.4135 H   0  0  0  0  0
   30.4616   17.6908   52.5396 H   0  0  0  0  0
   29.9885   16.3518   53.4166 H   0  0  0  0  0
   32.5421   16.8456   51.9680 H   0  0  0  0  0
   32.2327   16.0813   53.6418 H   0  0  0  0  0
   30.0559   12.3815   51.5983 H   0  0  0  0  0
   30.4559   10.6414   49.9491 H   0  0  0  0  0
   31.3840   11.7863   48.9961 H   0  0  0  0  0
   28.2755   12.7137   50.3328 H   0  0  0  0  0
   27.1406   12.6192   47.5656 H   0  0  0  0  0
   26.1413   10.9036   49.0638 H   0  0  0  0  0
   24.9598   12.1477   48.4872 H   0  0  0  0  0
   24.7497   11.6628   50.7124 H   0  0  0  0  0
   25.4903   14.2876   47.1649 H   0  0  0  0  0
   25.0996   16.3416   49.1180 H   0  0  0  0  0
   26.4612   16.9791   46.4558 H   0  0  0  0  0
   27.4020   16.7476   48.0407 H   0  0  0  0  0
   25.6164   19.2860   45.9522 H   0  0  0  0  0
   27.3314   17.5224   50.3601 H   0  0  0  0  0
   26.6285   22.4296   49.7508 H   0  0  0  0  0
   27.8669   19.0873   52.1392 H   0  0  0  0  0
   27.5214   21.5224   51.8669 H   0  0  0  0  0
   21.5304   17.0931   46.4667 H   0  0  0  0  0
   20.5399   19.0617   47.4990 H   0  0  0  0  0
   22.0171   19.8468   47.6939 H   0  0  0  0  0
   21.7265   18.9133   49.8556 H   0  0  0  0  0
   20.9677   17.4543   49.2155 H   0  0  0  0  0
   23.8535   18.0648   49.5571 H   0  0  0  0  0
   23.0742   16.5551   49.5789 H   0  0  0  0  0
   21.2488   17.6386   44.4927 H   0  0  0  0  0
   23.5886   19.1353   43.4435 H   0  0  0  0  0
   22.8107   18.2774   41.2554 H   0  0  0  0  0
   21.7121   17.1799   42.2432 H   0  0  0  0  0
   25.2078   17.6229   43.7333 H   0  0  0  0  0
   21.9914   15.3391   40.4967 H   0  0  0  0  0
   26.4264   13.2682   41.4748 H   0  0  0  0  0
   22.6379   13.2021   39.4981 H   0  0  0  0  0
   24.8159   12.1905   40.0066 H   0  0  0  0  0
   20.6650   19.7876   44.3134 H   0  0  0  0  0
  2  1  1  0  0  0
  3  2  1  0  0  0
  3  4  2  0  0  0
  6  5  1  0  0  0
  7  6  1  0  0  0
  7  8  2  0  0  0
  5  3  1  0  0  0
 10  9  1  0  0  0
 11 10  1  0  0  0
 11 12  2  0  0  0
  9  7  1  0  0  0
 14 13  1  0  0  0
 15 14  1  0  0  0
 15 16  2  0  0  0
 13 11  1  0  0  0
 18 17  1  0  0  0
 19 18  1  0  0  0
 19 20  2  0  0  0
 17 15  1  0  0  0
 22 21  1  0  0  0
 23 22  1  0  0  0
 23 24  2  0  0  0
 21 19  1  0  0  0
 26 25  1  0  0  0
 26 29  1  0  0  0
 27 26  1  0  0  0
 27 28  2  0  0  0
 25 23  1  0  0  0
 31 30  1  0  0  0
 31 34  1  0  0  0
 32 31  1  0  0  0
 32 33  2  0  0  0
 34 36  1  0  0  0
 34 35  1  0  0  0
 30 27  1  0  0  0
 39 38  1  0  0  0
 38 41  1  0  0  0
 38 37  1  0  0  0
 37 43  1  0  0  0
 43 42  1  0  0  0
 41 42  1  0  0  0
 39 40  2  0  0  0
 37 32  1  0  0  0
 45 44  1  0  0  0
 46 45  1  0  0  0
 46 47  2  0  0  0
 44 39  1  0  0  0
 49 48  1  0  0  0
 49 52  1  0  0  0
 50 49  1  0  0  0
 50 51  2  0  0  0
 52 53  1  0  0  0
 48 46  1  0  0  0
 55 54  1  0  0  0
 55 58  1  0  0  0
 56 55  1  0  0  0
 56 57  2  0  0  0
 58 59  1  0  0  0
 59 60  4  0  0  0
 59 61  4  0  0  0
 61 64  4  0  0  0
 61 63  4  0  0  0
 63 65  4  0  0  0
 63 62  4  0  0  0
 60 62  4  0  0  0
 65 67  4  0  0  0
 66 67  4  0  0  0
 64 66  4  0  0  0
 54 50  1  0  0  0
 70 69  1  0  0  0
 69 72  1  0  0  0
 69 68  1  0  0  0
 68 74  1  0  0  0
 74 73  1  0  0  0
 72 73  1  0  0  0
 70 71  2  0  0  0
 68 56  1  0  0  0
 75 76  1  0  0  0
 76 79  1  0  0  0
 76 77  1  0  0  0
 77 78  2  0  0  0
 79 80  1  0  0  0
 80 81  4  0  0  0
 80 82  4  0  0  0
 82 85  4  0  0  0
 82 84  4  0  0  0
 84 86  4  0  0  0
 84 83  4  0  0  0
 81 83  4  0  0  0
 86 88  4  0  0  0
 87 88  4  0  0  0
 85 87  4  0  0  0
 70 75  1  0  0  0
 77 89  1  0  0  0
  1 90  1  0  0  0
  1 91  1  0  0  0
  1 92  1  0  0  0
  2 93  1  0  0  0
  2 94  1  0  0  0
  5 95  1  0  0  0
  6 96  1  0  0  0
  6 97  1  0  0  0
  9 98  1  0  0  0
 10 99  1  0  0  0
 10100  1  0  0  0
 13101  1  0  0  0
 14102  1  0  0  0
 14103  1  0  0  0
 17104  1  0  0  0
 18105  1  0  0  0
 18106  1  0  0  0
 21107  1  0  0  0
 22108  1  0  0  0
 22109  1  0  0  0
 25110  1  0  0  0
 26111  1  0  0  0
 29112  1  0  0  0
 29113  1  0  0  0
 29114  1  0  0  0
 30115  1  0  0  0
 31116  1  0  0  0
 34117  1  0  0  0
 35118  1  0  0  0
 35119  1  0  0  0
 35120  1  0  0  0
 36121  1  0  0  0
 36122  1  0  0  0
 36123  1  0  0  0
 38124  1  0  0  0
 41125  1  0  0  0
 41126  1  0  0  0
 42127  1  0  0  0
 42128  1  0  0  0
 43129  1  0  0  0
 43130  1  0  0  0
 44131  1  0  0  0
 45132  1  0  0  0
 45133  1  0  0  0
 48134  1  0  0  0
 49135  1  0  0  0
 52136  1  0  0  0
 52137  1  0  0  0
 53138  1  0  0  0
 54139  1  0  0  0
 55140  1  0  0  0
 58141  1  0  0  0
 58142  1  0  0  0
 60143  1  0  0  0
 64144  1  0  0  0
 65145  1  0  0  0
 66146  1  0  0  0
 67147  1  0  0  0
 69148  1  0  0  0
 72149  1  0  0  0
 72150  1  0  0  0
 73151  1  0  0  0
 73152  1  0  0  0
 74153  1  0  0  0
 74154  1  0  0  0
 75155  1  0  0  0
 76156  1  0  0  0
 79157  1  0  0  0
 79158  1  0  0  0
 81159  1  0  0  0
 85160  1  0  0  0
 86161  1  0  0  0
 87162  1  0  0  0
 88163  1  0  0  0
 89164  1  0  0  0
M  END
$$$$
