5orb_ligand
  -I-interpret- 

 41 43  0  0  0  0  0  0  0  0999 V2000
  -35.3050   -7.2600    0.3030 C   0  0  0  0  0
  -33.3090   -8.3890    0.8790 C   0  0  0  0  0
  -32.4560   -8.8680    1.8660 C   0  0  0  0  0
  -31.5670   -9.8890    1.5770 C   0  0  0  0  0
  -31.5310  -10.4350    0.3010 C   0  0  0  0  0
  -29.3520  -11.3410   -1.5260 C   0  0  0  0  0
  -28.3320  -10.2920   -1.0930 C   0  0  0  0  0
  -26.4450   -9.5740    0.4590 C   0  0  0  0  0
  -26.6970   -8.2260    0.6950 C   0  0  0  0  0
  -27.8030   -7.1620    0.6690 C   0  0  0  0  0
  -27.2590   -5.9650    1.4080 C   0  0  0  0  0
  -25.7460   -6.1390    1.3780 C   0  0  0  0  0
  -25.4970   -7.6430    1.1020 C   0  0  0  0  0
  -24.4800  -11.0610    0.5960 C   0  0  0  0  0
  -32.3810   -9.9590   -0.6830 C   0  0  0  0  0
  -33.2680   -8.9360   -0.3940 C   0  0  0  0  0
  -27.4250  -10.5620    0.0150 N   0  0  0  0  0
  -24.5490   -8.6140    1.1180 N   0  0  0  0  0
  -25.1600   -9.7810    0.7140 N   0  0  0  0  0
  -34.2060   -7.3550    1.1700 O   0  0  0  0  0
  -28.2910   -9.2600   -1.6640 O   0  0  0  0  0
  -30.3660  -11.7750   -0.0830 S   0  0  0  0  0
  -34.9505   -7.0891   -0.7135 H   0  0  0  0  0
  -35.8758   -8.1879    0.3389 H   0  0  0  0  0
  -35.9395   -6.4294    0.6124 H   0  0  0  0  0
  -32.4870   -8.4397    2.8679 H   0  0  0  0  0
  -30.8962  -10.2637    2.3501 H   0  0  0  0  0
  -28.8415  -12.2262   -1.9054 H   0  0  0  0  0
  -29.9826  -10.9447   -2.3219 H   0  0  0  0  0
  -28.7134   -7.5323    1.1403 H   0  0  0  0  0
  -28.0711   -6.9012   -0.3548 H   0  0  0  0  0
  -27.6398   -5.9120    2.4279 H   0  0  0  0  0
  -27.5677   -5.0284    0.9436 H   0  0  0  0  0
  -25.2934   -5.8294    2.3200 H   0  0  0  0  0
  -25.2912   -5.5150    0.6087 H   0  0  0  0  0
  -24.9484  -11.7829    1.2650 H   0  0  0  0  0
  -24.5526  -11.4161   -0.4320 H   0  0  0  0  0
  -23.4311  -10.9401    0.8668 H   0  0  0  0  0
  -32.3518  -10.3892   -1.6841 H   0  0  0  0  0
  -33.9356   -8.5599   -1.1692 H   0  0  0  0  0
  -27.4756  -11.4622    0.4919 H   0  0  0  0  0
 20  1  1  0  0  0
  3  2  4  0  0  0
  2 16  4  0  0  0
  2 20  1  0  0  0
  4  3  4  0  0  0
  5  4  4  0  0  0
  5 15  4  0  0  0
 22  5  1  0  0  0
  7  6  1  0  0  0
  6 22  1  0  0  0
 17  7  1  0  0  0
  7 21  2  0  0  0
  8  9  4  0  0  0
  8 17  1  0  0  0
  8 19  4  0  0  0
  9 10  1  0  0  0
  9 13  4  0  0  0
 10 11  1  0  0  0
 11 12  1  0  0  0
 12 13  1  0  0  0
 13 18  4  0  0  0
 19 14  1  0  0  0
 15 16  4  0  0  0
 18 19  4  0  0  0
  1 23  1  0  0  0
  1 24  1  0  0  0
  1 25  1  0  0  0
  3 26  1  0  0  0
  4 27  1  0  0  0
  6 28  1  0  0  0
  6 29  1  0  0  0
 10 30  1  0  0  0
 10 31  1  0  0  0
 11 32  1  0  0  0
 11 33  1  0  0  0
 12 34  1  0  0  0
 12 35  1  0  0  0
 14 36  1  0  0  0
 14 37  1  0  0  0
 14 38  1  0  0  0
 15 39  1  0  0  0
 16 40  1  0  0  0
 17 41  1  0  0  0
M  END
$$$$
