4aqh_ligand
  -I-interpret- 

 42 44  0  0  0  0  0  0  0  0999 V2000
  -22.2440    3.8840   -0.6640 C   0  0  0  0  0
  -23.2800    4.6880    0.0890 C   0  0  0  0  0
  -23.2910    6.0440   -0.5640 C   0  0  0  0  0
  -22.9250    4.8290    1.5800 C   0  0  0  0  0
  -24.6270    4.2200   -0.1180 O   0  0  0  0  0
  -24.8710    2.8680   -0.0510 C   0  0  0  0  0
  -24.0780    2.0570    0.3970 O   0  0  0  0  0
  -26.1380    2.5400   -0.5080 N   0  0  0  0  0
  -26.9650    1.4830    0.1120 C   0  0  0  0  0
  -28.2020    2.2660   -0.3410 C   0  0  0  0  0
  -27.2950    3.4680   -0.6070 C   0  0  0  0  0
  -29.1470    2.5150    0.6910 N   0  0  0  0  0
  -30.2460    1.6760    0.7910 C   0  0  0  0  0
  -31.0860    2.0530    1.8020 N   0  0  0  0  0
  -32.2570    1.4190    2.1630 C   0  0  0  0  0
  -32.9960    1.7630    3.0890 O   0  0  0  0  0
  -32.5650    0.2460    1.3290 C   0  0  0  0  0
  -33.7030   -0.4920    1.5670 C   0  0  0  0  0
  -33.9590   -1.5860    0.7540 C   0  0  0  0  0
  -33.0480   -1.8640   -0.2510 C   0  0  0  0  0
  -31.9310   -1.1450   -0.4890 N   0  0  0  0  0
  -31.7050   -0.0950    0.3120 C   0  0  0  0  0
  -30.5350    0.6490    0.0500 N   0  0  0  0  0
  -22.2846    2.8449   -0.3374 H   0  0  0  0  0
  -22.4501    3.9386   -1.7329 H   0  0  0  0  0
  -21.2532    4.2911   -0.4625 H   0  0  0  0  0
  -23.5406    5.9356   -1.6195 H   0  0  0  0  0
  -24.0345    6.6746   -0.0765 H   0  0  0  0  0
  -22.3059    6.5004   -0.4673 H   0  0  0  0  0
  -23.6035    5.5424    2.0478 H   0  0  0  0  0
  -23.0219    3.8594    2.0685 H   0  0  0  0  0
  -21.8991    5.1847    1.6759 H   0  0  0  0  0
  -26.8277    1.1961    1.1546 H   0  0  0  0  0
  -26.8322    0.4336   -0.1512 H   0  0  0  0  0
  -28.8649    1.8601   -1.1051 H   0  0  0  0  0
  -27.4384    4.1045   -1.4802 H   0  0  0  0  0
  -27.3534    4.3688    0.0039 H   0  0  0  0  0
  -29.0199    3.2907    1.3410 H   0  0  0  0  0
  -34.3850   -0.2232    2.3736 H   0  0  0  0  0
  -34.8447   -2.2042    0.9007 H   0  0  0  0  0
  -33.2465   -2.7218   -0.8935 H   0  0  0  0  0
  -29.9190    0.3816   -0.7177 H   0  0  0  0  0
  1  2  1  0  0  0
  2  3  1  0  0  0
  2  4  1  0  0  0
  2  5  1  0  0  0
  5  6  1  0  0  0
  6  7  2  0  0  0
  6  8  1  0  0  0
  8  9  1  0  0  0
  8 11  1  0  0  0
  9 10  1  0  0  0
 10 11  1  0  0  0
 10 12  1  0  0  0
 12 13  1  0  0  0
 13 14  4  0  0  0
 13 23  1  0  0  0
 14 15  1  0  0  0
 15 16  2  0  0  0
 15 17  1  0  0  0
 17 18  4  0  0  0
 17 22  4  0  0  0
 18 19  4  0  0  0
 19 20  4  0  0  0
 20 21  4  0  0  0
 21 22  4  0  0  0
 22 23  1  0  0  0
  1 24  1  0  0  0
  1 25  1  0  0  0
  1 26  1  0  0  0
  3 27  1  0  0  0
  3 28  1  0  0  0
  3 29  1  0  0  0
  4 30  1  0  0  0
  4 31  1  0  0  0
  4 32  1  0  0  0
  9 33  1  0  0  0
  9 34  1  0  0  0
 10 35  1  0  0  0
 11 36  1  0  0  0
 11 37  1  0  0  0
 12 38  1  0  0  0
 18 39  1  0  0  0
 19 40  1  0  0  0
 20 41  1  0  0  0
 23 42  1  0  0  0
M  END
$$$$
