3l0n_ligand
  -I-interpret- 

 35 36  0  0  0  0  0  0  0  0999 V2000
    2.7690    7.5010   21.5630 O   0  0  0  0  0
    3.1650    7.6730   22.7370 C   0  0  0  0  0
    3.5520    6.5640   23.5180 C   0  0  0  0  0
    4.0120    6.7650   24.8540 C   0  0  0  0  0
    4.0150    5.3760   25.9990 S   0  0  0  0  0
    3.1240    8.9230   23.2980 N   0  0  0  0  0
    3.5800    9.1150   24.6200 C   0  0  0  0  0
    3.5950   10.2930   25.1210 O   0  0  0  0  0
    4.1000    8.0300   25.3510 N   0  0  0  0  0
    4.6540    8.2420   26.7510 C   0  0  0  0  0
    3.5920    8.6650   27.6530 O   0  0  0  0  0
    5.7650    9.3190   26.7690 C   0  0  0  0  0
    7.1330    8.7980   26.6520 O   0  0  0  0  0
    5.5620    9.9010   28.1750 C   0  0  0  0  0
    6.3870    9.1670   28.9990 O   0  0  0  0  0
    4.0930    9.6830   28.5340 C   0  0  0  0  0
    3.3050   10.9560   28.2370 C   0  0  0  0  0
    3.6810   11.9960   29.0870 O   0  0  0  0  0
    2.7970   13.3670   29.1650 P   0  0  0  0  0
    3.6210   14.1010   30.2130 O   0  0  0  0  0
    2.8100   14.0530   27.8740 O   0  0  0  0  0
    1.4620   13.0190   29.6060 O   0  0  0  0  0
    3.4999    5.5575   23.1028 H   0  0  0  0  0
    4.4776    5.7776   27.1795 H   0  0  0  0  0
    2.7648    9.7126   22.7614 H   0  0  0  0  0
    5.0758    7.2910   27.0762 H   0  0  0  0  0
    5.6819   10.0054   25.9264 H   0  0  0  0  0
    7.7553    9.5287   26.6717 H   0  0  0  0  0
    5.7940   10.9627   28.2584 H   0  0  0  0  0
    6.3037    9.4867   29.9004 H   0  0  0  0  0
    3.9958    9.4127   29.5855 H   0  0  0  0  0
    2.2452   10.7508   28.3882 H   0  0  0  0  0
    3.5082   11.2576   27.2094 H   0  0  0  0  0
    4.4893   14.2992   29.8546 H   0  0  0  0  0
    3.7157   14.2590   27.6315 H   0  0  0  0  0
  1  2  2  0  0  0
  2  3  1  0  0  0
  2  6  1  0  0  0
  3  4  2  0  0  0
  4  5  1  0  0  0
  4  9  1  0  0  0
  6  7  1  0  0  0
  7  8  2  0  0  0
  7  9  1  0  0  0
  9 10  1  0  0  0
 10 11  1  0  0  0
 10 12  1  0  0  0
 11 16  1  0  0  0
 12 13  1  0  0  0
 12 14  1  0  0  0
 14 15  1  0  0  0
 14 16  1  0  0  0
 16 17  1  0  0  0
 17 18  1  0  0  0
 18 19  1  0  0  0
 19 20  1  0  0  0
 19 21  1  0  0  0
 19 22  2  0  0  0
  3 23  1  0  0  0
  5 24  1  0  0  0
  6 25  1  0  0  0
 10 26  1  0  0  0
 12 27  1  0  0  0
 13 28  1  0  0  0
 14 29  1  0  0  0
 15 30  1  0  0  0
 16 31  1  0  0  0
 17 32  1  0  0  0
 17 33  1  0  0  0
 20 34  1  0  0  0
 21 35  1  0  0  0
M  END
$$$$
