### 
### Created by X-TOOL on Mon Sep 10 21:13:02 2018
### 

@<TRIPOS>MOLECULE
3l0n_ligand
   33    34     1     0     0
SMALL
GAST_HUCK


@<TRIPOS>ATOM
      1 O4          2.7690    7.5010   21.5630 O.2       1 S5P        -0.4214
      2 C4          3.1650    7.6730   22.7370 C.2       1 S5P         0.1698
      3 C5          3.5520    6.5640   23.5180 C.2       1 S5P         0.0092
      4 C6          4.0120    6.7650   24.8540 C.2       1 S5P         0.1328
      5 S22         4.0150    5.3760   25.9990 S.3       1 S5P        -0.0684
      6 N3          3.1240    8.9230   23.2980 N.am      1 S5P        -0.1897
      7 C2          3.5800    9.1150   24.6200 C.2       1 S5P         0.3326
      8 O2          3.5950   10.2930   25.1210 O.2       1 S5P        -0.3818
      9 N1          4.1000    8.0300   25.3510 N.am      1 S5P        -0.1429
     10 C1'         4.6540    8.2420   26.7510 C.3       1 S5P         0.2069
     11 O4'         3.5920    8.6650   27.6530 O.3       1 S5P        -0.3365
     12 C2'         5.7650    9.3190   26.7690 C.3       1 S5P         0.1384
     13 O2'         7.1330    8.7980   26.6520 O.3       1 S5P        -0.3837
     14 C3'         5.5620    9.9010   28.1750 C.3       1 S5P         0.1148
     15 O3'         6.3870    9.1670   28.9990 O.3       1 S5P        -0.3864
     16 C4'         4.0930    9.6830   28.5340 C.3       1 S5P         0.1181
     17 C5'         3.3050   10.9560   28.2370 C.3       1 S5P         0.1071
     18 O5'         3.6810   11.9960   29.0870 O.3       1 S5P        -0.2734
     19 P           2.7970   13.3670   29.1650 P.3       1 S5P         0.2008
     20 O3P         3.6210   14.1010   30.2130 O.co2     1 S5P        -0.5537
     21 O1P         2.8100   14.0530   27.8740 O.co2     1 S5P        -0.5537
     22 O2P         1.4620   13.0190   29.6060 O.co2     1 S5P        -0.5537
     23 H1          3.5000    5.5584   23.1032 H         1 S5P         0.0120
     24 H2          4.8722    5.3811   26.5293 H         1 S5P         0.1330
     25 H3          2.7719    9.6971   22.7719 H         1 S5P         0.2251
     26 H4          5.0745    7.2905   27.1084 H         1 S5P         0.0993
     27 H5          5.5961   10.0695   25.9827 H         1 S5P         0.0676
     28 H6          7.2221    8.3267   25.8320 H         1 S5P         0.2101
     29 H7          5.8169   10.9703   28.2154 H         1 S5P         0.0648
     30 H8          7.2870    9.2619   28.7100 H         1 S5P         0.2100
     31 H9          3.9851    9.3906   29.5889 H         1 S5P         0.0650
     32 H10         2.2324   10.7530   28.3723 H         1 S5P         0.0639
     33 H11         3.4925   11.2586   27.1962 H         1 S5P         0.0639
@<TRIPOS>BOND
     1    1    2 2  
     2    2    3 1  
     3    2    6 am 
     4    3    4 2  
     5    4    5 1  
     6    4    9 1  
     7    6    7 am 
     8    7    8 2  
     9    7    9 am 
    10    9   10 1  
    11   10   11 1  
    12   10   12 1  
    13   11   16 1  
    14   12   13 1  
    15   12   14 1  
    16   14   15 1  
    17   14   16 1  
    18   16   17 1  
    19   17   18 1  
    20   18   19 1  
    21   19   20 ar 
    22   19   21 ar 
    23   19   22 ar 
    24    3   23 1  
    25    5   24 1  
    26    6   25 1  
    27   10   26 1  
    28   12   27 1  
    29   13   28 1  
    30   14   29 1  
    31   15   30 1  
    32   16   31 1  
    33   17   32 1  
    34   17   33 1  
@<TRIPOS>SUBSTRUCTURE
     1 S5P         1

