1f74_ligand
  -I-interpret- 

 39 38  0  0  0  0  0  0  0  0999 V2000
    1.9790   14.3000    6.2480 C   0  0  0  0  0
    2.7170   13.3410    5.9700 O   0  0  0  0  0
    0.8910   14.5830    5.7190 O   0  0  0  0  0
    2.5340   15.2150    7.3700 C   0  0  0  0  0
    3.7680   15.1950    7.5440 O   0  0  0  0  0
    1.4840   16.0520    8.1210 C   0  0  0  0  0
    1.6290   16.0050    9.7010 C   0  0  0  0  0
    0.2090   15.8060   10.3300 C   0  0  0  0  0
    0.1130   14.5130   11.0610 N   0  0  0  0  0
   -0.9710   13.7350   10.9580 C   0  0  0  0  0
   -0.7590   12.3720   11.6120 C   0  0  0  0  0
   -2.0740   14.0130   10.4330 O   0  0  0  0  0
   -0.1450   18.1810   10.5700 O   0  0  0  0  0
   -0.1740   16.9550   11.3340 C   0  0  0  0  0
   -1.6170   16.7650   11.8980 C   0  0  0  0  0
   -2.5030   16.5780   10.7990 O   0  0  0  0  0
   -2.0580   17.9900   12.7340 C   0  0  0  0  0
   -0.9840   18.2830   13.6620 O   0  0  0  0  0
   -3.3860   17.7670   13.4230 C   0  0  0  0  0
   -3.3140   16.7290   14.4080 O   0  0  0  0  0
    0.5347   15.3756    6.1269 H   0  0  0  0  0
    0.5056   15.6398    7.8741 H   0  0  0  0  0
    1.6189   17.0894    7.8150 H   0  0  0  0  0
    2.0659   16.9367   10.0605 H   0  0  0  0  0
    2.2802   15.1796    9.9886 H   0  0  0  0  0
   -0.4837   15.8190    9.4885 H   0  0  0  0  0
    0.8887   14.2140   11.6521 H   0  0  0  0  0
   -1.4770   12.2435   12.4220 H   0  0  0  0  0
   -0.9032   11.5876   10.8690 H   0  0  0  0  0
    0.2540   12.3152   12.0103 H   0  0  0  0  0
   -0.3733   18.9181   11.1411 H   0  0  0  0  0
    0.5173   16.9587   12.1767 H   0  0  0  0  0
   -1.6362   15.8964   12.5563 H   0  0  0  0  0
   -3.3974   16.4592   11.1271 H   0  0  0  0  0
   -2.2307   18.8494   12.0862 H   0  0  0  0  0
   -1.2248   19.0412   14.1993 H   0  0  0  0  0
   -4.1149   17.4703   12.6688 H   0  0  0  0  0
   -3.6688   18.6926   13.9243 H   0  0  0  0  0
   -4.1743   16.6200   14.8198 H   0  0  0  0  0
  1  4  1  0  0  0
  1  3  1  0  0  0
  1  2  2  0  0  0
  4  6  1  0  0  0
  4  5  2  0  0  0
  6  7  1  0  0  0
  7  8  1  0  0  0
  8 14  1  0  0  0
  8  9  1  0  0  0
  9 10  1  0  0  0
 10 12  2  0  0  0
 10 11  1  0  0  0
 14 13  1  0  0  0
 14 15  1  0  0  0
 15 17  1  0  0  0
 15 16  1  0  0  0
 17 19  1  0  0  0
 17 18  1  0  0  0
 19 20  1  0  0  0
  3 21  1  0  0  0
  6 22  1  0  0  0
  6 23  1  0  0  0
  7 24  1  0  0  0
  7 25  1  0  0  0
  8 26  1  0  0  0
  9 27  1  0  0  0
 11 28  1  0  0  0
 11 29  1  0  0  0
 11 30  1  0  0  0
 13 31  1  0  0  0
 14 32  1  0  0  0
 15 33  1  0  0  0
 16 34  1  0  0  0
 17 35  1  0  0  0
 18 36  1  0  0  0
 19 37  1  0  0  0
 19 38  1  0  0  0
 20 39  1  0  0  0
M  END
$$$$
