4xyf_ligand
  -I-interpret- 

 55 59  0  0  0  0  0  0  0  0999 V2000
   28.2610   32.2070   60.4780 C   0  0  0  0  0
   26.9960   31.9090   59.6670 C   0  0  0  0  0
   26.2970   30.7660   59.6630 C   0  0  0  0  0
   26.4540   32.8140   58.8550 N   0  0  0  0  0
   25.3160   32.2250   58.2960 O   0  0  0  0  0
   25.2460   30.9750   58.8430 C   0  0  0  0  0
   24.2400   30.1400   58.4010 C   0  0  0  0  0
   24.1130   28.8330   58.8540 C   0  0  0  0  0
   23.1220   28.0010   58.3460 C   0  0  0  0  0
   22.9840   26.7310   58.7800 F   0  0  0  0  0
   23.3820   30.6310   57.4080 C   0  0  0  0  0
   22.3850   29.7920   56.9320 N   0  0  0  0  0
   22.2550   28.4810   57.3690 C   0  0  0  0  0
   21.2430   27.9400   56.7030 N   0  0  0  0  0
   20.7400   28.7640   55.9120 N   0  0  0  0  0
   21.3960   29.9170   55.9870 C   0  0  0  0  0
   21.1160   31.2100   55.2240 C   0  0  0  0  0
   20.2910   30.9270   53.9510 C   0  0  0  0  0
   20.2940   32.1170   56.1640 C   0  0  0  0  0
   20.8010   33.3120   56.6510 C   0  0  0  0  0
   20.0100   34.1090   57.4950 C   0  0  0  0  0
   20.5010   35.3060   57.9970 C   0  0  0  0  0
   19.0020   31.7290   56.5340 C   0  0  0  0  0
   18.2160   32.5170   57.3770 C   0  0  0  0  0
   18.7150   33.7150   57.8560 C   0  0  0  0  0
   17.9710   34.4840   58.6700 N   0  0  0  0  0
   18.4270   35.6360   59.1560 C   0  0  0  0  0
   19.7070   36.0800   58.8390 C   0  0  0  0  0
   20.2230   37.2530   59.2960 O   0  0  0  0  0
   19.7610   37.7980   60.5560 C   0  0  0  0  0
   20.9740   38.2010   61.3980 C   0  0  0  0  0
   21.4980   37.0520   62.1190 O   0  0  0  0  0
   22.0700   37.4820   63.3780 C   0  0  0  0  0
   28.0410   32.1090   61.5411 H   0  0  0  0  0
   29.0435   31.5006   60.2009 H   0  0  0  0  0
   28.5954   33.2228   60.2670 H   0  0  0  0  0
   26.5300   29.8529   60.2108 H   0  0  0  0  0
   24.7967   28.4563   59.6148 H   0  0  0  0  0
   23.4947   31.6435   57.0205 H   0  0  0  0  0
   22.0529   31.6789   54.9233 H   0  0  0  0  0
   20.8463   30.2490   53.3030 H   0  0  0  0  0
   19.3415   30.4696   54.2291 H   0  0  0  0  0
   20.1045   31.8632   53.4249 H   0  0  0  0  0
   21.8075   33.6312   56.3805 H   0  0  0  0  0
   21.5047   35.6390   57.7330 H   0  0  0  0  0
   18.5994   30.7895   56.1553 H   0  0  0  0  0
   17.2144   32.1899   57.6562 H   0  0  0  0  0
   17.7925   36.2366   59.8077 H   0  0  0  0  0
   19.1759   37.0483   61.0887 H   0  0  0  0  0
   19.1346   38.6708   60.3718 H   0  0  0  0  0
   20.6691   38.9613   62.1171 H   0  0  0  0  0
   21.7500   38.5889   60.7381 H   0  0  0  0  0
   22.8786   38.1873   63.1862 H   0  0  0  0  0
   21.2999   37.9650   63.9794 H   0  0  0  0  0
   22.4605   36.6162   63.9127 H   0  0  0  0  0
  1  2  1  0  0  0
  2  3  4  0  0  0
  2  4  4  0  0  0
  3  6  4  0  0  0
  4  5  4  0  0  0
  5  6  4  0  0  0
  6  7  1  0  0  0
  7  8  4  0  0  0
  7 11  4  0  0  0
  8  9  4  0  0  0
  9 10  1  0  0  0
  9 13  4  0  0  0
 11 12  4  0  0  0
 12 13  4  0  0  0
 12 16  4  0  0  0
 13 14  4  0  0  0
 14 15  4  0  0  0
 15 16  4  0  0  0
 16 17  1  0  0  0
 17 18  1  0  0  0
 17 19  1  0  0  0
 19 20  4  0  0  0
 19 23  4  0  0  0
 20 21  4  0  0  0
 21 22  4  0  0  0
 21 25  4  0  0  0
 22 28  4  0  0  0
 23 24  4  0  0  0
 24 25  4  0  0  0
 25 26  4  0  0  0
 26 27  4  0  0  0
 27 28  4  0  0  0
 28 29  1  0  0  0
 29 30  1  0  0  0
 30 31  1  0  0  0
 31 32  1  0  0  0
 32 33  1  0  0  0
  1 34  1  0  0  0
  1 35  1  0  0  0
  1 36  1  0  0  0
  3 37  1  0  0  0
  8 38  1  0  0  0
 11 39  1  0  0  0
 17 40  1  0  0  0
 18 41  1  0  0  0
 18 42  1  0  0  0
 18 43  1  0  0  0
 20 44  1  0  0  0
 22 45  1  0  0  0
 23 46  1  0  0  0
 24 47  1  0  0  0
 27 48  1  0  0  0
 30 49  1  0  0  0
 30 50  1  0  0  0
 31 51  1  0  0  0
 31 52  1  0  0  0
 33 53  1  0  0  0
 33 54  1  0  0  0
 33 55  1  0  0  0
M  END
$$$$
