3fud_ligand
  -I-interpret- 

 28 29  0  0  0  0  0  0  0  0999 V2000
   -4.3410   18.7510  -24.0810 C   0  0  0  0  0
   -4.9740   19.1900  -22.8420 N   0  3  0  0  0
   -5.2120   18.2670  -21.7340 C   0  0  0  0  0
   -4.0390   18.2720  -20.7650 C   0  0  0  0  0
   -2.7490   18.3940  -21.2980 C   0  0  0  0  0
   -1.6210   18.4070  -20.4850 C   0  0  0  0  0
   -1.7830   18.2900  -19.1120 C   0  0  0  0  0
   -3.0550   18.1650  -18.5610 C   0  0  0  0  0
   -4.1920   18.1550  -19.3740 C   0  0  0  0  0
   -5.5040   18.0090  -18.6680 C   0  0  0  0  0
   -6.8410   18.3310  -18.8860 C   0  0  0  0  0
   -7.6950   17.9520  -17.8270 C   0  0  0  0  0
   -7.1320   17.3140  -16.7170 C   0  0  0  0  0
   -5.3870   17.2110  -17.0840 S   0  0  0  0  0
   -3.3455   18.3649  -23.8619 H   0  0  0  0  0
   -4.9442   17.9662  -24.5374 H   0  0  0  0  0
   -4.2620   19.5951  -24.7661 H   0  0  0  0  0
   -5.9117   19.4662  -23.1333 H   0  0  0  0  0
   -4.3128   19.8649  -22.4577 H   0  0  0  0  0
   -5.3325   17.2605  -22.1347 H   0  0  0  0  0
   -6.1093   18.5816  -21.2012 H   0  0  0  0  0
   -2.6265   18.4809  -22.3776 H   0  0  0  0  0
   -0.6262   18.5074  -20.9191 H   0  0  0  0  0
   -0.9088   18.2960  -18.4609 H   0  0  0  0  0
   -3.1661   18.0736  -17.4805 H   0  0  0  0  0
   -7.1951   18.8286  -19.7888 H   0  0  0  0  0
   -8.7656   18.1516  -17.8735 H   0  0  0  0  0
   -7.6455   16.9578  -15.8239 H   0  0  0  0  0
  1  2  1  0  0  0
  2  3  1  0  0  0
  3  4  1  0  0  0
  4  5  4  0  0  0
  4  9  4  0  0  0
  5  6  4  0  0  0
  6  7  4  0  0  0
  7  8  4  0  0  0
  8  9  4  0  0  0
  9 10  1  0  0  0
 10 11  4  0  0  0
 10 14  4  0  0  0
 11 12  4  0  0  0
 12 13  4  0  0  0
 13 14  4  0  0  0
  1 15  1  0  0  0
  1 16  1  0  0  0
  1 17  1  0  0  0
  2 18  1  0  0  0
  2 19  1  0  0  0
  3 20  1  0  0  0
  3 21  1  0  0  0
  5 22  1  0  0  0
  6 23  1  0  0  0
  7 24  1  0  0  0
  8 25  1  0  0  0
 11 26  1  0  0  0
 12 27  1  0  0  0
 13 28  1  0  0  0
M  END
$$$$
