5e8a_ligand
  -I-interpret- 

 75 80  0  0  0  0  0  0  0  0999 V2000
   20.6530   -5.6170   -0.0550 C   0  0  0  0  0
   20.0600   -6.7780   -0.8340 C   0  0  0  0  0
   21.1780  -10.5060   -0.5810 S   0  0  0  0  0
   18.7700   -9.3470   -1.0270 C   0  0  0  0  0
   14.4400   -8.1080   -1.7480 N   0  0  0  0  0
   18.5610   -6.9070   -0.6230 C   0  0  0  0  0
   24.6860  -10.4530   -2.3860 C   0  0  0  0  0
   25.6450  -10.6720   -1.2170 C   0  0  0  0  0
   26.9740  -11.1250    2.8310 N   0  0  0  0  0
   23.7140  -10.2130    0.2980 C   0  0  0  0  0
   26.0760   -9.9880    1.1490 N   0  0  0  0  0
   25.0950  -11.2430   -3.6300 C   0  0  0  0  0
   22.0400   -5.4780   -0.3060 O   0  0  0  0  0
   20.7010   -7.9950   -0.3930 O   0  0  0  0  0
   18.2370   -7.0770    0.7730 O   0  0  0  0  0
   18.0370   -8.0930   -1.4330 C   0  0  0  0  0
   16.5890   -8.2080   -1.2160 N   0  0  0  0  0
   15.7280   -7.9420   -2.2860 N   0  0  0  0  0
   14.6150   -8.4540   -0.4610 C   0  0  0  0  0
   15.9370   -8.5000   -0.1140 C   0  0  0  0  0
   13.3850   -8.6510    0.3440 C   0  0  0  0  0
   13.5030   -8.5150    1.7110 C   0  0  0  0  0
   12.3870   -8.6800    2.5160 C   0  0  0  0  0
   10.0630   -9.0700    2.7620 F   0  0  0  0  0
   11.1520   -8.9340    1.9490 C   0  0  0  0  0
   11.0230   -9.0410    0.5690 C   0  0  0  0  0
   12.1430   -8.8880   -0.2450 C   0  0  0  0  0
   18.3810  -10.4310   -1.8800 O   0  0  0  0  0
   20.2650   -9.1150   -1.1710 C   0  0  0  0  0
   22.8330  -10.0140   -0.9240 C   0  0  0  0  0
   23.3610  -10.8230   -2.0050 O   0  0  0  0  0
   24.3130  -10.7880   -4.7480 O   0  0  0  0  0
   23.1710   -9.4550    1.3920 O   0  0  0  0  0
   25.1680   -9.8350   -0.0300 C   0  0  0  0  0
   25.7150  -12.0730   -0.8860 O   0  0  0  0  0
   26.0650  -11.2350    1.7720 N   0  0  0  0  0
   27.4910   -9.8710    2.8270 C   0  0  0  0  0
   26.9210   -9.1630    1.7740 C   0  0  0  0  0
   28.4750   -9.3590    3.8320 C   0  0  0  0  0
   28.6230   -7.9860    4.0420 C   0  0  0  0  0
   29.5240   -7.5120    4.9960 C   0  0  0  0  0
   30.2770   -8.4070    5.7530 C   0  0  0  0  0
   30.1220   -9.7780    5.5570 C   0  0  0  0  0
   29.2190  -10.2520    4.6060 C   0  0  0  0  0
   31.1610   -7.9320    6.6810 F   0  0  0  0  0
   20.5120   -5.8073    1.0090 H   0  0  0  0  0
   20.1522   -4.7004   -0.3667 H   0  0  0  0  0
   20.2291   -6.5973   -1.8955 H   0  0  0  0  0
   18.5261   -9.5924    0.0066 H   0  0  0  0  0
   18.0841   -5.9875   -0.9625 H   0  0  0  0  0
   24.7241   -9.3932   -2.6381 H   0  0  0  0  0
   26.6515  -10.3544   -1.4892 H   0  0  0  0  0
   23.7279  -11.2616    0.5954 H   0  0  0  0  0
   24.9197  -12.3062   -3.4657 H   0  0  0  0  0
   26.1545  -11.0877   -3.8336 H   0  0  0  0  0
   22.3830   -4.7377    0.1999 H   0  0  0  0  0
   18.5705   -6.3273    1.2713 H   0  0  0  0  0
   18.2138   -7.9423   -2.4980 H   0  0  0  0  0
   16.3582   -8.7293    0.8648 H   0  0  0  0  0
   14.4694   -8.2788    2.1564 H   0  0  0  0  0
   12.4833   -8.6093    3.5994 H   0  0  0  0  0
   10.0484   -9.2440    0.1252 H   0  0  0  0  0
   12.0500   -8.9527   -1.3291 H   0  0  0  0  0
   18.8497  -11.2268   -1.6182 H   0  0  0  0  0
   20.4419   -8.9422   -2.2326 H   0  0  0  0  0
   22.8289   -8.9595   -1.1999 H   0  0  0  0  0
   24.5638  -11.2794   -5.5336 H   0  0  0  0  0
   23.7226   -9.5757    2.1684 H   0  0  0  0  0
   25.1993   -8.7783   -0.2954 H   0  0  0  0  0
   26.3200  -12.1972   -0.1510 H   0  0  0  0  0
   27.1260   -8.1261    1.5078 H   0  0  0  0  0
   28.0315   -7.2813    3.4575 H   0  0  0  0  0
   29.6391   -6.4390    5.1494 H   0  0  0  0  0
   30.7080  -10.4815    6.1485 H   0  0  0  0  0
   29.0932  -11.3256    4.4660 H   0  0  0  0  0
  2  1  1  0  0  0
  1 13  1  0  0  0
  6  2  1  0  0  0
  2 14  1  0  0  0
 29  3  1  0  0  0
  3 30  1  0  0  0
 16  4  1  0  0  0
  4 28  1  0  0  0
  4 29  1  0  0  0
 18  5  4  0  0  0
  5 19  4  0  0  0
  6 15  1  0  0  0
 16  6  1  0  0  0
  8  7  1  0  0  0
  7 12  1  0  0  0
  7 31  1  0  0  0
 34  8  1  0  0  0
  8 35  1  0  0  0
 36  9  4  0  0  0
  9 37  4  0  0  0
 30 10  1  0  0  0
 10 33  1  0  0  0
 10 34  1  0  0  0
 34 11  1  0  0  0
 11 36  4  0  0  0
 11 38  4  0  0  0
 12 32  1  0  0  0
 29 14  1  0  0  0
 17 16  1  0  0  0
 17 18  4  0  0  0
 17 20  4  0  0  0
 19 20  4  0  0  0
 19 21  1  0  0  0
 21 22  4  0  0  0
 21 27  4  0  0  0
 22 23  4  0  0  0
 23 25  4  0  0  0
 25 24  1  0  0  0
 25 26  4  0  0  0
 26 27  4  0  0  0
 30 31  1  0  0  0
 37 38  4  0  0  0
 37 39  1  0  0  0
 39 40  4  0  0  0
 39 44  4  0  0  0
 40 41  4  0  0  0
 41 42  4  0  0  0
 42 43  4  0  0  0
 42 45  1  0  0  0
 43 44  4  0  0  0
  1 46  1  0  0  0
  1 47  1  0  0  0
  2 48  1  0  0  0
  4 49  1  0  0  0
  6 50  1  0  0  0
  7 51  1  0  0  0
  8 52  1  0  0  0
 10 53  1  0  0  0
 12 54  1  0  0  0
 12 55  1  0  0  0
 13 56  1  0  0  0
 15 57  1  0  0  0
 16 58  1  0  0  0
 20 59  1  0  0  0
 22 60  1  0  0  0
 23 61  1  0  0  0
 26 62  1  0  0  0
 27 63  1  0  0  0
 28 64  1  0  0  0
 29 65  1  0  0  0
 30 66  1  0  0  0
 32 67  1  0  0  0
 33 68  1  0  0  0
 34 69  1  0  0  0
 35 70  1  0  0  0
 38 71  1  0  0  0
 40 72  1  0  0  0
 41 73  1  0  0  0
 43 74  1  0  0  0
 44 75  1  0  0  0
M  END
$$$$
