4im0_ligand
  -I-interpret- 

 71 75  0  0  0  0  0  0  0  0999 V2000
  103.8840    9.8990  -29.2550 C   0  0  0  0  0
  105.2070    9.1630  -29.4820 C   0  0  0  0  0
  105.3730    9.8940  -30.8150 C   0  0  0  0  0
  104.2680   10.8560  -30.3770 C   0  0  0  0  0
  104.8360   12.1550  -29.7950 C   0  0  0  0  0
  105.4680   12.8840  -30.5640 O   0  0  0  0  0
  104.5850   12.3350  -28.4680 N   0  0  0  0  0
  104.9690   13.4630  -27.5570 C   0  0  0  0  0
  106.0470   14.2880  -28.2100 C   0  0  0  0  0
  107.3770   13.5580  -28.3920 C   0  0  0  0  0
  107.9450   14.4600  -29.3760 N   0  0  0  0  0
  108.7210   15.5080  -29.3500 C   0  0  0  0  0
  109.2680   16.0670  -28.2820 N   0  0  0  0  0
  108.9430   16.0060  -30.6050 C   0  0  0  0  0
  108.2360   15.2510  -31.7380 C   0  0  0  0  0
  108.5120   15.7360  -33.1540 C   0  0  0  0  0
  107.1660   16.0300  -32.4860 C   0  0  0  0  0
  109.7330   17.1320  -30.7480 C   0  0  0  0  0
  110.2680   17.6600  -29.6510 N   0  0  0  0  0
  110.0580   17.1460  -28.4180 C   0  0  0  0  0
  110.6400   17.7410  -27.3560 N   0  0  0  0  0
  110.5330   17.3840  -26.0560 C   0  0  0  0  0
  111.2740   18.1090  -25.1260 C   0  0  0  0  0
  109.7750   16.3000  -25.5950 C   0  0  0  0  0
  109.7040   15.9640  -24.2520 C   0  0  0  0  0
  110.4380   16.7100  -23.3440 C   0  0  0  0  0
  111.2230   17.7730  -23.7780 C   0  0  0  0  0
  111.9980   18.5530  -22.7130 C   0  0  0  0  0
  113.2430   17.8470  -22.3710 N   0  3  0  0  0
  113.8840   18.4760  -21.2130 C   0  0  0  0  0
  115.1750   17.7230  -20.8810 C   0  0  0  0  0
  116.0890   17.7450  -22.0010 O   0  0  0  0  0
  115.4560   17.1220  -23.1310 C   0  0  0  0  0
  114.1730   17.8580  -23.5100 C   0  0  0  0  0
  103.6160   10.2747  -28.2675 H   0  0  0  0  0
  102.9353    9.3628  -29.2783 H   0  0  0  0  0
  105.2425    8.0742  -29.4452 H   0  0  0  0  0
  105.9952    9.2067  -28.7304 H   0  0  0  0  0
  105.3049    9.3563  -31.7607 H   0  0  0  0  0
  106.3471   10.2669  -31.1316 H   0  0  0  0  0
  103.5347   11.2130  -31.1001 H   0  0  0  0  0
  104.0530   11.5859  -28.0250 H   0  0  0  0  0
  105.3395   13.0599  -26.6145 H   0  0  0  0  0
  104.0975   14.0888  -27.3650 H   0  0  0  0  0
  106.2366   15.1406  -27.5580 H   0  0  0  0  0
  105.6887   14.5531  -29.2047 H   0  0  0  0  0
  107.3100   12.5109  -28.6871 H   0  0  0  0  0
  107.9659   13.4067  -27.4874 H   0  0  0  0  0
  107.6682   14.2127  -30.3261 H   0  0  0  0  0
  108.2811   14.2835  -31.2380 H   0  0  0  0  0
  108.8903   15.3408  -34.0967 H   0  0  0  0  0
  109.2896   16.2693  -33.7009 H   0  0  0  0  0
  106.5033   16.8790  -32.3181 H   0  0  0  0  0
  106.1033   15.9489  -32.7146 H   0  0  0  0  0
  109.9115   17.5728  -31.7288 H   0  0  0  0  0
  111.2266   18.5511  -27.5562 H   0  0  0  0  0
  111.8953   18.9417  -25.4558 H   0  0  0  0  0
  109.2218   15.6998  -26.3174 H   0  0  0  0  0
  109.0847   15.1316  -23.9178 H   0  0  0  0  0
  110.4000   16.4623  -22.2832 H   0  0  0  0  0
  111.3820   18.6435  -21.8183 H   0  0  0  0  0
  112.2437   19.5409  -23.1026 H   0  0  0  0  0
  113.0072   16.8813  -22.1426 H   0  0  0  0  0
  113.2095   18.4402  -20.3575 H   0  0  0  0  0
  114.1161   19.5157  -21.4435 H   0  0  0  0  0
  114.9268   16.6866  -20.6520 H   0  0  0  0  0
  115.6533   18.2067  -20.0293 H   0  0  0  0  0
  115.2065   16.0934  -22.8704 H   0  0  0  0  0
  116.1413   17.1527  -23.9780 H   0  0  0  0  0
  114.4110   18.8886  -23.7732 H   0  0  0  0  0
  113.7085   17.3609  -24.3616 H   0  0  0  0  0
  1  2  1  0  0  0
  1  4  1  0  0  0
  2  3  1  0  0  0
  3  4  1  0  0  0
  4  5  1  0  0  0
  5  6  2  0  0  0
  5  7  1  0  0  0
  7  8  1  0  0  0
  8  9  1  0  0  0
  9 10  1  0  0  0
 10 11  1  0  0  0
 11 12  1  0  0  0
 12 13  4  0  0  0
 12 14  4  0  0  0
 13 20  4  0  0  0
 14 15  1  0  0  0
 14 18  4  0  0  0
 15 16  1  0  0  0
 15 17  1  0  0  0
 16 17  1  0  0  0
 18 19  4  0  0  0
 19 20  4  0  0  0
 20 21  1  0  0  0
 21 22  1  0  0  0
 22 23  4  0  0  0
 22 24  4  0  0  0
 23 27  4  0  0  0
 24 25  4  0  0  0
 25 26  4  0  0  0
 26 27  4  0  0  0
 27 28  1  0  0  0
 28 29  1  0  0  0
 29 30  1  0  0  0
 29 34  1  0  0  0
 30 31  1  0  0  0
 31 32  1  0  0  0
 32 33  1  0  0  0
 33 34  1  0  0  0
  1 35  1  0  0  0
  1 36  1  0  0  0
  2 37  1  0  0  0
  2 38  1  0  0  0
  3 39  1  0  0  0
  3 40  1  0  0  0
  4 41  1  0  0  0
  7 42  1  0  0  0
  8 43  1  0  0  0
  8 44  1  0  0  0
  9 45  1  0  0  0
  9 46  1  0  0  0
 10 47  1  0  0  0
 10 48  1  0  0  0
 11 49  1  0  0  0
 15 50  1  0  0  0
 16 51  1  0  0  0
 16 52  1  0  0  0
 17 53  1  0  0  0
 17 54  1  0  0  0
 18 55  1  0  0  0
 21 56  1  0  0  0
 23 57  1  0  0  0
 24 58  1  0  0  0
 25 59  1  0  0  0
 26 60  1  0  0  0
 28 61  1  0  0  0
 28 62  1  0  0  0
 29 63  1  0  0  0
 30 64  1  0  0  0
 30 65  1  0  0  0
 31 66  1  0  0  0
 31 67  1  0  0  0
 33 68  1  0  0  0
 33 69  1  0  0  0
 34 70  1  0  0  0
 34 71  1  0  0  0
M  END
$$$$
