2za5_ligand
  -I-interpret- 

 56 60  0  0  0  0  0  0  0  0999 V2000
   22.2370   77.6270   83.0030 C   0  0  0  0  0
   22.7300   78.2010   84.1830 C   0  0  0  0  0
   21.8060   78.7030   85.2150 C   0  0  0  0  0
   20.4280   78.6140   85.0280 C   0  0  0  0  0
   19.9180   78.0380   83.8350 C   0  0  0  0  0
   20.8250   77.5280   82.8200 C   0  0  0  0  0
   22.5840   79.2510   86.3210 O   0  0  0  0  0
   23.9340   79.4370   85.8820 C   0  0  0  0  0
   24.1170   78.4980   84.7080 C   0  0  0  0  0
   24.6090   77.0690   85.0950 C   0  0  0  0  0
   26.1060   77.1010   85.4520 C   0  0  0  0  0
   26.8230   77.9270   84.4930 N   0  0  0  0  0
   26.3670   79.2790   84.1490 C   0  0  0  0  0
   24.9610   79.1300   83.5750 C   0  0  0  0  0
   27.7220   77.3350   83.5290 C   0  0  0  0  0
   28.2330   75.9210   83.6330 C   0  0  0  0  0
   28.4020   75.1860   82.4590 O   0  0  0  0  0
   28.9400   73.9340   82.8240 C   0  0  0  0  0
   29.1030   73.8900   84.2250 C   0  0  0  0  0
   28.6720   75.1530   84.7430 C   0  0  0  0  0
   29.2030   72.8610   81.7930 C   0  0  0  0  0
   29.4180   72.1130   80.9190 C   0  0  0  0  0
   29.7370   71.0530   79.8830 C   0  0  0  0  0
   29.8850   71.4350   78.5380 C   0  0  0  0  0
   30.1610   70.4660   77.5540 C   0  0  0  0  0
   30.2710   69.1080   77.9470 C   0  0  0  0  0
   30.1010   68.7190   79.2980 C   0  0  0  0  0
   29.8250   69.6910   80.2790 C   0  0  0  0  0
   28.0710   77.9710   82.5980 O   0  0  0  0  0
   20.2450   76.9110   81.5320 C   0  0  0  0  0
   20.4350   77.9100   80.4930 N   0  3  0  0  0
   22.9213   77.2620   82.2371 H   0  0  0  0  0
   19.7458   78.9844   85.7932 H   0  0  0  0  0
   18.8409   77.9778   83.6793 H   0  0  0  0  0
   24.6446   79.2193   86.6793 H   0  0  0  0  0
   24.1195   80.4722   85.5954 H   0  0  0  0  0
   24.4581   76.3983   84.2491 H   0  0  0  0  0
   24.0436   76.7186   85.9585 H   0  0  0  0  0
   26.5051   76.0871   85.4242 H   0  0  0  0  0
   26.2296   77.5186   86.4512 H   0  0  0  0  0
   27.0364   79.7440   83.4253 H   0  0  0  0  0
   26.3633   79.9245   85.0273 H   0  0  0  0  0
   24.5534   80.0912   83.2618 H   0  0  0  0  0
   24.9587   78.5075   82.6803 H   0  0  0  0  0
   29.4859   73.0503   84.8050 H   0  0  0  0  0
   28.6795   75.4646   85.7875 H   0  0  0  0  0
   29.7859   72.4833   78.2563 H   0  0  0  0  0
   30.2876   70.7543   76.5105 H   0  0  0  0  0
   30.4904   68.3496   77.1954 H   0  0  0  0  0
   30.1836   67.6689   79.5782 H   0  0  0  0  0
   29.6818   69.4045   81.3209 H   0  0  0  0  0
   19.1911   76.6601   81.6525 H   0  0  0  0  0
   20.7463   75.9766   81.2797 H   0  0  0  0  0
   20.0673   77.5550   79.6103 H   0  0  0  0  0
   19.9402   78.7642   80.7498 H   0  0  0  0  0
   21.4303   78.1093   80.3925 H   0  0  0  0  0
  1  2  4  0  0  0
  1  6  4  0  0  0
  2  3  4  0  0  0
  2  9  1  0  0  0
  3  4  4  0  0  0
  3  7  1  0  0  0
  4  5  4  0  0  0
  5  6  4  0  0  0
  6 30  1  0  0  0
  7  8  1  0  0  0
  8  9  1  0  0  0
  9 10  1  0  0  0
  9 14  1  0  0  0
 10 11  1  0  0  0
 11 12  1  0  0  0
 12 13  1  0  0  0
 12 15  1  0  0  0
 13 14  1  0  0  0
 15 16  1  0  0  0
 15 29  2  0  0  0
 16 17  4  0  0  0
 16 20  4  0  0  0
 17 18  4  0  0  0
 18 19  4  0  0  0
 18 21  1  0  0  0
 19 20  4  0  0  0
 21 22  3  0  0  0
 22 23  1  0  0  0
 23 24  4  0  0  0
 23 28  4  0  0  0
 24 25  4  0  0  0
 25 26  4  0  0  0
 26 27  4  0  0  0
 27 28  4  0  0  0
 30 31  1  0  0  0
  1 32  1  0  0  0
  4 33  1  0  0  0
  5 34  1  0  0  0
  8 35  1  0  0  0
  8 36  1  0  0  0
 10 37  1  0  0  0
 10 38  1  0  0  0
 11 39  1  0  0  0
 11 40  1  0  0  0
 13 41  1  0  0  0
 13 42  1  0  0  0
 14 43  1  0  0  0
 14 44  1  0  0  0
 19 45  1  0  0  0
 20 46  1  0  0  0
 24 47  1  0  0  0
 25 48  1  0  0  0
 26 49  1  0  0  0
 27 50  1  0  0  0
 28 51  1  0  0  0
 30 52  1  0  0  0
 30 53  1  0  0  0
 31 54  1  0  0  0
 31 55  1  0  0  0
 31 56  1  0  0  0
M  END
$$$$
