2xk6_ligand
  -I-interpret- 

 49 52  0  0  0  0  0  0  0  0999 V2000
   24.7280    5.1080  -18.3040 N   0  0  0  0  0
   25.3080    6.2410  -18.9590 C   0  0  0  0  0
   25.7650    6.1030  -20.2730 N   0  0  0  0  0
   26.3020    7.1490  -20.9090 C   0  0  0  0  0
   26.4130    8.4550  -20.2300 C   0  0  0  0  0
   27.0450    9.5610  -21.0170 C   0  0  0  0  0
   26.4610   11.1080  -20.2860 S   0  0  0  0  0
   27.1550   12.2840  -21.2510 C   0  0  0  0  0
   28.2980   11.5590  -22.0810 C   0  0  0  0  0
   27.8550   10.0120  -22.2790 C   0  0  0  0  0
   28.7110    9.3720  -23.3490 C   0  0  0  0  0
   28.6160    8.7530  -24.7610 C   0  0  0  0  0
   29.9480    9.3340  -24.2720 C   0  0  0  0  0
   25.9660    8.6020  -18.9260 N   0  0  0  0  0
   25.4150    7.5310  -18.2810 C   0  0  0  0  0
   24.8660    7.6850  -16.8730 C   0  0  0  0  0
   25.6110    8.5470  -15.7970 C   0  0  0  0  0
   24.8920    8.8870  -14.4670 C   0  0  0  0  0
   23.5820    8.1160  -14.2040 C   0  0  0  0  0
   22.9590    8.1150  -12.8320 C   0  0  0  0  0
   22.5020    7.0790  -12.3660 O   0  0  0  0  0
   22.9120    9.2800  -12.0970 O   0  0  0  0  0
   22.6970    8.0600  -15.4620 C   0  0  0  0  0
   23.3980    7.2430  -16.5630 C   0  0  0  0  0
   24.6533    4.2176  -18.7959 H   0  0  0  0  0
   24.3895    5.1911  -17.3454 H   0  0  0  0  0
   26.6592    7.0371  -21.9327 H   0  0  0  0  0
   27.5613    8.6431  -21.2980 H   0  0  0  0  0
   27.5619   13.0964  -20.6489 H   0  0  0  0  0
   26.4158   12.7359  -21.9124 H   0  0  0  0  0
   29.2482   11.6172  -21.5501 H   0  0  0  0  0
   28.4303   12.0432  -23.0486 H   0  0  0  0  0
   27.0916    9.4359  -22.8019 H   0  0  0  0  0
   28.4809    9.3749  -22.2836 H   0  0  0  0  0
   27.9713    8.8160  -25.6377 H   0  0  0  0  0
   28.2467    7.8402  -25.2284 H   0  0  0  0  0
   30.9959    9.0388  -24.2192 H   0  0  0  0  0
   30.7203   10.0154  -24.6288 H   0  0  0  0  0
   25.4225    6.7765  -16.6429 H   0  0  0  0  0
   25.7762    9.5109  -16.2783 H   0  0  0  0  0
   26.4697    7.9435  -15.5028 H   0  0  0  0  0
   24.6256    9.9426  -14.5194 H   0  0  0  0  0
   25.5783    8.6153  -13.6650 H   0  0  0  0  0
   23.8922    7.0853  -14.0318 H   0  0  0  0  0
   23.3090    9.9926  -12.6031 H   0  0  0  0  0
   22.5228    9.0735  -15.8234 H   0  0  0  0  0
   21.7482    7.5852  -15.2122 H   0  0  0  0  0
   23.4453    6.2125  -16.2110 H   0  0  0  0  0
   22.8239    7.3872  -17.4783 H   0  0  0  0  0
  1  2  1  0  0  0
  2  3  4  0  0  0
  2 15  4  0  0  0
  3  4  4  0  0  0
  4  5  4  0  0  0
  5  6  1  0  0  0
  5 14  4  0  0  0
  6  7  1  0  0  0
  6 10  1  0  0  0
  7  8  1  0  0  0
  8  9  1  0  0  0
  9 10  1  0  0  0
 10 11  1  0  0  0
 11 12  1  0  0  0
 11 13  1  0  0  0
 12 13  1  0  0  0
 14 15  4  0  0  0
 15 16  1  0  0  0
 16 17  1  0  0  0
 16 24  1  0  0  0
 17 18  1  0  0  0
 18 19  1  0  0  0
 19 20  1  0  0  0
 19 23  1  0  0  0
 20 21  2  0  0  0
 20 22  1  0  0  0
 23 24  1  0  0  0
  1 25  1  0  0  0
  1 26  1  0  0  0
  4 27  1  0  0  0
  6 28  1  0  0  0
  8 29  1  0  0  0
  8 30  1  0  0  0
  9 31  1  0  0  0
  9 32  1  0  0  0
 10 33  1  0  0  0
 11 34  1  0  0  0
 12 35  1  0  0  0
 12 36  1  0  0  0
 13 37  1  0  0  0
 13 38  1  0  0  0
 16 39  1  0  0  0
 17 40  1  0  0  0
 17 41  1  0  0  0
 18 42  1  0  0  0
 18 43  1  0  0  0
 19 44  1  0  0  0
 22 45  1  0  0  0
 23 46  1  0  0  0
 23 47  1  0  0  0
 24 48  1  0  0  0
 24 49  1  0  0  0
M  END
$$$$
