3b2w_ligand
  -I-interpret- 

 75 79  0  0  0  0  0  0  0  0999 V2000
   19.7580    3.5410   19.8200 C   0  0  0  0  0
   17.9380    1.4070   16.4560 C   0  0  0  0  0
   20.9130    4.8100   18.1490 C   0  0  0  0  0
   14.7510   -5.7290   14.2800 N   0  0  0  0  0
    7.6060   -8.7440   11.3190 C   0  0  0  0  0
    6.5610   -8.8180   10.3370 C   0  0  0  0  0
    6.9020   -8.7700    8.9420 C   0  0  0  0  0
    8.2740   -8.6490    8.5090 C   0  0  0  0  0
    9.2810   -8.5820    9.5520 C   0  0  0  0  0
   12.8290   -6.6190   13.1900 C   0  0  0  0  0
   13.9260   -6.7880   14.0710 C   0  0  0  0  0
    8.6800   -8.5810    7.0250 C   0  0  0  0  0
   14.1540   -8.0490   14.7320 C   0  0  0  0  0
   15.3390   -8.1580   15.6400 C   0  0  0  0  0
   16.4360   -3.4860   14.7090 C   0  0  0  0  0
   18.3240   -2.3820   14.0540 C   0  0  0  0  0
   15.2130   -2.5220   16.4890 C   0  0  0  0  0
   13.2950   -9.2120   14.5530 C   0  0  0  0  0
   11.9580   -7.7510   12.9840 C   0  0  0  0  0
   15.8140   -5.5530   13.4730 C   0  0  0  0  0
   20.4920    1.4520   16.0360 C   0  0  0  0  0
   19.0780   -0.2210   14.9330 C   0  0  0  0  0
   12.1750   -9.0510   13.6580 C   0  0  0  0  0
   10.8430   -7.5340   12.0170 C   0  0  0  0  0
    9.9160   -8.5310   11.9460 N   0  0  0  0  0
    8.9790   -8.6240   10.9480 C   0  0  0  0  0
    7.6230   -8.7210    6.2490 F   0  0  0  0  0
    9.5020   -9.6040    6.7670 F   0  0  0  0  0
    9.2900   -7.3990    6.7540 F   0  0  0  0  0
   18.6700   -3.3050   13.1440 N   0  0  0  0  0
   17.8930   -4.3660   12.9690 C   0  0  0  0  0
   16.7150   -4.4750   13.7660 C   0  0  0  0  0
   17.2330   -2.4520   14.8440 N   0  0  0  0  0
   19.1220   -1.3010   14.0840 N   0  0  0  0  0
   10.5520   -8.4690    9.2270 F   0  0  0  0  0
   16.0150   -6.2550   12.5000 O   0  0  0  0  0
   10.7770   -6.5320   11.3110 O   0  0  0  0  0
   15.3690   -3.5760   15.5370 O   0  0  0  0  0
   17.8560    0.3060   15.5740 C   0  0  0  0  0
   19.2670    1.9490   16.6610 C   0  0  0  0  0
   20.3850    0.3380   15.1480 C   0  0  0  0  0
   19.9790    4.9220   19.3120 N   0  3  0  0  0
   20.0920    4.2150   17.0130 C   0  0  0  0  0
   19.3620    3.0120   17.4910 N   0  0  0  0  0
   18.7520    2.9650   18.8430 C   0  0  0  0  0
   19.3989    3.5255   20.8490 H   0  0  0  0  0
   20.6785    2.9590   19.8655 H   0  0  0  0  0
   17.0594    1.8218   16.9500 H   0  0  0  0  0
   21.7712    4.1823   18.3888 H   0  0  0  0  0
   21.3231    5.7820   17.8749 H   0  0  0  0  0
   14.5669   -5.0743   15.0402 H   0  0  0  0  0
    7.3436   -8.7805   12.3763 H   0  0  0  0  0
    5.5199   -8.9096   10.6466 H   0  0  0  0  0
    6.1093   -8.8260    8.1960 H   0  0  0  0  0
   12.6497   -5.6690   12.6865 H   0  0  0  0  0
   16.2491   -7.9646   15.0723 H   0  0  0  0  0
   15.2481   -7.4269   16.4433 H   0  0  0  0  0
   15.3797   -9.1616   16.0633 H   0  0  0  0  0
   16.0906   -2.4842   17.1344 H   0  0  0  0  0
   15.1054   -1.5729   15.9639 H   0  0  0  0  0
   14.3244   -2.7077   17.0923 H   0  0  0  0  0
   13.4881  -10.1532   15.0677 H   0  0  0  0  0
   21.4563    1.9168   16.2412 H   0  0  0  0  0
   11.4925   -9.8818   13.4791 H   0  0  0  0  0
    9.9191   -9.2459   12.6735 H   0  0  0  0  0
   18.1475   -5.1326   12.2371 H   0  0  0  0  0
   19.8608   -1.2791   13.3811 H   0  0  0  0  0
   16.8902   -0.1548   15.3665 H   0  0  0  0  0
   21.2634   -0.0737   14.6510 H   0  0  0  0  0
   20.3753    5.5171   20.0395 H   0  0  0  0  0
   19.0973    5.3500   19.0293 H   0  0  0  0  0
   20.7587    3.9305   16.1989 H   0  0  0  0  0
   19.3730    4.9559   16.6633 H   0  0  0  0  0
   17.8281    3.5430   18.8636 H   0  0  0  0  0
   18.5046    1.9384   19.1130 H   0  0  0  0  0
 42  1  1  0  0  0
  1 45  1  0  0  0
  2 39  4  0  0  0
 40  2  4  0  0  0
  3 42  1  0  0  0
 43  3  1  0  0  0
  4 11  1  0  0  0
 20  4  1  0  0  0
  5  6  4  0  0  0
 26  5  4  0  0  0
  6  7  4  0  0  0
  8  7  4  0  0  0
  9  8  4  0  0  0
  8 12  1  0  0  0
 26  9  4  0  0  0
  9 35  1  0  0  0
 11 10  4  0  0  0
 10 19  4  0  0  0
 11 13  4  0  0  0
 12 27  1  0  0  0
 12 28  1  0  0  0
 12 29  1  0  0  0
 13 14  1  0  0  0
 13 18  4  0  0  0
 15 32  4  0  0  0
 33 15  4  0  0  0
 15 38  1  0  0  0
 16 30  4  0  0  0
 16 33  4  0  0  0
 34 16  1  0  0  0
 38 17  1  0  0  0
 18 23  4  0  0  0
 19 23  4  0  0  0
 19 24  1  0  0  0
 32 20  1  0  0  0
 20 36  2  0  0  0
 40 21  4  0  0  0
 21 41  4  0  0  0
 22 34  1  0  0  0
 39 22  4  0  0  0
 41 22  4  0  0  0
 24 25  1  0  0  0
 24 37  2  0  0  0
 25 26  1  0  0  0
 30 31  4  0  0  0
 31 32  4  0  0  0
 44 40  1  0  0  0
 43 44  1  0  0  0
 44 45  1  0  0  0
  1 46  1  0  0  0
  1 47  1  0  0  0
  2 48  1  0  0  0
  3 49  1  0  0  0
  3 50  1  0  0  0
  4 51  1  0  0  0
  5 52  1  0  0  0
  6 53  1  0  0  0
  7 54  1  0  0  0
 10 55  1  0  0  0
 14 56  1  0  0  0
 14 57  1  0  0  0
 14 58  1  0  0  0
 17 59  1  0  0  0
 17 60  1  0  0  0
 17 61  1  0  0  0
 18 62  1  0  0  0
 21 63  1  0  0  0
 23 64  1  0  0  0
 25 65  1  0  0  0
 31 66  1  0  0  0
 34 67  1  0  0  0
 39 68  1  0  0  0
 41 69  1  0  0  0
 42 70  1  0  0  0
 42 71  1  0  0  0
 43 72  1  0  0  0
 43 73  1  0  0  0
 45 74  1  0  0  0
 45 75  1  0  0  0
M  END
$$$$
