4rx7_ligand
  -I-interpret- 

 52 55  0  0  0  0  0  0  0  0999 V2000
    1.3570    4.4500   10.8530 C   0  0  0  0  0
    1.5020    3.7750   12.2200 C   0  0  0  0  0
    3.4070    2.7040   13.3730 C   0  0  0  0  0
    2.8780    3.7260   12.6720 N   0  0  0  0  0
    4.4520    0.7630   14.8460 C   0  0  0  0  0
    5.1000   -0.2870   15.7220 C   0  0  0  0  0
    4.6760    2.8460   13.7920 N   0  0  0  0  0
    3.1170    0.6480   14.3540 C   0  0  0  0  0
    1.0050   -0.7670   14.4150 C   0  0  0  0  0
    0.5230   -1.8870   15.0870 C   0  0  0  0  0
   -0.8090   -2.2460   14.9650 C   0  0  0  0  0
    5.1900    1.8600   14.5510 N   0  0  0  0  0
   -1.6760   -1.4880   14.1970 C   0  0  0  0  0
   -1.2030   -0.3640   13.5110 C   0  0  0  0  0
    0.1450   -0.0080   13.6260 C   0  0  0  0  0
    6.3820   -0.1090   15.9930 N   0  0  0  0  0
    4.4530   -1.2530   16.1380 O   0  0  0  0  0
    2.5990    1.6510   13.6220 N   0  0  0  0  0
   -0.1070    4.5950   10.4410 C   0  0  0  0  0
   -0.9390    5.2710   11.5320 C   0  0  0  0  0
   -0.8240    4.5400   12.8710 C   0  0  0  0  0
    0.6160    4.4540   13.3580 C   0  0  0  0  0
    1.1250    5.7990   13.6980 N   0  3  0  0  0
    2.3530   -0.4530   14.6520 N   0  0  0  0  0
   -2.1270    0.4600   12.8010 N   0  0  0  0  0
   -1.7860    1.3820   11.9010 N   0  0  0  0  0
   -2.9220    1.9020   11.4550 C   0  0  0  0  0
   -4.0040    1.2130   12.1370 C   0  0  0  0  0
   -3.4500    0.3230   12.9500 N   0  0  0  0  0
    1.8609    3.8306   10.1110 H   0  0  0  0  0
    1.7944    5.4464   10.9160 H   0  0  0  0  0
    1.1378    2.7605   12.0578 H   0  0  0  0  0
    3.4840    4.5145   12.4453 H   0  0  0  0  0
    1.1933   -2.4807   15.7085 H   0  0  0  0  0
   -1.1781   -3.1338   15.4786 H   0  0  0  0  0
   -2.7274   -1.7668   14.1266 H   0  0  0  0  0
    0.5231    0.8663   13.0962 H   0  0  0  0  0
    6.8803   -0.7869   16.5697 H   0  0  0  0  0
    6.8726    0.7062   15.6254 H   0  0  0  0  0
   -0.5144    3.5991   10.2667 H   0  0  0  0  0
   -0.1512    5.2126    9.5439 H   0  0  0  0  0
   -1.9843    5.2570   11.2232 H   0  0  0  0  0
   -0.5686    6.2876   11.6643 H   0  0  0  0  0
   -1.1974    3.5249   12.7362 H   0  0  0  0  0
   -1.3995    5.0959   13.6112 H   0  0  0  0  0
    0.6672    3.8462   14.2614 H   0  0  0  0  0
    2.0893    5.7244   14.0220 H   0  0  0  0  0
    1.0882    6.3943   12.8706 H   0  0  0  0  0
    0.5476    6.2034   14.4352 H   0  0  0  0  0
    2.8649   -1.1869   15.1416 H   0  0  0  0  0
   -3.0243    2.6966   10.7160 H   0  0  0  0  0
   -5.0709    1.3934   12.0054 H   0  0  0  0  0
  2  1  1  0  0  0
  1 19  1  0  0  0
  4  2  1  0  0  0
  2 22  1  0  0  0
  3  4  1  0  0  0
  3  7  4  0  0  0
 18  3  4  0  0  0
  5  6  1  0  0  0
  8  5  4  0  0  0
  5 12  4  0  0  0
  6 16  1  0  0  0
  6 17  2  0  0  0
 12  7  4  0  0  0
  8 18  4  0  0  0
 24  8  1  0  0  0
  9 10  4  0  0  0
  9 15  4  0  0  0
  9 24  1  0  0  0
 10 11  4  0  0  0
 11 13  4  0  0  0
 13 14  4  0  0  0
 14 15  4  0  0  0
 14 25  1  0  0  0
 19 20  1  0  0  0
 20 21  1  0  0  0
 21 22  1  0  0  0
 22 23  1  0  0  0
 25 26  4  0  0  0
 25 29  4  0  0  0
 26 27  4  0  0  0
 27 28  4  0  0  0
 28 29  4  0  0  0
  1 30  1  0  0  0
  1 31  1  0  0  0
  2 32  1  0  0  0
  4 33  1  0  0  0
 10 34  1  0  0  0
 11 35  1  0  0  0
 13 36  1  0  0  0
 15 37  1  0  0  0
 16 38  1  0  0  0
 16 39  1  0  0  0
 19 40  1  0  0  0
 19 41  1  0  0  0
 20 42  1  0  0  0
 20 43  1  0  0  0
 21 44  1  0  0  0
 21 45  1  0  0  0
 22 46  1  0  0  0
 23 47  1  0  0  0
 23 48  1  0  0  0
 23 49  1  0  0  0
 24 50  1  0  0  0
 27 51  1  0  0  0
 28 52  1  0  0  0
M  END
$$$$
