6ugo_ligand
  -I-interpret- 

 25 26  0  0  0  0  0  0  0  0999 V2000
  -26.7810    6.9680   15.8680 C   0  0  0  0  0
  -23.2340    4.1560   13.8170 C   0  0  0  0  0
  -26.2280    5.5710   15.6200 C   0  0  0  0  0
  -25.0590    5.5190   14.8730 C   0  0  0  0  0
  -24.5110    4.2960   14.6370 C   0  0  0  0  0
  -25.1150    3.1520   15.1730 C   0  0  0  0  0
  -26.2760    3.1530   15.9140 C   0  0  0  0  0
  -26.8520    4.4120   16.1370 C   0  0  0  0  0
  -25.0140    0.5030   15.2620 C   0  0  0  0  0
  -24.4000    1.8330   14.8330 N   0  0  0  0  0
  -26.2480    0.4690   16.0130 N   0  0  0  0  0
  -24.4760   -0.4790   14.9380 O   0  0  0  0  0
  -28.3090    1.7210   16.6890 O   0  0  0  0  0
  -26.2780    1.6430   17.9750 O   0  0  0  0  0
  -26.8560    1.7720   16.6360 S   0  0  0  0  0
  -26.0417    7.5594   16.4081 H   0  0  0  0  0
  -27.0022    7.4446   14.9130 H   0  0  0  0  0
  -27.6936    6.8964   16.4598 H   0  0  0  0  0
  -23.3994    4.5588   12.8178 H   0  0  0  0  0
  -22.4291    4.7069   14.3036 H   0  0  0  0  0
  -22.9634    3.1026   13.7453 H   0  0  0  0  0
  -24.5956    6.4275   14.4884 H   0  0  0  0  0
  -27.7773    4.4970   16.7068 H   0  0  0  0  0
  -23.5174    1.8472   14.3219 H   0  0  0  0  0
  -26.7323   -0.4197   16.1400 H   0  0  0  0  0
  3  1  1  0  0  0
  5  2  1  0  0  0
  4  3  4  0  0  0
  3  8  4  0  0  0
  4  5  4  0  0  0
  5  6  4  0  0  0
  6  7  4  0  0  0
  6 10  1  0  0  0
  7  8  4  0  0  0
  7 15  1  0  0  0
 10  9  1  0  0  0
  9 11  1  0  0  0
  9 12  2  0  0  0
 11 15  1  0  0  0
 15 13  2  0  0  0
 15 14  2  0  0  0
  1 16  1  0  0  0
  1 17  1  0  0  0
  1 18  1  0  0  0
  2 19  1  0  0  0
  2 20  1  0  0  0
  2 21  1  0  0  0
  4 22  1  0  0  0
  8 23  1  0  0  0
 10 24  1  0  0  0
 11 25  1  0  0  0
M  END
$$$$
