5c11_ligand
  -I-interpret- 

123122  0  0  0  0  0  0  0  0999 V2000
  -36.4090  -24.1970    0.9910 N   0  3  0  0  0
  -37.5430  -24.7090    1.7520 C   0  0  0  0  0
  -38.5070  -25.4710    0.8520 C   0  0  0  0  0
  -38.1490  -25.8750   -0.2530 O   0  0  0  0  0
  -38.2630  -23.5780    2.4490 C   0  0  0  0  0
  -39.7300  -25.6680    1.3340 N   0  0  0  0  0
  -40.7710  -26.3220    0.5510 C   0  0  0  0  0
  -41.2720  -25.3980   -0.5520 C   0  0  0  0  0
  -41.7660  -24.3040   -0.2810 O   0  0  0  0  0
  -41.9330  -26.7410    1.4500 C   0  0  0  0  0
  -41.6420  -27.9330    2.3460 C   0  0  0  0  0
  -42.6350  -28.0020    3.4940 C   0  0  0  0  0
  -42.4050  -26.9380    4.4670 N   0  0  0  0  0
  -43.2140  -26.6670    5.4840 C   0  0  0  0  0
  -44.3170  -27.3770    5.6620 N   0  0  0  0  0
  -42.9240  -25.6820    6.3210 N   0  0  0  0  0
  -41.1410  -25.8380   -1.7980 N   0  0  0  0  0
  -41.6040  -25.0420   -2.9280 C   0  0  0  0  0
  -42.7560  -25.7280   -3.6530 C   0  0  0  0  0
  -43.0810  -26.8840   -3.3660 O   0  0  0  0  0
  -40.4710  -24.7680   -3.9320 C   0  0  0  0  0
  -40.1610  -25.9680   -4.6490 O   0  0  0  0  0
  -39.2280  -24.2780   -3.2150 C   0  0  0  0  0
  -43.3760  -25.0070   -4.5820 N   0  0  0  0  0
  -44.5030  -25.5130   -5.2830 C   0  0  0  0  0
  -45.7200  -25.3000   -4.4150 C   0  0  0  0  0
  -47.0070  -25.7800   -5.0550 C   0  0  0  0  0
  -48.1720  -25.7360   -4.0850 C   0  0  0  0  0
  -48.5900  -24.3160   -3.7620 C   0  0  0  0  0
  -49.9120  -24.2590   -3.0280 C   0  0  0  0  0
  -51.0140  -24.7950   -3.9130 C   0  0  0  0  0
  -49.8330  -25.0880   -1.7650 C   0  0  0  0  0
  -50.2140  -22.8220   -2.6700 C   0  0  0  0  0
  -44.6720  -24.7350   -6.5670 C   0  0  0  0  0
  -44.3800  -23.5530   -6.6080 O   0  0  0  0  0
  -45.1330  -25.4050   -7.6200 N   0  0  0  0  0
  -45.4280  -24.7260   -8.8790 C   0  0  0  0  0
  -46.8690  -24.9880   -9.3090 C   0  0  0  0  0
  -47.2840  -26.1390   -9.4650 O   0  0  0  0  0
  -44.4650  -25.1640   -9.9850 C   0  0  0  0  0
  -44.5990  -24.3310  -11.2560 C   0  0  0  0  0
  -43.6040  -24.7170  -12.3310 C   0  0  0  0  0
  -43.9340  -25.4520  -13.2600 O   0  0  0  0  0
  -42.3830  -24.2130  -12.2170 N   0  0  0  0  0
  -47.6270  -23.9150   -9.5020 N   0  0  0  0  0
  -49.0290  -24.0350   -9.8730 C   0  0  0  0  0
  -49.2560  -23.6570  -11.3300 C   0  0  0  0  0
  -48.8480  -22.5880  -11.7770 O   0  0  0  0  0
  -49.9160  -23.1590   -8.9720 C   0  0  0  0  0
  -50.1350  -23.8300   -7.7260 O   0  0  0  0  0
  -51.2570  -22.8900   -9.6190 C   0  0  0  0  0
  -49.9090  -24.5490  -12.0670 N   0  0  0  0  0
  -50.2400  -24.3080  -13.4670 C   0  0  0  0  0
  -51.7450  -24.4060  -13.6870 C   0  0  0  0  0
  -52.5060  -23.5700  -13.2020 O   0  0  0  0  0
  -49.5080  -25.2900  -14.3650 C   0  0  0  0  0
  -52.2240  -25.3230  -14.3530 O   0  0  0  0  0
  -35.9345  -24.9718    0.5274 H   0  0  0  0  0
  -36.7422  -23.5334    0.2917 H   0  0  0  0  0
  -35.7600  -23.7290    1.6236 H   0  0  0  0  0
  -37.1603  -25.4000    2.5031 H   0  0  0  0  0
  -38.6717  -22.8953    1.7040 H   0  0  0  0  0
  -39.0730  -23.9835    3.0552 H   0  0  0  0  0
  -37.5618  -23.0422    3.0888 H   0  0  0  0  0
  -39.9463  -25.3523    2.2795 H   0  0  0  0  0
  -40.3427  -27.2133    0.0925 H   0  0  0  0  0
  -42.7545  -27.0292    0.7942 H   0  0  0  0  0
  -42.1493  -25.8966    2.1044 H   0  0  0  0  0
  -40.6378  -27.8267    2.7564 H   0  0  0  0  0
  -41.7250  -28.8450    1.7548 H   0  0  0  0  0
  -42.5141  -28.9613    3.9972 H   0  0  0  0  0
  -43.6399  -27.8865    3.0880 H   0  0  0  0  0
  -41.5679  -26.3654    4.3582 H   0  0  0  0  0
  -44.5462  -28.1334    5.0173 H   0  0  0  0  0
  -43.5496  -25.4731    7.0991 H   0  0  0  0  0
  -42.0751  -25.1325    6.1874 H   0  0  0  0  0
  -40.7098  -26.7468   -1.9670 H   0  0  0  0  0
  -41.9501  -24.0930   -2.5184 H   0  0  0  0  0
  -40.8044  -23.9972   -4.6268 H   0  0  0  0  0
  -39.4538  -25.7923   -5.2740 H   0  0  0  0  0
  -39.4578  -23.3558   -2.6812 H   0  0  0  0  0
  -38.8962  -25.0366   -2.5061 H   0  0  0  0  0
  -38.4397  -24.0905   -3.9441 H   0  0  0  0  0
  -43.0349  -24.0699   -4.7961 H   0  0  0  0  0
  -44.3730  -26.5709   -5.5113 H   0  0  0  0  0
  -45.8180  -24.2280   -4.2439 H   0  0  0  0  0
  -45.5748  -25.8730   -3.4992 H   0  0  0  0  0
  -46.8659  -26.8130   -5.3729 H   0  0  0  0  0
  -47.2365  -25.1239   -5.8946 H   0  0  0  0  0
  -47.8617  -26.2186   -3.1582 H   0  0  0  0  0
  -49.0189  -26.2434   -4.5470 H   0  0  0  0  0
  -48.7013  -23.7744   -4.7014 H   0  0  0  0  0
  -47.8271  -23.8770   -3.1190 H   0  0  0  0  0
  -51.0777  -24.1908   -4.8180 H   0  0  0  0  0
  -50.7938  -25.8287   -4.1795 H   0  0  0  0  0
  -51.9623  -24.7506   -3.3774 H   0  0  0  0  0
  -49.6084  -26.1226   -2.0244 H   0  0  0  0  0
  -49.0458  -24.6942   -1.1221 H   0  0  0  0  0
  -50.7881  -25.0424   -1.2417 H   0  0  0  0  0
  -49.4209  -22.4337   -2.0310 H   0  0  0  0  0
  -50.2726  -22.2265   -3.5811 H   0  0  0  0  0
  -51.1656  -22.7731   -2.1406 H   0  0  0  0  0
  -45.2831  -26.4112   -7.5467 H   0  0  0  0  0
  -45.2972  -23.6565   -8.7140 H   0  0  0  0  0
  -44.6992  -26.1978  -10.2391 H   0  0  0  0  0
  -43.4493  -25.0373   -9.6104 H   0  0  0  0  0
  -44.4108  -23.2908  -10.9902 H   0  0  0  0  0
  -45.5989  -24.4983  -11.6564 H   0  0  0  0  0
  -41.6738  -24.4311  -12.9170 H   0  0  0  0  0
  -42.1528  -23.6072  -11.4293 H   0  0  0  0  0
  -47.2181  -22.9875   -9.3879 H   0  0  0  0  0
  -49.3050  -25.0808   -9.7378 H   0  0  0  0  0
  -49.4053  -22.2091   -8.8138 H   0  0  0  0  0
  -50.6885  -23.2841   -7.1628 H   0  0  0  0  0
  -51.1047  -22.3728  -10.5663 H   0  0  0  0  0
  -51.7688  -23.8356   -9.7980 H   0  0  0  0  0
  -51.8602  -22.2685   -8.9572 H   0  0  0  0  0
  -50.1882  -25.4320  -11.6395 H   0  0  0  0  0
  -49.9192  -23.2988  -13.7252 H   0  0  0  0  0
  -48.4329  -25.1720  -14.2300 H   0  0  0  0  0
  -49.7990  -26.3071  -14.1023 H   0  0  0  0  0
  -49.7686  -25.0932  -15.4049 H   0  0  0  0  0
  -51.5176  -25.8934  -14.6648 H   0  0  0  0  0
  1  2  1  0  0  0
  2  3  1  0  0  0
  2  5  1  0  0  0
  3  4  2  0  0  0
  3  6  1  0  0  0
  6  7  1  0  0  0
  7  8  1  0  0  0
  7 10  1  0  0  0
  8  9  2  0  0  0
  8 17  1  0  0  0
 10 11  1  0  0  0
 11 12  1  0  0  0
 12 13  1  0  0  0
 13 14  1  0  0  0
 14 15  2  0  0  0
 14 16  1  0  0  0
 17 18  1  0  0  0
 18 19  1  0  0  0
 18 21  1  0  0  0
 19 20  2  0  0  0
 19 24  1  0  0  0
 21 22  1  0  0  0
 21 23  1  0  0  0
 24 25  1  0  0  0
 25 26  1  0  0  0
 25 34  1  0  0  0
 26 27  1  0  0  0
 27 28  1  0  0  0
 28 29  1  0  0  0
 29 30  1  0  0  0
 30 31  1  0  0  0
 30 32  1  0  0  0
 30 33  1  0  0  0
 34 35  2  0  0  0
 34 36  1  0  0  0
 36 37  1  0  0  0
 37 38  1  0  0  0
 37 40  1  0  0  0
 38 39  2  0  0  0
 38 45  1  0  0  0
 40 41  1  0  0  0
 41 42  1  0  0  0
 42 43  2  0  0  0
 42 44  1  0  0  0
 45 46  1  0  0  0
 46 47  1  0  0  0
 46 49  1  0  0  0
 47 48  2  0  0  0
 47 52  1  0  0  0
 49 50  1  0  0  0
 49 51  1  0  0  0
 52 53  1  0  0  0
 53 54  1  0  0  0
 53 56  1  0  0  0
 54 55  2  0  0  0
 54 57  1  0  0  0
  1 58  1  0  0  0
  1 59  1  0  0  0
  1 60  1  0  0  0
  2 61  1  0  0  0
  5 62  1  0  0  0
  5 63  1  0  0  0
  5 64  1  0  0  0
  6 65  1  0  0  0
  7 66  1  0  0  0
 10 67  1  0  0  0
 10 68  1  0  0  0
 11 69  1  0  0  0
 11 70  1  0  0  0
 12 71  1  0  0  0
 12 72  1  0  0  0
 13 73  1  0  0  0
 15 74  1  0  0  0
 16 75  1  0  0  0
 16 76  1  0  0  0
 17 77  1  0  0  0
 18 78  1  0  0  0
 21 79  1  0  0  0
 22 80  1  0  0  0
 23 81  1  0  0  0
 23 82  1  0  0  0
 23 83  1  0  0  0
 24 84  1  0  0  0
 25 85  1  0  0  0
 26 86  1  0  0  0
 26 87  1  0  0  0
 27 88  1  0  0  0
 27 89  1  0  0  0
 28 90  1  0  0  0
 28 91  1  0  0  0
 29 92  1  0  0  0
 29 93  1  0  0  0
 31 94  1  0  0  0
 31 95  1  0  0  0
 31 96  1  0  0  0
 32 97  1  0  0  0
 32 98  1  0  0  0
 32 99  1  0  0  0
 33100  1  0  0  0
 33101  1  0  0  0
 33102  1  0  0  0
 36103  1  0  0  0
 37104  1  0  0  0
 40105  1  0  0  0
 40106  1  0  0  0
 41107  1  0  0  0
 41108  1  0  0  0
 44109  1  0  0  0
 44110  1  0  0  0
 45111  1  0  0  0
 46112  1  0  0  0
 49113  1  0  0  0
 50114  1  0  0  0
 51115  1  0  0  0
 51116  1  0  0  0
 51117  1  0  0  0
 52118  1  0  0  0
 53119  1  0  0  0
 56120  1  0  0  0
 56121  1  0  0  0
 56122  1  0  0  0
 57123  1  0  0  0
M  END
$$$$
