### 
### Created by X-TOOL on Mon Sep 10 21:13:25 2018
### 

@<TRIPOS>MOLECULE
5c11_ligand
  123   122     1     0     0
SMALL
GAST_HUCK


@<TRIPOS>ATOM
      1 N         -36.4090  -24.1970    0.9910 N.4       1 ALA         0.2377
      2 CA        -37.5430  -24.7090    1.7520 C.3       1 ALA         0.0621
      3 C         -38.5070  -25.4710    0.8520 C.2       1 ALA         0.2264
      4 O         -38.1490  -25.8750   -0.2530 O.2       1 ALA        -0.3907
      5 CB        -38.2630  -23.5780    2.4490 C.3       1 ALA        -0.0040
      6 N         -39.7300  -25.6680    1.3340 N.am      1 ARG        -0.2610
      7 CA        -40.7710  -26.3220    0.5510 C.3       1 ARG         0.1312
      8 C         -41.2720  -25.3980   -0.5520 C.2       1 ARG         0.2040
      9 O         -41.7660  -24.3040   -0.2810 O.2       1 ARG        -0.3944
     10 CB        -41.9330  -26.7410    1.4500 C.3       1 ARG        -0.0092
     11 CG        -41.6420  -27.9330    2.3460 C.3       1 ARG        -0.0156
     12 CD        -42.6350  -28.0020    3.4940 C.3       1 ARG         0.0627
     13 NE        -42.4050  -26.9380    4.4670 N.pl3     1 ARG        -0.2723
     14 CZ        -43.2140  -26.6670    5.4840 C.cat     1 ARG         0.2882
     15 NH1       -44.3170  -27.3770    5.6620 N.pl3     1 ARG        -0.2849
     16 NH2       -42.9240  -25.6820    6.3210 N.pl3     1 ARG        -0.2849
     17 N         -41.1410  -25.8380   -1.7980 N.am      1 THR        -0.2613
     18 CA        -41.6040  -25.0420   -2.9280 C.3       1 THR         0.1565
     19 C         -42.7560  -25.7280   -3.6530 C.2       1 THR         0.2065
     20 O         -43.0810  -26.8840   -3.3660 O.2       1 THR        -0.3943
     21 CB        -40.4710  -24.7680   -3.9320 C.3       1 THR         0.0924
     22 OG1       -40.1610  -25.9680   -4.6490 O.3       1 THR        -0.3874
     23 CG2       -39.2280  -24.2780   -3.2150 C.3       1 THR        -0.0346
     24 N         -43.3760  -25.0070   -4.5820 N.am      1 4WQ        -0.2637
     25 CA        -44.5030  -25.5130   -5.2830 C.3       1 4WQ         0.1310
     26 CB        -45.7200  -25.3000   -4.4150 C.3       1 4WQ        -0.0124
     27 CG        -47.0070  -25.7800   -5.0550 C.3       1 4WQ        -0.0488
     28 CD        -48.1720  -25.7360   -4.0850 C.3       1 4WQ        -0.0524
     29 CE        -48.5900  -24.3160   -3.7620 C.3       1 4WQ        -0.0481
     30 CZ        -49.9120  -24.2590   -3.0280 C.3       1 4WQ        -0.0377
     31 CM3       -51.0140  -24.7950   -3.9130 C.3       1 4WQ        -0.0601
     32 CM2       -49.8330  -25.0880   -1.7650 C.3       1 4WQ        -0.0601
     33 CM1       -50.2140  -22.8220   -2.6700 C.3       1 4WQ        -0.0601
     34 C         -44.6720  -24.7350   -6.5670 C.2       1 4WQ         0.2039
     35 O         -44.3800  -23.5530   -6.6080 O.2       1 4WQ        -0.3944
     36 N         -45.1330  -25.4050   -7.6200 N.am      1 GLN        -0.2636
     37 CA        -45.4280  -24.7260   -8.8790 C.3       1 GLN         0.1330
     38 C         -46.8690  -24.9880   -9.3090 C.2       1 GLN         0.2041
     39 O         -47.2840  -26.1390   -9.4650 O.2       1 GLN        -0.3944
     40 CB        -44.4650  -25.1640   -9.9850 C.3       1 GLN         0.0045
     41 CG        -44.5990  -24.3310  -11.2560 C.3       1 GLN         0.0412
     42 CD        -43.6040  -24.7170  -12.3310 C.2       1 GLN         0.1737
     43 OE1       -43.9340  -25.4520  -13.2600 O.2       1 GLN        -0.3973
     44 NE2       -42.3830  -24.2130  -12.2170 N.am      1 GLN        -0.3009
     45 N         -47.6270  -23.9150   -9.5020 N.am      1 THR        -0.2613
     46 CA        -49.0290  -24.0350   -9.8730 C.3       1 THR         0.1564
     47 C         -49.2560  -23.6570  -11.3300 C.2       1 THR         0.2059
     48 O         -48.8480  -22.5880  -11.7770 O.2       1 THR        -0.3943
     49 CB        -49.9160  -23.1590   -8.9720 C.3       1 THR         0.0924
     50 OG1       -50.1350  -23.8300   -7.7260 O.3       1 THR        -0.3874
     51 CG2       -51.2570  -22.8900   -9.6190 C.3       1 THR        -0.0346
     52 N         -49.9090  -24.5490  -12.0670 N.am      1 ALA        -0.2697
     53 CA        -50.2400  -24.3080  -13.4670 C.3       1 ALA         0.0916
     54 C         -51.7450  -24.4060  -13.6870 C.2       1 ALA         0.0598
     55 O         -52.5060  -23.5700  -13.2020 O.co2     1 ALA        -0.5666
     56 CB        -49.5080  -25.2900  -14.3650 C.3       1 ALA        -0.0300
     57 OXT       -52.2240  -25.3230  -14.3530 O.co2     1 ALA        -0.5666
     58 H1        -35.7878  -23.6981    1.6084 H         1 ALA         0.2015
     59 H2        -36.7409  -23.5731    0.2722 H         1 ALA         0.2015
     60 H3        -35.9145  -24.9660    0.5665 H         1 ALA         0.2015
     61 H4        -37.1615  -25.4024    2.5160 H         1 ALA         0.1095
     62 H5        -39.1143  -23.9805    3.0176 H         1 ALA         0.0310
     63 H6        -38.6288  -22.8597    1.7005 H         1 ALA         0.0310
     64 H7        -37.5701  -23.0705    3.1363 H         1 ALA         0.0310
     65 H8        -39.9421  -25.3585    2.2609 H         1 ARG         0.1884
     66 H9        -40.3441  -27.2231    0.0866 H         1 ARG         0.0800
     67 H10       -42.7891  -26.9955    0.8079 H         1 ARG         0.0313
     68 H11       -42.1964  -25.8866    2.0907 H         1 ARG         0.0313
     69 H12       -40.6252  -27.8371    2.7544 H         1 ARG         0.0301
     70 H13       -41.7131  -28.8561    1.7521 H         1 ARG         0.0301
     71 H14       -42.5320  -28.9746    3.9974 H         1 ARG         0.0689
     72 H15       -43.6539  -27.9036    3.0913 H         1 ARG         0.0689
     73 H16       -41.5597  -26.3598    4.3571 H         1 ARG         0.2642
     74 H17       -44.9438  -27.1656    6.4515 H         1 ARG         0.2615
     75 H18       -44.5485  -28.1409    5.0110 H         1 ARG         0.2615
     76 H19       -42.0668  -25.1271    6.1861 H         1 ARG         0.2615
     77 H20       -43.5557  -25.4710    7.1067 H         1 ARG         0.2615
     78 H21       -40.7183  -26.7290   -1.9637 H         1 THR         0.1884
     79 H22       -41.9627  -24.0778   -2.5386 H         1 THR         0.0826
     80 H23       -40.8024  -23.9968   -4.6429 H         1 THR         0.0639
     81 H24       -39.4612  -25.7942   -5.2676 H         1 THR         0.2101
     82 H25       -38.4316  -24.0884   -3.9498 H         1 THR         0.0257
     83 H26       -38.8920  -25.0428   -2.4993 H         1 THR         0.0257
     84 H27       -39.4585  -23.3473   -2.6759 H         1 THR         0.0257
     85 H28       -43.0416  -24.0882   -4.7919 H         1 4WQ         0.1883
     86 H29       -44.3704  -26.5828   -5.5021 H         1 4WQ         0.0800
     87 H30       -45.8149  -24.2243   -4.2054 H         1 4WQ         0.0312
     88 H31       -45.5751  -25.8461   -3.4712 H         1 4WQ         0.0312
     89 H32       -46.8688  -26.8160   -5.3979 H         1 4WQ         0.0267
     90 H33       -47.2373  -25.1362   -5.9167 H         1 4WQ         0.0267
     91 H34       -47.8768  -26.2398   -3.1528 H         1 4WQ         0.0266
     92 H35       -49.0267  -26.2644   -4.5326 H         1 4WQ         0.0266
     93 H36       -48.6828  -23.7521   -4.7019 H         1 4WQ         0.0270
     94 H37       -47.8156  -23.8539   -3.1321 H         1 4WQ         0.0270
     95 H38       -51.9716  -24.7507   -3.3736 H         1 4WQ         0.0235
     96 H39       -50.7930  -25.8383   -4.1826 H         1 4WQ         0.0235
     97 H40       -51.0794  -24.1861   -4.8267 H         1 4WQ         0.0235
     98 H41       -49.0312  -24.6986   -1.1204 H         1 4WQ         0.0235
     99 H42       -49.6176  -26.1346   -2.0262 H         1 4WQ         0.0235
    100 H43       -50.7926  -25.0336   -1.2300 H         1 4WQ         0.0235
    101 H44       -50.2714  -22.2196   -3.5886 H         1 4WQ         0.0235
    102 H45       -49.4153  -22.4295   -2.0235 H         1 4WQ         0.0235
    103 H46       -51.1752  -22.7710   -2.1375 H         1 4WQ         0.0235
    104 H47       -45.2802  -26.3915   -7.5481 H         1 GLN         0.1883
    105 H48       -45.3039  -23.6444   -8.7219 H         1 GLN         0.0801
    106 H49       -44.6701  -26.2161  -10.2321 H         1 GLN         0.0337
    107 H50       -43.4350  -25.0693   -9.6108 H         1 GLN         0.0337
    108 H51       -44.4425  -23.2731  -10.9986 H         1 GLN         0.0504
    109 H52       -45.6149  -24.4647  -11.6560 H         1 GLN         0.0504
    110 H53       -41.6852  -24.4341  -12.8983 H         1 GLN         0.1814
    111 H54       -42.1599  -23.6117  -11.4497 H         1 GLN         0.1814
    112 H55       -47.2262  -23.0057   -9.3901 H         1 THR         0.1884
    113 H56       -49.3273  -25.0851   -9.7382 H         1 THR         0.0826
    114 H57       -49.4057  -22.2019   -8.7890 H         1 THR         0.0639
    115 H58       -50.6828  -23.2898   -7.1687 H         1 THR         0.2101
    116 H59       -51.8667  -22.2628   -8.9520 H         1 THR         0.0257
    117 H60       -51.7746  -23.8435   -9.8001 H         1 THR         0.0257
    118 H61       -51.1047  -22.3680  -10.5752 H         1 THR         0.0257
    119 H62       -50.1828  -25.4147  -11.6478 H         1 ALA         0.1875
    120 H63       -49.9164  -23.2899  -13.7294 H         1 ALA         0.0723
    121 H64       -49.7702  -25.0924  -15.4149 H         1 ALA         0.0270
    122 H65       -49.8009  -26.3169  -14.1010 H         1 ALA         0.0270
    123 H66       -48.4228  -25.1719  -14.2297 H         1 ALA         0.0270
@<TRIPOS>BOND
     1    1    2 1  
     2    2    3 1  
     3    2    5 1  
     4    3    4 2  
     5    3    6 am 
     6    6    7 1  
     7    7    8 1  
     8    7   10 1  
     9    8    9 2  
    10    8   17 am 
    11   10   11 1  
    12   11   12 1  
    13   12   13 1  
    14   13   14 ar 
    15   14   15 ar 
    16   14   16 ar 
    17   17   18 1  
    18   18   19 1  
    19   18   21 1  
    20   19   20 2  
    21   19   24 am 
    22   21   22 1  
    23   21   23 1  
    24   24   25 1  
    25   25   26 1  
    26   25   34 1  
    27   26   27 1  
    28   27   28 1  
    29   28   29 1  
    30   29   30 1  
    31   30   31 1  
    32   30   32 1  
    33   30   33 1  
    34   34   35 2  
    35   34   36 am 
    36   36   37 1  
    37   37   38 1  
    38   37   40 1  
    39   38   39 2  
    40   38   45 am 
    41   40   41 1  
    42   41   42 1  
    43   42   43 2  
    44   42   44 am 
    45   45   46 1  
    46   46   47 1  
    47   46   49 1  
    48   47   48 2  
    49   47   52 am 
    50   49   50 1  
    51   49   51 1  
    52   52   53 1  
    53   53   54 1  
    54   53   56 1  
    55   54   55 ar 
    56   54   57 ar 
    57    1   58 1  
    58    1   59 1  
    59    1   60 1  
    60    2   61 1  
    61    5   62 1  
    62    5   63 1  
    63    5   64 1  
    64    6   65 1  
    65    7   66 1  
    66   10   67 1  
    67   10   68 1  
    68   11   69 1  
    69   11   70 1  
    70   12   71 1  
    71   12   72 1  
    72   13   73 1  
    73   15   74 1  
    74   15   75 1  
    75   16   76 1  
    76   16   77 1  
    77   17   78 1  
    78   18   79 1  
    79   21   80 1  
    80   22   81 1  
    81   23   82 1  
    82   23   83 1  
    83   23   84 1  
    84   24   85 1  
    85   25   86 1  
    86   26   87 1  
    87   26   88 1  
    88   27   89 1  
    89   27   90 1  
    90   28   91 1  
    91   28   92 1  
    92   29   93 1  
    93   29   94 1  
    94   31   95 1  
    95   31   96 1  
    96   31   97 1  
    97   32   98 1  
    98   32   99 1  
    99   32  100 1  
   100   33  101 1  
   101   33  102 1  
   102   33  103 1  
   103   36  104 1  
   104   37  105 1  
   105   40  106 1  
   106   40  107 1  
   107   41  108 1  
   108   41  109 1  
   109   44  110 1  
   110   44  111 1  
   111   45  112 1  
   112   46  113 1  
   113   49  114 1  
   114   50  115 1  
   115   51  116 1  
   116   51  117 1  
   117   51  118 1  
   118   52  119 1  
   119   53  120 1  
   120   56  121 1  
   121   56  122 1  
   122   56  123 1  
@<TRIPOS>SUBSTRUCTURE
     1 ALA         1

