1em6_ligand
  -I-interpret- 

 56 59  0  0  0  0  0  0  0  0999 V2000
   -6.1280   35.0740   73.0490 C   0  0  0  0  0
   -4.8670   34.6920   73.5100 C   0  0  0  0  0
   -5.8140   35.7050   71.7150 C   0  0  0  0  0
   -7.3100   34.8440   73.7970 C   0  0  0  0  0
   -3.9470   35.0350   72.5920 N   0  0  0  0  0
   -4.7000   34.0420   74.7690 C   0  0  0  0  0
   -4.4840   35.6220   71.5460 C   0  0  0  0  0
   -7.1730   34.1980   75.0640 C   0  0  0  0  0
   -5.8840   33.8020   75.5470 C   0  0  0  0  0
   -3.6730   36.1100   70.3930 C   0  0  0  0  0
   -8.5880   33.8840   76.0230 Cl  0  0  0  0  0
   -4.2650   36.7460   69.3280 N   0  0  0  0  0
   -2.4520   35.9340   70.4660 O   0  0  0  0  0
   -3.4750   37.3030   68.2180 C   0  0  0  0  0
   -3.6630   36.5930   66.8670 C   0  0  0  0  0
   -3.0110   35.3100   67.0030 O   0  0  0  0  0
   -1.6740   35.2240   66.4440 C   0  0  0  0  0
   -1.4970   33.7590   65.9740 C   0  0  0  0  0
   -2.4980   33.4600   64.9830 O   0  0  0  0  0
   -2.9110   32.0760   64.9520 C   0  0  0  0  0
   -2.2180   31.3660   63.7530 C   0  0  0  0  0
   -2.7510   31.7670   62.4360 N   0  0  0  0  0
   -2.0580   32.5990   61.6040 C   0  0  0  0  0
   -2.5830   32.9810   60.2520 C   0  0  0  0  0
   -0.9590   33.0560   61.9080 O   0  0  0  0  0
   -1.8460   33.6570   59.3900 N   0  0  0  0  0
   -3.7930   32.7110   59.7020 C   0  0  0  0  0
   -2.5020   33.8780   58.2300 C   0  0  0  0  0
   -3.7850   33.3100   58.3180 C   0  0  0  0  0
   -2.0660   34.5620   57.0560 C   0  0  0  0  0
   -4.7110   33.3750   57.2460 C   0  0  0  0  0
   -2.9880   34.6370   55.9630 C   0  0  0  0  0
   -4.2950   34.0490   56.0560 C   0  0  0  0  0
   -5.3900   34.1520   54.7060 Cl  0  0  0  0  0
   -6.5300   36.1445   71.0206 H   0  0  0  0  0
   -8.2863   35.1484   73.4199 H   0  0  0  0  0
   -3.7153   33.7400   75.1258 H   0  0  0  0  0
   -5.8002   33.3123   76.5172 H   0  0  0  0  0
   -5.2809   36.8345   69.3063 H   0  0  0  0  0
   -2.4257   37.1893   68.4902 H   0  0  0  0  0
   -3.8060   38.3325   68.0814 H   0  0  0  0  0
   -3.2318   37.1726   66.0508 H   0  0  0  0  0
   -4.7191   36.4775   66.6230 H   0  0  0  0  0
   -0.9202   35.4936   67.1837 H   0  0  0  0  0
   -1.5485   35.9209   65.6153 H   0  0  0  0  0
   -1.6078   33.0847   66.8232 H   0  0  0  0  0
   -0.5039   33.6285   65.5441 H   0  0  0  0  0
   -3.9934   32.0183   64.8371 H   0  0  0  0  0
   -2.6256   31.5867   65.8833 H   0  0  0  0  0
   -2.3931   30.2958   63.8630 H   0  0  0  0  0
   -1.1640   31.6429   63.7757 H   0  0  0  0  0
   -3.6607   31.4133   62.1398 H   0  0  0  0  0
   -4.6130   32.1662   60.1700 H   0  0  0  0  0
   -1.0735   35.0083   56.9939 H   0  0  0  0  0
   -5.7020   32.9282   57.3263 H   0  0  0  0  0
   -2.6934   35.1481   55.0465 H   0  0  0  0  0
  1  2  4  0  0  0
  1  3  4  0  0  0
  1  4  4  0  0  0
  2  5  4  0  0  0
  2  6  4  0  0  0
  3  7  4  0  0  0
  4  8  4  0  0  0
  5  7  4  0  0  0
  6  9  4  0  0  0
  7 10  1  0  0  0
  8  9  4  0  0  0
  8 11  1  0  0  0
 10 12  1  0  0  0
 10 13  2  0  0  0
 12 14  1  0  0  0
 14 15  1  0  0  0
 15 16  1  0  0  0
 16 17  1  0  0  0
 17 18  1  0  0  0
 18 19  1  0  0  0
 19 20  1  0  0  0
 20 21  1  0  0  0
 21 22  1  0  0  0
 22 23  1  0  0  0
 23 24  1  0  0  0
 23 25  2  0  0  0
 24 26  4  0  0  0
 24 27  4  0  0  0
 26 28  4  0  0  0
 27 29  4  0  0  0
 28 29  4  0  0  0
 28 30  4  0  0  0
 29 31  4  0  0  0
 30 32  4  0  0  0
 31 33  4  0  0  0
 32 33  4  0  0  0
 33 34  1  0  0  0
  3 35  1  0  0  0
  4 36  1  0  0  0
  6 37  1  0  0  0
  9 38  1  0  0  0
 12 39  1  0  0  0
 14 40  1  0  0  0
 14 41  1  0  0  0
 15 42  1  0  0  0
 15 43  1  0  0  0
 17 44  1  0  0  0
 17 45  1  0  0  0
 18 46  1  0  0  0
 18 47  1  0  0  0
 20 48  1  0  0  0
 20 49  1  0  0  0
 21 50  1  0  0  0
 21 51  1  0  0  0
 22 52  1  0  0  0
 27 53  1  0  0  0
 30 54  1  0  0  0
 31 55  1  0  0  0
 32 56  1  0  0  0
M  END
$$$$
