5aep_ligand
  -I-interpret- 

 39 42  0  0  0  0  0  0  0  0999 V2000
   33.7200   17.6830   -7.4440 Cl  0  0  0  0  0
   32.8160   17.1220   -5.9980 C   0  0  0  0  0
   32.7020   15.7630   -5.7330 C   0  0  0  0  0
   32.2320   18.0430   -5.1450 C   0  0  0  0  0
   31.5430   17.5740   -4.0390 C   0  0  0  0  0
   31.4420   16.2090   -3.7950 C   0  0  0  0  0
   30.6830   15.7440   -2.5810 C   0  0  0  0  0
   32.0160   15.2570   -4.6290 C   0  0  0  0  0
   31.9170   13.9450   -4.3900 N   0  0  0  0  0
   30.8920   13.2200   -4.8260 C   0  0  0  0  0
   29.7180   13.6850   -5.6180 C   0  0  0  0  0
   29.7480   14.9020   -6.1540 N   0  0  0  0  0
   28.7600   12.9430   -5.7570 O   0  0  0  0  0
   31.1580   11.9320   -4.3790 C   0  0  0  0  0
   32.8380   13.2780   -3.7000 C   0  0  0  0  0
   32.3650   11.9690   -3.6810 C   0  0  0  0  0
   33.0330   10.8080   -3.0270 C   0  0  0  0  0
   32.5220    9.5620   -3.1570 N   0  0  0  0  0
   33.1100    8.5040   -2.5760 C   0  0  0  0  0
   34.2240    8.6510   -1.8470 N   0  0  0  0  0
   34.7540    9.9360   -1.7110 N   0  0  0  0  0
   34.1870   10.9940   -2.2780 C   0  0  0  0  0
   35.8520   10.2720   -1.0260 C   0  0  0  0  0
   36.0210   11.6410   -1.1480 C   0  0  0  0  0
   34.9920   12.1310   -1.9300 C   0  0  0  0  0
   33.1708   15.0589   -6.4204 H   0  0  0  0  0
   32.3127   19.1125   -5.3395 H   0  0  0  0  0
   31.0758   18.2813   -3.3537 H   0  0  0  0  0
   31.1499   16.1511   -1.6842 H   0  0  0  0  0
   29.6514   16.0904   -2.6443 H   0  0  0  0  0
   30.7000   14.6550   -2.5386 H   0  0  0  0  0
   28.9547   15.2387   -6.6996 H   0  0  0  0  0
   30.5643   15.4986   -6.0194 H   0  0  0  0  0
   30.5363   11.0520   -4.5438 H   0  0  0  0  0
   33.7526   13.6669   -3.2524 H   0  0  0  0  0
   32.6750    7.5122   -2.6992 H   0  0  0  0  0
   36.4977    9.5911   -0.4715 H   0  0  0  0  0
   36.8247   12.2291   -0.7050 H   0  0  0  0  0
   34.8257   13.1678   -2.2225 H   0  0  0  0  0
  1  2  1  0  0  0
  2  3  4  0  0  0
  2  4  4  0  0  0
  3  8  4  0  0  0
  4  5  4  0  0  0
  5  6  4  0  0  0
  6  7  1  0  0  0
  6  8  4  0  0  0
  8  9  1  0  0  0
  9 10  4  0  0  0
  9 15  4  0  0  0
 10 11  1  0  0  0
 10 14  4  0  0  0
 11 12  1  0  0  0
 11 13  2  0  0  0
 14 16  4  0  0  0
 15 16  4  0  0  0
 16 17  1  0  0  0
 17 18  4  0  0  0
 17 22  4  0  0  0
 18 19  4  0  0  0
 19 20  4  0  0  0
 20 21  4  0  0  0
 21 22  4  0  0  0
 21 23  4  0  0  0
 22 25  4  0  0  0
 23 24  4  0  0  0
 24 25  4  0  0  0
  3 26  1  0  0  0
  4 27  1  0  0  0
  5 28  1  0  0  0
  7 29  1  0  0  0
  7 30  1  0  0  0
  7 31  1  0  0  0
 12 32  1  0  0  0
 12 33  1  0  0  0
 14 34  1  0  0  0
 15 35  1  0  0  0
 19 36  1  0  0  0
 23 37  1  0  0  0
 24 38  1  0  0  0
 25 39  1  0  0  0
M  END
$$$$
