### 
### Created by X-TOOL on Wed Jan  1 15:39:37 2020
### 

@<TRIPOS>MOLECULE
6min_ligand
  113   112     1     0     0
SMALL
GAST_HUCK


@<TRIPOS>ATOM
      1 C          10.4440   44.2320    7.0270 C.2       1 ACE         0.1751
      2 O           9.4630   44.9530    6.8640 O.2       1 ACE        -0.3972
      3 CH3        11.7970   44.8270    7.4040 C.3       1 ACE         0.0258
      4 N          10.4000   42.9050    6.8860 N.am      1 GLN        -0.2657
      5 CA          9.1520   42.2420    6.5260 C.3       1 GLN         0.1329
      6 C           8.1180   42.2920    7.6460 C.2       1 GLN         0.2041
      7 O           6.9240   42.1160    7.3760 O.2       1 GLN        -0.3944
      8 CB          9.4260   40.7930    6.1200 C.3       1 GLN         0.0045
      9 CG         10.1080   40.6550    4.7640 C.3       1 GLN         0.0412
     10 CD         10.5310   39.2280    4.4660 C.2       1 GLN         0.1737
     11 OE1        10.3340   38.7290    3.3590 O.2       1 GLN        -0.3973
     12 NE2        11.1210   38.5640    5.4570 N.am      1 GLN        -0.3009
     13 N           8.5390   42.5420    8.8860 N.am      1 THR        -0.2613
     14 CA          7.6130   42.6690   10.0050 C.3       1 THR         0.1565
     15 C           7.3280   44.1190   10.3780 C.2       1 THR         0.2065
     16 O           6.7050   44.3620   11.4160 O.2       1 THR        -0.3943
     17 CB          8.1420   41.9240   11.2360 C.3       1 THR         0.0924
     18 OG1         9.2800   42.6130   11.7690 O.3       1 THR        -0.3874
     19 CG2         8.5430   40.5040   10.8730 C.3       1 THR        -0.0346
     20 N           7.7780   45.0810    9.5690 N.am      1 ALA        -0.2639
     21 CA          7.5230   46.4900    9.8530 C.3       1 ALA         0.1282
     22 C           6.0250   46.7610    9.9350 C.2       1 ALA         0.2036
     23 O           5.2560   46.3320    9.0690 O.2       1 ALA        -0.3944
     24 CB          8.1560   47.3670    8.7730 C.3       1 ALA        -0.0244
     25 N           5.6100   47.4620   10.9910 N.am      1 ARG        -0.2637
     26 CA          4.1930   47.7680   11.2160 C.3       1 ARG         0.1311
     27 C           4.0000   49.1480   11.8510 C.2       1 ARG         0.2039
     28 O           4.8420   49.5980   12.6300 O.2       1 ARG        -0.3944
     29 CB          3.5460   46.7020   12.1040 C.3       1 ARG        -0.0092
     30 CG          3.6420   45.2790   11.5790 C.3       1 ARG        -0.0156
     31 CD          2.8300   44.3400   12.4420 C.3       1 ARG         0.0627
     32 NE          1.4630   44.8270   12.5970 N.pl3     1 ARG        -0.2723
     33 CZ          0.4920   44.6100   11.7150 C.cat     1 ARG         0.2882
     34 NH1         0.7380   43.9080   10.6150 N.pl3     1 ARG        -0.2849
     35 NH2        -0.7240   45.0930   11.9350 N.pl3     1 ARG        -0.2849
     36 N           2.8910   49.8080   11.5230 N.am      1 KCR        -0.2637
     37 CA          2.5630   51.1120   12.0990 C.3       1 KCR         0.1309
     38 CB          1.6950   51.9680   11.1710 C.3       1 KCR        -0.0123
     39 CG          2.1350   51.8660    9.7190 C.3       1 KCR        -0.0470
     40 CD          1.7160   53.1400    8.9960 C.3       1 KCR        -0.0327
     41 CE          2.2250   53.0430    7.5660 C.3       1 KCR         0.0295
     42 NZ          2.0450   54.3140    6.8940 N.am      1 KCR        -0.2917
     43 CH          2.8260   54.6080    5.7050 C.2       1 KCR         0.1759
     44 OH          3.6040   53.8140    5.2880 O.2       1 KCR        -0.4012
     45 CX          2.6310   55.9500    5.0020 C.2       1 KCR        -0.0032
     46 CY          2.8570   56.0680    3.7130 C.2       1 KCR        -0.0626
     47 CH3         2.6510   57.4200    3.0350 C.3       1 KCR        -0.0267
     48 C           1.7970   50.9730   13.4170 C.2       1 KCR         0.2034
     49 O           1.1220   49.9380   13.6620 O.2       1 KCR        -0.3944
     50 N           1.8800   52.0110   14.2460 N.am      1 SER        -0.2672
     51 CA          1.1540   52.0630   15.5080 C.3       1 SER         0.1173
     52 C          -0.3340   52.3380   15.2800 C.2       1 SER         0.0623
     53 O          -0.7130   52.9650   14.2910 O.co2     1 SER        -0.5665
     54 CB          1.7520   53.1290   16.4310 C.3       1 SER         0.0789
     55 OG          1.0130   53.2390   17.6350 O.3       1 SER        -0.3910
     56 OXT        -1.1770   51.9370   16.0820 O.co2     1 SER        -0.5665
     57 H1         12.5380   44.0199    7.5020 H         1 ACE         0.0467
     58 H2         11.7086   45.3617    8.3612 H         1 ACE         0.0467
     59 H3         12.1202   45.5284    6.6207 H         1 ACE         0.0467
     60 H4         11.2279   42.3624    7.0281 H         1 GLN         0.1883
     61 H5          8.7303   42.7687    5.6573 H         1 GLN         0.0801
     62 H6          8.4670   40.2556    6.0826 H         1 GLN         0.0337
     63 H7         10.0734   40.3352    6.8824 H         1 GLN         0.0337
     64 H8         11.0011   41.2970    4.7518 H         1 GLN         0.0504
     65 H9          9.4082   40.9855    3.9824 H         1 GLN         0.0504
     66 H10        11.4208   37.6202    5.3176 H         1 GLN         0.1814
     67 H11        11.2645   39.0088    6.3411 H         1 GLN         0.1814
     68 H12         9.5194   42.6455    9.0537 H         1 THR         0.1884
     69 H13         6.6622   42.2053    9.7033 H         1 THR         0.0826
     70 H14         7.3503   41.8891   11.9988 H         1 THR         0.0639
     71 H15         9.0269   43.4939   12.0191 H         1 THR         0.2101
     72 H16         8.9189   39.9887   11.7692 H         1 THR         0.0257
     73 H17         9.3321   40.5302   10.1071 H         1 THR         0.0257
     74 H18         7.6683   39.9650   10.4800 H         1 THR         0.0257
     75 H19         8.2996   44.8316    8.7531 H         1 ALA         0.1883
     76 H20         7.9784   46.7402   10.8225 H         1 ALA         0.0797
     77 H21         7.9575   48.4254    8.9973 H         1 ALA         0.0277
     78 H22         7.7239   47.1124    7.7940 H         1 ALA         0.0277
     79 H23         9.2421   47.1944    8.7505 H         1 ALA         0.0277
     80 H24         6.2865   47.7895   11.6506 H         1 ARG         0.1883
     81 H25         3.6852   47.7642   10.2403 H         1 ARG         0.0800
     82 H26         2.4808   46.9526   12.2158 H         1 ARG         0.0313
     83 H27         4.0359   46.7356   13.0883 H         1 ARG         0.0313
     84 H28         4.6947   44.9600   11.5884 H         1 ARG         0.0301
     85 H29         3.2582   45.2467   10.5487 H         1 ARG         0.0301
     86 H30         3.3002   44.2647   13.4336 H         1 ARG         0.0689
     87 H31         2.8071   43.3464   11.9706 H         1 ARG         0.0689
     88 H32         1.2366   45.3721   13.4411 H         1 ARG         0.2642
     89 H33        -0.0146   43.7402    9.9321 H         1 ARG         0.2615
     90 H34         1.6814   43.5313   10.4447 H         1 ARG         0.2615
     91 H35        -0.9153   45.6376   12.7881 H         1 ARG         0.2615
     92 H36        -1.4767   44.9234   11.2527 H         1 ARG         0.2615
     93 H37         2.2622   49.3991   10.8617 H         1 KCR         0.1883
     94 H38         3.5076   51.6427   12.2889 H         1 KCR         0.0800
     95 H39         1.7648   53.0185   11.4895 H         1 KCR         0.0312
     96 H40         0.6514   51.6295   11.2497 H         1 KCR         0.0312
     97 H41         1.6554   50.9963    9.2462 H         1 KCR         0.0268
     98 H42         3.2281   51.7538    9.6696 H         1 KCR         0.0268
     99 H43         2.1575   54.0164    9.4930 H         1 KCR         0.0285
    100 H44         0.6197   53.2303    8.9990 H         1 KCR         0.0285
    101 H45         1.6629   52.2639    7.0303 H         1 KCR         0.0518
    102 H46         3.2938   52.7831    7.5756 H         1 KCR         0.0518
    103 H47         1.3894   54.9824    7.2454 H         1 KCR         0.1831
    104 H48         2.3019   56.8163    5.5740 H         1 KCR         0.0472
    105 H49         3.1886   55.2080    3.1330 H         1 KCR         0.0843
    106 H50         2.8855   57.3325    1.9639 H         1 KCR         0.0453
    107 H51         3.3148   58.1663    3.4959 H         1 KCR         0.0453
    108 H52         1.6043   57.7355    3.1565 H         1 KCR         0.0453
    109 H53         2.4622   52.7837   13.9932 H         1 SER         0.1876
    110 H54         1.2519   51.0841   16.0002 H         1 SER         0.0749
    111 H55         1.7401   54.0994   15.9131 H         1 SER         0.0599
    112 H56         2.7897   52.8542   16.6711 H         1 SER         0.0599
    113 H57         0.1164   53.4803   17.4340 H         1 SER         0.2096
@<TRIPOS>BOND
     1    1    2 2  
     2    1    3 1  
     3    1    4 am 
     4    4    5 1  
     5    5    6 1  
     6    5    8 1  
     7    6    7 2  
     8    6   13 am 
     9    8    9 1  
    10    9   10 1  
    11   10   11 2  
    12   10   12 am 
    13   13   14 1  
    14   14   15 1  
    15   14   17 1  
    16   15   16 2  
    17   15   20 am 
    18   17   18 1  
    19   17   19 1  
    20   20   21 1  
    21   21   22 1  
    22   21   24 1  
    23   22   23 2  
    24   22   25 am 
    25   25   26 1  
    26   26   27 1  
    27   26   29 1  
    28   27   28 2  
    29   27   36 am 
    30   29   30 1  
    31   30   31 1  
    32   31   32 1  
    33   32   33 ar 
    34   33   34 ar 
    35   33   35 ar 
    36   36   37 1  
    37   37   38 1  
    38   37   48 1  
    39   38   39 1  
    40   39   40 1  
    41   40   41 1  
    42   41   42 1  
    43   42   43 am 
    44   43   44 2  
    45   43   45 1  
    46   45   46 2  
    47   46   47 1  
    48   48   49 2  
    49   48   50 am 
    50   50   51 1  
    51   51   52 1  
    52   51   54 1  
    53   52   53 ar 
    54   52   56 ar 
    55   54   55 1  
    56    3   57 1  
    57    3   58 1  
    58    3   59 1  
    59    4   60 1  
    60    5   61 1  
    61    8   62 1  
    62    8   63 1  
    63    9   64 1  
    64    9   65 1  
    65   12   66 1  
    66   12   67 1  
    67   13   68 1  
    68   14   69 1  
    69   17   70 1  
    70   18   71 1  
    71   19   72 1  
    72   19   73 1  
    73   19   74 1  
    74   20   75 1  
    75   21   76 1  
    76   24   77 1  
    77   24   78 1  
    78   24   79 1  
    79   25   80 1  
    80   26   81 1  
    81   29   82 1  
    82   29   83 1  
    83   30   84 1  
    84   30   85 1  
    85   31   86 1  
    86   31   87 1  
    87   32   88 1  
    88   34   89 1  
    89   34   90 1  
    90   35   91 1  
    91   35   92 1  
    92   36   93 1  
    93   37   94 1  
    94   38   95 1  
    95   38   96 1  
    96   39   97 1  
    97   39   98 1  
    98   40   99 1  
    99   40  100 1  
   100   41  101 1  
   101   41  102 1  
   102   42  103 1  
   103   45  104 1  
   104   46  105 1  
   105   47  106 1  
   106   47  107 1  
   107   47  108 1  
   108   50  109 1  
   109   51  110 1  
   110   54  111 1  
   111   54  112 1  
   112   55  113 1  
@<TRIPOS>SUBSTRUCTURE
     1 ACE         1

