6min_ligand
  -I-interpret- 

113112  0  0  0  0  0  0  0  0999 V2000
   10.4440   44.2320    7.0270 C   0  0  0  0  0
    9.4630   44.9530    6.8640 O   0  0  0  0  0
   11.7970   44.8270    7.4040 C   0  0  0  0  0
   10.4000   42.9050    6.8860 N   0  0  0  0  0
    9.1520   42.2420    6.5260 C   0  0  0  0  0
    8.1180   42.2920    7.6460 C   0  0  0  0  0
    6.9240   42.1160    7.3760 O   0  0  0  0  0
    9.4260   40.7930    6.1200 C   0  0  0  0  0
   10.1080   40.6550    4.7640 C   0  0  0  0  0
   10.5310   39.2280    4.4660 C   0  0  0  0  0
   10.3340   38.7290    3.3590 O   0  0  0  0  0
   11.1210   38.5640    5.4570 N   0  0  0  0  0
    8.5390   42.5420    8.8860 N   0  0  0  0  0
    7.6130   42.6690   10.0050 C   0  0  0  0  0
    7.3280   44.1190   10.3780 C   0  0  0  0  0
    6.7050   44.3620   11.4160 O   0  0  0  0  0
    8.1420   41.9240   11.2360 C   0  0  0  0  0
    9.2800   42.6130   11.7690 O   0  0  0  0  0
    8.5430   40.5040   10.8730 C   0  0  0  0  0
    7.7780   45.0810    9.5690 N   0  0  0  0  0
    7.5230   46.4900    9.8530 C   0  0  0  0  0
    6.0250   46.7610    9.9350 C   0  0  0  0  0
    5.2560   46.3320    9.0690 O   0  0  0  0  0
    8.1560   47.3670    8.7730 C   0  0  0  0  0
    5.6100   47.4620   10.9910 N   0  0  0  0  0
    4.1930   47.7680   11.2160 C   0  0  0  0  0
    4.0000   49.1480   11.8510 C   0  0  0  0  0
    4.8420   49.5980   12.6300 O   0  0  0  0  0
    3.5460   46.7020   12.1040 C   0  0  0  0  0
    3.6420   45.2790   11.5790 C   0  0  0  0  0
    2.8300   44.3400   12.4420 C   0  0  0  0  0
    1.4630   44.8270   12.5970 N   0  0  0  0  0
    0.4920   44.6100   11.7150 C   0  0  0  0  0
    0.7380   43.9080   10.6150 N   0  0  0  0  0
   -0.7240   45.0930   11.9350 N   0  0  0  0  0
    2.8910   49.8080   11.5230 N   0  0  0  0  0
    2.5630   51.1120   12.0990 C   0  0  0  0  0
    1.6950   51.9680   11.1710 C   0  0  0  0  0
    2.1350   51.8660    9.7190 C   0  0  0  0  0
    1.7160   53.1400    8.9960 C   0  0  0  0  0
    2.2250   53.0430    7.5660 C   0  0  0  0  0
    2.0450   54.3140    6.8940 N   0  0  0  0  0
    2.8260   54.6080    5.7050 C   0  0  0  0  0
    3.6040   53.8140    5.2880 O   0  0  0  0  0
    2.6310   55.9500    5.0020 C   0  0  0  0  0
    2.8570   56.0680    3.7130 C   0  0  0  0  0
    2.6510   57.4200    3.0350 C   0  0  0  0  0
    1.7970   50.9730   13.4170 C   0  0  0  0  0
    1.1220   49.9380   13.6620 O   0  0  0  0  0
    1.8800   52.0110   14.2460 N   0  0  0  0  0
    1.1540   52.0630   15.5080 C   0  0  0  0  0
   -0.3340   52.3380   15.2800 C   0  0  0  0  0
   -0.7130   52.9650   14.2910 O   0  0  0  0  0
    1.7520   53.1290   16.4310 C   0  0  0  0  0
    1.0130   53.2390   17.6350 O   0  0  0  0  0
   -1.1770   51.9370   16.0820 O   0  0  0  0  0
   12.1161   45.5218    6.6271 H   0  0  0  0  0
   11.7080   45.3565    8.3526 H   0  0  0  0  0
   12.5303   44.0264    7.5008 H   0  0  0  0  0
   11.2445   42.3516    7.0310 H   0  0  0  0  0
    8.7303   42.7853    5.6804 H   0  0  0  0  0
    8.4636   40.2856    6.0538 H   0  0  0  0  0
   10.0959   40.3665    6.8666 H   0  0  0  0  0
   11.0042   41.2753    4.7746 H   0  0  0  0  0
    9.3958   40.9607    3.9976 H   0  0  0  0  0
   11.4296   37.6024    5.3139 H   0  0  0  0  0
   11.2646   39.0167    6.3597 H   0  0  0  0  0
    9.5390   42.6476    9.0570 H   0  0  0  0  0
    6.6757   42.2219    9.6739 H   0  0  0  0  0
    7.3481   41.8881   11.9820 H   0  0  0  0  0
    9.6062   42.1417   12.5391 H   0  0  0  0  0
    7.6755   39.9711   10.4837 H   0  0  0  0  0
    9.3249   40.5314   10.1140 H   0  0  0  0  0
    8.9153   39.9945   11.7618 H   0  0  0  0  0
    8.3100   44.8266    8.7367 H   0  0  0  0  0
    7.9708   46.7330   10.8166 H   0  0  0  0  0
    9.2321   47.1950    8.7517 H   0  0  0  0  0
    7.7270   47.1137    7.8035 H   0  0  0  0  0
    7.9587   48.4155    8.9963 H   0  0  0  0  0
    6.3000   47.7961   11.6638 H   0  0  0  0  0
    3.7088   47.7723   10.2395 H   0  0  0  0  0
    2.4847   46.9439   12.1615 H   0  0  0  0  0
    4.0777   46.7216   13.0553 H   0  0  0  0  0
    4.6854   44.9643   11.5981 H   0  0  0  0  0
    3.2529   45.2501   10.5612 H   0  0  0  0  0
    3.2942   44.2785   13.4263 H   0  0  0  0  0
    2.8014   43.3608   11.9641 H   0  0  0  0  0
    1.2388   45.3668   13.4329 H   0  0  0  0  0
   -0.0077   43.7403    9.9396 H   0  0  0  0  0
    1.6727   43.5365   10.4455 H   0  0  0  0  0
   -0.9139   45.6307   12.7807 H   0  0  0  0  0
    2.2496   49.3909   10.8484 H   0  0  0  0  0
    3.5266   51.5963   12.2573 H   0  0  0  0  0
    1.7891   53.0084   11.4820 H   0  0  0  0  0
    0.6679   51.6097   11.2405 H   0  0  0  0  0
    1.6680   51.0006    9.2487 H   0  0  0  0  0
    3.2172   51.7468    9.6657 H   0  0  0  0  0
    2.1363   54.0152    9.4915 H   0  0  0  0  0
    0.6312   53.2458    9.0080 H   0  0  0  0  0
    1.6655   52.2724    7.0357 H   0  0  0  0  0
    3.2847   52.7879    7.5770 H   0  0  0  0  0
    1.3763   54.9958    7.2524 H   0  0  0  0  0
    2.3016   56.8171    5.5745 H   0  0  0  0  0
    3.1890   55.2073    3.1325 H   0  0  0  0  0
    1.6135   57.7315    3.1562 H   0  0  0  0  0
    3.3092   58.1585    3.4926 H   0  0  0  0  0
    2.8837   57.3320    1.9738 H   0  0  0  0  0
    2.4739   52.7992   13.9882 H   0  0  0  0  0
    1.2510   51.0885   15.9867 H   0  0  0  0  0
    0.0473   53.2120   13.7594 H   0  0  0  0  0
    1.7233   54.0896   15.9167 H   0  0  0  0  0
    2.7747   52.8424   16.6760 H   0  0  0  0  0
    1.4097   53.9126   18.1922 H   0  0  0  0  0
  1  2  2  0  0  0
  1  3  1  0  0  0
  1  4  1  0  0  0
  4  5  1  0  0  0
  5  6  1  0  0  0
  5  8  1  0  0  0
  6  7  2  0  0  0
  6 13  1  0  0  0
  8  9  1  0  0  0
  9 10  1  0  0  0
 10 11  2  0  0  0
 10 12  1  0  0  0
 13 14  1  0  0  0
 14 15  1  0  0  0
 14 17  1  0  0  0
 15 16  2  0  0  0
 15 20  1  0  0  0
 17 18  1  0  0  0
 17 19  1  0  0  0
 20 21  1  0  0  0
 21 22  1  0  0  0
 21 24  1  0  0  0
 22 23  2  0  0  0
 22 25  1  0  0  0
 25 26  1  0  0  0
 26 27  1  0  0  0
 26 29  1  0  0  0
 27 28  2  0  0  0
 27 36  1  0  0  0
 29 30  1  0  0  0
 30 31  1  0  0  0
 31 32  1  0  0  0
 32 33  1  0  0  0
 33 34  1  0  0  0
 33 35  2  0  0  0
 36 37  1  0  0  0
 37 38  1  0  0  0
 37 48  1  0  0  0
 38 39  1  0  0  0
 39 40  1  0  0  0
 40 41  1  0  0  0
 41 42  1  0  0  0
 42 43  1  0  0  0
 43 44  2  0  0  0
 43 45  1  0  0  0
 45 46  2  0  0  0
 46 47  1  0  0  0
 48 49  2  0  0  0
 48 50  1  0  0  0
 50 51  1  0  0  0
 51 52  1  0  0  0
 51 54  1  0  0  0
 52 53  1  0  0  0
 52 56  2  0  0  0
 54 55  1  0  0  0
  3 57  1  0  0  0
  3 58  1  0  0  0
  3 59  1  0  0  0
  4 60  1  0  0  0
  5 61  1  0  0  0
  8 62  1  0  0  0
  8 63  1  0  0  0
  9 64  1  0  0  0
  9 65  1  0  0  0
 12 66  1  0  0  0
 12 67  1  0  0  0
 13 68  1  0  0  0
 14 69  1  0  0  0
 17 70  1  0  0  0
 18 71  1  0  0  0
 19 72  1  0  0  0
 19 73  1  0  0  0
 19 74  1  0  0  0
 20 75  1  0  0  0
 21 76  1  0  0  0
 24 77  1  0  0  0
 24 78  1  0  0  0
 24 79  1  0  0  0
 25 80  1  0  0  0
 26 81  1  0  0  0
 29 82  1  0  0  0
 29 83  1  0  0  0
 30 84  1  0  0  0
 30 85  1  0  0  0
 31 86  1  0  0  0
 31 87  1  0  0  0
 32 88  1  0  0  0
 34 89  1  0  0  0
 34 90  1  0  0  0
 35 91  1  0  0  0
 36 92  1  0  0  0
 37 93  1  0  0  0
 38 94  1  0  0  0
 38 95  1  0  0  0
 39 96  1  0  0  0
 39 97  1  0  0  0
 40 98  1  0  0  0
 40 99  1  0  0  0
 41100  1  0  0  0
 41101  1  0  0  0
 42102  1  0  0  0
 45103  1  0  0  0
 46104  1  0  0  0
 47105  1  0  0  0
 47106  1  0  0  0
 47107  1  0  0  0
 50108  1  0  0  0
 51109  1  0  0  0
 53110  1  0  0  0
 54111  1  0  0  0
 54112  1  0  0  0
 55113  1  0  0  0
M  END
$$$$
