5xxk_ligand
  -I-interpret- 

211215  0  0  0  0  0  0  0  0999 V2000
   17.9310  138.6120   33.0230 N   0  0  0  0  0
   18.2320  139.4620   34.0060 C   0  0  0  0  0
   17.6230  139.5000   35.0710 O   0  0  0  0  0
   19.3600  140.4310   33.7380 C   0  0  0  0  0
   16.8700  137.6110   33.1410 C   0  0  0  0  0
   16.4830  137.0840   31.7610 C   0  0  0  0  0
   16.0460  138.1760   30.9270 O   0  0  0  0  0
   15.3560  136.0550   31.7910 C   0  0  0  0  0
   17.3010  136.4710   34.0430 C   0  0  0  0  0
   18.4190  135.9610   33.9240 O   0  0  0  0  0
   16.4090  136.0660   34.9420 N   0  0  0  0  0
   16.7290  134.9990   35.8840 C   0  0  0  0  0
   16.7030  133.6480   35.2010 C   0  0  0  0  0
   16.0050  133.4420   34.2100 O   0  0  0  0  0
   15.7370  135.0060   37.0480 C   0  0  0  0  0
   14.4160  134.7850   36.6140 O   0  0  0  0  0
   17.4540  132.7130   35.7700 N   0  0  0  0  0
   17.3430  131.3110   35.4050 C   0  0  0  0  0
   15.8770  130.8420   35.5160 C   0  0  0  0  0
   15.3960  130.1850   34.6050 O   0  0  0  0  0
   18.2630  130.4420   36.2800 C   0  0  0  0  0
   18.0370  128.9760   36.0710 C   0  0  0  0  0
   18.4080  128.3710   34.8870 C   0  0  0  0  0
   17.3570  128.2310   37.0080 C   0  0  0  0  0
   18.1720  127.0360   34.6570 C   0  0  0  0  0
   17.0890  126.8890   36.7750 C   0  0  0  0  0
   17.4900  126.2940   35.5980 C   0  0  0  0  0
   12.2480  130.4600   34.9650 O   0  0  0  0  0
   12.9730  131.2710   35.5350 C   0  0  0  0  0
   13.7810  130.8400   36.7800 C   0  0  0  0  0
   13.2340  131.6330   37.9730 C   0  0  0  0  0
   13.6360  129.3160   37.0200 C   0  0  0  0  0
   15.1970  131.1930   36.5660 N   0  0  0  0  0
   13.9550  128.6050   38.3580 C   0  0  0  0  0
   13.4520  127.1220   38.3550 C   0  0  0  0  0
   12.1840  126.9810   37.4670 C   0  0  0  0  0
   11.1210  125.9190   37.6330 C   0  0  0  0  0
    9.8730  126.4010   36.9110 C   0  0  0  0  0
    9.4530  125.4500   35.8420 C   0  0  0  0  0
   13.1290  132.4760   35.1010 N   0  0  0  0  0
   12.3900  132.9550   33.9290 C   0  0  0  0  0
   12.7710  132.2230   32.6330 C   0  0  0  0  0
   11.8730  131.8440   31.8690 O   0  0  0  0  0
   12.5270  134.4740   33.7780 C   0  0  0  0  0
   11.6310  135.0180   32.6590 C   0  0  0  0  0
   11.5470  136.5300   32.5520 C   0  0  0  0  0
   12.1480  137.2900   33.3620 O   0  0  0  0  0
   10.8380  136.9500   31.6110 O   0  0  0  0  0
   14.0660  131.9980   32.3870 N   0  0  0  0  0
   14.4790  131.2360   31.2010 C   0  0  0  0  0
   13.8730  129.8250   31.2070 C   0  0  0  0  0
   13.3660  129.3360   30.1840 O   0  0  0  0  0
   15.9800  131.1060   31.1160 C   0  0  0  0  0
   16.7000  132.3560   30.6160 C   0  0  0  0  0
   16.4380  132.8670   29.3390 C   0  0  0  0  0
   17.6460  132.9710   31.3900 C   0  0  0  0  0
   17.1250  133.9740   28.8670 C   0  0  0  0  0
   18.3320  134.0830   30.9350 C   0  0  0  0  0
   18.0710  134.5740   29.6730 C   0  0  0  0  0
   18.7590  135.7060   29.2500 O   0  0  0  0  0
   13.8930  129.1780   32.3790 N   0  0  0  0  0
   13.3890  127.8180   32.4800 C   0  0  0  0  0
   13.8280  127.1640   33.8030 C   0  0  0  0  0
   13.6800  125.6610   33.7240 C   0  0  0  0  0
   14.6510  124.6970   33.1980 C   0  0  0  0  0
   15.9190  124.8470   32.6280 C   0  0  0  0  0
   14.0170  123.3740   33.3430 C   0  0  0  0  0
   12.8110  123.5600   33.9190 N   0  0  0  0  0
   12.5970  124.8950   34.1520 C   0  0  0  0  0
   14.7240  122.2740   32.8910 C   0  0  0  0  0
   15.9870  122.4420   32.3350 C   0  0  0  0  0
   16.8910  121.0330   31.7590 Cl  0  0  0  0  0
   16.5860  123.7110   32.1940 C   0  0  0  0  0
   11.8730  127.8000   32.3270 C   0  0  0  0  0
   11.3160  126.9050   31.6730 O   0  0  0  0  0
   11.1940  128.7910   32.8960 N   0  0  0  0  0
    9.7420  128.9280   32.7540 C   0  0  0  0  0
    9.3170  129.1230   31.2900 C   0  0  0  0  0
    8.2560  128.6470   30.8960 O   0  0  0  0  0
    9.2080  130.0570   33.6070 C   0  0  0  0  0
   10.1450  129.8010   30.4940 N   0  0  0  0  0
    9.8780  129.9680   29.0650 C   0  0  0  0  0
   10.0370  128.6510   28.3310 C   0  0  0  0  0
    9.2590  128.3310   27.4260 O   0  0  0  0  0
   10.7980  131.0220   28.4480 C   0  0  0  0  0
   10.3370  132.4630   28.5790 C   0  0  0  0  0
   11.5030  133.4340   28.4060 C   0  0  0  0  0
    9.2020  132.7560   27.5900 C   0  0  0  0  0
   11.0440  127.8770   28.7380 N   0  0  0  0  0
   11.2340  126.5400   28.2430 C   0  0  0  0  0
   10.0330  125.6460   28.5370 C   0  0  0  0  0
    9.5800  124.9160   27.6440 O   0  0  0  0  0
   12.5380  125.9390   28.7870 C   0  0  0  0  0
   12.7030  124.4320   28.6400 C   0  0  0  0  0
   13.2240  124.1430   27.2530 C   0  0  0  0  0
   13.6600  123.8970   29.6880 C   0  0  0  0  0
    7.1360  125.2280   29.4050 C   0  0  0  0  0
    9.5170  125.7070   29.7710 N   0  0  0  0  0
    6.8890  126.3960   29.0660 O   0  0  0  0  0
    8.3810  124.9080   30.2070 C   0  0  0  0  0
    7.9030  125.2290   31.6040 C   0  0  0  0  0
    8.0400  124.9250   33.9970 C   0  0  0  0  0
    8.5050  125.8620   35.0350 C   0  0  0  0  0
    8.8700  125.0000   32.7360 C   0  0  0  0  0
    8.7750  123.4200   30.1740 C   0  0  0  0  0
    6.2280  124.2100   29.0900 N   0  0  0  0  0
   18.4620  138.6618   32.1536 H   0  0  0  0  0
   18.9796  141.4514   33.7852 H   0  0  0  0  0
   20.1385  140.2970   34.4890 H   0  0  0  0  0
   19.7727  140.2411   32.7472 H   0  0  0  0  0
   15.9984  138.0872   33.5901 H   0  0  0  0  0
   17.3768  136.5981   31.3697 H   0  0  0  0  0
   16.7355  138.8428   30.8875 H   0  0  0  0  0
   14.4571  136.5145   32.2020 H   0  0  0  0  0
   15.1567  135.7066   30.7776 H   0  0  0  0  0
   15.6522  135.2117   32.4148 H   0  0  0  0  0
   15.4897  136.5068   34.9734 H   0  0  0  0  0
   17.7345  135.1766   36.2654 H   0  0  0  0  0
   15.7799  135.9839   37.5275 H   0  0  0  0  0
   16.0098  134.2042   37.7341 H   0  0  0  0  0
   13.8255  134.7966   37.3709 H   0  0  0  0  0
   18.1287  132.9867   36.4843 H   0  0  0  0  0
   17.6631  131.1993   34.3691 H   0  0  0  0  0
   18.0476  130.6699   37.3239 H   0  0  0  0  0
   19.2947  130.6652   36.0081 H   0  0  0  0  0
   18.8994  128.9652   34.1166 H   0  0  0  0  0
   17.0277  128.6969   37.9368 H   0  0  0  0  0
   18.5217  126.5675   33.7370 H   0  0  0  0  0
   16.5591  126.3032   37.5261 H   0  0  0  0  0
   17.2692  125.2429   35.4122 H   0  0  0  0  0
   13.3572  132.6997   37.7858 H   0  0  0  0  0
   12.1761  131.4057   38.1044 H   0  0  0  0  0
   13.7812  131.3553   38.8739 H   0  0  0  0  0
   14.3840  128.8983   36.3461 H   0  0  0  0  0
   12.5615  129.1622   36.9208 H   0  0  0  0  0
   15.6691  131.7439   37.2829 H   0  0  0  0  0
   13.4487  129.1394   39.1619 H   0  0  0  0  0
   15.0360  128.6024   38.4981 H   0  0  0  0  0
   13.2049  126.8291   39.3754 H   0  0  0  0  0
   14.2382  126.4815   37.9552 H   0  0  0  0  0
   12.6087  126.7339   36.4940 H   0  0  0  0  0
   11.6366  127.8950   37.6976 H   0  0  0  0  0
   10.9094  125.7547   38.6896 H   0  0  0  0  0
   11.4609  124.9720   37.2138 H   0  0  0  0  0
   10.0937  127.3628   36.4480 H   0  0  0  0  0
    9.0645  126.4800   37.6377 H   0  0  0  0  0
    9.9093  124.4657   35.7370 H   0  0  0  0  0
   13.7750  133.1036   35.5797 H   0  0  0  0  0
   11.3405  132.7206   34.1068 H   0  0  0  0  0
   13.5633  134.7014   33.5282 H   0  0  0  0  0
   12.2251  134.9402   34.7159 H   0  0  0  0  0
   10.6216  134.6694   32.8774 H   0  0  0  0  0
   12.0637  134.6677   31.7219 H   0  0  0  0  0
   12.6305  136.7587   33.9996 H   0  0  0  0  0
   14.7728  132.3584   33.0281 H   0  0  0  0  0
   14.1142  131.7922   30.3375 H   0  0  0  0  0
   16.1901  130.3108   30.4007 H   0  0  0  0  0
   16.3401  130.9149   32.1269 H   0  0  0  0  0
   15.6865  132.3895   28.7102 H   0  0  0  0  0
   17.8631  132.5777   32.3831 H   0  0  0  0  0
   16.9206  134.3663   27.8708 H   0  0  0  0  0
   19.0738  134.5677   31.5697 H   0  0  0  0  0
   19.3716  135.9816   29.9358 H   0  0  0  0  0
   14.2647  129.6428   33.2074 H   0  0  0  0  0
   13.8168  127.2303   31.6678 H   0  0  0  0  0
   13.1996  127.5403   34.6102 H   0  0  0  0  0
   14.8739  127.4080   33.9893 H   0  0  0  0  0
   16.3724  125.8331   32.5272 H   0  0  0  0  0
   11.6972  125.3035   34.6120 H   0  0  0  0  0
   14.2912  121.2768   32.9708 H   0  0  0  0  0
   17.5745  123.7991   31.7433 H   0  0  0  0  0
   11.7014  129.4802   33.4509 H   0  0  0  0  0
    9.3081  127.9914   33.1043 H   0  0  0  0  0
    9.4365  129.8589   34.6542 H   0  0  0  0  0
    9.6757  130.9933   33.3025 H   0  0  0  0  0
    8.1282  130.1296   33.4769 H   0  0  0  0  0
   10.9879  130.2147   30.8925 H   0  0  0  0  0
    8.8476  130.3082   28.9620 H   0  0  0  0  0
   10.8371  130.8080   27.3799 H   0  0  0  0  0
   11.7456  130.9530   28.9822 H   0  0  0  0  0
    9.9469  132.6086   29.5863 H   0  0  0  0  0
   12.2542  133.2377   29.1711 H   0  0  0  0  0
   11.9441  133.2979   27.4186 H   0  0  0  0  0
   11.1400  134.4570   28.5053 H   0  0  0  0  0
    9.5557  132.5879   26.5728 H   0  0  0  0  0
    8.3610  132.0943   27.7976 H   0  0  0  0  0
    8.8854  133.7933   27.6992 H   0  0  0  0  0
   11.7023  128.2461   29.4242 H   0  0  0  0  0
   11.3192  126.5982   27.1579 H   0  0  0  0  0
   12.5400  126.1404   29.8582 H   0  0  0  0  0
   13.3436  126.3894   28.2072 H   0  0  0  0  0
   11.7419  123.9389   28.7855 H   0  0  0  0  0
   12.5136  124.5148   26.5146 H   0  0  0  0  0
   14.1849  124.6391   27.1165 H   0  0  0  0  0
   13.3484  123.0671   27.1298 H   0  0  0  0  0
   14.6328  124.3736   29.5669 H   0  0  0  0  0
   13.2681  124.1154   30.6814 H   0  0  0  0  0
   13.7645  122.8189   29.5662 H   0  0  0  0  0
    9.9426  126.3474   30.4412 H   0  0  0  0  0
    7.0660  124.5562   31.7909 H   0  0  0  0  0
    7.6954  126.2991   31.6058 H   0  0  0  0  0
    7.0140  125.1892   33.7406 H   0  0  0  0  0
    8.1235  123.9137   34.3950 H   0  0  0  0  0
    8.0770  126.8601   35.1285 H   0  0  0  0  0
    9.6006  125.8067   32.7958 H   0  0  0  0  0
    9.4377  124.0817   32.5860 H   0  0  0  0  0
    7.9619  122.8210   30.5841 H   0  0  0  0  0
    8.9661  123.1188   29.1440 H   0  0  0  0  0
    9.6749  123.2704   30.7706 H   0  0  0  0  0
    5.3697  124.4305   28.5849 H   0  0  0  0  0
    6.4248  123.2479   29.3656 H   0  0  0  0  0
  1  2  1  0  0  0
  5  1  1  0  0  0
  2  3  2  0  0  0
  2  4  1  0  0  0
  5  6  1  0  0  0
  9  5  1  0  0  0
  6  7  1  0  0  0
  6  8  1  0  0  0
  9 10  2  0  0  0
 11  9  1  0  0  0
 12 11  1  0  0  0
 13 12  1  0  0  0
 12 15  1  0  0  0
 13 14  2  0  0  0
 17 13  1  0  0  0
 15 16  1  0  0  0
 18 17  1  0  0  0
 19 18  1  0  0  0
 18 21  1  0  0  0
 19 20  2  0  0  0
 33 19  1  0  0  0
 21 22  1  0  0  0
 22 23  4  0  0  0
 22 24  4  0  0  0
 23 25  4  0  0  0
 24 26  4  0  0  0
 25 27  4  0  0  0
 26 27  4  0  0  0
 29 28  2  0  0  0
 29 30  1  0  0  0
 40 29  1  0  0  0
 30 31  1  0  0  0
 30 32  1  0  0  0
 30 33  1  0  0  0
 32 34  1  0  0  0
 34 35  1  0  0  0
 35 36  1  0  0  0
 36 37  1  0  0  0
 37 38  1  0  0  0
 38 39  1  0  0  0
 39103  2  0  0  0
 41 40  1  0  0  0
 42 41  1  0  0  0
 41 44  1  0  0  0
 42 43  2  0  0  0
 49 42  1  0  0  0
 44 45  1  0  0  0
 45 46  1  0  0  0
 46 47  1  0  0  0
 46 48  2  0  0  0
 50 49  1  0  0  0
 51 50  1  0  0  0
 50 53  1  0  0  0
 51 52  2  0  0  0
 61 51  1  0  0  0
 53 54  1  0  0  0
 54 55  4  0  0  0
 54 56  4  0  0  0
 55 57  4  0  0  0
 56 58  4  0  0  0
 57 59  4  0  0  0
 58 59  4  0  0  0
 59 60  1  0  0  0
 62 61  1  0  0  0
 62 63  1  0  0  0
 74 62  1  0  0  0
 63 64  1  0  0  0
 64 65  4  0  0  0
 64 69  4  0  0  0
 65 66  4  0  0  0
 65 67  4  0  0  0
 66 73  4  0  0  0
 68 67  4  0  0  0
 67 70  4  0  0  0
 69 68  4  0  0  0
 70 71  4  0  0  0
 71 72  1  0  0  0
 73 71  4  0  0  0
 74 75  2  0  0  0
 76 74  1  0  0  0
 77 76  1  0  0  0
 78 77  1  0  0  0
 77 80  1  0  0  0
 78 79  2  0  0  0
 81 78  1  0  0  0
 82 81  1  0  0  0
 83 82  1  0  0  0
 82 85  1  0  0  0
 83 84  2  0  0  0
 89 83  1  0  0  0
 85 86  1  0  0  0
 86 87  1  0  0  0
 86 88  1  0  0  0
 90 89  1  0  0  0
 91 90  1  0  0  0
 90 93  1  0  0  0
 91 92  2  0  0  0
 98 91  1  0  0  0
 93 94  1  0  0  0
 94 95  1  0  0  0
 94 96  1  0  0  0
 97 99  2  0  0  0
100 97  1  0  0  0
 97106  1  0  0  0
 98100  1  0  0  0
100101  1  0  0  0
100105  1  0  0  0
101104  1  0  0  0
103102  1  0  0  0
102104  1  0  0  0
  1107  1  0  0  0
  4108  1  0  0  0
  4109  1  0  0  0
  4110  1  0  0  0
  5111  1  0  0  0
  6112  1  0  0  0
  7113  1  0  0  0
  8114  1  0  0  0
  8115  1  0  0  0
  8116  1  0  0  0
 11117  1  0  0  0
 12118  1  0  0  0
 15119  1  0  0  0
 15120  1  0  0  0
 16121  1  0  0  0
 17122  1  0  0  0
 18123  1  0  0  0
 21124  1  0  0  0
 21125  1  0  0  0
 23126  1  0  0  0
 24127  1  0  0  0
 25128  1  0  0  0
 26129  1  0  0  0
 27130  1  0  0  0
 31131  1  0  0  0
 31132  1  0  0  0
 31133  1  0  0  0
 32134  1  0  0  0
 32135  1  0  0  0
 33136  1  0  0  0
 34137  1  0  0  0
 34138  1  0  0  0
 35139  1  0  0  0
 35140  1  0  0  0
 36141  1  0  0  0
 36142  1  0  0  0
 37143  1  0  0  0
 37144  1  0  0  0
 38145  1  0  0  0
 38146  1  0  0  0
 39147  1  0  0  0
 40148  1  0  0  0
 41149  1  0  0  0
 44150  1  0  0  0
 44151  1  0  0  0
 45152  1  0  0  0
 45153  1  0  0  0
 47154  1  0  0  0
 49155  1  0  0  0
 50156  1  0  0  0
 53157  1  0  0  0
 53158  1  0  0  0
 55159  1  0  0  0
 56160  1  0  0  0
 57161  1  0  0  0
 58162  1  0  0  0
 60163  1  0  0  0
 61164  1  0  0  0
 62165  1  0  0  0
 63166  1  0  0  0
 63167  1  0  0  0
 66168  1  0  0  0
 69169  1  0  0  0
 70170  1  0  0  0
 73171  1  0  0  0
 76172  1  0  0  0
 77173  1  0  0  0
 80174  1  0  0  0
 80175  1  0  0  0
 80176  1  0  0  0
 81177  1  0  0  0
 82178  1  0  0  0
 85179  1  0  0  0
 85180  1  0  0  0
 86181  1  0  0  0
 87182  1  0  0  0
 87183  1  0  0  0
 87184  1  0  0  0
 88185  1  0  0  0
 88186  1  0  0  0
 88187  1  0  0  0
 89188  1  0  0  0
 90189  1  0  0  0
 93190  1  0  0  0
 93191  1  0  0  0
 94192  1  0  0  0
 95193  1  0  0  0
 95194  1  0  0  0
 95195  1  0  0  0
 96196  1  0  0  0
 96197  1  0  0  0
 96198  1  0  0  0
 98199  1  0  0  0
101200  1  0  0  0
101201  1  0  0  0
102202  1  0  0  0
102203  1  0  0  0
103204  1  0  0  0
104205  1  0  0  0
104206  1  0  0  0
105207  1  0  0  0
105208  1  0  0  0
105209  1  0  0  0
106210  1  0  0  0
106211  1  0  0  0
M  END
$$$$
