### 
### Created by X-TOOL on Mon Sep 10 21:13:32 2018
### 

@<TRIPOS>MOLECULE
5xxk_ligand
  211   215     1     0     0
SMALL
GAST_HUCK


@<TRIPOS>ATOM
      1 N          17.9310  138.6120   33.0230 N.am      1 THC        -0.2635
      2 CN         18.2320  139.4620   34.0060 C.2       1 THC         0.1752
      3 ON         17.6230  139.5000   35.0710 O.2       1 THC        -0.3972
      4 CM         19.3600  140.4310   33.7380 C.3       1 THC         0.0258
      5 CA         16.8700  137.6110   33.1410 C.3       1 THC         0.1564
      6 CB         16.4830  137.0840   31.7610 C.3       1 THC         0.0924
      7 OG1        16.0460  138.1760   30.9270 O.3       1 THC        -0.3874
      8 CG2        15.3560  136.0550   31.7910 C.3       1 THC        -0.0346
      9 C          17.3010  136.4710   34.0430 C.2       1 THC         0.2065
     10 O          18.4190  135.9610   33.9240 O.2       1 THC        -0.3943
     11 N          16.4090  136.0660   34.9420 N.am      1 SER        -0.2615
     12 CA         16.7290  134.9990   35.8840 C.3       1 SER         0.1539
     13 C          16.7030  133.6480   35.2010 C.2       1 SER         0.2063
     14 O          16.0050  133.4420   34.2100 O.2       1 SER        -0.3943
     15 CB         15.7370  135.0060   37.0480 C.3       1 SER         0.0843
     16 OG         14.4160  134.7850   36.6140 O.3       1 SER        -0.3903
     17 N          17.4540  132.7130   35.7700 N.am      1 PHE        -0.2619
     18 CA         17.3430  131.3110   35.4050 C.3       1 PHE         0.1402
     19 C          15.8770  130.8420   35.5160 C.2       1 PHE         0.2030
     20 O          15.3960  130.1850   34.6050 O.2       1 PHE        -0.3945
     21 CB         18.2630  130.4420   36.2800 C.3       1 PHE         0.0214
     22 CG         18.0370  128.9760   36.0710 C.ar      1 PHE        -0.0386
     23 CD1        18.4080  128.3710   34.8870 C.ar      1 PHE        -0.0601
     24 CD2        17.3570  128.2310   37.0080 C.ar      1 PHE        -0.0601
     25 CE1        18.1720  127.0360   34.6570 C.ar      1 PHE        -0.0686
     26 CE2        17.0890  126.8890   36.7750 C.ar      1 PHE        -0.0686
     27 CZ         17.4900  126.2940   35.5980 C.ar      1 PHE        -0.0687
     28 OAD        12.2480  130.4600   34.9650 O.2       1 0EH        -0.3419
     29 CAE        12.9730  131.2710   35.5350 C.2       1 0EH         0.2263
     30 CAF        13.7810  130.8400   36.7800 C.3       1 0EH         0.1302
     31 CAA        13.2340  131.6330   37.9730 C.3       1 0EH        -0.0320
     32 CAB        13.6360  129.3160   37.0200 C.3       1 0EH        -0.0201
     33 NAC        15.1970  131.1930   36.5660 N.am      1 0EH        -0.2741
     34 CAO        13.9550  128.6050   38.3580 C.3       1 0EH        -0.0516
     35 CAP        13.4520  127.1220   38.3550 C.3       1 0EH        -0.0530
     36 CAQ        12.1840  126.9810   37.4670 C.3       1 0EH        -0.0515
     37 CAR        11.1210  125.9190   37.6330 C.3       1 0EH        -0.0464
     38 CAS         9.8730  126.4010   36.9110 C.3       1 0EH        -0.0365
     39 CAT         9.4530  125.4500   35.8420 C.2       1 0EH        -0.0987
     40 N          13.1290  132.4760   35.1010 N.am      1 GLU        -0.2628
     41 CA         12.3900  132.9550   33.9290 C.3       1 GLU         0.1326
     42 C          12.7710  132.2230   32.6330 C.2       1 GLU         0.2043
     43 O          11.8730  131.8440   31.8690 O.2       1 GLU        -0.3944
     44 CB         12.5270  134.4740   33.7780 C.3       1 GLU        -0.0007
     45 CG         11.6310  135.0180   32.6590 C.3       1 GLU         0.0044
     46 CD         11.5470  136.5300   32.5520 C.2       1 GLU         0.0350
     47 OE1        12.1480  137.2900   33.3620 O.co2     1 GLU        -0.5690
     48 OE2        10.8380  136.9500   31.6110 O.co2     1 GLU        -0.5690
     49 N          14.0660  131.9980   32.3870 N.am      1 TYR        -0.2621
     50 CA         14.4790  131.2360   31.2010 C.3       1 TYR         0.1390
     51 C          13.8730  129.8250   31.2070 C.2       1 TYR         0.2058
     52 O          13.3660  129.3360   30.1840 O.2       1 TYR        -0.3942
     53 CB         15.9800  131.1060   31.1160 C.3       1 TYR         0.0163
     54 CG         16.7000  132.3560   30.6160 C.ar      1 TYR        -0.0493
     55 CD1        16.4380  132.8670   29.3390 C.ar      1 TYR        -0.0685
     56 CD2        17.6460  132.9710   31.3900 C.ar      1 TYR        -0.0685
     57 CE1        17.1250  133.9740   28.8670 C.ar      1 TYR        -0.0398
     58 CE2        18.3320  134.0830   30.9350 C.ar      1 TYR        -0.0398
     59 CZ         18.0710  134.5740   29.6730 C.ar      1 TYR         0.0805
     60 OH         18.7590  135.7060   29.2500 O.3       1 TYR        -0.3376
     61 N          13.8930  129.1780   32.3790 N.am      1 6CW        -0.2625
     62 CA         13.3890  127.8180   32.4800 C.3       1 6CW         0.1352
     63 CB         13.8280  127.1640   33.8030 C.3       1 6CW         0.0043
     64 CG         13.6800  125.6610   33.7240 C.2       1 6CW        -0.0416
     65 CD2        14.6510  124.6970   33.1980 C.ar      1 6CW        -0.0212
     66 CE3        15.9190  124.8470   32.6280 C.ar      1 6CW        -0.0742
     67 CE2        14.0170  123.3740   33.3430 C.ar      1 6CW         0.0608
     68 NE1        12.8110  123.5600   33.9190 N.pl3     1 6CW        -0.2889
     69 CD1        12.5970  124.8950   34.1520 C.2       1 6CW         0.0169
     70 CZ2        14.7240  122.2740   32.8910 C.ar      1 6CW        -0.0305
     71 CH2        15.9870  122.4420   32.3350 C.ar      1 6CW         0.0251
     72 CLL        16.8910  121.0330   31.7590 Cl        1 6CW        -0.0799
     73 CZ3        16.5860  123.7110   32.1940 C.ar      1 6CW        -0.0654
     74 C          11.8730  127.8000   32.3270 C.2       1 6CW         0.2052
     75 O          11.3160  126.9050   31.6730 O.2       1 6CW        -0.3942
     76 N          11.1940  128.7910   32.8960 N.am      1 ALA        -0.2639
     77 CA          9.7420  128.9280   32.7540 C.3       1 ALA         0.1282
     78 C           9.3170  129.1230   31.2900 C.2       1 ALA         0.2036
     79 O           8.2560  128.6470   30.8960 O.2       1 ALA        -0.3944
     80 CB          9.2080  130.0570   33.6070 C.3       1 ALA        -0.0244
     81 N          10.1450  129.8010   30.4940 N.am      1 LEU        -0.2637
     82 CA          9.8780  129.9680   29.0650 C.3       1 LEU         0.1312
     83 C          10.0370  128.6510   28.3310 C.2       1 LEU         0.2039
     84 O           9.2590  128.3310   27.4260 O.2       1 LEU        -0.3944
     85 CB         10.7980  131.0220   28.4480 C.3       1 LEU        -0.0101
     86 CG         10.3370  132.4630   28.5790 C.3       1 LEU        -0.0425
     87 CD1        11.5030  133.4340   28.4060 C.3       1 LEU        -0.0625
     88 CD2         9.2020  132.7560   27.5900 C.3       1 LEU        -0.0625
     89 N          11.0440  127.8770   28.7380 N.am      1 LEU        -0.2637
     90 CA         11.2340  126.5400   28.2430 C.3       1 LEU         0.1309
     91 C          10.0330  125.6460   28.5370 C.2       1 LEU         0.2010
     92 O           9.5800  124.9160   27.6440 O.2       1 LEU        -0.3947
     93 CB         12.5380  125.9390   28.7870 C.3       1 LEU        -0.0101
     94 CG         12.7030  124.4320   28.6400 C.3       1 LEU        -0.0425
     95 CD1        13.2240  124.1430   27.2530 C.3       1 LEU        -0.0625
     96 CD2        13.6600  123.8970   29.6880 C.3       1 LEU        -0.0625
     97 C           7.1360  125.2280   29.4050 C.2       1 MK8         0.2216
     98 N           9.5170  125.7070   29.7710 N.am      1 MK8        -0.2743
     99 O           6.8890  126.3960   29.0660 O.2       1 MK8        -0.3423
    100 CA          8.3810  124.9080   30.2070 C.3       1 MK8         0.1300
    101 CB          7.9030  125.2290   31.6040 C.3       1 MK8        -0.0186
    102 CD          8.0400  124.9250   33.9970 C.3       1 MK8        -0.0365
    103 CE          8.5050  125.8620   35.0350 C.2       1 MK8        -0.0987
    104 CG          8.8700  125.0000   32.7360 C.3       1 MK8        -0.0449
    105 CB1         8.7750  123.4200   30.1740 C.3       1 MK8        -0.0320
    106 N           6.2280  124.2100   29.0900 N.am      1 NH2        -0.2980
    107 H1         18.4516  138.6608   32.1706 H         1 THC         0.1883
    108 H2         19.5090  141.0729   34.6188 H         1 THC         0.0467
    109 H3         19.1083  141.0551   32.8679 H         1 THC         0.0467
    110 H4         20.2838  139.8705   33.5323 H         1 THC         0.0467
    111 H5         15.9882  138.0920   33.5894 H         1 THC         0.0826
    112 H6         17.3719  136.6162   31.3127 H         1 THC         0.0639
    113 H7         15.8066  137.8425   30.0702 H         1 THC         0.2101
    114 H8         15.1344  135.7239   30.7657 H         1 THC         0.0257
    115 H9         14.4564  136.5091   32.2321 H         1 THC         0.0257
    116 H10        15.6649  135.1904   32.3968 H         1 THC         0.0257
    117 H11        15.5077  136.4981   34.9728 H         1 SER         0.1884
    118 H12        17.7404  135.1736   36.2796 H         1 SER         0.0823
    119 H13        15.7870  135.9825   37.5518 H         1 SER         0.0606
    120 H14        16.0155  134.2127   37.7573 H         1 SER         0.0606
    121 H15        14.1653  135.4695   36.0048 H         1 SER         0.2097
    122 H16        18.1155  132.9814   36.4703 H         1 PHE         0.1885
    123 H17        17.6618  131.2012   34.3580 H         1 PHE         0.0823
    124 H18        18.0734  130.6809   37.3369 H         1 PHE         0.0474
    125 H19        19.3090  130.6763   36.0331 H         1 PHE         0.0474
    126 H20        18.8967  128.9620   34.1208 H         1 PHE         0.0557
    127 H21        17.0295  128.6943   37.9316 H         1 PHE         0.0557
    128 H22        18.5198  126.5701   33.7421 H         1 PHE         0.0599
    129 H23        16.5620  126.3064   37.5220 H         1 PHE         0.0599
    130 H24        17.2704  125.2487   35.4133 H         1 PHE         0.0559
    131 H25        13.7855  131.3536   38.8828 H         1 0EH         0.0242
    132 H26        12.1664  131.4045   38.1067 H         1 0EH         0.0242
    133 H27        13.3578  132.7098   37.7854 H         1 0EH         0.0242
    134 H28        14.2803  128.8356   36.2689 H         1 0EH         0.0277
    135 H29        12.5832  129.0814   36.8041 H         1 0EH         0.0277
    136 H30        15.6599  131.7331   37.2689 H         1 0EH         0.1839
    137 H31        13.4616  129.1479   39.1776 H         1 0EH         0.0265
    138 H32        15.0435  128.6127   38.5160 H         1 0EH         0.0265
    139 H33        13.2089  126.8198   39.3843 H         1 0EH         0.0265
    140 H34        14.2455  126.4710   37.9594 H         1 0EH         0.0265
    141 H35        12.5578  126.8631   36.4392 H         1 0EH         0.0267
    142 H36        11.6551  127.9413   37.5569 H         1 0EH         0.0267
    143 H37        10.9027  125.7704   38.7008 H         1 0EH         0.0285
    144 H38        11.4658  124.9712   37.1939 H         1 0EH         0.0285
    145 H39        10.0804  127.3805   36.4555 H         1 0EH         0.0388
    146 H40         9.0556  126.5014   37.6402 H         1 0EH         0.0388
    147 H41         9.9088  124.4666   35.7371 H         1 0EH         0.0450
    148 H42        13.7624  133.0913   35.5703 H         1 GLU         0.1889
    149 H43        11.3268  132.7413   34.1129 H         1 GLU         0.0803
    150 H44        13.5744  134.7156   33.5446 H         1 GLU         0.0330
    151 H45        12.2427  134.9532   34.7264 H         1 GLU         0.0330
    152 H46        10.6134  134.6351   32.8259 H         1 GLU         0.0433
    153 H47        12.0152  134.6335   31.7027 H         1 GLU         0.0433
    154 H48        14.7589  132.3513   33.0155 H         1 TYR         0.1885
    155 H49        14.1208  131.7712   30.3093 H         1 TYR         0.0821
    156 H50        16.2142  130.2782   30.4306 H         1 TYR         0.0453
    157 H51        16.3611  130.8695   32.1204 H         1 TYR         0.0453
    158 H52        15.6907  132.3921   28.7137 H         1 TYR         0.0530
    159 H53        17.8619  132.5799   32.3777 H         1 TYR         0.0530
    160 H54        16.9217  134.3641   27.8763 H         1 TYR         0.0525
    161 H55        19.0697  134.5651   31.5663 H         1 TYR         0.0525
    162 H56        19.6922  135.5284   29.2552 H         1 TYR         0.2458
    163 H57        14.2574  129.6337   33.1911 H         1 6CW         0.1884
    164 H58        13.8203  127.2324   31.6548 H         1 6CW         0.0815
    165 H59        13.2014  127.5471   34.6219 H         1 6CW         0.0397
    166 H60        14.8810  127.4144   33.9990 H         1 6CW         0.0397
    167 H61        16.3699  125.8277   32.5277 H         1 6CW         0.0541
    168 H62        12.1465  122.8078   34.1505 H         1 6CW         0.2216
    169 H63        11.6980  125.3031   34.6115 H         1 6CW         0.0797
    170 H64        14.2936  121.2823   32.9703 H         1 6CW         0.0547
    171 H65        17.5691  123.7987   31.7458 H         1 6CW         0.0515
    172 H66        11.6915  129.4667   33.4400 H         1 ALA         0.1883
    173 H67         9.2869  127.9925   33.1113 H         1 ALA         0.0797
    174 H68         8.1183  130.1313   33.4765 H         1 ALA         0.0277
    175 H69         9.6793  131.0026   33.3007 H         1 ALA         0.0277
    176 H70         9.4379  129.8583   34.6642 H         1 ALA         0.0277
    177 H71        10.9714  130.2066   30.8847 H         1 LEU         0.1883
    178 H72         8.8380  130.3069   28.9486 H         1 LEU         0.0800
    179 H73        10.8980  130.7963   27.3761 H         1 LEU         0.0315
    180 H74        11.7812  130.9372   28.9339 H         1 LEU         0.0315
    181 H75         9.9391  132.5986   29.5955 H         1 LEU         0.0298
    182 H76        11.1379  134.4668   28.5060 H         1 LEU         0.0232
    183 H77        11.9490  133.2977   27.4098 H         1 LEU         0.0232
    184 H78        12.2618  133.2370   29.1776 H         1 LEU         0.0232
    185 H79         8.3843  132.0371   27.7468 H         1 LEU         0.0232
    186 H80         9.5793  132.6633   26.5609 H         1 LEU         0.0232
    187 H81         8.8282  133.7776   27.7530 H         1 LEU         0.0232
    188 H82        11.6894  128.2388   29.4107 H         1 LEU         0.1883
    189 H83        11.3316  126.6047   27.1493 H         1 LEU         0.0800
    190 H84        12.5952  126.1787   29.8590 H         1 LEU         0.0315
    191 H85        13.3742  126.4202   28.2585 H         1 LEU         0.0315
    192 H86        11.7252  123.9452   28.7697 H         1 LEU         0.0298
    193 H87        13.3499  123.0575   27.1275 H         1 LEU         0.0232
    194 H88        14.1938  124.6431   27.1140 H         1 LEU         0.0232
    195 H89        12.5079  124.5177   26.5068 H         1 LEU         0.0232
    196 H90        13.2651  124.1161   30.6910 H         1 LEU         0.0232
    197 H91        14.6420  124.3778   29.5675 H         1 LEU         0.0232
    198 H92        13.7669  122.8091   29.5657 H         1 LEU         0.0232
    199 H93         9.9342  126.3349   30.4281 H         1 MK8         0.1839
    200 H94         7.0141  124.6110   31.7990 H         1 MK8         0.0279
    201 H95         7.6213  126.2922   31.6205 H         1 MK8         0.0279
    202 H96         6.9961  125.1651   33.7470 H         1 MK8         0.0388
    203 H97         8.0955  123.9012   34.3954 H         1 MK8         0.0388
    204 H98         8.0774  126.8592   35.1284 H         1 MK8         0.0450
    205 H99         9.5850  125.8334   32.8002 H         1 MK8         0.0284
    206 H100        9.4174  124.0580   32.5842 H         1 MK8         0.0284
    207 H101        7.9222  122.8076   30.5021 H         1 MK8         0.0242
    208 H102        9.6281  123.2515   30.8476 H         1 MK8         0.0242
    209 H103        9.0561  123.1377   29.1487 H         1 MK8         0.0242
    210 H104        6.4209  123.2667   29.3602 H         1 NH2         0.1821
    211 H105        5.3865  124.4261   28.5948 H         1 NH2         0.1821
@<TRIPOS>BOND
     1    1    2 am 
     2    5    1 1  
     3    2    3 2  
     4    2    4 1  
     5    5    6 1  
     6    9    5 1  
     7    6    7 1  
     8    6    8 1  
     9    9   10 2  
    10   11    9 am 
    11   12   11 1  
    12   13   12 1  
    13   12   15 1  
    14   13   14 2  
    15   17   13 am 
    16   15   16 1  
    17   18   17 1  
    18   19   18 1  
    19   18   21 1  
    20   19   20 2  
    21   33   19 am 
    22   21   22 1  
    23   22   23 ar 
    24   22   24 ar 
    25   23   25 ar 
    26   24   26 ar 
    27   25   27 ar 
    28   26   27 ar 
    29   29   28 2  
    30   29   30 1  
    31   40   29 am 
    32   30   31 1  
    33   30   32 1  
    34   30   33 1  
    35   32   34 1  
    36   34   35 1  
    37   35   36 1  
    38   36   37 1  
    39   37   38 1  
    40   38   39 1  
    41   39  103 2  
    42   41   40 1  
    43   42   41 1  
    44   41   44 1  
    45   42   43 2  
    46   49   42 am 
    47   44   45 1  
    48   45   46 1  
    49   46   47 ar 
    50   46   48 ar 
    51   50   49 1  
    52   51   50 1  
    53   50   53 1  
    54   51   52 2  
    55   61   51 am 
    56   53   54 1  
    57   54   55 ar 
    58   54   56 ar 
    59   55   57 ar 
    60   56   58 ar 
    61   57   59 ar 
    62   58   59 ar 
    63   59   60 1  
    64   62   61 1  
    65   62   63 1  
    66   74   62 1  
    67   63   64 1  
    68   64   65 1  
    69   64   69 2  
    70   65   66 ar 
    71   65   67 ar 
    72   66   73 ar 
    73   68   67 1  
    74   67   70 ar 
    75   69   68 1  
    76   70   71 ar 
    77   71   72 1  
    78   73   71 ar 
    79   74   75 2  
    80   76   74 am 
    81   77   76 1  
    82   78   77 1  
    83   77   80 1  
    84   78   79 2  
    85   81   78 am 
    86   82   81 1  
    87   83   82 1  
    88   82   85 1  
    89   83   84 2  
    90   89   83 am 
    91   85   86 1  
    92   86   87 1  
    93   86   88 1  
    94   90   89 1  
    95   91   90 1  
    96   90   93 1  
    97   91   92 2  
    98   98   91 am 
    99   93   94 1  
   100   94   95 1  
   101   94   96 1  
   102   97   99 2  
   103  100   97 1  
   104   97  106 am 
   105   98  100 1  
   106  100  101 1  
   107  100  105 1  
   108  101  104 1  
   109  103  102 1  
   110  102  104 1  
   111    1  107 1  
   112    4  108 1  
   113    4  109 1  
   114    4  110 1  
   115    5  111 1  
   116    6  112 1  
   117    7  113 1  
   118    8  114 1  
   119    8  115 1  
   120    8  116 1  
   121   11  117 1  
   122   12  118 1  
   123   15  119 1  
   124   15  120 1  
   125   16  121 1  
   126   17  122 1  
   127   18  123 1  
   128   21  124 1  
   129   21  125 1  
   130   23  126 1  
   131   24  127 1  
   132   25  128 1  
   133   26  129 1  
   134   27  130 1  
   135   31  131 1  
   136   31  132 1  
   137   31  133 1  
   138   32  134 1  
   139   32  135 1  
   140   33  136 1  
   141   34  137 1  
   142   34  138 1  
   143   35  139 1  
   144   35  140 1  
   145   36  141 1  
   146   36  142 1  
   147   37  143 1  
   148   37  144 1  
   149   38  145 1  
   150   38  146 1  
   151   39  147 1  
   152   40  148 1  
   153   41  149 1  
   154   44  150 1  
   155   44  151 1  
   156   45  152 1  
   157   45  153 1  
   158   49  154 1  
   159   50  155 1  
   160   53  156 1  
   161   53  157 1  
   162   55  158 1  
   163   56  159 1  
   164   57  160 1  
   165   58  161 1  
   166   60  162 1  
   167   61  163 1  
   168   62  164 1  
   169   63  165 1  
   170   63  166 1  
   171   66  167 1  
   172   68  168 1  
   173   69  169 1  
   174   70  170 1  
   175   73  171 1  
   176   76  172 1  
   177   77  173 1  
   178   80  174 1  
   179   80  175 1  
   180   80  176 1  
   181   81  177 1  
   182   82  178 1  
   183   85  179 1  
   184   85  180 1  
   185   86  181 1  
   186   87  182 1  
   187   87  183 1  
   188   87  184 1  
   189   88  185 1  
   190   88  186 1  
   191   88  187 1  
   192   89  188 1  
   193   90  189 1  
   194   93  190 1  
   195   93  191 1  
   196   94  192 1  
   197   95  193 1  
   198   95  194 1  
   199   95  195 1  
   200   96  196 1  
   201   96  197 1  
   202   96  198 1  
   203   98  199 1  
   204  101  200 1  
   205  101  201 1  
   206  102  202 1  
   207  102  203 1  
   208  103  204 1  
   209  104  205 1  
   210  104  206 1  
   211  105  207 1  
   212  105  208 1  
   213  105  209 1  
   214  106  210 1  
   215  106  211 1  
@<TRIPOS>SUBSTRUCTURE
     1 THC         1

