5jz9_ligand
  -I-interpret- 

 17 17  0  0  0  0  0  0  0  0999 V2000
   -8.1530   -1.1940  -12.7790 C   0  0  0  0  0
   -7.2830   -0.9030  -11.7390 C   0  0  0  0  0
   -6.0620   -0.3090  -12.0190 C   0  0  0  0  0
   -5.7140   -0.0090  -13.3250 C   0  0  0  0  0
   -6.5830   -0.3030  -14.3600 C   0  0  0  0  0
   -7.8030   -0.8930  -14.0880 C   0  0  0  0  0
   -8.8700   -1.2480  -15.3980 Cl  0  0  0  0  0
   -6.2410   -0.0050  -15.6610 O   0  0  0  0  0
   -4.1940    0.7320  -13.6680 Cl  0  0  0  0  0
   -7.7370   -1.2930  -10.0730 S   0  0  0  0  0
   -7.8920   -0.0620   -9.2070 O   0  0  0  0  0
   -9.1380   -1.8540  -10.0080 O   0  0  0  0  0
   -6.7420   -2.2560   -9.4660 O   0  0  0  0  0
   -9.1151   -1.6608  -12.5677 H   0  0  0  0  0
   -5.3727   -0.0771  -11.2071 H   0  0  0  0  0
   -6.9523   -0.2735  -16.2472 H   0  0  0  0  0
   -7.0533    0.4027   -9.1603 H   0  0  0  0  0
  1  2  4  0  0  0
  1  6  4  0  0  0
  2  3  4  0  0  0
  2 10  1  0  0  0
  3  4  4  0  0  0
  4  5  4  0  0  0
  4  9  1  0  0  0
  5  6  4  0  0  0
  5  8  1  0  0  0
  6  7  1  0  0  0
 10 11  1  0  0  0
 10 12  2  0  0  0
 10 13  2  0  0  0
  1 14  1  0  0  0
  3 15  1  0  0  0
  8 16  1  0  0  0
 11 17  1  0  0  0
M  END
$$$$
