1ghz_ligand
  -I-interpret- 

 29 31  0  0  0  0  0  0  0  0999 V2000
   45.5210   19.3220   52.9710 C   0  0  0  0  0
   44.9600   18.9450   51.7100 C   0  0  0  0  0
   44.6630   19.8760   50.7100 C   0  0  0  0  0
   44.9430   21.1740   51.0030 C   0  0  0  0  0
   45.4780   21.5930   52.1780 C   0  0  0  0  0
   45.7850   20.7080   53.2020 C   0  0  0  0  0
   45.8050   18.3410   53.9180 C   0  0  0  0  0
   46.5150   18.6530   54.9580 N   0  0  0  0  0
   45.3730   17.1190   53.7560 N   0  0  0  0  0
   44.7760   22.2190   50.2680 N   0  0  0  0  0
   45.6450   22.9130   52.2160 N   0  0  0  0  0
   45.1820   23.2150   50.9930 C   0  0  0  0  0
   45.2120   24.5160   50.4390 C   0  0  0  0  0
   45.9180   25.5190   51.0800 C   0  0  0  0  0
   45.9540   26.7840   50.5520 C   0  0  0  0  0
   45.3000   27.0960   49.3770 C   0  0  0  0  0
   44.6330   26.1090   48.7910 N   0  0  0  0  0
   44.5300   24.8470   49.2100 C   0  0  0  0  0
   43.8810   24.0230   48.5860 O   0  0  0  0  0
   44.7562   17.8909   51.5215 H   0  0  0  0  0
   44.2330   19.5793   49.7534 H   0  0  0  0  0
   46.2100   21.0553   54.1437 H   0  0  0  0  0
   46.7387   17.9424   55.6547 H   0  0  0  0  0
   45.5935   16.4040   54.4492 H   0  0  0  0  0
   44.8152   16.8797   52.9362 H   0  0  0  0  0
   46.4474   25.3026   52.0079 H   0  0  0  0  0
   46.5125   27.5619   51.0726 H   0  0  0  0  0
   45.3297   28.0996   48.9528 H   0  0  0  0  0
   44.1459   26.3413   47.9254 H   0  0  0  0  0
  7  1  1  0  0  0
  1  6  4  0  0  0
  1  2  4  0  0  0
  2  3  4  0  0  0
  3  4  4  0  0  0
  4 10  4  0  0  0
  4  5  4  0  0  0
  5 11  4  0  0  0
  6  5  4  0  0  0
 11 12  4  0  0  0
 12 13  1  0  0  0
 10 12  4  0  0  0
 13 18  1  0  0  0
 13 14  2  0  0  0
 14 15  1  0  0  0
 15 16  2  0  0  0
 16 17  1  0  0  0
 18 17  1  0  0  0
 18 19  2  0  0  0
  7  9  1  0  0  0
  7  8  2  0  0  0
  2 20  1  0  0  0
  3 21  1  0  0  0
  6 22  1  0  0  0
  8 23  1  0  0  0
  9 24  1  0  0  0
  9 25  1  0  0  0
 14 26  1  0  0  0
 15 27  1  0  0  0
 16 28  1  0  0  0
 17 29  1  0  0  0
M  END
$$$$
