6h7d_ligand
  -I-interpret- 

 24 24  0  0  0  0  0  0  0  0999 V2000
  -19.6590   -5.8720   -2.6360 C   0  0  0  0  0
  -19.6900   -6.4150   -1.2430 C   0  0  0  0  0
  -20.5910   -5.5980   -0.3740 C   0  0  0  0  0
  -22.0060   -5.6520   -0.9450 C   0  0  0  0  0
  -22.9760   -4.8570   -0.1220 C   0  0  0  0  0
  -21.0710   -5.8990   -3.2270 C   0  0  0  0  0
  -21.1470   -5.3340   -4.4530 O   0  0  0  0  0
  -18.7880   -6.6740   -3.4520 O   0  0  0  0  0
  -18.3690   -6.4860   -0.6280 O   0  0  0  0  0
  -20.5710   -6.1050    0.9690 O   0  0  0  0  0
  -22.0190   -5.1500   -2.3400 O   0  0  0  0  0
  -24.1820   -4.8280   -0.8490 O   0  0  0  0  0
  -19.2904   -4.8465   -2.6120 H   0  0  0  0  0
  -20.0722   -7.4323   -1.3273 H   0  0  0  0  0
  -20.2480   -4.5636   -0.3520 H   0  0  0  0  0
  -22.3193   -6.6958   -0.9239 H   0  0  0  0  0
  -22.6028   -3.8488    0.0578 H   0  0  0  0  0
  -23.1207   -5.3100    0.8588 H   0  0  0  0  0
  -21.3344   -6.9536   -3.3071 H   0  0  0  0  0
  -20.5505   -5.7895   -5.0516 H   0  0  0  0  0
  -17.9018   -6.6585   -3.0832 H   0  0  0  0  0
  -17.7867   -7.0100   -1.1829 H   0  0  0  0  0
  -19.6753   -6.0638    1.3121 H   0  0  0  0  0
  -24.8378   -4.3268   -0.3588 H   0  0  0  0  0
  2  1  1  0  0  0
  1  6  1  0  0  0
  1  8  1  0  0  0
  3  2  1  0  0  0
  2  9  1  0  0  0
  4  3  1  0  0  0
  3 10  1  0  0  0
  5  4  1  0  0  0
  4 11  1  0  0  0
 12  5  1  0  0  0
  6  7  1  0  0  0
  6 11  1  0  0  0
  1 13  1  0  0  0
  2 14  1  0  0  0
  3 15  1  0  0  0
  4 16  1  0  0  0
  5 17  1  0  0  0
  5 18  1  0  0  0
  6 19  1  0  0  0
  7 20  1  0  0  0
  8 21  1  0  0  0
  9 22  1  0  0  0
 10 23  1  0  0  0
 12 24  1  0  0  0
M  END
$$$$
