1laf_ligand
  -I-interpret- 

 27 26  0  0  0  0  0  0  0  0999 V2000
   18.7560   58.1550   45.9180 N   0  3  0  0  0
   18.9000   57.4290   47.1380 C   0  0  0  0  0
   18.2750   58.3260   48.2220 C   0  0  0  0  0
   18.1210   57.8770   49.3480 O   0  0  0  0  0
   20.3840   57.1610   47.3900 C   0  0  0  0  0
   21.2940   58.3560   47.1410 C   0  0  0  0  0
   22.6150   58.0920   47.7820 C   0  0  0  0  0
   23.5380   59.1580   47.4680 N   0  0  0  0  0
   24.7770   59.1570   47.9720 C   0  0  0  0  0
   25.1580   58.2250   48.8030 N   0  0  0  0  0
   25.6620   60.1130   47.6930 N   0  0  0  0  0
   17.9170   59.4770   47.9200 O   0  0  0  0  0
   17.7670   58.3359   45.7461 H   0  0  0  0  0
   19.2574   59.0404   45.9894 H   0  0  0  0  0
   19.1410   57.6058   45.1495 H   0  0  0  0  0
   18.4078   56.4566   47.1232 H   0  0  0  0  0
   20.6888   56.3783   46.6953 H   0  0  0  0  0
   20.4857   56.8971   48.4427 H   0  0  0  0  0
   20.8490   59.2556   47.5662 H   0  0  0  0  0
   21.4253   58.5048   46.0692 H   0  0  0  0  0
   23.0140   57.1497   47.4065 H   0  0  0  0  0
   22.4847   58.0370   48.8628 H   0  0  0  0  0
   23.2421   59.9186   46.8562 H   0  0  0  0  0
   24.5083   57.4871   49.0745 H   0  0  0  0  0
   26.5868   60.0930   48.1228 H   0  0  0  0  0
   25.4147   60.8649   47.0496 H   0  0  0  0  0
   18.1217   59.6427   46.9968 H   0  0  0  0  0
  2  3  1  0  0  0
  2  5  1  0  0  0
  2  1  1  0  0  0
  5  6  1  0  0  0
  6  7  1  0  0  0
  7  8  1  0  0  0
  8  9  1  0  0  0
  9 10  2  0  0  0
  9 11  1  0  0  0
  3 12  1  0  0  0
  3  4  2  0  0  0
  1 13  1  0  0  0
  1 14  1  0  0  0
  1 15  1  0  0  0
  2 16  1  0  0  0
  5 17  1  0  0  0
  5 18  1  0  0  0
  6 19  1  0  0  0
  6 20  1  0  0  0
  7 21  1  0  0  0
  7 22  1  0  0  0
  8 23  1  0  0  0
 10 24  1  0  0  0
 11 25  1  0  0  0
 11 26  1  0  0  0
 12 27  1  0  0  0
M  END
$$$$
