5igk_ligand
  -I-interpret- 

 48 50  0  0  0  0  0  0  0  0999 V2000
   30.1720   14.8700   -0.5010 C   0  0  0  0  0
   31.7580   16.4020    0.2530 N   0  0  0  0  0
   33.6550   15.4540   -1.7110 C   0  0  0  0  0
   34.6520   14.0010   -3.3580 C   0  0  0  0  0
   37.2920   12.5490   -5.2900 C   0  0  0  0  0
   32.3700   14.9440   -1.6510 C   0  0  0  0  0
   32.8050   18.6950    1.9530 C   0  0  0  0  0
   28.2250   13.7130   -1.4180 C   0  0  0  0  0
   26.4190   12.7160   -0.0570 C   0  0  0  0  0
   27.6700   13.5440   -0.1740 C   0  0  0  0  0
   28.3830   13.9690    0.9450 C   0  0  0  0  0
   27.8440   13.6740    2.2500 N   0  0  0  0  0
   28.6480   13.7120    3.6750 S   0  0  0  0  0
   28.8520   15.3080    4.2580 C   0  0  0  0  0
   29.9290   13.1630    3.4110 O   0  0  0  0  0
   27.8550   13.0070    4.6060 O   0  0  0  0  0
   29.6330   14.6850    0.7980 C   0  0  0  0  0
   31.4830   15.4060   -0.6200 C   0  0  0  0  0
   33.0090   16.9150    0.1320 N   0  0  0  0  0
   34.0250   16.4840   -0.7690 C   0  0  0  0  0
   34.7080   15.0880   -2.5230 N   0  0  0  0  0
   35.8260   13.8640   -4.0180 O   0  0  0  0  0
   35.8340   12.7270   -4.9270 C   0  0  0  0  0
   33.6980   13.2400   -3.4910 O   0  0  0  0  0
   35.1490   17.1880   -0.5860 N   0  0  0  0  0
   34.8570   18.1060    0.4070 N   0  0  0  0  0
   33.5670   17.9330    0.8580 C   0  0  0  0  0
   29.4620   14.3320   -1.5630 C   0  0  0  0  0
   37.6596   13.4570   -5.7680 H   0  0  0  0  0
   37.8689   12.3537   -4.3861 H   0  0  0  0  0
   37.3942   11.7085   -5.9765 H   0  0  0  0  0
   32.0356   14.2020   -2.3760 H   0  0  0  0  0
   31.9268   19.1720    1.5179 H   0  0  0  0  0
   32.4935   17.9969    2.7300 H   0  0  0  0  0
   33.4560   19.4549    2.3853 H   0  0  0  0  0
   27.6915   13.3589   -2.3001 H   0  0  0  0  0
   25.6291   13.1665   -0.6580 H   0  0  0  0  0
   26.6185   11.7060   -0.4150 H   0  0  0  0  0
   26.1064   12.6778    0.9865 H   0  0  0  0  0
   26.8583   13.4145    2.2888 H   0  0  0  0  0
   29.4442   15.2863    5.1728 H   0  0  0  0  0
   29.3659   15.9056    3.5051 H   0  0  0  0  0
   27.8754   15.7450    4.4661 H   0  0  0  0  0
   30.1523   15.0762    1.6729 H   0  0  0  0  0
   35.5610   15.6469   -2.5019 H   0  0  0  0  0
   35.4130   11.8322   -4.4686 H   0  0  0  0  0
   35.2106   12.8987   -5.8045 H   0  0  0  0  0
   29.8946   14.3973   -2.5613 H   0  0  0  0  0
  1 17  4  0  0  0
 18  1  1  0  0  0
  1 28  4  0  0  0
 18  2  4  0  0  0
 19  2  4  0  0  0
  3  6  4  0  0  0
  3 20  4  0  0  0
 21  3  1  0  0  0
  4 21  1  0  0  0
 22  4  1  0  0  0
  4 24  2  0  0  0
 23  5  1  0  0  0
  6 18  4  0  0  0
 27  7  1  0  0  0
  8 10  4  0  0  0
 28  8  4  0  0  0
 10  9  1  0  0  0
 11 10  4  0  0  0
 11 12  1  0  0  0
 17 11  4  0  0  0
 12 13  1  0  0  0
 13 14  1  0  0  0
 13 15  2  0  0  0
 13 16  2  0  0  0
 20 19  4  0  0  0
 19 27  4  0  0  0
 20 25  4  0  0  0
 22 23  1  0  0  0
 25 26  4  0  0  0
 26 27  4  0  0  0
  5 29  1  0  0  0
  5 30  1  0  0  0
  5 31  1  0  0  0
  6 32  1  0  0  0
  7 33  1  0  0  0
  7 34  1  0  0  0
  7 35  1  0  0  0
  8 36  1  0  0  0
  9 37  1  0  0  0
  9 38  1  0  0  0
  9 39  1  0  0  0
 12 40  1  0  0  0
 14 41  1  0  0  0
 14 42  1  0  0  0
 14 43  1  0  0  0
 17 44  1  0  0  0
 21 45  1  0  0  0
 23 46  1  0  0  0
 23 47  1  0  0  0
 28 48  1  0  0  0
M  END
$$$$
