6e99_ligand
  -I-interpret- 

 56 58  0  0  0  0  0  0  0  0999 V2000
   -3.9520   10.1270  -14.0500 N   0  0  0  0  0
  -12.3510    6.3750  -12.7910 N   0  0  0  0  0
   -6.6300    8.7850  -14.7430 C   0  0  0  0  0
   -6.3830    9.9260  -13.9760 C   0  0  0  0  0
   -7.2940   10.3450  -13.0250 C   0  0  0  0  0
   -5.1720   10.7830  -14.0870 C   0  0  0  0  0
   -2.6860   10.8360  -14.1640 C   0  0  0  0  0
   -0.9950   12.0590  -12.8440 C   0  0  0  0  0
   -1.7730   10.8470  -10.4950 C   0  0  0  0  0
    0.9880   14.0410  -12.6850 C   0  0  0  0  0
   -9.9660    7.7640  -13.2870 C   0  0  0  0  0
  -12.3100    7.7090  -12.8810 C   0  0  0  0  0
  -11.1640    8.4370  -13.1240 C   0  0  0  0  0
   -4.8030    6.8110  -17.4250 C   0  0  0  0  0
   -8.4550    9.6400  -12.8010 C   0  0  0  0  0
   -5.3110   12.0010  -14.1620 O   0  0  0  0  0
   -8.7290    8.5010  -13.5310 C   0  0  0  0  0
   -5.7180    8.3320  -15.7440 N   0  0  0  0  0
    0.7370   13.2410  -11.5300 O   0  0  0  0  0
   -7.8150    8.0930  -14.4890 C   0  0  0  0  0
   -3.7140    6.3400  -16.5900 N   0  3  0  0  0
   -2.0380   11.1550  -12.8520 C   0  0  0  0  0
   -0.3440   12.3660  -11.6600 C   0  0  0  0  0
   -0.7300   11.7470  -10.4880 C   0  0  0  0  0
   -2.4210   10.5500  -11.6740 C   0  0  0  0  0
   -5.9860    7.1410  -16.5410 C   0  0  0  0  0
   -9.9820    6.3830  -13.2050 C   0  0  0  0  0
  -11.1820    5.7430  -12.9600 C   0  0  0  0  0
   -1.6900    9.9800  -14.9250 C   0  0  0  0  0
   -3.9408    9.1131  -13.9391 H   0  0  0  0  0
   -7.0907   11.2451  -12.4449 H   0  0  0  0  0
   -2.9303   11.7705  -14.6691 H   0  0  0  0  0
   -0.6819   12.5338  -13.7738 H   0  0  0  0  0
   -2.0860   10.3693   -9.5666 H   0  0  0  0  0
    1.2023   13.3929  -13.5348 H   0  0  0  0  0
    0.1096   14.6487  -12.9023 H   0  0  0  0  0
    1.8431   14.6902  -12.4969 H   0  0  0  0  0
  -13.2438    8.2568  -12.7539 H   0  0  0  0  0
  -11.2014    9.5246  -13.1866 H   0  0  0  0  0
   -5.0809    6.0379  -18.1413 H   0  0  0  0  0
   -4.4911    7.7003  -17.9727 H   0  0  0  0  0
   -9.1607    9.9826  -12.0442 H   0  0  0  0  0
   -4.8573    8.8549  -15.9055 H   0  0  0  0  0
   -8.0303    7.1949  -15.0679 H   0  0  0  0  0
   -2.9105    6.1144  -17.1764 H   0  0  0  0  0
   -3.4570    7.0695  -15.9250 H   0  0  0  0  0
   -4.0116    5.5061  -16.0836 H   0  0  0  0  0
   -0.2094   11.9704   -9.5568 H   0  0  0  0  0
   -3.2414    9.8324  -11.6753 H   0  0  0  0  0
   -6.1690    6.3019  -15.8698 H   0  0  0  0  0
   -6.8555    7.3274  -17.1713 H   0  0  0  0  0
   -9.0637    5.8096  -13.3315 H   0  0  0  0  0
  -11.1770    4.6546  -12.9005 H   0  0  0  0  0
   -0.7657   10.5400  -15.0674 H   0  0  0  0  0
   -1.4831    9.0733  -14.3565 H   0  0  0  0  0
   -2.1084    9.7141  -15.8957 H   0  0  0  0  0
  1  6  1  0  0  0
  7  1  1  0  0  0
 12  2  4  0  0  0
  2 28  4  0  0  0
  4  3  4  0  0  0
  3 18  1  0  0  0
  3 20  4  0  0  0
  4  5  4  0  0  0
  6  4  1  0  0  0
  5 15  4  0  0  0
  6 16  2  0  0  0
 22  7  1  0  0  0
  7 29  1  0  0  0
 22  8  4  0  0  0
  8 23  4  0  0  0
  9 24  4  0  0  0
 25  9  4  0  0  0
 19 10  1  0  0  0
 11 13  4  0  0  0
 17 11  1  0  0  0
 11 27  4  0  0  0
 13 12  4  0  0  0
 14 21  1  0  0  0
 26 14  1  0  0  0
 15 17  4  0  0  0
 20 17  4  0  0  0
 18 26  1  0  0  0
 23 19  1  0  0  0
 22 25  4  0  0  0
 23 24  4  0  0  0
 27 28  4  0  0  0
  1 30  1  0  0  0
  5 31  1  0  0  0
  7 32  1  0  0  0
  8 33  1  0  0  0
  9 34  1  0  0  0
 10 35  1  0  0  0
 10 36  1  0  0  0
 10 37  1  0  0  0
 12 38  1  0  0  0
 13 39  1  0  0  0
 14 40  1  0  0  0
 14 41  1  0  0  0
 15 42  1  0  0  0
 18 43  1  0  0  0
 20 44  1  0  0  0
 21 45  1  0  0  0
 21 46  1  0  0  0
 21 47  1  0  0  0
 24 48  1  0  0  0
 25 49  1  0  0  0
 26 50  1  0  0  0
 26 51  1  0  0  0
 27 52  1  0  0  0
 28 53  1  0  0  0
 29 54  1  0  0  0
 29 55  1  0  0  0
 29 56  1  0  0  0
M  END
$$$$
