1mv0_ligand
  -I-interpret- 

217220  0  0  0  0  0  0  0  0999 V2000
    1.3250    0.0000    0.0000 N   0  3  0  0  0
    2.0730    0.0000   -1.2450 C   0  0  0  0  0
    2.1090   -1.4200   -1.8140 C   0  0  0  0  0
    3.0680   -2.1580   -1.5910 O   0  0  0  0  0
    3.4590    0.6140   -1.0380 C   0  0  0  0  0
    3.5440    2.1370   -1.1660 C   0  0  0  0  0
    4.8060    2.6740   -0.4890 C   0  0  0  0  0
    3.4490    2.5700   -2.6300 C   0  0  0  0  0
    1.0530   -1.7600   -2.5380 N   0  0  0  0  0
    0.9510   -3.0790   -3.1400 C   0  0  0  0  0
    1.7900   -3.1170   -4.4190 C   0  0  0  0  0
    1.5590   -2.3370   -5.3410 O   0  0  0  0  0
   -0.5150   -3.4580   -3.3550 C   0  0  0  0  0
   -1.3480   -3.6640   -2.0880 C   0  0  0  0  0
   -1.0900   -2.5460   -1.0750 C   0  0  0  0  0
   -2.8340   -3.8010   -2.4240 C   0  0  0  0  0
    2.7730   -4.0570   -4.4330 N   0  0  0  0  0
    3.6480   -4.2070   -5.5840 C   0  0  0  0  0
    2.9210   -4.8990   -6.7390 C   0  0  0  0  0
    2.3490   -5.9730   -6.5620 O   0  0  0  0  0
    4.8390   -5.0000   -5.0710 C   0  0  0  0  0
    4.3760   -5.6620   -3.7840 C   0  0  0  0  0
    3.0760   -4.9980   -3.3600 C   0  0  0  0  0
    2.9680   -4.2540   -7.8960 N   0  0  0  0  0
    2.3190   -4.7930   -9.0790 C   0  0  0  0  0
    3.0220   -6.0730   -9.5360 C   0  0  0  0  0
    4.2490   -6.1170   -9.6160 O   0  0  0  0  0
    2.2980   -3.6980  -10.1470 C   0  0  0  0  0
    1.6130   -4.2960  -11.2440 O   0  0  0  0  0
    3.6910   -3.3910  -10.6990 C   0  0  0  0  0
    2.1930   -7.1100   -9.8310 N   0  0  0  0  0
    2.7220   -8.3870  -10.2790 C   0  0  0  0  0
    3.1940   -8.3060  -11.7320 C   0  0  0  0  0
    2.9630   -7.3050  -12.4080 O   0  0  0  0  0
    1.5860   -9.3760  -10.0780 C   0  0  0  0  0
    0.3210   -8.5400   -9.9640 C   0  0  0  0  0
    0.7360   -7.0940   -9.7460 C   0  0  0  0  0
    3.8630   -9.4010  -12.1810 N   0  0  0  0  0
    4.3690   -9.4640  -13.5420 C   0  0  0  0  0
    3.2330   -9.7060  -14.5380 C   0  0  0  0  0
    2.1520  -10.1510  -14.1560 O   0  0  0  0  0
    5.3970  -10.5830  -13.5290 C   0  0  0  0  0
    5.0970  -11.4100  -12.2890 C   0  0  0  0  0
    4.1560  -10.6050  -11.4080 C   0  0  0  0  0
    3.5180   -9.4040  -15.7960 N   0  0  0  0  0
    2.5340   -9.5840  -16.8500 C   0  0  0  0  0
    2.1300  -11.0580  -16.9190 C   0  0  0  0  0
    2.9870  -11.9380  -16.9810 O   0  0  0  0  0
    3.0600   -9.0280  -18.1750 C   0  0  0  0  0
    2.2300   -7.9110  -18.8110 C   0  0  0  0  0
    3.1120   -6.9770  -19.6410 C   0  0  0  0  0
    1.0730   -8.4870  -19.6310 C   0  0  0  0  0
    0.8240  -11.2820  -16.9040 N   0  0  0  0  0
    0.2960  -12.6340  -16.9640 C   0  0  0  0  0
    0.0110  -13.0210  -18.4170 C   0  0  0  0  0
   -0.1580  -12.1530  -19.2720 O   0  0  0  0  0
   -0.9740  -12.7680  -16.1210 C   0  0  0  0  0
   -2.0900  -12.1240  -16.7310 O   0  0  0  0  0
   -0.0330  -14.3580  -18.6580 N   0  0  0  0  0
   -0.2950  -14.8700  -19.9930 C   0  0  0  0  0
   -1.7730  -14.7200  -20.3580 C   0  0  0  0  0
   -2.5900  -14.3530  -19.5150 O   0  0  0  0  0
    0.1640  -16.3190  -19.9550 C   0  0  0  0  0
    0.2310  -16.6970  -18.4840 C   0  0  0  0  0
    0.1630  -15.4150  -17.6700 C   0  0  0  0  0
   -2.0710  -15.0110  -21.6150 N   0  0  0  0  0
   -3.4370  -14.9140  -22.1020 C   0  0  0  0  0
   -4.2800  -16.0550  -21.5290 C   0  0  0  0  0
   -4.3480  -17.1350  -22.1140 O   0  0  0  0  0
   -3.4800  -14.9390  -23.6310 C   0  0  0  0  0
   -2.8800  -16.1170  -24.1630 O   0  0  0  0  0
   -4.9000  -15.7760  -20.3920 N   0  0  0  0  0
   -5.7350  -16.7660  -19.7330 C   0  0  0  0  0
   -7.1110  -16.8290  -20.3990 C   0  0  0  0  0
   -8.0550  -16.1870  -19.9420 O   0  0  0  0  0
   -5.9090  -16.4390  -18.2480 C   0  0  0  0  0
   -4.9070  -17.2190  -17.3940 C   0  0  0  0  0
   -3.4750  -16.9920  -17.8830 C   0  0  0  0  0
   -2.5810  -18.0340  -17.3320 N   0  0  0  0  0
   -2.4630  -19.2690  -17.8380 C   0  0  0  0  0
   -3.1830  -19.6240  -18.9110 N   0  0  0  0  0
   -1.6260  -20.1490  -17.2720 N   0  0  0  0  0
   -7.1800  -17.6080  -21.4680 N   0  0  0  0  0
   -8.4250  -17.7630  -22.2010 C   0  0  0  0  0
   -9.3400  -18.7600  -21.4880 C   0  0  0  0  0
   -9.0980  -19.9660  -21.5230 O   0  0  0  0  0
   -8.1670  -18.2500  -23.6290 C   0  0  0  0  0
   -7.1630  -19.4050  -23.6410 C   0  0  0  0  0
   -7.4470  -20.3660  -24.7970 C   0  0  0  0  0
   -6.2010  -21.0560  -25.2000 N   0  0  0  0  0
   -5.6570  -22.0790  -24.5280 C   0  0  0  0  0
   -6.2460  -22.5380  -23.4150 N   0  0  0  0  0
   -4.5240  -22.6430  -24.9680 N   0  0  0  0  0
  -10.3730  -18.2200  -20.8570 N   0  0  0  0  0
  -11.3260  -19.0480  -20.1380 C   0  0  0  0  0
  -12.2070  -19.8120  -21.1280 C   0  0  0  0  0
  -13.2950  -19.3550  -21.4770 O   0  0  0  0  0
  -12.1910  -18.2030  -19.2000 C   0  0  0  0  0
  -11.4070  -17.3270  -18.3940 O   0  0  0  0  0
  -11.7060  -20.9620  -21.5520 N   0  0  0  0  0
  -12.4340  -21.7940  -22.4950 C   0  0  0  0  0
  -12.2570  -21.2830  -23.9260 C   0  0  0  0  0
  -12.2720  -22.0660  -24.8750 O   0  0  0  0  0
  -12.0856  -19.9826  -24.1460 O   0  0  0  0  0
    1.3002    0.9461    0.3804 H   0  0  0  0  0
    0.3733   -0.3218   -0.1765 H   0  0  0  0  0
    1.7780   -0.6243    0.6674 H   0  0  0  0  0
    1.5785    0.6285   -1.9856 H   0  0  0  0  0
    4.0954    0.2048   -1.8227 H   0  0  0  0  0
    3.7495    0.3761   -0.0147 H   0  0  0  0  0
    2.6905    2.5723   -0.6462 H   0  0  0  0  0
    5.6853    2.2990   -1.0127 H   0  0  0  0  0
    4.7989    3.7635   -0.5221 H   0  0  0  0  0
    4.8299    2.3409    0.5486 H   0  0  0  0  0
    3.4280    3.6584   -2.6850 H   0  0  0  0  0
    4.3144    2.1939   -3.1757 H   0  0  0  0  0
    2.5371    2.1651   -3.0689 H   0  0  0  0  0
    0.2999   -1.0858   -2.6751 H   0  0  0  0  0
    1.3567   -3.8363   -2.4692 H   0  0  0  0  0
   -0.5102   -4.4150   -3.8768 H   0  0  0  0  0
   -0.9713   -2.6244   -3.8889 H   0  0  0  0  0
   -1.0362   -4.5991   -1.6228 H   0  0  0  0  0
   -0.0344   -2.5401   -0.8033 H   0  0  0  0  0
   -1.3577   -1.5869   -1.5183 H   0  0  0  0  0
   -1.6948   -2.7176   -0.1845 H   0  0  0  0  0
   -3.1769   -2.8956   -2.9247 H   0  0  0  0  0
   -2.9790   -4.6584   -3.0812 H   0  0  0  0  0
   -3.4012   -3.9463   -1.5046 H   0  0  0  0  0
    3.9704   -3.2505   -5.9954 H   0  0  0  0  0
    5.6989   -4.3534   -4.8960 H   0  0  0  0  0
    5.1653   -5.7404   -5.8014 H   0  0  0  0  0
    4.2211   -6.7292   -3.9424 H   0  0  0  0  0
    5.1309   -5.5458   -3.0064 H   0  0  0  0  0
    2.2758   -5.7245   -3.2185 H   0  0  0  0  0
    3.1704   -4.4984   -2.3958 H   0  0  0  0  0
    3.4670   -3.3665   -7.9568 H   0  0  0  0  0
    1.2893   -5.0818   -8.8682 H   0  0  0  0  0
    1.8668   -2.7895   -9.7265 H   0  0  0  0  0
    1.5563   -3.6660  -11.9662 H   0  0  0  0  0
    4.3365   -3.0562   -9.8870 H   0  0  0  0  0
    4.1086   -4.2916  -11.1491 H   0  0  0  0  0
    3.6171   -2.6072  -11.4528 H   0  0  0  0  0
    3.6049   -8.6958   -9.7193 H   0  0  0  0  0
    1.7419   -9.9815   -9.1852 H   0  0  0  0  0
    1.5220  -10.0792  -10.9084 H   0  0  0  0  0
   -0.2742   -8.6294  -10.8727 H   0  0  0  0  0
   -0.2882   -8.8882   -9.1299 H   0  0  0  0  0
    0.2927   -6.4277  -10.4860 H   0  0  0  0  0
    0.3888   -6.7115   -8.7862 H   0  0  0  0  0
    4.8244   -8.5280  -13.8653 H   0  0  0  0  0
    6.4123  -10.1872  -13.5045 H   0  0  0  0  0
    5.3341  -11.1885  -14.4332 H   0  0  0  0  0
    4.6351  -12.3567  -12.5690 H   0  0  0  0  0
    6.0188  -11.6335  -11.7519 H   0  0  0  0  0
    3.2512  -11.1619  -11.1643 H   0  0  0  0  0
    4.6046  -10.3694  -10.4429 H   0  0  0  0  0
    4.4420   -9.0397  -16.0282 H   0  0  0  0  0
    1.6307   -9.0156  -16.6284 H   0  0  0  0  0
    3.0480   -9.8581  -18.8813 H   0  0  0  0  0
    4.0379   -8.5976  -17.9594 H   0  0  0  0  0
    1.7919   -7.3132  -18.0117 H   0  0  0  0  0
    3.8691   -6.5279  -18.9982 H   0  0  0  0  0
    3.5976   -7.5467  -20.4333 H   0  0  0  0  0
    2.4956   -6.1930  -20.0810 H   0  0  0  0  0
    1.4711   -9.1218  -20.4226 H   0  0  0  0  0
    0.4269   -9.0768  -18.9808 H   0  0  0  0  0
    0.5000   -7.6711  -20.0715 H   0  0  0  0  0
    0.1797  -10.4931  -16.8495 H   0  0  0  0  0
    1.0451  -13.3114  -16.5541 H   0  0  0  0  0
   -0.7937  -12.2956  -15.1554 H   0  0  0  0  0
   -1.2057  -13.8283  -16.0197 H   0  0  0  0  0
   -2.8639  -12.2306  -16.1730 H   0  0  0  0  0
    0.2369  -14.3175  -20.7675 H   0  0  0  0  0
    1.1333  -16.4396  -20.4388 H   0  0  0  0  0
   -0.5243  -16.9662  -20.4986 H   0  0  0  0  0
   -0.5991  -17.3540  -18.2244 H   0  0  0  0  0
    1.1579  -17.2302  -18.2726 H   0  0  0  0  0
   -0.6435  -15.4411  -16.9372 H   0  0  0  0  0
    1.0671  -15.2587  -17.0815 H   0  0  0  0  0
   -1.3308  -15.3077  -22.2510 H   0  0  0  0  0
   -3.8512  -13.9623  -21.7691 H   0  0  0  0  0
   -2.9254  -14.0769  -24.0016 H   0  0  0  0  0
   -4.5242  -14.9178  -23.9429 H   0  0  0  0  0
   -2.9273  -16.0940  -25.1216 H   0  0  0  0  0
   -4.7896  -14.8526  -19.9730 H   0  0  0  0  0
   -5.2389  -17.7322  -19.8252 H   0  0  0  0  0
   -6.9183  -16.7170  -17.9445 H   0  0  0  0  0
   -5.7373  -15.3725  -18.1022 H   0  0  0  0  0
   -5.1373  -18.2818  -17.4683 H   0  0  0  0  0
   -4.9831  -16.8735  -16.3630 H   0  0  0  0  0
   -3.1329  -16.0126  -17.5486 H   0  0  0  0  0
   -3.4557  -17.0420  -18.9717 H   0  0  0  0  0
   -2.0185  -17.7971  -16.5147 H   0  0  0  0  0
   -3.0938  -20.5640  -19.2968 H   0  0  0  0  0
   -3.8202  -18.9542  -19.3420 H   0  0  0  0  0
   -1.0780  -19.8789  -16.4552 H   0  0  0  0  0
   -6.3470  -18.1064  -21.7813 H   0  0  0  0  0
   -8.9080  -16.7868  -22.2436 H   0  0  0  0  0
   -7.7578  -17.4246  -24.2116 H   0  0  0  0  0
   -9.1076  -18.5996  -24.0548 H   0  0  0  0  0
   -7.2482  -19.9523  -22.7022 H   0  0  0  0  0
   -6.1604  -18.9956  -23.7647 H   0  0  0  0  0
   -7.8347  -19.8018  -25.6452 H   0  0  0  0  0
   -8.1792  -21.1068  -24.4757 H   0  0  0  0  0
   -5.7266  -20.7319  -26.0428 H   0  0  0  0  0
   -5.8318  -23.3168  -22.9028 H   0  0  0  0  0
   -7.1085  -22.1086  -23.0802 H   0  0  0  0  0
   -4.0756  -22.2933  -25.8148 H   0  0  0  0  0
  -10.5007  -17.2082  -20.8765 H   0  0  0  0  0
  -10.7695  -19.7621  -19.5310 H   0  0  0  0  0
  -12.7360  -18.8773  -18.5394 H   0  0  0  0  0
  -12.8617  -17.5967  -19.8089 H   0  0  0  0  0
  -11.9852  -16.8168  -17.8221 H   0  0  0  0  0
  -10.7948  -21.2686  -21.2113 H   0  0  0  0  0
  -13.4938  -21.7651  -22.2416 H   0  0  0  0  0
  -12.0465  -22.8111  -22.4361 H   0  0  0  0  0
  -12.0985  -19.5131  -23.3087 H   0  0  0  0  0
  2  1  1  0  0  0
  2  5  1  0  0  0
  3  2  1  0  0  0
  3  4  2  0  0  0
  5  6  1  0  0  0
  6  7  1  0  0  0
  6  8  1  0  0  0
 10  9  1  0  0  0
 10 13  1  0  0  0
 11 10  1  0  0  0
 11 12  2  0  0  0
 13 14  1  0  0  0
 14 15  1  0  0  0
 14 16  1  0  0  0
  9  3  1  0  0  0
 19 18  1  0  0  0
 18 21  1  0  0  0
 18 17  1  0  0  0
 17 23  1  0  0  0
 23 22  1  0  0  0
 21 22  1  0  0  0
 19 20  2  0  0  0
 17 11  1  0  0  0
 25 24  1  0  0  0
 25 28  1  0  0  0
 26 25  1  0  0  0
 26 27  2  0  0  0
 28 30  1  0  0  0
 28 29  1  0  0  0
 24 19  1  0  0  0
 33 32  1  0  0  0
 32 35  1  0  0  0
 32 31  1  0  0  0
 31 37  1  0  0  0
 37 36  1  0  0  0
 35 36  1  0  0  0
 33 34  2  0  0  0
 31 26  1  0  0  0
 40 39  1  0  0  0
 39 42  1  0  0  0
 39 38  1  0  0  0
 38 44  1  0  0  0
 44 43  1  0  0  0
 42 43  1  0  0  0
 40 41  2  0  0  0
 38 33  1  0  0  0
 46 45  1  0  0  0
 46 49  1  0  0  0
 47 46  1  0  0  0
 47 48  2  0  0  0
 49 50  1  0  0  0
 50 51  1  0  0  0
 50 52  1  0  0  0
 45 40  1  0  0  0
 54 53  1  0  0  0
 54 57  1  0  0  0
 55 54  1  0  0  0
 55 56  2  0  0  0
 57 58  1  0  0  0
 53 47  1  0  0  0
 61 60  1  0  0  0
 60 63  1  0  0  0
 60 59  1  0  0  0
 59 65  1  0  0  0
 65 64  1  0  0  0
 63 64  1  0  0  0
 61 62  2  0  0  0
 59 55  1  0  0  0
 67 66  1  0  0  0
 67 70  1  0  0  0
 68 67  1  0  0  0
 68 69  2  0  0  0
 70 71  1  0  0  0
 66 61  1  0  0  0
 73 72  1  0  0  0
 73 76  1  0  0  0
 74 73  1  0  0  0
 74 75  2  0  0  0
 76 77  1  0  0  0
 77 78  1  0  0  0
 78 79  1  0  0  0
 79 80  1  0  0  0
 80 82  2  0  0  0
 80 81  1  0  0  0
 72 68  1  0  0  0
 84 83  1  0  0  0
 84 87  1  0  0  0
 85 84  1  0  0  0
 85 86  2  0  0  0
 87 88  1  0  0  0
 88 89  1  0  0  0
 89 90  1  0  0  0
 90 91  1  0  0  0
 91 93  2  0  0  0
 91 92  1  0  0  0
 83 74  1  0  0  0
 95 94  1  0  0  0
 95 98  1  0  0  0
 96 95  1  0  0  0
 96 97  2  0  0  0
 98 99  1  0  0  0
 94 85  1  0  0  0
100101  1  0  0  0
101102  1  0  0  0
102103  2  0  0  0
 96100  1  0  0  0
102104  1  0  0  0
  1105  1  0  0  0
  1106  1  0  0  0
  1107  1  0  0  0
  2108  1  0  0  0
  5109  1  0  0  0
  5110  1  0  0  0
  6111  1  0  0  0
  7112  1  0  0  0
  7113  1  0  0  0
  7114  1  0  0  0
  8115  1  0  0  0
  8116  1  0  0  0
  8117  1  0  0  0
  9118  1  0  0  0
 10119  1  0  0  0
 13120  1  0  0  0
 13121  1  0  0  0
 14122  1  0  0  0
 15123  1  0  0  0
 15124  1  0  0  0
 15125  1  0  0  0
 16126  1  0  0  0
 16127  1  0  0  0
 16128  1  0  0  0
 18129  1  0  0  0
 21130  1  0  0  0
 21131  1  0  0  0
 22132  1  0  0  0
 22133  1  0  0  0
 23134  1  0  0  0
 23135  1  0  0  0
 24136  1  0  0  0
 25137  1  0  0  0
 28138  1  0  0  0
 29139  1  0  0  0
 30140  1  0  0  0
 30141  1  0  0  0
 30142  1  0  0  0
 32143  1  0  0  0
 35144  1  0  0  0
 35145  1  0  0  0
 36146  1  0  0  0
 36147  1  0  0  0
 37148  1  0  0  0
 37149  1  0  0  0
 39150  1  0  0  0
 42151  1  0  0  0
 42152  1  0  0  0
 43153  1  0  0  0
 43154  1  0  0  0
 44155  1  0  0  0
 44156  1  0  0  0
 45157  1  0  0  0
 46158  1  0  0  0
 49159  1  0  0  0
 49160  1  0  0  0
 50161  1  0  0  0
 51162  1  0  0  0
 51163  1  0  0  0
 51164  1  0  0  0
 52165  1  0  0  0
 52166  1  0  0  0
 52167  1  0  0  0
 53168  1  0  0  0
 54169  1  0  0  0
 57170  1  0  0  0
 57171  1  0  0  0
 58172  1  0  0  0
 60173  1  0  0  0
 63174  1  0  0  0
 63175  1  0  0  0
 64176  1  0  0  0
 64177  1  0  0  0
 65178  1  0  0  0
 65179  1  0  0  0
 66180  1  0  0  0
 67181  1  0  0  0
 70182  1  0  0  0
 70183  1  0  0  0
 71184  1  0  0  0
 72185  1  0  0  0
 73186  1  0  0  0
 76187  1  0  0  0
 76188  1  0  0  0
 77189  1  0  0  0
 77190  1  0  0  0
 78191  1  0  0  0
 78192  1  0  0  0
 79193  1  0  0  0
 81194  1  0  0  0
 81195  1  0  0  0
 82196  1  0  0  0
 83197  1  0  0  0
 84198  1  0  0  0
 87199  1  0  0  0
 87200  1  0  0  0
 88201  1  0  0  0
 88202  1  0  0  0
 89203  1  0  0  0
 89204  1  0  0  0
 90205  1  0  0  0
 92206  1  0  0  0
 92207  1  0  0  0
 93208  1  0  0  0
 94209  1  0  0  0
 95210  1  0  0  0
 98211  1  0  0  0
 98212  1  0  0  0
 99213  1  0  0  0
100214  1  0  0  0
101215  1  0  0  0
101216  1  0  0  0
104217  1  0  0  0
M  END
$$$$
