### 
### Created by X-TOOL on Mon Sep 10 21:12:51 2018
### 

@<TRIPOS>MOLECULE
1mv0_ligand
  219   222     1     0     0
SMALL
GAST_HUCK


@<TRIPOS>ATOM
      1 N           1.3250    0.0000    0.0000 N.4       1 LEU         0.2379
      2 CA          2.0730    0.0000   -1.2450 C.3       1 LEU         0.0652
      3 C           2.1090   -1.4200   -1.8140 C.2       1 LEU         0.2267
      4 O           3.0680   -2.1580   -1.5910 O.2       1 LEU        -0.3907
      5 CB          3.4590    0.6140   -1.0380 C.3       1 LEU         0.0102
      6 CG          3.5440    2.1370   -1.1660 C.3       1 LEU        -0.0394
      7 CD1         4.8060    2.6740   -0.4890 C.3       1 LEU        -0.0623
      8 CD2         3.4490    2.5700   -2.6300 C.3       1 LEU        -0.0623
      9 H1          1.2999    0.9346    0.3769 H         1 LEU         0.2015
     10 H2          1.7718   -0.6167    0.6604 H         1 LEU         0.2015
     11 H3          0.3842   -0.3178   -0.1732 H         1 LEU         0.2015
     12 H4          1.5380    0.6339   -1.9675 H         1 LEU         0.1098
     13 H5          4.1366    0.1752   -1.7852 H         1 LEU         0.0348
     14 H6          3.8005    0.3416   -0.0285 H         1 LEU         0.0348
     15 H7          2.6789    2.5652   -0.6385 H         1 LEU         0.0299
     16 H8          4.8420    3.7682   -0.5957 H         1 LEU         0.0232
     17 H9          5.6937    2.2300   -0.9632 H         1 LEU         0.0232
     18 H10         4.7899    2.4101    0.5787 H         1 LEU         0.0232
     19 H11         2.5290    2.1620   -3.0741 H         1 LEU         0.0232
     20 N           1.0530   -1.7600   -2.5380 N.am      1 LEU        -0.2610
     21 CA          0.9510   -3.0790   -3.1400 C.3       1 LEU         0.1315
     22 C           1.7900   -3.1170   -4.4190 C.2       1 LEU         0.2064
     23 O           1.5590   -2.3370   -5.3410 O.2       1 LEU        -0.3942
     24 CB         -0.5150   -3.4580   -3.3550 C.3       1 LEU        -0.0101
     25 CG         -1.3480   -3.6640   -2.0880 C.3       1 LEU        -0.0425
     26 CD1        -1.0900   -2.5460   -1.0750 C.3       1 LEU        -0.0625
     27 CD2        -2.8340   -3.8010   -2.4240 C.3       1 LEU        -0.0625
     28 H12         4.3218    2.1910   -3.1819 H         1 LEU         0.0232
     29 H13         3.4277    3.6683   -2.6869 H         1 LEU         0.0232
     30 H14         0.3147   -1.0990   -2.6724 H         1 LEU         0.1884
     31 H15         1.3796   -3.8109   -2.4396 H         1 LEU         0.0800
     32 H16        -0.5393   -4.3956   -3.9297 H         1 LEU         0.0315
     33 H17        -0.9873   -2.6561   -3.9414 H         1 LEU         0.0315
     34 H18        -1.0255   -4.6089   -1.6264 H         1 LEU         0.0298
     35 H19        -1.6998   -2.7181   -0.1758 H         1 LEU         0.0232
     36 H20        -1.3598   -1.5774   -1.5212 H         1 LEU         0.0232
     37 H21        -0.0250   -2.5390   -0.7999 H         1 LEU         0.0232
     38 H22        -2.9717   -4.6133   -3.1528 H         1 LEU         0.0232
     39 N           2.7730   -4.0570   -4.4330 N.am      1 PRO        -0.2498
     40 CA          3.6480   -4.2070   -5.5840 C.3       1 PRO         0.1338
     41 C           2.9210   -4.8990   -6.7390 C.2       1 PRO         0.2042
     42 O           2.3490   -5.9730   -6.5620 O.2       1 PRO        -0.3944
     43 CB          4.8390   -5.0000   -5.0710 C.3       1 PRO        -0.0104
     44 CG          4.3760   -5.6620   -3.7840 C.3       1 PRO        -0.0281
     45 CD          3.0760   -4.9980   -3.3600 C.3       1 PRO         0.0369
     46 H23        -3.2014   -2.8572   -2.8532 H         1 LEU         0.0232
     47 H24        -3.3974   -4.0311   -1.5077 H         1 LEU         0.0232
     48 H25         3.9857   -3.2189   -5.9298 H         1 PRO         0.0802
     49 H26         5.6881   -4.3295   -4.8723 H         1 PRO         0.0313
     50 H27         5.1373   -5.7613   -5.8068 H         1 PRO         0.0313
     51 H28         4.2091   -6.7357   -3.9549 H         1 PRO         0.0287
     52 H29         5.1366   -5.5292   -3.0006 H         1 PRO         0.0287
     53 N           2.9680   -4.2540   -7.8960 N.am      1 THR        -0.2613
     54 CA          2.3190   -4.7930   -9.0790 C.3       1 THR         0.1567
     55 C           3.0220   -6.0730   -9.5360 C.2       1 THR         0.2090
     56 O           4.2490   -6.1170   -9.6160 O.2       1 THR        -0.3941
     57 CB          2.2980   -3.6980  -10.1470 C.3       1 THR         0.0924
     58 OG1         1.6130   -4.2960  -11.2440 O.3       1 THR        -0.3874
     59 CG2         3.6910   -3.3910  -10.6990 C.3       1 THR        -0.0346
     60 H30         2.2739   -5.7442   -3.2605 H         1 PRO         0.0524
     61 H31         3.2047   -4.4684   -2.4045 H         1 PRO         0.0524
     62 H32         3.4572   -3.3839   -7.9556 H         1 THR         0.1884
     63 H33         1.2794   -5.0509   -8.8286 H         1 THR         0.0826
     64 H34         1.8053   -2.7871   -9.7762 H         1 THR         0.0639
     65 H35         2.0727   -5.0830  -11.5119 H         1 THR         0.2101
     66 H36         3.6177   -2.6001  -11.4599 H         1 THR         0.0257
     67 N           2.1930   -7.1100   -9.8310 N.am      1 PRO        -0.2498
     68 CA          2.7220   -8.3870  -10.2790 C.3       1 PRO         0.1340
     69 C           3.1940   -8.3060  -11.7320 C.2       1 PRO         0.2066
     70 O           2.9630   -7.3050  -12.4080 O.2       1 PRO        -0.3942
     71 CB          1.5860   -9.3760  -10.0780 C.3       1 PRO        -0.0104
     72 CG          0.3210   -8.5400   -9.9640 C.3       1 PRO        -0.0281
     73 CD          0.7360   -7.0940   -9.7460 C.3       1 PRO         0.0369
     74 H37         4.1136   -4.2991  -11.1536 H         1 THR         0.0257
     75 H38         4.3435   -3.0529   -9.8805 H         1 THR         0.0257
     76 H39         3.5780   -8.6785   -9.6527 H         1 PRO         0.0802
     77 H40         1.7439   -9.9584   -9.1583 H         1 PRO         0.0313
     78 H41         1.5169  -10.0592  -10.9373 H         1 PRO         0.0313
     79 H42        -0.2678   -8.6247  -10.8893 H         1 PRO         0.0287
     80 H43        -0.2820   -8.8884   -9.1125 H         1 PRO         0.0287
     81 N           3.8630   -9.4010  -12.1810 N.am      1 PRO        -0.2498
     82 CA          4.3690   -9.4640  -13.5420 C.3       1 PRO         0.1338
     83 C           3.2330   -9.7060  -14.5380 C.2       1 PRO         0.2041
     84 O           2.1520  -10.1510  -14.1560 O.2       1 PRO        -0.3944
     85 CB          5.3970  -10.5830  -13.5290 C.3       1 PRO        -0.0104
     86 CG          5.0970  -11.4100  -12.2890 C.3       1 PRO        -0.0281
     87 CD          4.1560  -10.6050  -11.4080 C.3       1 PRO         0.0369
     88 H44         0.3090   -6.4461  -10.5257 H         1 PRO         0.0524
     89 H45         0.4089   -6.7415   -8.7567 H         1 PRO         0.0524
     90 H46         4.8618   -8.5158  -13.8028 H         1 PRO         0.0802
     91 H47         6.4141  -10.1676  -13.4750 H         1 PRO         0.0313
     92 H48         5.3010  -11.2013  -14.4337 H         1 PRO         0.0313
     93 H49         4.6193  -12.3577  -12.5783 H         1 PRO         0.0287
     94 H50         6.0298  -11.6205  -11.7453 H         1 PRO         0.0287
     95 N           3.5180   -9.4040  -15.7960 N.am      1 LEU        -0.2637
     96 CA          2.5340   -9.5840  -16.8500 C.3       1 LEU         0.1312
     97 C           2.1300  -11.0580  -16.9190 C.2       1 LEU         0.2040
     98 O           2.9870  -11.9380  -16.9810 O.2       1 LEU        -0.3944
     99 CB          3.0600   -9.0280  -18.1750 C.3       1 LEU        -0.0101
    100 CG          2.2300   -7.9110  -18.8110 C.3       1 LEU        -0.0425
    101 CD1         3.1120   -6.9770  -19.6410 C.3       1 LEU        -0.0625
    102 CD2         1.0730   -8.4870  -19.6310 C.3       1 LEU        -0.0625
    103 H51         3.2343  -11.1706  -11.2067 H         1 PRO         0.0524
    104 H52         4.6425  -10.3459  -10.4561 H         1 PRO         0.0524
    105 H53         4.4239   -9.0468  -16.0237 H         1 LEU         0.1883
    106 H54         1.6366   -9.0058  -16.5849 H         1 LEU         0.0800
    107 H55         3.1103   -9.8600  -18.8927 H         1 LEU         0.0315
    108 H56         4.0720   -8.6355  -17.9971 H         1 LEU         0.0315
    109 H57         1.7927   -7.3148  -17.9965 H         1 LEU         0.0298
    110 H58         2.4910   -6.1853  -20.0856 H         1 LEU         0.0232
    111 H59         3.6027   -7.5508  -20.4410 H         1 LEU         0.0232
    112 H60         3.8766   -6.5231  -18.9934 H         1 LEU         0.0232
    113 H61         0.4678   -9.1503  -18.9955 H         1 LEU         0.0232
    114 N           0.8240  -11.2820  -16.9040 N.am      1 SER        -0.2616
    115 CA          0.2960  -12.6340  -16.9640 C.3       1 SER         0.1541
    116 C           0.0110  -13.0210  -18.4170 C.2       1 SER         0.2087
    117 O          -0.1580  -12.1530  -19.2720 O.2       1 SER        -0.3941
    118 CB         -0.9740  -12.7680  -16.1210 C.3       1 SER         0.0843
    119 OG         -2.0900  -12.1240  -16.7310 O.3       1 SER        -0.3903
    120 H62         1.4746   -9.0591  -20.4803 H         1 LEU         0.0232
    121 H63         0.4450   -7.6656  -20.0064 H         1 LEU         0.0232
    122 H64         0.1923  -10.5086  -16.8506 H         1 SER         0.1884
    123 H65         1.0540  -13.3213  -16.5604 H         1 SER         0.0823
    124 H66        -0.7960  -12.3125  -15.1357 H         1 SER         0.0606
    125 N          -0.0330  -14.3580  -18.6580 N.am      1 PRO        -0.2498
    126 CA         -0.2950  -14.8700  -19.9930 C.3       1 PRO         0.1338
    127 C          -1.7730  -14.7200  -20.3580 C.2       1 PRO         0.2042
    128 O          -2.5900  -14.3530  -19.5150 O.2       1 PRO        -0.3944
    129 CB          0.1640  -16.3190  -19.9550 C.3       1 PRO        -0.0104
    130 CG          0.2310  -16.6970  -18.4840 C.3       1 PRO        -0.0281
    131 CD          0.1630  -15.4150  -17.6700 C.3       1 PRO         0.0369
    132 H67        -1.2056  -13.8359  -15.9948 H         1 SER         0.0606
    133 H68        -2.8558  -12.2295  -16.1788 H         1 SER         0.2097
    134 H69         0.3020  -14.3146  -20.7314 H         1 PRO         0.0802
    135 H70         1.1554  -16.4186  -20.4210 H         1 PRO         0.0313
    136 H71        -0.5556  -16.9622  -20.4828 H         1 PRO         0.0313
    137 H72        -0.6167  -17.3490  -18.2265 H         1 PRO         0.0287
    138 H73         1.1745  -17.2227  -18.2756 H         1 PRO         0.0287
    139 N          -2.0710  -15.0110  -21.6150 N.am      1 SER        -0.2616
    140 CA         -3.4370  -14.9140  -22.1020 C.3       1 SER         0.1539
    141 C          -4.2800  -16.0550  -21.5290 C.2       1 SER         0.2062
    142 O          -4.3480  -17.1350  -22.1140 O.2       1 SER        -0.3943
    143 CB         -3.4800  -14.9390  -23.6310 C.3       1 SER         0.0843
    144 OG         -2.8800  -16.1170  -24.1630 O.3       1 SER        -0.3903
    145 H74        -0.6804  -15.4478  -16.9646 H         1 PRO         0.0524
    146 H75         1.0995  -15.2581  -17.1148 H         1 PRO         0.0524
    147 H76        -1.3453  -15.3019  -22.2385 H         1 SER         0.1884
    148 H77        -3.8611  -13.9587  -21.7590 H         1 SER         0.0823
    149 H78        -2.9406  -14.0610  -24.0158 H         1 SER         0.0606
    150 N          -4.9000  -15.7760  -20.3920 N.am      1 ARG        -0.2637
    151 CA         -5.7350  -16.7660  -19.7330 C.3       1 ARG         0.1311
    152 C          -7.1110  -16.8290  -20.3990 C.2       1 ARG         0.2039
    153 O          -8.0550  -16.1870  -19.9420 O.2       1 ARG        -0.3944
    154 CB         -5.9090  -16.4390  -18.2480 C.3       1 ARG        -0.0092
    155 CG         -4.9070  -17.2190  -17.3940 C.3       1 ARG        -0.0156
    156 CD         -3.4750  -16.9920  -17.8830 C.3       1 ARG         0.0627
    157 NE         -2.5810  -18.0340  -17.3320 N.pl3     1 ARG        -0.2723
    158 CZ         -2.4630  -19.2690  -17.8380 C.cat     1 ARG         0.2882
    159 NH1        -3.1830  -19.6240  -18.9110 N.pl3     1 ARG        -0.2849
    160 NH2        -1.6260  -20.1490  -17.2720 N.pl3     1 ARG        -0.2849
    161 H79        -4.5296  -14.8967  -23.9575 H         1 SER         0.0606
    162 H80        -3.3437  -16.8807  -23.8402 H         1 SER         0.2097
    163 H81        -4.7918  -14.8707  -19.9812 H         1 ARG         0.1883
    164 H82        -5.2498  -17.7490  -19.8241 H         1 ARG         0.0800
    165 H83        -6.9302  -16.7057  -17.9381 H         1 ARG         0.0313
    166 H84        -5.7493  -15.3614  -18.0958 H         1 ARG         0.0313
    167 H85        -5.1417  -18.2920  -17.4543 H         1 ARG         0.0301
    168 H86        -4.9875  -16.8841  -16.3493 H         1 ARG         0.0301
    169 H87        -3.1291  -16.0022  -17.5504 H         1 ARG         0.0689
    170 H88        -3.4537  -17.0377  -18.9818 H         1 ARG         0.0689
    171 H89        -2.0130  -17.7948  -16.5067 H         1 ARG         0.2642
    172 H90        -3.0929  -20.5732  -19.3006 H         1 ARG         0.2615
    173 H91        -3.8265  -18.9477  -19.3461 H         1 ARG         0.2615
    174 N          -7.1800  -17.6080  -21.4680 N.am      1 ARG        -0.2637
    175 CA         -8.4250  -17.7630  -22.2010 C.3       1 ARG         0.1311
    176 C          -9.3400  -18.7600  -21.4880 C.2       1 ARG         0.2040
    177 O          -9.0980  -19.9660  -21.5230 O.2       1 ARG        -0.3944
    178 CB         -8.1670  -18.2500  -23.6290 C.3       1 ARG        -0.0092
    179 CG         -7.1630  -19.4050  -23.6410 C.3       1 ARG        -0.0156
    180 CD         -7.4470  -20.3660  -24.7970 C.3       1 ARG         0.0627
    181 NE         -6.2010  -21.0560  -25.2000 N.pl3     1 ARG        -0.2723
    182 CZ         -5.6570  -22.0790  -24.5280 C.cat     1 ARG         0.2882
    183 NH1        -6.2460  -22.5380  -23.4150 N.pl3     1 ARG        -0.2849
    184 NH2        -4.5240  -22.6430  -24.9680 N.pl3     1 ARG        -0.2849
    185 H92        -1.0725  -19.8763  -16.4473 H         1 ARG         0.2615
    186 H93        -1.5361  -21.0982  -17.6616 H         1 ARG         0.2615
    187 H94        -6.3633  -18.0966  -21.7751 H         1 ARG         0.1883
    188 H95        -8.9284  -16.7860  -22.2459 H         1 ARG         0.0800
    189 H96        -7.7653  -17.4179  -24.2259 H         1 ARG         0.0313
    190 H97        -9.1150  -18.5928  -24.0691 H         1 ARG         0.0313
    191 H98        -7.2350  -19.9542  -22.6907 H         1 ARG         0.0301
    192 H99        -6.1474  -18.9977  -23.7531 H         1 ARG         0.0301
    193 H100       -7.8426  -19.7994  -25.6528 H         1 ARG         0.0689
    194 H101       -8.1891  -21.1120  -24.4765 H         1 ARG         0.0689
    195 H102       -5.7220  -20.7287  -26.0511 H         1 ARG         0.2642
    196 H103       -5.8279  -23.3247  -22.8980 H         1 ARG         0.2615
    197 H104       -7.1167  -22.1041  -23.0767 H         1 ARG         0.2615
    198 N         -10.3730  -18.2200  -20.8570 N.am      1 SER        -0.2616
    199 CA        -11.3260  -19.0480  -20.1380 C.3       1 SER         0.1539
    200 C         -12.2070  -19.8120  -21.1280 C.2       1 SER         0.2061
    201 O         -13.2950  -19.3550  -21.4770 O.2       1 SER        -0.3943
    202 CB        -12.1910  -18.2030  -19.2000 C.3       1 SER         0.0843
    203 OG        -11.4070  -17.3270  -18.3940 O.3       1 SER        -0.3903
    204 H105       -4.0715  -22.2902  -25.8233 H         1 ARG         0.2615
    205 H106       -4.1056  -23.4294  -24.4509 H         1 ARG         0.2615
    206 H107      -10.4982  -17.2281  -20.8761 H         1 SER         0.1884
    207 H108      -10.7667  -19.7761  -19.5322 H         1 SER         0.0823
    208 H109      -12.7620  -18.8747  -18.5422 H         1 SER         0.0606
    209 N         -11.7060  -20.9620  -21.5520 N.am      1 GLY        -0.2650
    210 CA        -12.4340  -21.7940  -22.4950 C.3       1 GLY         0.1312
    211 C         -12.2570  -21.2830  -23.9260 C.2       1 GLY         0.2539
    212 O         -12.2720  -22.0660  -24.8750 O.2       1 GLY        -0.3683
    213 H110      -12.8870  -17.6021  -19.8038 H         1 SER         0.0606
    214 H111      -10.9145  -16.7388  -18.9543 H         1 SER         0.2097
    215 H112      -10.8126  -21.2626  -21.2180 H         1 GLY         0.1882
    216 O1        -12.0856  -19.9826  -24.1460 O.3       1 GLY        -0.2912
    217 H113      -13.5033  -21.7791  -22.2373 H         1 GLY         0.0780
    218 H114      -12.0559  -22.8250  -22.4318 H         1 GLY         0.0780
    219 H115      -12.0984  -19.5180  -23.3174 H         1 GLY         0.2540
@<TRIPOS>BOND
     1    2    1 1  
     2    2    5 1  
     3    3    2 1  
     4    3    4 2  
     5    5    6 1  
     6    6    7 1  
     7    6    8 1  
     8    1    9 1  
     9    1   10 1  
    10    1   11 1  
    11    2   12 1  
    12    5   13 1  
    13    5   14 1  
    14    6   15 1  
    15    7   16 1  
    16    7   17 1  
    17    7   18 1  
    18    8   19 1  
    19   21   20 1  
    20   21   24 1  
    21   22   21 1  
    22   22   23 2  
    23   24   25 1  
    24   25   26 1  
    25   25   27 1  
    26    8   28 1  
    27    8   29 1  
    28   20   30 1  
    29   21   31 1  
    30   24   32 1  
    31   24   33 1  
    32   25   34 1  
    33   26   35 1  
    34   26   36 1  
    35   26   37 1  
    36   27   38 1  
    37   20    3 am 
    38   41   40 1  
    39   40   43 1  
    40   40   39 1  
    41   39   45 1  
    42   45   44 1  
    43   43   44 1  
    44   41   42 2  
    45   27   46 1  
    46   27   47 1  
    47   40   48 1  
    48   43   49 1  
    49   43   50 1  
    50   44   51 1  
    51   44   52 1  
    52   39   22 am 
    53   54   53 1  
    54   54   57 1  
    55   55   54 1  
    56   55   56 2  
    57   57   59 1  
    58   57   58 1  
    59   45   60 1  
    60   45   61 1  
    61   53   62 1  
    62   54   63 1  
    63   57   64 1  
    64   58   65 1  
    65   59   66 1  
    66   53   41 am 
    67   69   68 1  
    68   68   71 1  
    69   68   67 1  
    70   67   73 1  
    71   73   72 1  
    72   71   72 1  
    73   69   70 2  
    74   59   74 1  
    75   59   75 1  
    76   68   76 1  
    77   71   77 1  
    78   71   78 1  
    79   72   79 1  
    80   72   80 1  
    81   67   55 am 
    82   83   82 1  
    83   82   85 1  
    84   82   81 1  
    85   81   87 1  
    86   87   86 1  
    87   85   86 1  
    88   83   84 2  
    89   73   88 1  
    90   73   89 1  
    91   82   90 1  
    92   85   91 1  
    93   85   92 1  
    94   86   93 1  
    95   86   94 1  
    96   81   69 am 
    97   96   95 1  
    98   96   99 1  
    99   97   96 1  
   100   97   98 2  
   101   99  100 1  
   102  100  101 1  
   103  100  102 1  
   104   87  103 1  
   105   87  104 1  
   106   95  105 1  
   107   96  106 1  
   108   99  107 1  
   109   99  108 1  
   110  100  109 1  
   111  101  110 1  
   112  101  111 1  
   113  101  112 1  
   114  102  113 1  
   115   95   83 am 
   116  115  114 1  
   117  115  118 1  
   118  116  115 1  
   119  116  117 2  
   120  118  119 1  
   121  102  120 1  
   122  102  121 1  
   123  114  122 1  
   124  115  123 1  
   125  118  124 1  
   126  114   97 am 
   127  127  126 1  
   128  126  129 1  
   129  126  125 1  
   130  125  131 1  
   131  131  130 1  
   132  129  130 1  
   133  127  128 2  
   134  118  132 1  
   135  119  133 1  
   136  126  134 1  
   137  129  135 1  
   138  129  136 1  
   139  130  137 1  
   140  130  138 1  
   141  125  116 am 
   142  140  139 1  
   143  140  143 1  
   144  141  140 1  
   145  141  142 2  
   146  143  144 1  
   147  131  145 1  
   148  131  146 1  
   149  139  147 1  
   150  140  148 1  
   151  143  149 1  
   152  139  127 am 
   153  151  150 1  
   154  151  154 1  
   155  152  151 1  
   156  152  153 2  
   157  154  155 1  
   158  155  156 1  
   159  156  157 1  
   160  157  158 ar 
   161  158  160 ar 
   162  158  159 ar 
   163  143  161 1  
   164  144  162 1  
   165  150  163 1  
   166  151  164 1  
   167  154  165 1  
   168  154  166 1  
   169  155  167 1  
   170  155  168 1  
   171  156  169 1  
   172  156  170 1  
   173  157  171 1  
   174  159  172 1  
   175  159  173 1  
   176  150  141 am 
   177  175  174 1  
   178  175  178 1  
   179  176  175 1  
   180  176  177 2  
   181  178  179 1  
   182  179  180 1  
   183  180  181 1  
   184  181  182 ar 
   185  182  184 ar 
   186  182  183 ar 
   187  160  185 1  
   188  160  186 1  
   189  174  187 1  
   190  175  188 1  
   191  178  189 1  
   192  178  190 1  
   193  179  191 1  
   194  179  192 1  
   195  180  193 1  
   196  180  194 1  
   197  181  195 1  
   198  183  196 1  
   199  183  197 1  
   200  174  152 am 
   201  199  198 1  
   202  199  202 1  
   203  200  199 1  
   204  200  201 2  
   205  202  203 1  
   206  184  204 1  
   207  184  205 1  
   208  198  206 1  
   209  199  207 1  
   210  202  208 1  
   211  198  176 am 
   212  209  210 1  
   213  210  211 1  
   214  211  212 2  
   215  202  213 1  
   216  203  214 1  
   217  209  215 1  
   218  200  209 am 
   219  211  216 1  
   220  210  217 1  
   221  210  218 1  
   222  216  219 1  
@<TRIPOS>SUBSTRUCTURE
     1 LEU         1

