4ebw_ligand
  -I-interpret- 

 47 50  0  0  0  0  0  0  0  0999 V2000
   13.0750    9.1250   18.4220 C   0  0  0  0  0
   11.6670    9.2370   19.0120 C   0  0  0  0  0
   11.1870    7.8880   19.5190 C   0  0  0  0  0
   10.2140    7.2080   18.7960 C   0  0  0  0  0
    9.7620    5.9820   19.2310 C   0  0  0  0  0
   10.2760    5.4250   20.4050 C   0  0  0  0  0
   11.2520    6.1090   21.1390 C   0  0  0  0  0
   11.7020    7.3330   20.6890 C   0  0  0  0  0
    9.7650    4.1100   20.8630 C   0  0  0  0  0
    9.5110    3.0820   19.9510 C   0  0  0  0  0
    9.0400    1.8750   20.3950 C   0  0  0  0  0
    8.7940    1.6500   21.7530 C   0  0  0  0  0
    8.2900    0.3990   22.1330 N   0  0  0  0  0
    7.4580   -0.4270   21.2410 C   0  0  0  0  0
    8.5970   -0.1750   23.6510 S   0  0  0  0  0
    7.4440   -0.9190   24.0180 O   0  0  0  0  0
    9.9230   -0.6860   23.6160 O   0  0  0  0  0
    8.6480    1.2580   24.6740 C   0  0  0  0  0
    8.5260    1.3620   26.0310 C   0  0  0  0  0
    8.6430    2.6320   26.3330 N   0  0  0  0  0
    8.8530    3.3930   25.1660 N   0  0  0  0  0
    9.0110    4.8620   25.1280 C   0  0  0  0  0
   10.4660    5.2690   25.3700 C   0  0  0  0  0
    8.8370    2.5150   24.1270 C   0  0  0  0  0
    9.0360    2.6900   22.6690 C   0  0  0  0  0
    9.5320    3.9070   22.2100 C   0  0  0  0  0
   13.7627    8.7724   19.1907 H   0  0  0  0  0
   13.0643    8.4197   17.5910 H   0  0  0  0  0
   13.3971   10.1034   18.0656 H   0  0  0  0  0
   10.9861    9.5832   18.2344 H   0  0  0  0  0
   11.6897    9.9386   19.8459 H   0  0  0  0  0
    9.8083    7.6455   17.8838 H   0  0  0  0  0
    9.0037    5.4464   18.6598 H   0  0  0  0  0
   11.6525    5.6789   22.0570 H   0  0  0  0  0
   12.4654    7.8696   21.2523 H   0  0  0  0  0
    9.6876    3.2407   18.8872 H   0  0  0  0  0
    8.8537    1.0760   19.6774 H   0  0  0  0  0
    7.9390   -1.3933   21.0892 H   0  0  0  0  0
    6.4778   -0.5748   21.6942 H   0  0  0  0  0
    7.3438    0.0781   20.2819 H   0  0  0  0  0
    8.3621    0.5426   26.7309 H   0  0  0  0  0
    8.3927    5.2986   25.9123 H   0  0  0  0  0
    8.7093    5.2188   24.1432 H   0  0  0  0  0
   10.7845    4.9098   26.3486 H   0  0  0  0  0
   11.0978    4.8308   24.5974 H   0  0  0  0  0
   10.5486    6.3553   25.3358 H   0  0  0  0  0
    9.7387    4.7078   22.9200 H   0  0  0  0  0
  1  2  1  0  0  0
  2  3  1  0  0  0
  3  4  4  0  0  0
  3  8  4  0  0  0
  4  5  4  0  0  0
  5  6  4  0  0  0
  6  7  4  0  0  0
  6  9  1  0  0  0
  7  8  4  0  0  0
  9 10  4  0  0  0
  9 26  4  0  0  0
 10 11  4  0  0  0
 11 12  4  0  0  0
 12 13  1  0  0  0
 12 25  4  0  0  0
 13 14  1  0  0  0
 13 15  1  0  0  0
 15 16  2  0  0  0
 15 17  2  0  0  0
 15 18  1  0  0  0
 18 19  4  0  0  0
 18 24  4  0  0  0
 19 20  4  0  0  0
 20 21  4  0  0  0
 21 22  1  0  0  0
 21 24  4  0  0  0
 22 23  1  0  0  0
 24 25  1  0  0  0
 25 26  4  0  0  0
  1 27  1  0  0  0
  1 28  1  0  0  0
  1 29  1  0  0  0
  2 30  1  0  0  0
  2 31  1  0  0  0
  4 32  1  0  0  0
  5 33  1  0  0  0
  7 34  1  0  0  0
  8 35  1  0  0  0
 10 36  1  0  0  0
 11 37  1  0  0  0
 14 38  1  0  0  0
 14 39  1  0  0  0
 14 40  1  0  0  0
 19 41  1  0  0  0
 22 42  1  0  0  0
 22 43  1  0  0  0
 23 44  1  0  0  0
 23 45  1  0  0  0
 23 46  1  0  0  0
 26 47  1  0  0  0
M  END
$$$$
