2cv3_ligand
  -I-interpret- 

170176  0  0  0  0  0  0  0  0999 V2000
   41.1690  -19.0070   38.1120 N   0  3  0  0  0
   40.2290  -19.1710   36.9810 C   0  0  0  0  0
   39.0400  -19.9460   37.4370 C   0  0  0  0  0
   39.2420  -21.0530   37.9530 O   0  0  0  0  0
   40.9340  -19.9150   35.8330 C   0  0  0  0  0
   42.1490  -19.2280   35.5390 O   0  0  0  0  0
   40.0180  -19.9730   34.5650 C   0  0  0  0  0
   37.8170  -19.3460   37.2370 N   0  0  0  0  0
   36.7230  -20.1210   37.7910 C   0  0  0  0  0
   36.2300  -21.1460   36.8040 C   0  0  0  0  0
   36.7220  -21.1920   35.6670 O   0  0  0  0  0
   35.6220  -19.1420   38.1490 C   0  0  0  0  0
   35.4520  -18.0840   37.1150 O   0  0  0  0  0
   35.9370  -18.5020   39.5090 C   0  0  0  0  0
   35.3710  -22.0570   37.3150 N   0  0  0  0  0
   35.1320  -23.2420   36.4350 C   0  0  0  0  0
   33.7590  -23.3350   35.8090 C   0  0  0  0  0
   33.1160  -24.3940   35.7990 O   0  0  0  0  0
   35.4240  -24.5680   37.1880 C   0  0  0  0  0
   36.8850  -24.8340   37.6100 C   0  0  0  0  0
   36.9660  -26.2110   38.2860 C   0  0  0  0  0
   37.8530  -24.7480   36.4010 C   0  0  0  0  0
   33.3370  -22.1700   35.3150 N   0  0  0  0  0
   32.0500  -22.1270   34.6410 C   0  0  0  0  0
   32.3480  -22.3960   33.1680 C   0  0  0  0  0
   33.3970  -21.9960   32.6940 O   0  0  0  0  0
   31.4330  -20.7590   34.8260 C   0  0  0  0  0
   30.0570  -20.5840   34.1410 C   0  0  0  0  0
   29.5220  -19.1620   34.4350 C   0  0  0  0  0
   28.1090  -18.8800   33.8250 C   0  0  0  0  0
   27.9570  -19.1630   32.3800 N   0  0  0  0  0
   31.3680  -23.0640   32.4750 N   0  0  0  0  0
   31.5960  -23.3380   31.0460 C   0  0  0  0  0
   30.7660  -22.3750   30.1600 C   0  0  0  0  0
   29.5460  -22.2230   30.4480 O   0  0  0  0  0
   31.1610  -24.8020   30.7300 C   0  0  0  0  0
   31.4320  -25.1240   29.2550 C   0  0  0  0  0
   32.7530  -25.5650   28.8740 C   0  0  0  0  0
   30.4040  -24.9690   28.2820 C   0  0  0  0  0
   33.0220  -25.8520   27.5030 C   0  0  0  0  0
   30.6920  -25.2550   26.9010 C   0  0  0  0  0
   31.9950  -25.6940   26.5310 C   0  0  0  0  0
   31.3180  -21.9110   28.9700 N   0  0  0  0  0
   32.7370  -21.9790   28.5400 C   0  0  0  0  0
   33.7880  -21.3230   29.4220 C   0  0  0  0  0
   34.9250  -21.7940   29.4420 O   0  0  0  0  0
   32.7380  -21.4280   27.1080 C   0  0  0  0  0
   31.3030  -20.9390   26.7910 C   0  0  0  0  0
   30.4490  -21.3180   27.9700 C   0  0  0  0  0
   33.3640  -20.2700   30.1340 N   0  0  0  0  0
   34.2960  -19.6200   31.0580 C   0  0  0  0  0
   33.4800  -18.7910   32.0310 C   0  0  0  0  0
   32.2540  -18.6640   31.9230 O   0  0  0  0  0
   35.2520  -18.6750   30.2480 C   0  0  0  0  0
   34.4730  -17.5610   29.6520 O   0  0  0  0  0
   34.2080  -18.2430   33.0230 N   0  0  0  0  0
   33.5110  -17.4270   34.0200 C   0  0  0  0  0
   32.8350  -16.1420   33.5280 C   0  0  0  0  0
   31.7470  -15.7690   34.0110 O   0  0  0  0  0
   34.5130  -17.0700   35.1330 C   0  0  0  0  0
   34.6090  -18.2530   36.0830 C   0  0  0  0  0
   33.9630  -19.2860   35.9370 O   0  0  0  0  0
   33.4200  -15.5170   32.5700 N   0  0  0  0  0
   33.4560  -14.2740   31.8110 C   0  0  0  0  0
   32.9180  -14.5040   30.4170 C   0  0  0  0  0
   33.0390  -13.5930   29.5810 O   0  0  0  0  0
   34.9600  -13.7160   31.7590 C   0  0  0  0  0
   36.0310  -14.5590   30.9640 C   0  0  0  0  0
   36.0860  -14.7880   29.5550 C   0  0  0  0  0
   37.2080  -15.3080   31.4690 C   0  0  0  0  0
   37.1360  -15.5820   29.1780 N   0  0  0  0  0
   37.8680  -15.9360   30.3240 C   0  0  0  0  0
   37.7570  -15.5110   32.7690 C   0  0  0  0  0
   39.0540  -16.7450   30.5080 C   0  0  0  0  0
   38.9470  -16.3200   32.9530 C   0  0  0  0  0
   39.5940  -16.9370   31.8330 C   0  0  0  0  0
   32.4000  -15.7780   30.1420 N   0  0  0  0  0
   32.0040  -16.0320   28.7420 C   0  0  0  0  0
   30.9610  -17.1380   28.5230 C   0  0  0  0  0
   31.0440  -17.8340   27.5100 O   0  0  0  0  0
   33.2820  -16.3330   27.9090 C   0  0  0  0  0
   34.1070  -17.5490   28.3830 C   0  0  0  0  0
   34.3900  -18.4340   27.6450 O   0  0  0  0  0
   29.9990  -17.2450   29.4010 N   0  0  0  0  0
   28.7220  -17.8140   28.9490 C   0  0  0  0  0
   28.1010  -18.2010   31.4770 C   0  0  0  0  0
   28.2050  -16.9950   31.7400 O   0  0  0  0  0
   27.6700  -16.7140   28.5630 C   0  0  0  0  0
   26.6030  -17.0660   28.0250 O   0  0  0  0  0
   27.9500  -15.5180   28.7830 O   0  0  0  0  0
   28.1290  -18.7660   30.0370 C   0  0  0  0  0
   40.7012  -18.5139   38.8725 H   0  0  0  0  0
   41.4723  -19.9253   38.4364 H   0  0  0  0  0
   41.9791  -18.4692   37.8040 H   0  0  0  0  0
   39.9049  -18.1929   36.6256 H   0  0  0  0  0
   41.1458  -20.9416   36.1319 H   0  0  0  0  0
   42.6986  -19.2012   36.3257 H   0  0  0  0  0
   39.7833  -18.9590   34.2412 H   0  0  0  0  0
   40.5393  -20.4996   33.7656 H   0  0  0  0  0
   39.0958  -20.5007   34.8084 H   0  0  0  0  0
   37.6940  -18.4563   36.7535 H   0  0  0  0  0
   37.0525  -20.6705   38.6728 H   0  0  0  0  0
   34.6840  -19.6948   38.2006 H   0  0  0  0  0
   35.9970  -19.2800   40.2701 H   0  0  0  0  0
   36.8898  -17.9759   39.4496 H   0  0  0  0  0
   35.1471  -17.7975   39.7692 H   0  0  0  0  0
   34.9235  -21.9451   38.2247 H   0  0  0  0  0
   35.8307  -23.0885   35.6126 H   0  0  0  0  0
   35.1676  -25.3661   36.4913 H   0  0  0  0  0
   34.8539  -24.5130   38.1154 H   0  0  0  0  0
   37.1956  -24.0637   38.3159 H   0  0  0  0  0
   36.3208  -26.2216   39.1644 H   0  0  0  0  0
   36.6393  -26.9785   37.5844 H   0  0  0  0  0
   37.9952  -26.4065   38.5872 H   0  0  0  0  0
   37.5686  -25.4910   35.6559 H   0  0  0  0  0
   37.7968  -23.7518   35.9623 H   0  0  0  0  0
   38.8714  -24.9410   36.7382 H   0  0  0  0  0
   33.9050  -21.3279   35.4082 H   0  0  0  0  0
   31.3459  -22.8586   35.0374 H   0  0  0  0  0
   32.1116  -20.0368   34.3721 H   0  0  0  0  0
   31.2791  -20.6184   35.8959 H   0  0  0  0  0
   29.3581  -21.3258   34.5275 H   0  0  0  0  0
   30.1632  -20.7205   33.0648 H   0  0  0  0  0
   30.2175  -18.4536   33.9849 H   0  0  0  0  0
   29.4340  -19.0652   35.5171 H   0  0  0  0  0
   27.9305  -17.8118   33.9479 H   0  0  0  0  0
   27.4151  -19.5434   34.3412 H   0  0  0  0  0
   27.7384  -20.1111   32.0738 H   0  0  0  0  0
   30.5082  -23.3613   32.9362 H   0  0  0  0  0
   32.6551  -23.1946   30.8320 H   0  0  0  0  0
   30.0950  -24.9102   30.9303 H   0  0  0  0  0
   31.7304  -25.4882   31.3570 H   0  0  0  0  0
   33.5351  -25.6772   29.6249 H   0  0  0  0  0
   29.4094  -24.6372   28.5798 H   0  0  0  0  0
   34.0125  -26.1917   27.2004 H   0  0  0  0  0
   29.9175  -25.1363   26.1433 H   0  0  0  0  0
   32.2094  -25.9128   25.4849 H   0  0  0  0  0
   33.0646  -23.0156   28.6189 H   0  0  0  0  0
   33.0390  -22.2032   26.4034 H   0  0  0  0  0
   33.4476  -20.6055   27.0184 H   0  0  0  0  0
   30.9288  -21.3980   25.8759 H   0  0  0  0  0
   31.2861  -19.8613   26.6287 H   0  0  0  0  0
   29.9487  -20.4384   28.3750 H   0  0  0  0  0
   29.6780  -22.0269   27.6683 H   0  0  0  0  0
   32.4086  -19.9270   30.0342 H   0  0  0  0  0
   34.8911  -20.3622   31.5901 H   0  0  0  0  0
   35.7320  -19.2447   29.4523 H   0  0  0  0  0
   36.0081  -18.2670   30.9188 H   0  0  0  0  0
   35.2155  -18.3919   33.0783 H   0  0  0  0  0
   32.6810  -18.0479   34.3572 H   0  0  0  0  0
   34.1757  -16.1839   35.6708 H   0  0  0  0  0
   35.4909  -16.8551   34.7021 H   0  0  0  0  0
   34.1417  -16.1316   32.1935 H   0  0  0  0  0
   32.8271  -13.5307   32.3009 H   0  0  0  0  0
   35.3039  -13.7104   32.7933 H   0  0  0  0  0
   34.8976  -12.7603   31.2386 H   0  0  0  0  0
   35.3649  -14.3726   28.8510 H   0  0  0  0  0
   37.2773  -15.0533   33.6342 H   0  0  0  0  0
   39.5382  -17.2081   29.6483 H   0  0  0  0  0
   39.3537  -16.4602   33.9545 H   0  0  0  0  0
   40.4860  -17.5459   31.9803 H   0  0  0  0  0
   32.3024  -16.4885   30.8673 H   0  0  0  0  0
   31.5006  -15.1234   28.4117 H   0  0  0  0  0
   33.9289  -15.4608   28.0036 H   0  0  0  0  0
   32.9486  -16.5577   26.8959 H   0  0  0  0  0
   30.1301  -16.9439   30.3667 H   0  0  0  0  0
   28.9369  -18.3844   28.0454 H   0  0  0  0  0
   28.8124  -15.4641   29.2014 H   0  0  0  0  0
   28.7723  -19.6455   30.0623 H   0  0  0  0  0
   27.0918  -18.9486   29.7561 H   0  0  0  0  0
  1  2  1  0  0  0
  2  3  1  0  0  0
  2  5  1  0  0  0
  3  4  2  0  0  0
  3  8  1  0  0  0
  5  6  1  0  0  0
  5  7  1  0  0  0
  8  9  1  0  0  0
  9 10  1  0  0  0
  9 12  1  0  0  0
 10 11  2  0  0  0
 10 15  1  0  0  0
 12 13  1  0  0  0
 12 14  1  0  0  0
 13 61  1  0  0  0
 15 16  1  0  0  0
 16 17  1  0  0  0
 16 19  1  0  0  0
 17 18  2  0  0  0
 17 23  1  0  0  0
 19 20  1  0  0  0
 20 21  1  0  0  0
 20 22  1  0  0  0
 23 24  1  0  0  0
 24 25  1  0  0  0
 24 27  1  0  0  0
 25 26  2  0  0  0
 25 32  1  0  0  0
 27 28  1  0  0  0
 28 29  1  0  0  0
 29 30  1  0  0  0
 30 31  1  0  0  0
 31 86  1  0  0  0
 32 33  1  0  0  0
 33 34  1  0  0  0
 33 36  1  0  0  0
 34 35  2  0  0  0
 34 43  1  0  0  0
 36 37  1  0  0  0
 37 38  4  0  0  0
 37 39  4  0  0  0
 38 40  4  0  0  0
 39 41  4  0  0  0
 40 42  4  0  0  0
 41 42  4  0  0  0
 43 44  1  0  0  0
 43 49  1  0  0  0
 44 45  1  0  0  0
 44 47  1  0  0  0
 45 46  2  0  0  0
 45 50  1  0  0  0
 47 48  1  0  0  0
 48 49  1  0  0  0
 50 51  1  0  0  0
 51 52  1  0  0  0
 51 54  1  0  0  0
 52 53  2  0  0  0
 52 56  1  0  0  0
 54 55  1  0  0  0
 55 82  1  0  0  0
 56 57  1  0  0  0
 57 58  1  0  0  0
 57 60  1  0  0  0
 58 59  2  0  0  0
 58 63  1  0  0  0
 60 61  1  0  0  0
 61 62  2  0  0  0
 63 64  1  0  0  0
 64 65  1  0  0  0
 64 67  1  0  0  0
 65 66  2  0  0  0
 65 77  1  0  0  0
 67 68  1  0  0  0
 68 69  4  0  0  0
 68 70  4  0  0  0
 69 71  4  0  0  0
 70 72  4  0  0  0
 70 73  4  0  0  0
 71 72  4  0  0  0
 72 74  4  0  0  0
 73 75  4  0  0  0
 74 76  4  0  0  0
 75 76  4  0  0  0
 77 78  1  0  0  0
 78 79  1  0  0  0
 78 81  1  0  0  0
 79 80  2  0  0  0
 79 84  1  0  0  0
 81 82  1  0  0  0
 82 83  2  0  0  0
 84 85  1  0  0  0
 85 88  1  0  0  0
 85 91  1  0  0  0
 86 87  2  0  0  0
 86 91  1  0  0  0
 88 89  2  0  0  0
 88 90  1  0  0  0
  1 92  1  0  0  0
  1 93  1  0  0  0
  1 94  1  0  0  0
  2 95  1  0  0  0
  5 96  1  0  0  0
  6 97  1  0  0  0
  7 98  1  0  0  0
  7 99  1  0  0  0
  7100  1  0  0  0
  8101  1  0  0  0
  9102  1  0  0  0
 12103  1  0  0  0
 14104  1  0  0  0
 14105  1  0  0  0
 14106  1  0  0  0
 15107  1  0  0  0
 16108  1  0  0  0
 19109  1  0  0  0
 19110  1  0  0  0
 20111  1  0  0  0
 21112  1  0  0  0
 21113  1  0  0  0
 21114  1  0  0  0
 22115  1  0  0  0
 22116  1  0  0  0
 22117  1  0  0  0
 23118  1  0  0  0
 24119  1  0  0  0
 27120  1  0  0  0
 27121  1  0  0  0
 28122  1  0  0  0
 28123  1  0  0  0
 29124  1  0  0  0
 29125  1  0  0  0
 30126  1  0  0  0
 30127  1  0  0  0
 31128  1  0  0  0
 32129  1  0  0  0
 33130  1  0  0  0
 36131  1  0  0  0
 36132  1  0  0  0
 38133  1  0  0  0
 39134  1  0  0  0
 40135  1  0  0  0
 41136  1  0  0  0
 42137  1  0  0  0
 44138  1  0  0  0
 47139  1  0  0  0
 47140  1  0  0  0
 48141  1  0  0  0
 48142  1  0  0  0
 49143  1  0  0  0
 49144  1  0  0  0
 50145  1  0  0  0
 51146  1  0  0  0
 54147  1  0  0  0
 54148  1  0  0  0
 56149  1  0  0  0
 57150  1  0  0  0
 60151  1  0  0  0
 60152  1  0  0  0
 63153  1  0  0  0
 64154  1  0  0  0
 67155  1  0  0  0
 67156  1  0  0  0
 69157  1  0  0  0
 73158  1  0  0  0
 74159  1  0  0  0
 75160  1  0  0  0
 76161  1  0  0  0
 77162  1  0  0  0
 78163  1  0  0  0
 81164  1  0  0  0
 81165  1  0  0  0
 84166  1  0  0  0
 85167  1  0  0  0
 90168  1  0  0  0
 91169  1  0  0  0
 91170  1  0  0  0
M  END
$$$$
