### 
### Created by X-TOOL on Mon Sep 10 21:12:53 2018
### 

@<TRIPOS>MOLECULE
2cv3_ligand
  170   176     1     0     0
SMALL
GAST_HUCK


@<TRIPOS>ATOM
      1 N          41.1690  -19.0070   38.1120 N.4       1 THR         0.2398
      2 CA         40.2290  -19.1710   36.9810 C.3       1 THR         0.0910
      3 C          39.0400  -19.9460   37.4370 C.2       1 THR         0.2293
      4 O          39.2420  -21.0530   37.9530 O.2       1 THR        -0.3906
      5 CB         40.9340  -19.9150   35.8330 C.3       1 THR         0.1120
      6 OG1        42.1490  -19.2280   35.5390 O.3       1 THR        -0.3840
      7 CG2        40.0180  -19.9730   34.5650 C.3       1 THR        -0.0314
      8 N1         37.8170  -19.3460   37.2370 N.am      1 THR        -0.2582
      9 C1         36.7230  -20.1210   37.7910 C.3       1 THR         0.1613
     10 C11        36.2300  -21.1460   36.8040 C.2       1 THR         0.2068
     11 O3         36.7220  -21.1920   35.6670 O.2       1 THR        -0.3943
     12 C21        35.6220  -19.1420   38.1490 C.3       1 THR         0.1246
     13 O12        35.4520  -18.0840   37.1150 O.3       1 THR        -0.2688
     14 C31        35.9370  -18.5020   39.5090 C.3       1 THR        -0.0298
     15 N2         35.3710  -22.0570   37.3150 N.am      1 LEU        -0.2636
     16 C2         35.1320  -23.2420   36.4350 C.3       1 LEU         0.1312
     17 C12        33.7590  -23.3350   35.8090 C.2       1 LEU         0.2039
     18 O4         33.1160  -24.3940   35.7990 O.2       1 LEU        -0.3944
     19 C22        35.4240  -24.5680   37.1880 C.3       1 LEU        -0.0101
     20 CG         36.8850  -24.8340   37.6100 C.3       1 LEU        -0.0425
     21 CD1        36.9660  -26.2110   38.2860 C.3       1 LEU        -0.0625
     22 CD2        37.8530  -24.7480   36.4010 C.3       1 LEU        -0.0625
     23 N3         33.3370  -22.1700   35.3150 N.am      1 LYS        -0.2637
     24 C3         32.0500  -22.1270   34.6410 C.3       1 LYS         0.1310
     25 C13        32.3480  -22.3960   33.1680 C.2       1 LYS         0.2040
     26 O5         33.3970  -21.9960   32.6940 O.2       1 LYS        -0.3944
     27 C23        31.4330  -20.7590   34.8260 C.3       1 LYS        -0.0123
     28 C32        30.0570  -20.5840   34.1410 C.3       1 LYS        -0.0470
     29 CD         29.5220  -19.1620   34.4350 C.3       1 LYS        -0.0325
     30 CE         28.1090  -18.8800   33.8250 C.3       1 LYS         0.0309
     31 NZ         27.9570  -19.1630   32.3800 N.am      1 LYS        -0.2868
     32 N4         31.3680  -23.0640   32.4750 N.am      1 PHE        -0.2619
     33 C4         31.5960  -23.3380   31.0460 C.3       1 PHE         0.1406
     34 C14        30.7660  -22.3750   30.1600 C.2       1 PHE         0.2085
     35 O6         29.5460  -22.2230   30.4480 O.2       1 PHE        -0.3940
     36 C24        31.1610  -24.8020   30.7300 C.3       1 PHE         0.0214
     37 C33        31.4320  -25.1240   29.2550 C.ar      1 PHE        -0.0386
     38 C38        32.7530  -25.5650   28.8740 C.ar      1 PHE        -0.0601
     39 C40        30.4040  -24.9690   28.2820 C.ar      1 PHE        -0.0601
     40 CE1        33.0220  -25.8520   27.5030 C.ar      1 PHE        -0.0686
     41 CE2        30.6920  -25.2550   26.9010 C.ar      1 PHE        -0.0686
     42 CZ         31.9950  -25.6940   26.5310 C.ar      1 PHE        -0.0687
     43 N5         31.3180  -21.9110   28.9700 N.am      1 PRO        -0.2497
     44 C5         32.7370  -21.9790   28.5400 C.3       1 PRO         0.1338
     45 C15        33.7880  -21.3230   29.4220 C.2       1 PRO         0.2042
     46 O7         34.9250  -21.7940   29.4420 O.2       1 PRO        -0.3944
     47 C25        32.7380  -21.4280   27.1080 C.3       1 PRO        -0.0104
     48 C34        31.3030  -20.9390   26.7910 C.3       1 PRO        -0.0281
     49 C42        30.4490  -21.3180   27.9700 C.3       1 PRO         0.0369
     50 N6         33.3640  -20.2700   30.1340 N.am      1 SER        -0.2613
     51 C6         34.2960  -19.6200   31.0580 C.3       1 SER         0.1586
     52 C16        33.4800  -18.7910   32.0310 C.2       1 SER         0.2067
     53 O8         32.2540  -18.6640   31.9230 O.2       1 SER        -0.3943
     54 C26        35.2520  -18.6750   30.2480 C.3       1 SER         0.1168
     55 OG         34.4730  -17.5610   29.6520 O.3       1 SER        -0.2719
     56 N7         34.2080  -18.2430   33.0230 N.am      1 ASP        -0.2614
     57 C7         33.5110  -17.4270   34.0200 C.3       1 ASP         0.1489
     58 C17        32.8350  -16.1420   33.5280 C.2       1 ASP         0.2064
     59 O9         31.7470  -15.7690   34.0110 O.2       1 ASP        -0.3942
     60 C27        34.5130  -17.0700   35.1330 C.3       1 ASP         0.0890
     61 C35        34.6090  -18.2530   36.0830 C.2       1 ASP         0.2388
     62 OD1        33.9630  -19.2860   35.9370 O.2       1 ASP        -0.3701
     63 N8         33.4200  -15.5170   32.5700 N.am      1 TRP        -0.2625
     64 C8         33.4560  -14.2740   31.8110 C.3       1 TRP         0.1352
     65 C18        32.9180  -14.5040   30.4170 C.2       1 TRP         0.2053
     66 O10        33.0390  -13.5930   29.5810 O.2       1 TRP        -0.3942
     67 C28        34.9600  -13.7160   31.7590 C.3       1 TRP         0.0042
     68 C36        36.0310  -14.5590   30.9640 C.2       1 TRP        -0.0418
     69 C39        36.0860  -14.7880   29.5550 C.2       1 TRP         0.0167
     70 C41        37.2080  -15.3080   31.4690 C.ar      1 TRP        -0.0214
     71 NE1        37.1360  -15.5820   29.1780 N.pl3     1 TRP        -0.2890
     72 C43        37.8680  -15.9360   30.3240 C.ar      1 TRP         0.0603
     73 CE3        37.7570  -15.5110   32.7690 C.ar      1 TRP        -0.0747
     74 CZ2        39.0540  -16.7450   30.5080 C.ar      1 TRP        -0.0443
     75 CZ3        38.9470  -16.3200   32.9530 C.ar      1 TRP        -0.0792
     76 CH2        39.5940  -16.9370   31.8330 C.ar      1 TRP        -0.0768
     77 N9         32.4000  -15.7780   30.1420 N.am      1 ASP        -0.2614
     78 C9         32.0040  -16.0320   28.7420 C.3       1 ASP         0.1489
     79 C19        30.9610  -17.1380   28.5230 C.2       1 ASP         0.2059
     80 O11        31.0440  -17.8340   27.5100 O.2       1 ASP        -0.3942
     81 C29        33.2820  -16.3330   27.9090 C.3       1 ASP         0.0890
     82 C37        34.1070  -17.5490   28.3830 C.2       1 ASP         0.2385
     83 OD2        34.3900  -18.4340   27.6450 O.2       1 ASP        -0.3702
     84 N10        29.9990  -17.2450   29.4010 N.am      1 ASP        -0.2672
     85 C10        28.7220  -17.8140   28.9490 C.3       1 ASP         0.1111
     86 C20        28.1010  -18.2010   31.4770 C.2       1 ASP         0.1799
     87 O          28.2050  -16.9950   31.7400 O.2       1 ASP        -0.3969
     88 C30        27.6700  -16.7140   28.5630 C.2       1 ASP         0.0624
     89 O1         26.6030  -17.0660   28.0250 O.co2     1 ASP        -0.5665
     90 O2         27.9500  -15.5180   28.7830 O.co2     1 ASP        -0.5665
     91 C44        28.1290  -18.7660   30.0370 C.3       1 ASP         0.0720
     92 H1         40.7078  -18.5197   38.8643 H         1 THR         0.2016
     93 H2         41.9701  -18.4756   37.8088 H         1 THR         0.2016
     94 H3         41.4694  -19.9139   38.4335 H         1 THR         0.2016
     95 H4         39.9048  -18.1810   36.6277 H         1 THR         0.1125
     96 H5         41.1639  -20.9422   36.1524 H         1 THR         0.0674
     97 H6         42.5998  -19.6731   34.8311 H         1 THR         0.2102
     98 H7         40.5413  -20.5081   33.7589 H         1 THR         0.0258
     99 H8         39.7841  -18.9502   34.2345 H         1 THR         0.0258
    100 H9         39.0850  -20.5014   34.8105 H         1 THR         0.0258
    101 H10        37.6964  -18.4738   36.7630 H         1 THR         0.1886
    102 H11        37.0636  -20.6400   38.6991 H         1 THR         0.0830
    103 H12        34.6766  -19.6984   38.2298 H         1 THR         0.0696
    104 H13        35.1404  -17.7907   39.7728 H         1 THR         0.0260
    105 H14        36.8983  -17.9706   39.4504 H         1 THR         0.0260
    106 H15        35.9977  -19.2862   40.2780 H         1 THR         0.0260
    107 H16        34.9323  -21.9473   38.2069 H         1 LEU         0.1883
    108 H17        35.8526  -23.1615   35.6078 H         1 LEU         0.0800
    109 H18        35.1130  -25.3955   36.5333 H         1 LEU         0.0315
    110 H19        34.8102  -24.5720   38.1008 H         1 LEU         0.0315
    111 H20        37.1823  -24.0669   38.3402 H         1 LEU         0.0298
    112 H21        38.0042  -26.4095   38.5904 H         1 LEU         0.0232
    113 H22        36.6366  -26.9866   37.5789 H         1 LEU         0.0232
    114 H23        36.3153  -26.2230   39.1728 H         1 LEU         0.0232
    115 H24        37.7736  -23.7534   35.9378 H         1 LEU         0.0232
    116 H25        37.5868  -25.5186   35.6626 H         1 LEU         0.0232
    117 H26        38.8850  -24.9108   36.7452 H         1 LEU         0.0232
    118 H27        33.8938  -21.3444   35.4064 H         1 LYS         0.1883
    119 H28        31.3737  -22.8960   35.0426 H         1 LYS         0.0800
    120 H29        32.1230  -20.0105   34.4093 H         1 LYS         0.0312
    121 H30        31.3063  -20.5810   35.9041 H         1 LYS         0.0312
    122 H31        29.3521  -21.3313   34.5342 H         1 LYS         0.0268
    123 H32        30.1664  -20.7190   33.0548 H         1 LYS         0.0268
    124 H33        30.2314  -18.4316   34.0187 H         1 LYS         0.0285
    125 H34        29.4608  -19.0331   35.5257 H         1 LYS         0.0285
    126 H35        27.8795  -17.8162   33.9854 H         1 LYS         0.0520
    127 H36        27.3788  -19.4985   34.3675 H         1 LYS         0.0520
    128 H37        27.7427  -20.0925   32.0798 H         1 LYS         0.1851
    129 H38        30.5251  -23.3555   32.9272 H         1 PHE         0.1885
    130 H39        32.6649  -23.2119   30.8190 H         1 PHE         0.0823
    131 H40        30.0864  -24.9150   30.9358 H         1 PHE         0.0474
    132 H41        31.7310  -25.4963   31.3649 H         1 PHE         0.0474
    133 H42        33.5308  -25.6766   29.6208 H         1 PHE         0.0557
    134 H43        29.4148  -24.6391   28.5782 H         1 PHE         0.0557
    135 H44        34.0071  -26.1899   27.2021 H         1 PHE         0.0599
    136 H45        29.9218  -25.1369   26.1474 H         1 PHE         0.0599
    137 H46        32.2083  -25.9116   25.4907 H         1 PHE         0.0559
    138 H47        33.0104  -23.0437   28.4981 H         1 PRO         0.0802
    139 H48        33.0285  -22.2199   26.4020 H         1 PRO         0.0313
    140 H49        33.4455  -20.5893   27.0297 H         1 PRO         0.0313
    141 H50        30.9287  -21.4268   25.8789 H         1 PRO         0.0287
    142 H51        31.2959  -19.8478   26.6525 H         1 PRO         0.0287
    143 H52        29.9598  -20.4229   28.3817 H         1 PRO         0.0524
    144 H53        29.6834  -22.0446   27.6602 H         1 PRO         0.0524
    145 H54        32.4273  -19.9338   30.0361 H         1 SER         0.1884
    146 H55        34.8844  -20.3749   31.6002 H         1 SER         0.0827
    147 H56        35.7395  -19.2492   29.4464 H         1 SER         0.0662
    148 H57        36.0176  -18.2648   30.9230 H         1 SER         0.0662
    149 H58        35.1958  -18.3890   33.0773 H         1 ASP         0.1885
    150 H59        32.7187  -18.0567   34.4509 H         1 ASP         0.0827
    151 H60        34.1624  -16.1817   35.6788 H         1 ASP         0.0567
    152 H61        35.5002  -16.8644   34.6935 H         1 ASP         0.0567
    153 H62        34.1276  -16.1196   32.2008 H         1 TRP         0.1884
    154 H63        32.8210  -13.5305   32.3149 H         1 TRP         0.0815
    155 H64        35.3143  -13.6308   32.7969 H         1 TRP         0.0397
    156 H65        34.9234  -12.7166   31.3008 H         1 TRP         0.0397
    157 H66        35.3656  -14.3730   28.8517 H         1 TRP         0.0795
    158 H67        37.3533  -15.8718   28.2138 H         1 TRP         0.2216
    159 H68        37.2800  -15.0558   33.6294 H         1 TRP         0.0540
    160 H69        39.5356  -17.2056   29.6530 H         1 TRP         0.0541
    161 H70        39.3514  -16.4594   33.9490 H         1 TRP         0.0510
    162 H71        40.4811  -17.5426   31.9794 H         1 TRP         0.0530
    163 H72        32.3043  -16.4745   30.8531 H         1 ASP         0.1885
    164 H73        31.5595  -15.1004   28.3618 H         1 ASP         0.0827
    165 H74        33.9308  -15.4456   27.9492 H         1 ASP         0.0567
    166 H75        32.9745  -16.5156   26.8688 H         1 ASP         0.0567
    167 H76        30.1275  -16.9498   30.3478 H         1 ASP         0.1877
    168 H77        28.9256  -18.4111   28.0479 H         1 ASP         0.0752
    169 H78        28.7317  -19.6861   30.0463 H         1 ASP         0.0544
    170 H79        27.0954  -19.0075   29.7482 H         1 ASP         0.0544
@<TRIPOS>BOND
     1    1    2 1  
     2    2    3 1  
     3    2    5 1  
     4    3    4 2  
     5    3    8 am 
     6    5    6 1  
     7    5    7 1  
     8    8    9 1  
     9    9   10 1  
    10    9   12 1  
    11   10   11 2  
    12   10   15 am 
    13   12   13 1  
    14   12   14 1  
    15   13   61 1  
    16   15   16 1  
    17   16   17 1  
    18   16   19 1  
    19   17   18 2  
    20   17   23 am 
    21   19   20 1  
    22   20   21 1  
    23   20   22 1  
    24   23   24 1  
    25   24   25 1  
    26   24   27 1  
    27   25   26 2  
    28   25   32 am 
    29   27   28 1  
    30   28   29 1  
    31   29   30 1  
    32   30   31 1  
    33   31   86 am 
    34   32   33 1  
    35   33   34 1  
    36   33   36 1  
    37   34   35 2  
    38   34   43 am 
    39   36   37 1  
    40   37   38 ar 
    41   37   39 ar 
    42   38   40 ar 
    43   39   41 ar 
    44   40   42 ar 
    45   41   42 ar 
    46   43   44 1  
    47   43   49 1  
    48   44   45 1  
    49   44   47 1  
    50   45   46 2  
    51   45   50 am 
    52   47   48 1  
    53   48   49 1  
    54   50   51 1  
    55   51   52 1  
    56   51   54 1  
    57   52   53 2  
    58   52   56 am 
    59   54   55 1  
    60   55   82 1  
    61   56   57 1  
    62   57   58 1  
    63   57   60 1  
    64   58   59 2  
    65   58   63 am 
    66   60   61 1  
    67   61   62 2  
    68   63   64 1  
    69   64   65 1  
    70   64   67 1  
    71   65   66 2  
    72   65   77 am 
    73   67   68 1  
    74   68   69 2  
    75   68   70 1  
    76   69   71 1  
    77   70   72 ar 
    78   70   73 ar 
    79   71   72 1  
    80   72   74 ar 
    81   73   75 ar 
    82   74   76 ar 
    83   75   76 ar 
    84   77   78 1  
    85   78   79 1  
    86   78   81 1  
    87   79   80 2  
    88   79   84 am 
    89   81   82 1  
    90   82   83 2  
    91   84   85 1  
    92   85   88 1  
    93   85   91 1  
    94   86   87 2  
    95   86   91 1  
    96   88   89 ar 
    97   88   90 ar 
    98    1   92 1  
    99    1   93 1  
   100    1   94 1  
   101    2   95 1  
   102    5   96 1  
   103    6   97 1  
   104    7   98 1  
   105    7   99 1  
   106    7  100 1  
   107    8  101 1  
   108    9  102 1  
   109   12  103 1  
   110   14  104 1  
   111   14  105 1  
   112   14  106 1  
   113   15  107 1  
   114   16  108 1  
   115   19  109 1  
   116   19  110 1  
   117   20  111 1  
   118   21  112 1  
   119   21  113 1  
   120   21  114 1  
   121   22  115 1  
   122   22  116 1  
   123   22  117 1  
   124   23  118 1  
   125   24  119 1  
   126   27  120 1  
   127   27  121 1  
   128   28  122 1  
   129   28  123 1  
   130   29  124 1  
   131   29  125 1  
   132   30  126 1  
   133   30  127 1  
   134   31  128 1  
   135   32  129 1  
   136   33  130 1  
   137   36  131 1  
   138   36  132 1  
   139   38  133 1  
   140   39  134 1  
   141   40  135 1  
   142   41  136 1  
   143   42  137 1  
   144   44  138 1  
   145   47  139 1  
   146   47  140 1  
   147   48  141 1  
   148   48  142 1  
   149   49  143 1  
   150   49  144 1  
   151   50  145 1  
   152   51  146 1  
   153   54  147 1  
   154   54  148 1  
   155   56  149 1  
   156   57  150 1  
   157   60  151 1  
   158   60  152 1  
   159   63  153 1  
   160   64  154 1  
   161   67  155 1  
   162   67  156 1  
   163   69  157 1  
   164   71  158 1  
   165   73  159 1  
   166   74  160 1  
   167   75  161 1  
   168   76  162 1  
   169   77  163 1  
   170   78  164 1  
   171   81  165 1  
   172   81  166 1  
   173   84  167 1  
   174   85  168 1  
   175   91  169 1  
   176   91  170 1  
@<TRIPOS>SUBSTRUCTURE
     1 THR         1

