1xk9_ligand
  -I-interpret- 

 40 42  0  0  0  0  0  0  0  0999 V2000
   31.8880    7.6030   18.1380 C   0  0  0  0  0
   32.8510    8.7170   18.0680 N   0  3  0  0  0
   32.8860    9.4620   19.3360 C   0  0  0  0  0
   32.5250    9.6490   16.9080 C   0  0  0  0  0
   31.0220   10.0210   16.6150 C   0  0  0  0  0
   30.8090   10.7810   15.6490 O   0  0  0  0  0
   29.8710    9.5620   17.3270 N   0  0  0  0  0
   29.3510    9.3770   18.6130 C   0  0  0  0  0
   28.1420    8.5170   18.6140 C   0  0  0  0  0
   27.4000    8.1560   19.8490 C   0  0  0  0  0
   26.1680    7.3120   19.9000 C   0  0  0  0  0
   25.5700    6.7070   18.7210 C   0  0  0  0  0
   24.3690    5.8760   18.8090 C   0  0  0  0  0
   23.7700    5.6120   20.0600 C   0  0  0  0  0
   24.3270    6.1790   21.2490 C   0  0  0  0  0
   25.5330    7.0050   21.1970 C   0  0  0  0  0
   26.0740    7.5700   22.3840 C   0  0  0  0  0
   25.5960    7.3700   23.5060 O   0  0  0  0  0
   27.2650    8.3890   22.3100 N   0  0  0  0  0
   27.9220    8.6930   21.0770 C   0  0  0  0  0
   29.1120    9.5360   21.1150 C   0  0  0  0  0
   29.8160    9.8620   19.8810 C   0  0  0  0  0
   30.8834    8.0012   18.2807 H   0  0  0  0  0
   31.9258    7.0329   17.2097 H   0  0  0  0  0
   32.1453    6.9541   18.9751 H   0  0  0  0  0
   33.7761    8.3193   17.9057 H   0  0  0  0  0
   33.6501   10.2373   19.2794 H   0  0  0  0  0
   31.9133    9.9209   19.5133 H   0  0  0  0  0
   33.1205    8.7779   20.1515 H   0  0  0  0  0
   32.8569    9.1128   16.0190 H   0  0  0  0  0
   32.9994   10.5948   17.1697 H   0  0  0  0  0
   29.1722    9.2576   16.6492 H   0  0  0  0  0
   27.7803    8.1309   17.6610 H   0  0  0  0  0
   26.0281    6.8768   17.7466 H   0  0  0  0  0
   23.9333    5.4575   17.9017 H   0  0  0  0  0
   22.8855    4.9778   20.1194 H   0  0  0  0  0
   23.8453    5.9927   22.2089 H   0  0  0  0  0
   27.6525    8.7657   23.1751 H   0  0  0  0  0
   29.4751    9.9225   22.0673 H   0  0  0  0  0
   30.7100   10.4842   19.9220 H   0  0  0  0  0
  1  2  1  0  0  0
  2  3  1  0  0  0
  2  4  1  0  0  0
  4  5  1  0  0  0
  5  6  2  0  0  0
  5  7  1  0  0  0
  7  8  1  0  0  0
  8  9  4  0  0  0
  8 22  4  0  0  0
  9 10  4  0  0  0
 10 11  1  0  0  0
 10 20  4  0  0  0
 11 12  4  0  0  0
 11 16  4  0  0  0
 12 13  4  0  0  0
 13 14  4  0  0  0
 14 15  4  0  0  0
 15 16  4  0  0  0
 16 17  1  0  0  0
 17 18  2  0  0  0
 17 19  1  0  0  0
 19 20  1  0  0  0
 20 21  4  0  0  0
 21 22  4  0  0  0
  1 23  1  0  0  0
  1 24  1  0  0  0
  1 25  1  0  0  0
  2 26  1  0  0  0
  3 27  1  0  0  0
  3 28  1  0  0  0
  3 29  1  0  0  0
  4 30  1  0  0  0
  4 31  1  0  0  0
  7 32  1  0  0  0
  9 33  1  0  0  0
 12 34  1  0  0  0
 13 35  1  0  0  0
 14 36  1  0  0  0
 15 37  1  0  0  0
 19 38  1  0  0  0
 21 39  1  0  0  0
 22 40  1  0  0  0
M  END
$$$$
