4agm_ligand
  -I-interpret- 

 47 48  0  0  0  0  0  0  0  0999 V2000
   91.0680   93.5550  -45.0980 C   0  0  0  0  0
   90.4990   95.8990  -44.7880 C   0  0  0  0  0
   90.4980   98.3810  -44.6910 N   0  3  0  0  0
   90.8570   96.9650  -42.6590 O   0  0  0  0  0
   91.4810   93.4570  -43.7630 C   0  0  0  0  0
   89.9050   97.1660  -45.3350 C   0  0  0  0  0
   92.0320  102.4380  -44.4730 N   0  3  0  0  0
   89.5430   99.5450  -44.7170 C   0  0  0  0  0
   90.5790   94.7670  -45.6090 C   0  0  0  0  0
   91.3960   94.6040  -42.9570 C   0  0  0  0  0
   90.9090   95.8370  -43.4300 C   0  0  0  0  0
   90.1750  100.7310  -44.0050 C   0  0  0  0  0
   91.4300  101.0810  -44.8020 C   0  0  0  0  0
   92.9470  102.9030  -45.5930 C   0  0  0  0  0
   92.9390  104.4100  -45.7850 C   0  0  0  0  0
   92.7530  102.4490  -43.1430 C   0  0  0  0  0
   92.6400  103.7790  -42.4090 C   0  0  0  0  0
   92.4510   99.9400  -44.6950 C   0  0  0  0  0
   91.8210   98.7070  -45.3220 C   0  0  0  0  0
   91.1810   91.8880  -46.3980 I   0  0  0  0  0
   91.9860   94.4580  -40.9270 I   0  0  0  0  0
   90.6673   98.1780  -43.7058 H   0  0  0  0  0
   91.1647   96.7601  -41.7730 H   0  0  0  0  0
   91.8579   92.5166  -43.3609 H   0  0  0  0  0
   88.8342   97.1583  -45.1315 H   0  0  0  0  0
   90.1132   97.2085  -46.4041 H   0  0  0  0  0
   91.2567  103.0954  -44.3884 H   0  0  0  0  0
   88.6171   99.2682  -44.2127 H   0  0  0  0  0
   89.3246   99.8143  -45.7504 H   0  0  0  0  0
   90.2600   94.8278  -46.6495 H   0  0  0  0  0
   90.4194  100.4863  -42.9713 H   0  0  0  0  0
   89.4879  101.5760  -43.9596 H   0  0  0  0  0
   91.1217  101.1842  -45.8424 H   0  0  0  0  0
   92.5926  102.4500  -46.5189 H   0  0  0  0  0
   93.9637  102.6084  -45.3330 H   0  0  0  0  0
   91.9283  104.7388  -46.0266 H   0  0  0  0  0
   93.2700  104.8938  -44.8661 H   0  0  0  0  0
   93.6130  104.6748  -46.5997 H   0  0  0  0  0
   93.8100  102.2692  -43.3392 H   0  0  0  0  0
   92.2963  101.6850  -42.5138 H   0  0  0  0  0
   93.0705  104.5695  -43.0237 H   0  0  0  0  0
   91.5898  103.9981  -42.2163 H   0  0  0  0  0
   93.1791  103.7178  -41.4636 H   0  0  0  0  0
   92.7052   99.7510  -43.6520 H   0  0  0  0  0
   93.3737  100.2029  -45.2123 H   0  0  0  0  0
   91.6580   98.9044  -46.3815 H   0  0  0  0  0
   92.4926   97.8620  -45.1702 H   0  0  0  0  0
  1  5  4  0  0  0
  9  1  4  0  0  0
  1 20  1  0  0  0
  6  2  1  0  0  0
  2  9  4  0  0  0
  2 11  4  0  0  0
  3  6  1  0  0  0
  8  3  1  0  0  0
  3 19  1  0  0  0
 11  4  1  0  0  0
 10  5  4  0  0  0
 13  7  1  0  0  0
  7 14  1  0  0  0
  7 16  1  0  0  0
 12  8  1  0  0  0
 11 10  4  0  0  0
 10 21  1  0  0  0
 12 13  1  0  0  0
 13 18  1  0  0  0
 14 15  1  0  0  0
 16 17  1  0  0  0
 18 19  1  0  0  0
  3 22  1  0  0  0
  4 23  1  0  0  0
  5 24  1  0  0  0
  6 25  1  0  0  0
  6 26  1  0  0  0
  7 27  1  0  0  0
  8 28  1  0  0  0
  8 29  1  0  0  0
  9 30  1  0  0  0
 12 31  1  0  0  0
 12 32  1  0  0  0
 13 33  1  0  0  0
 14 34  1  0  0  0
 14 35  1  0  0  0
 15 36  1  0  0  0
 15 37  1  0  0  0
 15 38  1  0  0  0
 16 39  1  0  0  0
 16 40  1  0  0  0
 17 41  1  0  0  0
 17 42  1  0  0  0
 17 43  1  0  0  0
 18 44  1  0  0  0
 18 45  1  0  0  0
 19 46  1  0  0  0
 19 47  1  0  0  0
M  END
$$$$
