5ly1_ligand
  -I-interpret- 

248256  0  0  0  0  0  0  0  0999 V2000
  -11.3460  -38.5460  -29.6040 O   0  0  0  0  0
  -15.0600  -41.1660  -27.1490 N   0  0  0  0  0
  -15.2430  -41.8320  -28.4400 C   0  0  0  0  0
  -16.5110  -42.5940  -28.6650 C   0  0  0  0  0
  -16.5210  -43.8160  -28.9740 O   0  0  0  0  0
  -17.6410  -41.9450  -28.4050 N   0  0  0  0  0
  -14.0730  -42.4450  -29.1250 C   0  0  0  0  0
  -13.0220  -41.1660  -29.7630 S   0  0  0  0  0
  -12.0000  -40.5320  -28.4510 C   0  0  0  0  0
  -11.5980  -39.1220  -28.5540 C   0  0  0  0  0
  -11.3970  -38.2890  -27.3320 N   0  0  0  0  0
  -10.8070  -36.9460  -27.1820 C   0  0  0  0  0
  -11.7610  -35.8990  -26.5870 C   0  0  0  0  0
  -12.7350  -36.1750  -25.8330 O   0  0  0  0  0
   -9.3940  -37.0230  -26.5470 C   0  0  0  0  0
   -8.6110  -35.7170  -26.6070 C   0  0  0  0  0
   -7.8870  -35.2840  -27.7120 C   0  0  0  0  0
   -8.6850  -34.8910  -25.4870 C   0  0  0  0  0
   -7.2280  -34.0490  -27.6610 C   0  0  0  0  0
   -8.0310  -33.6650  -25.4340 C   0  0  0  0  0
   -7.2980  -33.2320  -26.5280 C   0  0  0  0  0
   -6.6480  -32.0370  -26.4920 O   0  0  0  0  0
  -11.5330  -34.6430  -26.9580 N   0  0  0  0  0
  -12.3130  -33.5200  -26.4370 C   0  0  0  0  0
  -12.7590  -32.4700  -27.4740 C   0  0  0  0  0
  -12.1350  -32.3210  -28.4990 O   0  0  0  0  0
  -11.4770  -32.8290  -25.3370 C   0  0  0  0  0
  -10.4460  -31.8990  -25.9340 C   0  0  0  0  0
  -12.3410  -32.1190  -24.3200 C   0  0  0  0  0
  -13.8740  -31.7890  -27.2230 N   0  0  0  0  0
  -14.3590  -30.7060  -28.0610 C   0  0  0  0  0
  -14.9050  -29.5970  -27.1990 C   0  0  0  0  0
  -15.3790  -29.8420  -26.1170 O   0  0  0  0  0
  -15.3440  -31.1390  -29.1490 C   0  0  0  0  0
  -16.5600  -31.9060  -28.7330 C   0  0  0  0  0
  -17.4960  -31.3640  -27.8970 C   0  0  0  0  0
  -16.8130  -33.1550  -29.2520 C   0  0  0  0  0
  -18.6340  -32.0620  -27.5520 C   0  0  0  0  0
  -17.9520  -33.8610  -28.9200 C   0  0  0  0  0
  -18.8600  -33.3090  -28.0600 C   0  0  0  0  0
  -19.9910  -34.0150  -27.6960 O   0  0  0  0  0
  -14.8190  -28.3680  -27.6680 N   0  0  0  0  0
  -15.3140  -27.2670  -26.8780 C   0  0  0  0  0
  -16.7840  -26.9560  -27.1470 C   0  0  0  0  0
  -17.2340  -26.9670  -28.2710 O   0  0  0  0  0
  -14.4170  -26.0450  -27.0410 C   0  0  0  0  0
  -14.8200  -24.9110  -26.1390 C   0  0  0  0  0
  -14.6430  -24.9620  -24.9410 O   0  0  0  0  0
  -15.3920  -23.8800  -26.7250 N   0  0  0  0  0
  -17.5110  -26.7260  -26.0500 N   0  0  0  0  0
  -18.9420  -26.4260  -25.9990 C   0  0  0  0  0
  -19.2230  -25.2240  -25.1090 C   0  0  0  0  0
  -18.3750  -24.7940  -24.3780 O   0  0  0  0  0
  -19.8000  -27.6100  -25.5140 C   0  0  0  0  0
  -19.7630  -27.6950  -24.0930 O   0  0  0  0  0
  -19.3200  -28.8760  -26.0940 C   0  0  0  0  0
  -20.4210  -24.6700  -25.1760 N   0  0  0  0  0
  -20.7280  -23.4540  -24.4170 C   0  0  0  0  0
  -20.4570  -23.6060  -22.9360 C   0  0  0  0  0
  -19.9870  -22.7100  -22.2750 O   0  0  0  0  0
  -22.1820  -23.0330  -24.6290 C   0  0  0  0  0
  -22.5090  -21.6510  -24.0900 C   0  0  0  0  0
  -23.9110  -21.2210  -24.4560 C   0  0  0  0  0
  -24.2360  -19.9170  -23.8990 N   0  0  0  0  0
  -24.7820  -19.7300  -22.7170 C   0  0  0  0  0
  -25.0930  -20.7550  -21.9710 N   0  0  0  0  0
  -25.0080  -18.5250  -22.2820 N   0  0  0  0  0
  -20.7830  -24.7700  -22.4280 N   0  0  0  0  0
  -20.6320  -25.1100  -21.0440 C   0  0  0  0  0
  -19.2350  -25.5910  -20.6740 C   0  0  0  0  0
  -19.0410  -26.0700  -19.5850 O   0  0  0  0  0
  -21.6690  -26.1680  -20.7110 C   0  0  0  0  0
  -21.3420  -26.8140  -19.5200 O   0  0  0  0  0
  -18.2960  -25.5680  -21.6080 N   0  0  0  0  0
  -16.9560  -25.9990  -21.2950 C   0  0  0  0  0
  -16.2860  -26.9490  -22.2540 C   0  0  0  0  0
  -16.5180  -26.9320  -23.4320 O   0  0  0  0  0
  -15.4110  -27.7680  -21.7090 N   0  0  0  0  0
  -14.7180  -28.7680  -22.4570 C   0  0  0  0  0
  -15.5200  -30.0250  -22.1920 C   0  0  0  0  0
  -15.7430  -30.3650  -21.0590 O   0  0  0  0  0
  -13.2940  -28.8970  -21.9380 C   0  0  0  0  0
  -12.3320  -28.0200  -22.6510 C   0  0  0  0  0
  -12.6360  -26.9810  -23.4420 C   0  0  0  0  0
  -10.9190  -28.1060  -22.6360 C   0  0  0  0  0
  -11.5190  -26.4170  -23.9300 N   0  0  0  0  0
  -10.4400  -27.0920  -23.4490 C   0  0  0  0  0
  -10.0140  -28.9560  -22.0300 C   0  0  0  0  0
   -9.1090  -26.8980  -23.6700 C   0  0  0  0  0
   -8.7010  -28.7590  -22.2370 C   0  0  0  0  0
   -8.2510  -27.7460  -23.0520 C   0  0  0  0  0
  -15.9830  -30.6850  -23.2470 N   0  0  0  0  0
  -16.7800  -31.8900  -23.1320 C   0  0  0  0  0
  -15.9400  -33.0500  -23.6190 C   0  0  0  0  0
  -15.3820  -32.9930  -24.6880 O   0  0  0  0  0
  -18.0550  -31.7860  -23.9680 C   0  0  0  0  0
  -18.9900  -32.9680  -23.7740 C   0  0  0  0  0
  -20.1640  -33.0300  -24.7340 C   0  0  0  0  0
  -21.0750  -31.9110  -24.5910 N   0  0  0  0  0
  -21.7200  -31.3200  -25.5910 C   0  0  0  0  0
  -21.5540  -31.7050  -26.8410 N   0  0  0  0  0
  -22.5300  -30.3220  -25.3370 N   0  0  0  0  0
  -15.8080  -34.0950  -22.8240 N   0  0  0  0  0
  -14.9890  -35.2140  -23.2190 C   0  0  0  0  0
  -15.8540  -36.3190  -23.7180 C   0  0  0  0  0
  -16.7060  -36.8130  -23.0170 O   0  0  0  0  0
  -14.1660  -35.7010  -22.0400 C   0  0  0  0  0
  -13.4020  -34.6340  -21.3690 C   0  0  0  0  0
  -13.8650  -33.7590  -20.4460 C   0  0  0  0  0
  -12.0360  -34.3180  -21.5530 C   0  0  0  0  0
  -12.8790  -32.9210  -20.0510 N   0  0  0  0  0
  -11.7360  -33.2520  -20.7200 C   0  0  0  0  0
  -11.0370  -34.8480  -22.3560 C   0  0  0  0  0
  -10.4810  -32.6920  -20.6620 C   0  0  0  0  0
   -9.8040  -34.2990  -22.2900 C   0  0  0  0  0
   -9.5290  -33.2370  -21.4580 C   0  0  0  0  0
  -15.6620  -36.6850  -24.9800 N   0  0  0  0  0
  -16.4240  -37.7700  -25.5160 C   0  0  0  0  0
  -15.4680  -38.9010  -25.5510 C   0  0  0  0  0
  -14.4670  -38.8650  -26.2340 O   0  0  0  0  0
  -16.9860  -37.4310  -26.9020 C   0  0  0  0  0
  -15.9770  -37.0690  -27.9390 C   0  0  0  0  0
  -15.2350  -35.9220  -27.8350 C   0  0  0  0  0
  -15.7920  -37.8510  -29.0550 C   0  0  0  0  0
  -14.3200  -35.5760  -28.7940 C   0  0  0  0  0
  -14.8780  -37.5240  -30.0190 C   0  0  0  0  0
  -14.1430  -36.3770  -29.8860 C   0  0  0  0  0
  -13.2320  -36.0400  -30.8420 O   0  0  0  0  0
  -15.7540  -39.9370  -24.7780 N   0  0  0  0  0
  -14.8370  -41.0410  -24.6770 C   0  0  0  0  0
  -15.0430  -41.9030  -25.9450 C   0  0  0  0  0
  -15.2630  -43.1190  -25.8890 O   0  0  0  0  0
  -14.8190  -41.7830  -23.3010 C   0  0  0  0  0
  -16.1440  -41.9530  -22.7830 O   0  0  0  0  0
  -13.9680  -41.0880  -22.2940 C   0  0  0  0  0
  -14.9990  -41.4240  -27.0840 O   0  0  0  0  0
  -18.5338  -42.4357  -28.4540 H   0  0  0  0  0
  -17.6156  -40.9561  -28.1564 H   0  0  0  0  0
  -14.4208  -43.0719  -29.9460 H   0  0  0  0  0
  -13.5138  -43.0529  -28.4138 H   0  0  0  0  0
  -11.0772  -41.1114  -28.4811 H   0  0  0  0  0
  -12.5950  -40.6100  -27.5411 H   0  0  0  0  0
  -11.7186  -38.7162  -26.4634 H   0  0  0  0  0
  -10.6485  -36.5443  -28.1828 H   0  0  0  0  0
   -8.8276  -37.7641  -27.1110 H   0  0  0  0  0
   -9.5275  -37.2702  -25.4938 H   0  0  0  0  0
   -7.8327  -35.8998  -28.6097 H   0  0  0  0  0
   -9.2723  -35.2153  -24.6279 H   0  0  0  0  0
   -6.6484  -33.7177  -28.5226 H   0  0  0  0  0
   -8.0943  -33.0481  -24.5376 H   0  0  0  0  0
   -6.8052  -31.6139  -25.6447 H   0  0  0  0  0
  -10.7883  -34.4556  -27.6293 H   0  0  0  0  0
  -13.2429  -33.9475  -26.0619 H   0  0  0  0  0
  -10.9458  -33.6157  -24.8013 H   0  0  0  0  0
   -9.7734  -32.4682  -26.5756 H   0  0  0  0  0
  -10.9485  -31.1313  -26.5224 H   0  0  0  0  0
   -9.8752  -31.4292  -25.1330 H   0  0  0  0  0
  -12.9371  -31.3562  -24.8208 H   0  0  0  0  0
  -13.0016  -32.8406  -23.8393 H   0  0  0  0  0
  -11.7052  -31.6501  -23.5690 H   0  0  0  0  0
  -14.4177  -32.0409  -26.3976 H   0  0  0  0  0
  -13.5010  -30.3325  -28.6199 H   0  0  0  0  0
  -14.7828  -31.8152  -29.7939 H   0  0  0  0  0
  -15.7212  -30.2126  -29.5821 H   0  0  0  0  0
  -17.3400  -30.3625  -27.4961 H   0  0  0  0  0
  -16.0959  -33.5983  -29.9429 H   0  0  0  0  0
  -19.3574  -31.6156  -26.8697 H   0  0  0  0  0
  -18.1260  -34.8514  -29.3406 H   0  0  0  0  0
  -19.9931  -34.8655  -28.1413 H   0  0  0  0  0
  -14.4048  -28.1965  -28.5842 H   0  0  0  0  0
  -15.2742  -27.5718  -25.8322 H   0  0  0  0  0
  -14.5009  -25.7011  -28.0719 H   0  0  0  0  0
  -13.3997  -26.3371  -26.7803 H   0  0  0  0  0
  -15.7046  -23.0852  -26.1674 H   0  0  0  0  0
  -15.5226  -23.8761  -27.7366 H   0  0  0  0  0
  -17.0185  -26.7633  -25.1576 H   0  0  0  0  0
  -19.2237  -26.2071  -27.0290 H   0  0  0  0  0
  -20.8259  -27.4400  -25.8406 H   0  0  0  0  0
  -20.3008  -28.4357  -23.8038 H   0  0  0  0  0
  -19.3781  -28.8212  -27.1811 H   0  0  0  0  0
  -18.2861  -29.0436  -25.7921 H   0  0  0  0  0
  -19.9418  -29.6968  -25.7365 H   0  0  0  0  0
  -21.1402  -25.0933  -25.7625 H   0  0  0  0  0
  -20.0622  -22.6797  -24.7982 H   0  0  0  0  0
  -22.8071  -23.7462  -24.0917 H   0  0  0  0  0
  -22.3592  -23.0113  -25.7043 H   0  0  0  0  0
  -21.8082  -20.9392  -24.5262 H   0  0  0  0  0
  -22.4334  -21.6812  -23.0030 H   0  0  0  0  0
  -24.6112  -21.9517  -24.0512 H   0  0  0  0  0
  -23.9783  -21.1572  -25.5420 H   0  0  0  0  0
  -24.0266  -19.0930  -24.4625 H   0  0  0  0  0
  -25.5110  -20.6089  -21.0521 H   0  0  0  0  0
  -24.9181  -21.7021  -22.3070 H   0  0  0  0  0
  -24.7616  -17.7202  -22.8582 H   0  0  0  0  0
  -21.1673  -25.4761  -23.0558 H   0  0  0  0  0
  -20.7825  -24.2046  -20.4560 H   0  0  0  0  0
  -21.6970  -26.9023  -21.5161 H   0  0  0  0  0
  -22.6411  -25.6880  -20.5983 H   0  0  0  0  0
  -22.0068  -27.4785  -19.3247 H   0  0  0  0  0
  -18.5209  -25.2453  -22.5491 H   0  0  0  0  0
  -17.0360  -26.5421  -20.3533 H   0  0  0  0  0
  -16.3477  -25.0946  -21.3064 H   0  0  0  0  0
  -15.2200  -27.6848  -20.7105 H   0  0  0  0  0
  -14.6375  -28.5483  -23.5216 H   0  0  0  0  0
  -12.9779  -29.9288  -22.0917 H   0  0  0  0  0
  -13.2961  -28.6017  -20.8888 H   0  0  0  0  0
  -13.6488  -26.6413  -23.6589 H   0  0  0  0  0
  -10.3590  -29.7721  -21.3951 H   0  0  0  0  0
   -8.7504  -26.0961  -24.3154 H   0  0  0  0  0
   -7.9787  -29.4142  -21.7500 H   0  0  0  0  0
   -7.1788  -27.6224  -23.2044 H   0  0  0  0  0
  -15.7686  -30.3287  -24.1784 H   0  0  0  0  0
  -17.0767  -32.0353  -22.0933 H   0  0  0  0  0
  -17.7628  -31.7625  -25.0178 H   0  0  0  0  0
  -18.5859  -30.8875  -23.6536 H   0  0  0  0  0
  -19.4100  -32.8729  -22.7727 H   0  0  0  0  0
  -18.3976  -33.8665  -23.9467 H   0  0  0  0  0
  -20.7217  -33.9411  -24.5170 H   0  0  0  0  0
  -19.7646  -33.0046  -25.7479 H   0  0  0  0  0
  -21.2328  -31.5497  -23.6503 H   0  0  0  0  0
  -22.0524  -31.2277  -27.5921 H   0  0  0  0  0
  -20.9272  -32.4802  -27.0569 H   0  0  0  0  0
  -22.6619  -30.0038  -24.3769 H   0  0  0  0  0
  -16.2884  -34.1112  -21.9244 H   0  0  0  0  0
  -14.3149  -34.8955  -24.0141 H   0  0  0  0  0
  -13.4469  -36.4257  -22.4219 H   0  0  0  0  0
  -14.8592  -36.1151  -21.3078 H   0  0  0  0  0
  -14.8889  -33.7331  -20.0731 H   0  0  0  0  0
  -11.2412  -35.6856  -23.0230 H   0  0  0  0  0
  -10.2623  -31.8491  -20.0064 H   0  0  0  0  0
   -9.0069  -34.7073  -22.9112 H   0  0  0  0  0
   -8.5204  -32.8242  -21.4390 H   0  0  0  0  0
  -14.9790  -36.1979  -25.5603 H   0  0  0  0  0
  -17.3039  -38.0044  -24.9170 H   0  0  0  0  0
  -17.6217  -36.5553  -26.7713 H   0  0  0  0  0
  -17.4871  -38.3303  -27.2600 H   0  0  0  0  0
  -15.3756  -35.2716  -26.9717 H   0  0  0  0  0
  -16.3892  -38.7550  -29.1746 H   0  0  0  0  0
  -13.7343  -34.6631  -28.6858 H   0  0  0  0  0
  -14.7364  -38.1708  -30.8849 H   0  0  0  0  0
  -13.2349  -36.7055  -31.5339 H   0  0  0  0  0
  -16.6278  -39.9526  -24.2520 H   0  0  0  0  0
  -13.8078  -40.6824  -24.6638 H   0  0  0  0  0
  -14.3831  -42.7643  -23.4884 H   0  0  0  0  0
  -16.1006  -42.4102  -21.9400 H   0  0  0  0  0
  -12.9434  -41.0332  -22.6618 H   0  0  0  0  0
  -14.3508  -40.0807  -22.1298 H   0  0  0  0  0
  -13.9896  -41.6436  -21.3565 H   0  0  0  0  0
 10  1  2  0  0  0
  3  2  1  0  0  0
  2131  1  0  0  0
136  2  1  0  0  0
  3  4  1  0  0  0
  7  3  1  0  0  0
  3136  1  0  0  0
  4  5  2  0  0  0
  4  6  1  0  0  0
  8  7  1  0  0  0
  9  8  1  0  0  0
  9 10  1  0  0  0
 10 11  1  0  0  0
 11 12  1  0  0  0
 12 13  1  0  0  0
 12 15  1  0  0  0
 13 14  2  0  0  0
 13 23  1  0  0  0
 15 16  1  0  0  0
 16 17  4  0  0  0
 16 18  4  0  0  0
 17 19  4  0  0  0
 18 20  4  0  0  0
 19 21  4  0  0  0
 20 21  4  0  0  0
 21 22  1  0  0  0
 23 24  1  0  0  0
 24 25  1  0  0  0
 24 27  1  0  0  0
 25 26  2  0  0  0
 25 30  1  0  0  0
 27 28  1  0  0  0
 27 29  1  0  0  0
 30 31  1  0  0  0
 31 32  1  0  0  0
 31 34  1  0  0  0
 32 33  2  0  0  0
 32 42  1  0  0  0
 34 35  1  0  0  0
 35 36  4  0  0  0
 35 37  4  0  0  0
 36 38  4  0  0  0
 37 39  4  0  0  0
 38 40  4  0  0  0
 39 40  4  0  0  0
 40 41  1  0  0  0
 42 43  1  0  0  0
 43 44  1  0  0  0
 43 46  1  0  0  0
 44 45  2  0  0  0
 44 50  1  0  0  0
 46 47  1  0  0  0
 47 48  2  0  0  0
 47 49  1  0  0  0
 50 51  1  0  0  0
 51 52  1  0  0  0
 51 54  1  0  0  0
 52 53  2  0  0  0
 52 57  1  0  0  0
 54 55  1  0  0  0
 54 56  1  0  0  0
 57 58  1  0  0  0
 58 59  1  0  0  0
 58 61  1  0  0  0
 59 60  2  0  0  0
 59 68  1  0  0  0
 61 62  1  0  0  0
 62 63  1  0  0  0
 63 64  1  0  0  0
 64 65  1  0  0  0
 65 66  1  0  0  0
 65 67  2  0  0  0
 68 69  1  0  0  0
 69 70  1  0  0  0
 69 72  1  0  0  0
 70 71  2  0  0  0
 70 74  1  0  0  0
 72 73  1  0  0  0
 74 75  1  0  0  0
 75 76  1  0  0  0
 76 77  2  0  0  0
 76 78  1  0  0  0
 78 79  1  0  0  0
 79 80  1  0  0  0
 79 82  1  0  0  0
 80 81  2  0  0  0
 80 92  1  0  0  0
 82 83  1  0  0  0
 83 84  4  0  0  0
 83 85  4  0  0  0
 84 86  4  0  0  0
 85 87  4  0  0  0
 85 88  4  0  0  0
 86 87  4  0  0  0
 87 89  4  0  0  0
 88 90  4  0  0  0
 89 91  4  0  0  0
 90 91  4  0  0  0
 92 93  1  0  0  0
 93 94  1  0  0  0
 93 96  1  0  0  0
 94 95  2  0  0  0
 94103  1  0  0  0
 96 97  1  0  0  0
 97 98  1  0  0  0
 98 99  1  0  0  0
 99100  1  0  0  0
100101  1  0  0  0
100102  2  0  0  0
103104  1  0  0  0
104105  1  0  0  0
104107  1  0  0  0
105106  2  0  0  0
105117  1  0  0  0
107108  1  0  0  0
108109  4  0  0  0
108110  4  0  0  0
109111  4  0  0  0
110112  4  0  0  0
110113  4  0  0  0
111112  4  0  0  0
112114  4  0  0  0
113115  4  0  0  0
114116  4  0  0  0
115116  4  0  0  0
117118  1  0  0  0
118119  1  0  0  0
118121  1  0  0  0
119120  2  0  0  0
119129  1  0  0  0
121122  1  0  0  0
122123  4  0  0  0
122124  4  0  0  0
123125  4  0  0  0
124126  4  0  0  0
125127  4  0  0  0
126127  4  0  0  0
127128  1  0  0  0
129130  1  0  0  0
130131  1  0  0  0
130133  1  0  0  0
131132  2  0  0  0
133134  1  0  0  0
133135  1  0  0  0
  6137  1  0  0  0
  6138  1  0  0  0
  7139  1  0  0  0
  7140  1  0  0  0
  9141  1  0  0  0
  9142  1  0  0  0
 11143  1  0  0  0
 12144  1  0  0  0
 15145  1  0  0  0
 15146  1  0  0  0
 17147  1  0  0  0
 18148  1  0  0  0
 19149  1  0  0  0
 20150  1  0  0  0
 22151  1  0  0  0
 23152  1  0  0  0
 24153  1  0  0  0
 27154  1  0  0  0
 28155  1  0  0  0
 28156  1  0  0  0
 28157  1  0  0  0
 29158  1  0  0  0
 29159  1  0  0  0
 29160  1  0  0  0
 30161  1  0  0  0
 31162  1  0  0  0
 34163  1  0  0  0
 34164  1  0  0  0
 36165  1  0  0  0
 37166  1  0  0  0
 38167  1  0  0  0
 39168  1  0  0  0
 41169  1  0  0  0
 42170  1  0  0  0
 43171  1  0  0  0
 46172  1  0  0  0
 46173  1  0  0  0
 49174  1  0  0  0
 49175  1  0  0  0
 50176  1  0  0  0
 51177  1  0  0  0
 54178  1  0  0  0
 55179  1  0  0  0
 56180  1  0  0  0
 56181  1  0  0  0
 56182  1  0  0  0
 57183  1  0  0  0
 58184  1  0  0  0
 61185  1  0  0  0
 61186  1  0  0  0
 62187  1  0  0  0
 62188  1  0  0  0
 63189  1  0  0  0
 63190  1  0  0  0
 64191  1  0  0  0
 66192  1  0  0  0
 66193  1  0  0  0
 67194  1  0  0  0
 68195  1  0  0  0
 69196  1  0  0  0
 72197  1  0  0  0
 72198  1  0  0  0
 73199  1  0  0  0
 74200  1  0  0  0
 75201  1  0  0  0
 75202  1  0  0  0
 78203  1  0  0  0
 79204  1  0  0  0
 82205  1  0  0  0
 82206  1  0  0  0
 84207  1  0  0  0
 88208  1  0  0  0
 89209  1  0  0  0
 90210  1  0  0  0
 91211  1  0  0  0
 92212  1  0  0  0
 93213  1  0  0  0
 96214  1  0  0  0
 96215  1  0  0  0
 97216  1  0  0  0
 97217  1  0  0  0
 98218  1  0  0  0
 98219  1  0  0  0
 99220  1  0  0  0
101221  1  0  0  0
101222  1  0  0  0
102223  1  0  0  0
103224  1  0  0  0
104225  1  0  0  0
107226  1  0  0  0
107227  1  0  0  0
109228  1  0  0  0
113229  1  0  0  0
114230  1  0  0  0
115231  1  0  0  0
116232  1  0  0  0
117233  1  0  0  0
118234  1  0  0  0
121235  1  0  0  0
121236  1  0  0  0
123237  1  0  0  0
124238  1  0  0  0
125239  1  0  0  0
126240  1  0  0  0
128241  1  0  0  0
129242  1  0  0  0
130243  1  0  0  0
133244  1  0  0  0
134245  1  0  0  0
135246  1  0  0  0
135247  1  0  0  0
135248  1  0  0  0
M  END
$$$$
