### 
### Created by X-TOOL on Mon Sep 10 21:13:31 2018
### 

@<TRIPOS>MOLECULE
5ly1_ligand
  252   260     1     0     0
SMALL
GAST_HUCK


@<TRIPOS>ATOM
      1 O10       -11.3460  -38.5460  -29.6040 O.2       1 48V        -0.3960
      2 N01       -15.0600  -41.1660  -27.1490 N.am      1 48V        -0.1023
      3 C02       -15.2430  -41.8320  -28.4400 C.3       1 48V         0.2968
      4 C03       -16.5110  -42.5940  -28.6650 C.2       1 48V         0.2556
      5 O04       -16.5210  -43.8160  -28.9740 O.2       1 48V        -0.3393
      6 N05       -17.6410  -41.9450  -28.4050 N.am      1 48V        -0.2958
      7 C06       -14.0730  -42.4450  -29.1250 C.3       1 48V         0.0595
      8 S07       -13.0220  -41.1660  -29.7630 S.3       1 48V        -0.1350
      9 C08       -12.0000  -40.5320  -28.4510 C.3       1 48V         0.0834
     10 C09       -11.5980  -39.1220  -28.5540 C.2       1 48V         0.1883
     11 N         -11.3970  -38.2890  -27.3320 N.am      1 DTY        -0.2634
     12 CA        -10.8070  -36.9460  -27.1820 C.3       1 DTY         0.1390
     13 C         -11.7610  -35.8990  -26.5870 C.2       1 DTY         0.2057
     14 O         -12.7350  -36.1750  -25.8330 O.2       1 DTY        -0.3942
     15 CB         -9.3940  -37.0230  -26.5470 C.3       1 DTY         0.0163
     16 CG         -8.6110  -35.7170  -26.6070 C.ar      1 DTY        -0.0493
     17 CD1        -7.8870  -35.2840  -27.7120 C.ar      1 DTY        -0.0685
     18 CD2        -8.6850  -34.8910  -25.4870 C.ar      1 DTY        -0.0685
     19 CE1        -7.2280  -34.0490  -27.6610 C.ar      1 DTY        -0.0398
     20 CE2        -8.0310  -33.6650  -25.4340 C.ar      1 DTY        -0.0398
     21 CZ         -7.2980  -33.2320  -26.5280 C.ar      1 DTY         0.0805
     22 OH         -6.6480  -32.0370  -26.4920 O.3       1 DTY        -0.3376
     23 N         -11.5330  -34.6430  -26.9580 N.am      1 VAL        -0.2633
     24 CA        -12.3130  -33.5200  -26.4370 C.3       1 VAL         0.1333
     25 C         -12.7590  -32.4700  -27.4740 C.2       1 VAL         0.2043
     26 O         -12.1350  -32.3210  -28.4990 O.2       1 VAL        -0.3944
     27 CB        -11.4770  -32.8290  -25.3370 C.3       1 VAL        -0.0063
     28 CG1       -10.4460  -31.8990  -25.9340 C.3       1 VAL        -0.0584
     29 CG2       -12.3410  -32.1190  -24.3200 C.3       1 VAL        -0.0584
     30 N         -13.8740  -31.7890  -27.2230 N.am      1 TYR        -0.2621
     31 CA        -14.3590  -30.7060  -28.0610 C.3       1 TYR         0.1390
     32 C         -14.9050  -29.5970  -27.1990 C.2       1 TYR         0.2059
     33 O         -15.3790  -29.8420  -26.1170 O.2       1 TYR        -0.3942
     34 CB        -15.3440  -31.1390  -29.1490 C.3       1 TYR         0.0163
     35 CG        -16.5600  -31.9060  -28.7330 C.ar      1 TYR        -0.0493
     36 CD1       -17.4960  -31.3640  -27.8970 C.ar      1 TYR        -0.0685
     37 CD2       -16.8130  -33.1550  -29.2520 C.ar      1 TYR        -0.0685
     38 CE1       -18.6340  -32.0620  -27.5520 C.ar      1 TYR        -0.0398
     39 CE2       -17.9520  -33.8610  -28.9200 C.ar      1 TYR        -0.0398
     40 CZ        -18.8600  -33.3090  -28.0600 C.ar      1 TYR         0.0805
     41 OH        -19.9910  -34.0150  -27.6960 O.3       1 TYR        -0.3376
     42 N         -14.8190  -28.3680  -27.6680 N.am      1 ASN        -0.2615
     43 CA        -15.3140  -27.2670  -26.8780 C.3       1 ASN         0.1476
     44 C         -16.7840  -26.9560  -27.1470 C.2       1 ASN         0.2063
     45 O         -17.2340  -26.9670  -28.2710 O.2       1 ASN        -0.3942
     46 CB        -14.4170  -26.0450  -27.0410 C.3       1 ASN         0.0773
     47 CG        -14.8200  -24.9110  -26.1390 C.2       1 ASN         0.1780
     48 OD1       -14.6430  -24.9620  -24.9410 O.2       1 ASN        -0.3970
     49 ND2       -15.3920  -23.8800  -26.7250 N.am      1 ASN        -0.3007
     50 N         -17.5110  -26.7260  -26.0500 N.am      1 THR        -0.2612
     51 CA        -18.9420  -26.4260  -25.9990 C.3       1 THR         0.1565
     52 C         -19.2230  -25.2240  -25.1090 C.2       1 THR         0.2065
     53 O         -18.3750  -24.7940  -24.3780 O.2       1 THR        -0.3943
     54 CB        -19.8000  -27.6100  -25.5140 C.3       1 THR         0.0924
     55 OG1       -19.7630  -27.6950  -24.0930 O.3       1 THR        -0.3874
     56 CG2       -19.3200  -28.8760  -26.0940 C.3       1 THR        -0.0346
     57 N         -20.4210  -24.6700  -25.1760 N.am      1 ARG        -0.2636
     58 CA        -20.7280  -23.4540  -24.4170 C.3       1 ARG         0.1311
     59 C         -20.4570  -23.6060  -22.9360 C.2       1 ARG         0.2040
     60 O         -19.9870  -22.7100  -22.2750 O.2       1 ARG        -0.3944
     61 CB        -22.1820  -23.0330  -24.6290 C.3       1 ARG        -0.0092
     62 CG        -22.5090  -21.6510  -24.0900 C.3       1 ARG        -0.0156
     63 CD        -23.9110  -21.2210  -24.4560 C.3       1 ARG         0.0627
     64 NE        -24.2360  -19.9170  -23.8990 N.pl3     1 ARG        -0.2723
     65 CZ        -24.7820  -19.7300  -22.7170 C.cat     1 ARG         0.2882
     66 NH1       -25.0930  -20.7550  -21.9710 N.pl3     1 ARG        -0.2849
     67 NH2       -25.0080  -18.5250  -22.2820 N.pl3     1 ARG        -0.2849
     68 N         -20.7830  -24.7700  -22.4280 N.am      1 SER        -0.2616
     69 CA        -20.6320  -25.1100  -21.0440 C.3       1 SER         0.1539
     70 C         -19.2350  -25.5910  -20.6740 C.2       1 SER         0.2060
     71 O         -19.0410  -26.0700  -19.5850 O.2       1 SER        -0.3943
     72 CB        -21.6690  -26.1680  -20.7110 C.3       1 SER         0.0843
     73 OG        -21.3420  -26.8140  -19.5200 O.3       1 SER        -0.3903
     74 N         -18.2960  -25.5680  -21.6080 N.am      1 GLY        -0.2663
     75 CA        -16.9560  -25.9990  -21.2950 C.3       1 GLY         0.1201
     76 C         -16.2860  -26.9490  -22.2540 C.2       1 GLY         0.2008
     77 O         -16.5180  -26.9320  -23.4320 O.2       1 GLY        -0.3947
     78 N         -15.4110  -27.7680  -21.7090 N.am      1 TRP        -0.2629
     79 CA        -14.7180  -28.7680  -22.4570 C.3       1 TRP         0.1352
     80 C         -15.5200  -30.0250  -22.1920 C.2       1 TRP         0.2052
     81 O         -15.7430  -30.3650  -21.0590 O.2       1 TRP        -0.3942
     82 CB        -13.2940  -28.8970  -21.9380 C.3       1 TRP         0.0042
     83 CG        -12.3320  -28.0200  -22.6510 C.2       1 TRP        -0.0418
     84 CD1       -12.6360  -26.9810  -23.4420 C.2       1 TRP         0.0167
     85 CD2       -10.9190  -28.1060  -22.6360 C.ar      1 TRP        -0.0214
     86 NE1       -11.5190  -26.4170  -23.9300 N.pl3     1 TRP        -0.2890
     87 CE2       -10.4400  -27.0920  -23.4490 C.ar      1 TRP         0.0603
     88 CE3       -10.0140  -28.9560  -22.0300 C.ar      1 TRP        -0.0747
     89 CZ2        -9.1090  -26.8980  -23.6700 C.ar      1 TRP        -0.0443
     90 CZ3        -8.7010  -28.7590  -22.2370 C.ar      1 TRP        -0.0792
     91 CH2        -8.2510  -27.7460  -23.0520 C.ar      1 TRP        -0.0768
     92 N         -15.9830  -30.6850  -23.2470 N.am      1 ARG        -0.2636
     93 CA        -16.7800  -31.8900  -23.1320 C.3       1 ARG         0.1311
     94 C         -15.9400  -33.0500  -23.6190 C.2       1 ARG         0.2040
     95 O         -15.3820  -32.9930  -24.6880 O.2       1 ARG        -0.3944
     96 CB        -18.0550  -31.7860  -23.9680 C.3       1 ARG        -0.0092
     97 CG        -18.9900  -32.9680  -23.7740 C.3       1 ARG        -0.0156
     98 CD        -20.1640  -33.0300  -24.7340 C.3       1 ARG         0.0627
     99 NE        -21.0750  -31.9110  -24.5910 N.pl3     1 ARG        -0.2723
    100 CZ        -21.7200  -31.3200  -25.5910 C.cat     1 ARG         0.2882
    101 NH1       -21.5540  -31.7050  -26.8410 N.pl3     1 ARG        -0.2849
    102 NH2       -22.5300  -30.3220  -25.3370 N.pl3     1 ARG        -0.2849
    103 N         -15.8080  -34.0950  -22.8240 N.am      1 TRP        -0.2627
    104 CA        -14.9890  -35.2140  -23.2190 C.3       1 TRP         0.1352
    105 C         -15.8540  -36.3190  -23.7180 C.2       1 TRP         0.2053
    106 O         -16.7060  -36.8130  -23.0170 O.2       1 TRP        -0.3942
    107 CB        -14.1660  -35.7010  -22.0400 C.3       1 TRP         0.0042
    108 CG        -13.4020  -34.6340  -21.3690 C.2       1 TRP        -0.0418
    109 CD1       -13.8650  -33.7590  -20.4460 C.2       1 TRP         0.0167
    110 CD2       -12.0360  -34.3180  -21.5530 C.ar      1 TRP        -0.0214
    111 NE1       -12.8790  -32.9210  -20.0510 N.pl3     1 TRP        -0.2890
    112 CE2       -11.7360  -33.2520  -20.7200 C.ar      1 TRP         0.0603
    113 CE3       -11.0370  -34.8480  -22.3560 C.ar      1 TRP        -0.0747
    114 CZ2       -10.4810  -32.6920  -20.6620 C.ar      1 TRP        -0.0443
    115 CZ3        -9.8040  -34.2990  -22.2900 C.ar      1 TRP        -0.0792
    116 CH2        -9.5290  -33.2370  -21.4580 C.ar      1 TRP        -0.0768
    117 N         -15.6620  -36.6850  -24.9800 N.am      1 TYR        -0.2620
    118 CA        -16.4240  -37.7700  -25.5160 C.3       1 TYR         0.1390
    119 C         -15.4680  -38.9010  -25.5510 C.2       1 TYR         0.2058
    120 O         -14.4670  -38.8650  -26.2340 O.2       1 TYR        -0.3942
    121 CB        -16.9860  -37.4310  -26.9020 C.3       1 TYR         0.0163
    122 CG        -15.9770  -37.0690  -27.9390 C.ar      1 TYR        -0.0493
    123 CD1       -15.2350  -35.9220  -27.8350 C.ar      1 TYR        -0.0685
    124 CD2       -15.7920  -37.8510  -29.0550 C.ar      1 TYR        -0.0685
    125 CE1       -14.3200  -35.5760  -28.7940 C.ar      1 TYR        -0.0398
    126 CE2       -14.8780  -37.5240  -30.0190 C.ar      1 TYR        -0.0398
    127 CZ        -14.1430  -36.3770  -29.8860 C.ar      1 TYR         0.0805
    128 OH        -13.2320  -36.0400  -30.8420 O.3       1 TYR        -0.3376
    129 N         -15.7540  -39.9370  -24.7780 N.am      1 THR        -0.2612
    130 CA        -14.8370  -41.0410  -24.6770 C.3       1 THR         0.1582
    131 C         -15.0430  -41.9030  -25.9450 C.2       1 THR         0.2315
    132 O         -15.2630  -43.1190  -25.8890 O.2       1 THR        -0.3942
    133 CB        -14.8190  -41.7830  -23.3010 C.3       1 THR         0.0924
    134 OG1       -16.1440  -41.9530  -22.7830 O.3       1 THR        -0.3874
    135 CG2       -13.9680  -41.0880  -22.2940 C.3       1 THR        -0.0346
    136 OXT       -14.9990  -41.4240  -27.0840 O.3       1 THR        -0.2113
    137 H1        -18.5211  -42.4013  -28.5360 H         1 48V         0.1822
    138 H2        -17.6112  -41.0003  -28.0783 H         1 48V         0.1822
    139 H3        -14.4237  -43.0781  -29.9533 H         1 48V         0.0417
    140 H4        -13.5087  -43.0590  -28.4076 H         1 48V         0.0417
    141 H5        -11.0832  -41.1390  -28.4188 H         1 48V         0.0616
    142 H6        -12.5535  -40.6533  -27.5082 H         1 48V         0.0616
    143 H7        -11.7123  -38.7079  -26.4804 H         1 DTY         0.1884
    144 H8        -10.6318  -36.5948  -28.2096 H         1 DTY         0.0821
    145 H9         -8.8184  -37.7951  -27.0784 H         1 DTY         0.0453
    146 H10        -9.5053  -37.3104  -25.4911 H         1 DTY         0.0453
    147 H11        -7.8330  -35.8964  -28.6048 H         1 DTY         0.0530
    148 H12        -9.2691  -35.2135  -24.6327 H         1 DTY         0.0530
    149 H13        -6.6515  -33.7195  -28.5179 H         1 DTY         0.0525
    150 H14        -8.0940  -33.0515  -24.5425 H         1 DTY         0.0525
    151 H15        -6.1990  -31.8970  -27.3174 H         1 DTY         0.2458
    152 H16       -10.8029  -34.4592  -27.6162 H         1 VAL         0.1883
    153 H17       -13.2244  -33.9345  -25.9814 H         1 VAL         0.0802
    154 H18       -10.9316  -33.6196  -24.8009 H         1 VAL         0.0343
    155 H19        -9.8693  -31.4242  -25.1266 H         1 VAL         0.0234
    156 H20       -10.9518  -31.1236  -26.5281 H         1 VAL         0.0234
    157 H21        -9.7665  -32.4722  -26.5818 H         1 VAL         0.0234
    158 H22       -13.0774  -32.8247  -23.9080 H         1 VAL         0.0234
    159 H23       -12.8660  -31.2827  -24.8048 H         1 VAL         0.0234
    160 H24       -11.7084  -31.7330  -23.5071 H         1 VAL         0.0234
    161 H25       -14.4070  -32.0360  -26.4138 H         1 TYR         0.1885
    162 H26       -13.4826  -30.3009  -28.5880 H         1 TYR         0.0821
    163 H27       -14.7890  -31.7675  -29.8610 H         1 TYR         0.0453
    164 H28       -15.6908  -30.2273  -29.6575 H         1 TYR         0.0453
    165 H29       -17.3408  -30.3680  -27.4983 H         1 TYR         0.0530
    166 H30       -16.0998  -33.5959  -29.9391 H         1 TYR         0.0530
    167 H31       -19.3534  -31.6181  -26.8735 H         1 TYR         0.0525
    168 H32       -18.1251  -34.8460  -29.3383 H         1 TYR         0.0525
    169 H33       -19.7343  -34.8239  -27.2690 H         1 TYR         0.2458
    170 H34       -14.4130  -28.1998  -28.5663 H         1 ASN         0.1885
    171 H35       -15.2479  -27.5749  -25.8240 H         1 ASN         0.0826
    172 H36       -14.4733  -25.7026  -28.0848 H         1 ASN         0.0551
    173 H37       -13.3820  -26.3330  -26.8048 H         1 ASN         0.0551
    174 H38       -15.6833  -23.0935  -26.1804 H         1 ASN         0.1814
    175 H39       -15.5351  -23.8834  -27.7147 H         1 ASN         0.1814
    176 H40       -17.0281  -26.7626  -25.1751 H         1 THR         0.1884
    177 H41       -19.2602  -26.1779  -27.0223 H         1 THR         0.0826
    178 H42       -20.8394  -27.4453  -25.8342 H         1 THR         0.0639
    179 H43       -20.1033  -26.8904  -23.7198 H         1 THR         0.2101
    180 H44       -19.9468  -29.7052  -25.7340 H         1 THR         0.0257
    181 H45       -18.2767  -29.0463  -25.7900 H         1 THR         0.0257
    182 H46       -19.3782  -28.8221  -27.1911 H         1 THR         0.0257
    183 H47       -21.1261  -25.0850  -25.7510 H         1 ARG         0.1883
    184 H48       -20.0788  -22.6518  -24.7979 H         1 ARG         0.0800
    185 H49       -22.8310  -23.7637  -24.1242 H         1 ARG         0.0313
    186 H50       -22.3908  -23.0415  -25.7090 H         1 ARG         0.0313
    187 H51       -21.7943  -20.9275  -24.5091 H         1 ARG         0.0301
    188 H52       -22.4161  -21.6655  -22.9940 H         1 ARG         0.0301
    189 H53       -24.6244  -21.9626  -24.0672 H         1 ARG         0.0689
    190 H54       -23.9942  -21.1714  -25.5517 H         1 ARG         0.0689
    191 H55       -24.0245  -19.0849  -24.4680 H         1 ARG         0.2642
    192 H56       -25.5205  -20.6076  -21.0456 H         1 ARG         0.2615
    193 H57       -24.9109  -21.7112  -22.3078 H         1 ARG         0.2615
    194 H58       -24.7646  -17.7124  -22.8663 H         1 ARG         0.2615
    195 H59       -25.4303  -18.3835  -21.3533 H         1 ARG         0.2615
    196 H60       -21.1597  -25.4623  -23.0435 H         1 SER         0.1884
    197 H61       -20.8411  -24.2102  -20.4468 H         1 SER         0.0823
    198 H62       -21.7067  -26.9069  -21.5250 H         1 SER         0.0606
    199 H63       -22.6535  -25.6891  -20.6045 H         1 SER         0.0606
    200 H64       -20.4930  -27.2307  -19.6098 H         1 SER         0.2097
    201 H65       -18.5165  -25.2516  -22.5306 H         1 GLY         0.1881
    202 H66       -16.9903  -26.4930  -20.3128 H         1 GLY         0.0763
    203 H67       -16.3274  -25.0986  -21.2309 H         1 GLY         0.0763
    204 H68       -15.2237  -27.6864  -20.7301 H         1 TRP         0.1884
    205 H69       -14.7033  -28.5284  -23.5305 H         1 TRP         0.0815
    206 H70       -12.9709  -29.9415  -22.0585 H         1 TRP         0.0397
    207 H71       -13.2851  -28.6312  -20.8707 H         1 TRP         0.0397
    208 H72       -13.6478  -26.6416  -23.6587 H         1 TRP         0.0795
    209 H73       -11.4848  -25.6063  -24.5644 H         1 TRP         0.2216
    210 H74       -10.3571  -29.7676  -21.3986 H         1 TRP         0.0540
    211 H75        -8.7524  -26.1005  -24.3118 H         1 TRP         0.0541
    212 H76        -7.9827  -29.4106  -21.7527 H         1 TRP         0.0510
    213 H77        -7.1847  -27.6231  -23.2035 H         1 TRP         0.0530
    214 H78       -15.7728  -30.3356  -24.1601 H         1 ARG         0.1883
    215 H79       -17.0540  -32.0481  -22.0785 H         1 ARG         0.0800
    216 H80       -17.7743  -31.7318  -25.0302 H         1 ARG         0.0313
    217 H81       -18.5877  -30.8671  -23.6821 H         1 ARG         0.0313
    218 H82       -19.3901  -32.9206  -22.7504 H         1 ARG         0.0301
    219 H83       -18.4024  -33.8899  -23.8957 H         1 ARG         0.0301
    220 H84       -20.7203  -33.9604  -24.5473 H         1 ARG         0.0689
    221 H85       -19.7751  -33.0355  -25.7629 H         1 ARG         0.0689
    222 H86       -21.2344  -31.5462  -23.6410 H         1 ARG         0.2642
    223 H87       -22.0659  -31.2304  -27.5984 H         1 ARG         0.2615
    224 H88       -20.9124  -32.4804  -27.0602 H         1 ARG         0.2615
    225 H89       -22.6717  -30.0079  -24.3663 H         1 ARG         0.2615
    226 H90       -23.0251  -29.8515  -26.1080 H         1 ARG         0.2615
    227 H91       -16.2790  -34.1109  -21.9420 H         1 TRP         0.1884
    228 H92       -14.3102  -34.8958  -24.0239 H         1 TRP         0.0815
    229 H93       -13.4573  -36.4606  -22.4014 H         1 TRP         0.0397
    230 H94       -14.8470  -36.1550  -21.3051 H         1 TRP         0.0397
    231 H95       -14.8880  -33.7331  -20.0735 H         1 TRP         0.0795
    232 H96       -12.9746  -32.1615  -19.3619 H         1 TRP         0.2216
    233 H97       -11.2400  -35.6810  -23.0193 H         1 TRP         0.0540
    234 H98       -10.2635  -31.8538  -20.0100 H         1 TRP         0.0541
    235 H99        -9.0112  -34.7051  -22.9078 H         1 TRP         0.0510
    236 H100       -8.5259  -32.8265  -21.4391 H         1 TRP         0.0530
    237 H101      -14.9924  -36.2075  -25.5489 H         1 TYR         0.1885
    238 H102      -17.2643  -38.0097  -24.8478 H         1 TYR         0.0821
    239 H103      -17.6741  -36.5803  -26.7887 H         1 TYR         0.0453
    240 H104      -17.5431  -38.3075  -27.2643 H         1 TYR         0.0453
    241 H105      -15.3748  -35.2751  -26.9765 H         1 TYR         0.0530
    242 H106      -16.3859  -38.7500  -29.1740 H         1 TYR         0.0530
    243 H107      -13.7375  -34.6681  -28.6864 H         1 TYR         0.0525
    244 H108      -14.7372  -38.1672  -30.8801 H         1 TYR         0.0525
    245 H109      -12.5790  -36.7265  -30.9116 H         1 TYR         0.2458
    246 H110      -16.6107  -39.9523  -24.2623 H         1 THR         0.1884
    247 H111      -13.8280  -40.6118  -24.7648 H         1 THR         0.0826
    248 H112      -14.3904  -42.7818  -23.4702 H         1 THR         0.0639
    249 H113      -16.1010  -42.4055  -21.9488 H         1 THR         0.2101
    250 H114      -13.9890  -41.6478  -21.3473 H         1 THR         0.0257
    251 H115      -14.3533  -40.0713  -22.1273 H         1 THR         0.0257
    252 H116      -12.9336  -41.0321  -22.6640 H         1 THR         0.0257
@<TRIPOS>BOND
     1   10    1 2  
     2    3    2 1  
     3    2  131 am 
     4  136    2 1  
     5    3    4 1  
     6    7    3 1  
     7    3  136 1  
     8    4    5 2  
     9    4    6 am 
    10    8    7 1  
    11    9    8 1  
    12    9   10 1  
    13   10   11 am 
    14   11   12 1  
    15   12   13 1  
    16   12   15 1  
    17   13   14 2  
    18   13   23 am 
    19   15   16 1  
    20   16   17 ar 
    21   16   18 ar 
    22   17   19 ar 
    23   18   20 ar 
    24   19   21 ar 
    25   20   21 ar 
    26   21   22 1  
    27   23   24 1  
    28   24   25 1  
    29   24   27 1  
    30   25   26 2  
    31   25   30 am 
    32   27   28 1  
    33   27   29 1  
    34   30   31 1  
    35   31   32 1  
    36   31   34 1  
    37   32   33 2  
    38   32   42 am 
    39   34   35 1  
    40   35   36 ar 
    41   35   37 ar 
    42   36   38 ar 
    43   37   39 ar 
    44   38   40 ar 
    45   39   40 ar 
    46   40   41 1  
    47   42   43 1  
    48   43   44 1  
    49   43   46 1  
    50   44   45 2  
    51   44   50 am 
    52   46   47 1  
    53   47   48 2  
    54   47   49 am 
    55   50   51 1  
    56   51   52 1  
    57   51   54 1  
    58   52   53 2  
    59   52   57 am 
    60   54   55 1  
    61   54   56 1  
    62   57   58 1  
    63   58   59 1  
    64   58   61 1  
    65   59   60 2  
    66   59   68 am 
    67   61   62 1  
    68   62   63 1  
    69   63   64 1  
    70   64   65 ar 
    71   65   66 ar 
    72   65   67 ar 
    73   68   69 1  
    74   69   70 1  
    75   69   72 1  
    76   70   71 2  
    77   70   74 am 
    78   72   73 1  
    79   74   75 1  
    80   75   76 1  
    81   76   77 2  
    82   76   78 am 
    83   78   79 1  
    84   79   80 1  
    85   79   82 1  
    86   80   81 2  
    87   80   92 am 
    88   82   83 1  
    89   83   84 2  
    90   83   85 1  
    91   84   86 1  
    92   85   87 ar 
    93   85   88 ar 
    94   86   87 1  
    95   87   89 ar 
    96   88   90 ar 
    97   89   91 ar 
    98   90   91 ar 
    99   92   93 1  
   100   93   94 1  
   101   93   96 1  
   102   94   95 2  
   103   94  103 am 
   104   96   97 1  
   105   97   98 1  
   106   98   99 1  
   107   99  100 ar 
   108  100  101 ar 
   109  100  102 ar 
   110  103  104 1  
   111  104  105 1  
   112  104  107 1  
   113  105  106 2  
   114  105  117 am 
   115  107  108 1  
   116  108  109 2  
   117  108  110 1  
   118  109  111 1  
   119  110  112 ar 
   120  110  113 ar 
   121  111  112 1  
   122  112  114 ar 
   123  113  115 ar 
   124  114  116 ar 
   125  115  116 ar 
   126  117  118 1  
   127  118  119 1  
   128  118  121 1  
   129  119  120 2  
   130  119  129 am 
   131  121  122 1  
   132  122  123 ar 
   133  122  124 ar 
   134  123  125 ar 
   135  124  126 ar 
   136  125  127 ar 
   137  126  127 ar 
   138  127  128 1  
   139  129  130 1  
   140  130  131 1  
   141  130  133 1  
   142  131  132 2  
   143  133  134 1  
   144  133  135 1  
   145    6  137 1  
   146    6  138 1  
   147    7  139 1  
   148    7  140 1  
   149    9  141 1  
   150    9  142 1  
   151   11  143 1  
   152   12  144 1  
   153   15  145 1  
   154   15  146 1  
   155   17  147 1  
   156   18  148 1  
   157   19  149 1  
   158   20  150 1  
   159   22  151 1  
   160   23  152 1  
   161   24  153 1  
   162   27  154 1  
   163   28  155 1  
   164   28  156 1  
   165   28  157 1  
   166   29  158 1  
   167   29  159 1  
   168   29  160 1  
   169   30  161 1  
   170   31  162 1  
   171   34  163 1  
   172   34  164 1  
   173   36  165 1  
   174   37  166 1  
   175   38  167 1  
   176   39  168 1  
   177   41  169 1  
   178   42  170 1  
   179   43  171 1  
   180   46  172 1  
   181   46  173 1  
   182   49  174 1  
   183   49  175 1  
   184   50  176 1  
   185   51  177 1  
   186   54  178 1  
   187   55  179 1  
   188   56  180 1  
   189   56  181 1  
   190   56  182 1  
   191   57  183 1  
   192   58  184 1  
   193   61  185 1  
   194   61  186 1  
   195   62  187 1  
   196   62  188 1  
   197   63  189 1  
   198   63  190 1  
   199   64  191 1  
   200   66  192 1  
   201   66  193 1  
   202   67  194 1  
   203   67  195 1  
   204   68  196 1  
   205   69  197 1  
   206   72  198 1  
   207   72  199 1  
   208   73  200 1  
   209   74  201 1  
   210   75  202 1  
   211   75  203 1  
   212   78  204 1  
   213   79  205 1  
   214   82  206 1  
   215   82  207 1  
   216   84  208 1  
   217   86  209 1  
   218   88  210 1  
   219   89  211 1  
   220   90  212 1  
   221   91  213 1  
   222   92  214 1  
   223   93  215 1  
   224   96  216 1  
   225   96  217 1  
   226   97  218 1  
   227   97  219 1  
   228   98  220 1  
   229   98  221 1  
   230   99  222 1  
   231  101  223 1  
   232  101  224 1  
   233  102  225 1  
   234  102  226 1  
   235  103  227 1  
   236  104  228 1  
   237  107  229 1  
   238  107  230 1  
   239  109  231 1  
   240  111  232 1  
   241  113  233 1  
   242  114  234 1  
   243  115  235 1  
   244  116  236 1  
   245  117  237 1  
   246  118  238 1  
   247  121  239 1  
   248  121  240 1  
   249  123  241 1  
   250  124  242 1  
   251  125  243 1  
   252  126  244 1  
   253  128  245 1  
   254  129  246 1  
   255  130  247 1  
   256  133  248 1  
   257  134  249 1  
   258  135  250 1  
   259  135  251 1  
   260  135  252 1  
@<TRIPOS>SUBSTRUCTURE
     1 48V         1

