3c4f_ligand
  -I-interpret- 

 31 33  0  0  0  0  0  0  0  0999 V2000
    5.4000    2.0210   12.8800 C   0  0  0  0  0
    6.2850    2.5130   13.8960 O   0  0  0  0  0
    5.8310    3.4370   14.8170 C   0  0  0  0  0
    4.6520    4.1380   14.6250 C   0  0  0  0  0
    4.2060    5.0210   15.5990 C   0  0  0  0  0
    4.9500    5.2000   16.7580 C   0  0  0  0  0
    6.5540    3.6050   15.9860 C   0  0  0  0  0
    6.1250    4.4960   16.9510 C   0  0  0  0  0
    6.9400    4.6490   18.2150 C   0  0  0  0  0
    6.5410    3.5140   19.1600 C   0  0  0  0  0
    7.0870    3.2210   20.5030 C   0  0  0  0  0
    5.6180    2.5630   18.9920 C   0  0  0  0  0
    5.5370    1.7580   19.9970 N   0  0  0  0  0
    6.4020    2.1390   20.9460 C   0  0  0  0  0
    6.6240    1.5970   22.1430 N   0  0  0  0  0
    7.5770    2.1380   22.9120 C   0  0  0  0  0
    8.3000    3.2620   22.4950 C   0  0  0  0  0
    8.0430    3.8480   21.2630 C   0  0  0  0  0
    4.5473    1.5303   13.3492 H   0  0  0  0  0
    5.0509    2.8539   12.2696 H   0  0  0  0  0
    5.9317    1.3063   12.2518 H   0  0  0  0  0
    4.0754    3.9967   13.7109 H   0  0  0  0  0
    3.2762    5.5713   15.4548 H   0  0  0  0  0
    4.6060    5.8993   17.5200 H   0  0  0  0  0
    7.4668    3.0311   16.1458 H   0  0  0  0  0
    6.7466    5.6165   18.6784 H   0  0  0  0  0
    8.0054    4.6005   17.9897 H   0  0  0  0  0
    4.9983    2.4762   18.0995 H   0  0  0  0  0
    7.7946    1.6940   23.8834 H   0  0  0  0  0
    9.0706    3.6802   23.1426 H   0  0  0  0  0
    8.5637    4.7432   20.9230 H   0  0  0  0  0
  1  2  1  0  0  0
  2  3  1  0  0  0
  3  4  4  0  0  0
  3  7  4  0  0  0
  4  5  4  0  0  0
  5  6  4  0  0  0
  6  8  4  0  0  0
  7  8  4  0  0  0
  8  9  1  0  0  0
  9 10  1  0  0  0
 10 11  4  0  0  0
 10 12  4  0  0  0
 11 14  4  0  0  0
 11 18  4  0  0  0
 12 13  4  0  0  0
 13 14  4  0  0  0
 14 15  4  0  0  0
 15 16  4  0  0  0
 16 17  4  0  0  0
 17 18  4  0  0  0
  1 19  1  0  0  0
  1 20  1  0  0  0
  1 21  1  0  0  0
  4 22  1  0  0  0
  5 23  1  0  0  0
  6 24  1  0  0  0
  7 25  1  0  0  0
  9 26  1  0  0  0
  9 27  1  0  0  0
 12 28  1  0  0  0
 16 29  1  0  0  0
 17 30  1  0  0  0
 18 31  1  0  0  0
M  END
$$$$
