6awn_ligand
  -I-interpret- 

 45 48  0  0  0  0  0  0  0  0999 V2000
   33.5330  179.3810  140.9510 F   0  0  0  0  0
   34.7070  181.3250  140.3510 C   0  0  0  0  0
   32.6090  181.4600  141.4900 C   0  0  0  0  0
   31.6100  186.2190  145.5940 C   0  0  0  0  0
   34.8070  182.6980  140.3260 C   0  0  0  0  0
   32.7030  182.8490  141.4650 C   0  0  0  0  0
   30.5490  185.8310  146.4440 C   0  0  0  0  0
   30.6820  184.8300  143.8340 C   0  0  0  0  0
   34.9920  186.8550  139.4150 C   0  0  0  0  0
   34.8150  185.3470  139.6030 C   0  0  0  0  0
   34.7670  187.1410  141.8640 C   0  0  0  0  0
   27.7960  183.5030  145.7040 C   0  0  0  0  0
   33.8530  185.3340  143.2950 C   0  0  0  0  0
   35.4740  187.5370  140.6370 N   0  3  0  0  0
   32.5370  185.8340  143.1130 O   0  0  0  0  0
   28.3920  184.3950  146.6180 O   0  0  0  0  0
   28.5020  183.5740  144.4750 O   0  0  0  0  0
   33.5990  180.7080  140.9400 C   0  0  0  0  0
   31.6720  185.7190  144.3030 C   0  0  0  0  0
   33.8030  183.4610  140.8940 C   0  0  0  0  0
   29.5670  184.9520  145.9810 C   0  0  0  0  0
   29.6330  184.4500  144.6760 C   0  0  0  0  0
   34.6540  185.6080  142.0120 C   0  0  0  0  0
   34.0000  185.0360  140.8080 C   0  0  0  0  0
   35.4957  180.7158  139.9094 H   0  0  0  0  0
   31.7456  180.9778  141.9484 H   0  0  0  0  0
   32.3752  186.9077  145.9522 H   0  0  0  0  0
   35.6688  183.1788  139.8632 H   0  0  0  0  0
   31.9069  183.4554  141.8969 H   0  0  0  0  0
   30.4972  186.2181  147.4616 H   0  0  0  0  0
   30.7350  184.4404  142.8174 H   0  0  0  0  0
   34.0184  187.2748  139.1623 H   0  0  0  0  0
   35.7368  187.0073  138.6338 H   0  0  0  0  0
   35.8003  184.8981  139.7290 H   0  0  0  0  0
   34.3008  184.9494  138.7280 H   0  0  0  0  0
   33.7577  187.5499  141.8177 H   0  0  0  0  0
   35.3320  187.5206  142.7154 H   0  0  0  0  0
   26.7519  183.7745  145.5481 H   0  0  0  0  0
   27.8369  182.4871  146.0970 H   0  0  0  0  0
   33.8221  184.2630  143.4953 H   0  0  0  0  0
   34.3265  185.8267  144.1442 H   0  0  0  0  0
   35.3163  188.5363  140.5070 H   0  0  0  0  0
   36.4543  187.2824  140.7580 H   0  0  0  0  0
   35.6329  185.1351  142.0914 H   0  0  0  0  0
   33.0109  185.4897  140.7451 H   0  0  0  0  0
 18  1  1  0  0  0
  5  2  4  0  0  0
  2 18  4  0  0  0
  6  3  4  0  0  0
  3 18  4  0  0  0
  4  7  4  0  0  0
 19  4  4  0  0  0
 20  5  4  0  0  0
 20  6  4  0  0  0
  7 21  4  0  0  0
 19  8  4  0  0  0
  8 22  4  0  0  0
 10  9  1  0  0  0
  9 14  1  0  0  0
 24 10  1  0  0  0
 14 11  1  0  0  0
 11 23  1  0  0  0
 12 16  1  0  0  0
 17 12  1  0  0  0
 13 15  1  0  0  0
 23 13  1  0  0  0
 15 19  1  0  0  0
 21 16  1  0  0  0
 22 17  1  0  0  0
 20 24  1  0  0  0
 21 22  4  0  0  0
 23 24  1  0  0  0
  2 25  1  0  0  0
  3 26  1  0  0  0
  4 27  1  0  0  0
  5 28  1  0  0  0
  6 29  1  0  0  0
  7 30  1  0  0  0
  8 31  1  0  0  0
  9 32  1  0  0  0
  9 33  1  0  0  0
 10 34  1  0  0  0
 10 35  1  0  0  0
 11 36  1  0  0  0
 11 37  1  0  0  0
 12 38  1  0  0  0
 12 39  1  0  0  0
 13 40  1  0  0  0
 13 41  1  0  0  0
 14 42  1  0  0  0
 14 43  1  0  0  0
 23 44  1  0  0  0
 24 45  1  0  0  0
M  END
$$$$
