1xug_ligand
  -I-interpret- 

 39 42  0  0  0  0  0  0  0  0999 V2000
   43.7570   -2.8580   26.3910 C   0  0  0  0  0
   44.3310   -1.5610   26.6120 C   0  0  0  0  0
   44.1330   -0.8570   27.8130 C   0  0  0  0  0
   43.3590   -1.4860   28.7510 C   0  0  0  0  0
   42.8040   -2.6870   28.5920 C   0  0  0  0  0
   42.9680   -3.4190   27.4350 C   0  0  0  0  0
   43.9630   -3.5390   25.1890 C   0  0  0  0  0
   43.7140   -4.8230   25.1280 N   0  0  0  0  0
   44.3900   -2.8790   24.1360 N   0  0  0  0  0
   43.0250   -1.0630   29.9250 N   0  0  0  0  0
   42.1410   -2.9560   29.6960 N   0  0  0  0  0
   42.2820   -1.9390   30.5240 C   0  0  0  0  0
   45.1710    0.3350   36.5420 C   0  0  0  0  0
   45.5520    1.2280   35.4880 C   0  0  0  0  0
   44.9990    1.1550   34.2020 C   0  0  0  0  0
   44.0590    0.1710   33.9990 C   0  0  0  0  0
   43.6580   -0.6980   34.9500 C   0  0  0  0  0
   44.1830   -0.6590   36.2420 C   0  0  0  0  0
   45.7780    0.4500   37.8100 C   0  0  0  0  0
   45.1760    0.0310   38.9020 N   0  0  0  0  0
   43.4170   -0.1020   32.9100 N   0  0  0  0  0
   42.7630   -1.4900   34.3900 N   0  0  0  0  0
   42.6280   -1.1080   33.1340 C   0  0  0  0  0
   41.6830   -1.7130   32.0090 C   0  0  0  0  0
   46.9800    0.9820   37.8570 N   0  0  0  0  0
   44.9373   -1.1092   25.8269 H   0  0  0  0  0
   44.5682    0.1272   27.9863 H   0  0  0  0  0
   42.5064   -4.4000   27.3228 H   0  0  0  0  0
   43.8509   -5.3280   24.2524 H   0  0  0  0  0
   44.5328   -3.3669   23.2517 H   0  0  0  0  0
   44.5786   -1.8788   24.2029 H   0  0  0  0  0
   46.3004    1.9932   35.6941 H   0  0  0  0  0
   45.2969    1.8393   33.4076 H   0  0  0  0  0
   43.8508   -1.3654   37.0027 H   0  0  0  0  0
   45.6415    0.1160   39.8056 H   0  0  0  0  0
   44.2437   -0.3788   38.8451 H   0  0  0  0  0
   41.4258   -2.7110   32.3639 H   0  0  0  0  0
   40.8882   -0.9777   31.8833 H   0  0  0  0  0
   47.4347    1.2915   36.9980 H   0  0  0  0  0
  1  2  4  0  0  0
  6  1  4  0  0  0
  1  7  1  0  0  0
  3  2  4  0  0  0
  4  3  4  0  0  0
  5  4  4  0  0  0
 10  4  4  0  0  0
  5  6  4  0  0  0
 11  5  4  0  0  0
  7  8  2  0  0  0
  7  9  1  0  0  0
 12 10  4  0  0  0
 12 11  4  0  0  0
 24 12  1  0  0  0
 13 14  4  0  0  0
 18 13  4  0  0  0
 13 19  1  0  0  0
 15 14  4  0  0  0
 16 15  4  0  0  0
 17 16  4  0  0  0
 21 16  4  0  0  0
 17 18  4  0  0  0
 22 17  4  0  0  0
 19 20  1  0  0  0
 23 21  4  0  0  0
 23 22  4  0  0  0
 24 23  1  0  0  0
 19 25  2  0  0  0
  2 26  1  0  0  0
  3 27  1  0  0  0
  6 28  1  0  0  0
  8 29  1  0  0  0
  9 30  1  0  0  0
  9 31  1  0  0  0
 14 32  1  0  0  0
 15 33  1  0  0  0
 18 34  1  0  0  0
 20 35  1  0  0  0
 20 36  1  0  0  0
 24 37  1  0  0  0
 24 38  1  0  0  0
 25 39  1  0  0  0
M  END
$$$$
