3k5x_ligand
  -I-interpret- 

 30 29  0  0  0  0  0  0  0  0999 V2000
  -24.9770   32.0890  -15.4850 C   0  0  0  0  0
  -23.7790   30.1720  -16.4460 N   0  3  0  0  0
  -24.4010   30.6870  -15.2160 C   0  0  0  0  0
  -25.6610   29.4480  -14.7410 P   0  0  0  0  0
  -26.2570   29.8510  -13.0780 C   0  0  0  0  0
  -27.7880   30.0400  -12.8560 C   0  0  0  0  0
  -28.6010   28.8240  -13.3640 C   0  0  0  0  0
  -28.0390   30.4630  -11.3930 C   0  0  0  0  0
  -27.6100   31.8570  -10.9160 C   0  0  0  0  0
  -25.0960   28.0730  -14.7130 O   0  0  0  0  0
  -26.8740   29.5180  -15.7730 O   0  0  0  0  0
  -29.8290   28.9360  -13.4050 O   0  0  0  0  0
  -27.9860   27.7990  -13.7320 O   0  0  0  0  0
  -27.8840   32.8360  -11.6360 O   0  0  0  0  0
  -27.0080   31.9010   -9.8270 O   0  0  0  0  0
  -25.6995   32.0335  -16.2992 H   0  0  0  0  0
  -25.4696   32.4569  -14.5849 H   0  0  0  0  0
  -24.1683   32.7659  -15.7606 H   0  0  0  0  0
  -23.0621   30.8250  -16.7622 H   0  0  0  0  0
  -23.3540   29.2643  -16.2564 H   0  0  0  0  0
  -24.4912   30.0709  -17.1691 H   0  0  0  0  0
  -23.6989   30.8147  -14.3921 H   0  0  0  0  0
  -25.8157   30.8204  -12.8465 H   0  0  0  0  0
  -25.9861   28.9918  -12.4644 H   0  0  0  0  0
  -28.1679   30.8555  -13.4714 H   0  0  0  0  0
  -27.4359   29.7740  -10.8017 H   0  0  0  0  0
  -29.1241   30.4606  -11.2899 H   0  0  0  0  0
  -27.2321   30.4086  -15.7843 H   0  0  0  0  0
  -27.0429   27.9328  -13.6124 H   0  0  0  0  0
  -28.3502   32.5351  -12.4194 H   0  0  0  0  0
  1  3  1  0  0  0
  3  2  1  0  0  0
  3  4  1  0  0  0
  4  5  1  0  0  0
  4 10  2  0  0  0
  4 11  1  0  0  0
  5  6  1  0  0  0
  6  7  1  0  0  0
  6  8  1  0  0  0
  7 12  2  0  0  0
  7 13  1  0  0  0
  8  9  1  0  0  0
  9 14  1  0  0  0
  9 15  2  0  0  0
  1 16  1  0  0  0
  1 17  1  0  0  0
  1 18  1  0  0  0
  2 19  1  0  0  0
  2 20  1  0  0  0
  2 21  1  0  0  0
  3 22  1  0  0  0
  5 23  1  0  0  0
  5 24  1  0  0  0
  6 25  1  0  0  0
  8 26  1  0  0  0
  8 27  1  0  0  0
 11 28  1  0  0  0
 13 29  1  0  0  0
 14 30  1  0  0  0
M  END
$$$$
