4mwv_ligand
  -I-interpret- 

 51 51  0  0  0  0  0  0  0  0999 V2000
   62.9380   16.4410  -24.7690 C   0  0  0  0  0
   61.6900   15.8290  -24.4160 N   0  0  0  0  0
   61.5930   14.4080  -23.9980 C   0  0  0  0  0
   62.6900   13.6580  -23.9080 N   0  0  0  0  0
   60.4260   13.8620  -23.7000 N   0  0  0  0  0
   62.7330   17.4910  -25.7660 C   0  0  0  0  0
   62.3870   16.8980  -27.1740 C   0  0  0  0  0
   62.2480   17.9960  -28.3690 C   0  0  0  0  0
   61.1510   19.0150  -28.0080 C   0  0  0  0  0
   61.1270   20.3360  -28.7490 C   0  0  0  0  0
   62.0840   17.4090  -29.7510 C   0  0  0  0  0
   63.2980   16.7630  -30.3890 C   0  0  0  0  0
   61.1750   15.9190  -27.1910 N   0  0  0  0  0
   61.3490   14.5080  -27.3640 C   0  0  0  0  0
   60.1400   13.6410  -27.3600 C   0  0  0  0  0
   62.4580   14.0380  -27.5130 O   0  0  0  0  0
   63.9760   18.2810  -25.7300 C   0  0  0  0  0
   64.9120   17.7620  -26.6310 O   0  0  0  0  0
   64.4920   18.1710  -24.3640 C   0  0  0  0  0
   64.4890   19.5230  -23.6710 C   0  0  0  0  0
   64.9500   19.6020  -22.3620 O   0  0  0  0  0
   64.6220   20.6730  -24.4450 O   0  0  0  0  0
   63.6000   17.2160  -23.6490 C   0  0  0  0  0
   63.5432   15.5932  -25.0899 H   0  0  0  0  0
   60.8390   16.3900  -24.4535 H   0  0  0  0  0
   62.6191   12.6838  -23.6142 H   0  0  0  0  0
   63.6010   14.0578  -24.1329 H   0  0  0  0  0
   60.3793   12.8857  -23.4084 H   0  0  0  0  0
   61.8721   18.1232  -25.5487 H   0  0  0  0  0
   63.2787   16.3089  -27.3881 H   0  0  0  0  0
   63.2030   18.5169  -28.4379 H   0  0  0  0  0
   61.3324   19.2744  -26.9650 H   0  0  0  0  0
   60.2105   18.5262  -28.2624 H   0  0  0  0  0
   62.0664   20.8626  -28.5808 H   0  0  0  0  0
   60.9988   20.1506  -29.8154 H   0  0  0  0  0
   60.2986   20.9420  -28.3821 H   0  0  0  0  0
   61.8266   18.2487  -30.3965 H   0  0  0  0  0
   61.3502   16.6102  -29.6440 H   0  0  0  0  0
   64.0939   17.5018  -30.4830 H   0  0  0  0  0
   63.6389   15.9373  -29.7645 H   0  0  0  0  0
   63.0310   16.3870  -31.3767 H   0  0  0  0  0
   60.2330   16.2928  -27.0759 H   0  0  0  0  0
   60.0667   13.1176  -28.3133 H   0  0  0  0  0
   60.2177   12.9151  -26.5506 H   0  0  0  0  0
   59.2530   14.2573  -27.2132 H   0  0  0  0  0
   63.7884   19.3178  -26.0091 H   0  0  0  0  0
   64.5695   17.8363  -27.5247 H   0  0  0  0  0
   65.5240   17.8203  -24.3676 H   0  0  0  0  0
   64.2742   20.5075  -25.3244 H   0  0  0  0  0
   64.1461   16.5704  -22.9612 H   0  0  0  0  0
   62.8776   17.7206  -23.0074 H   0  0  0  0  0
  1  2  1  0  0  0
  1  6  1  0  0  0
  1 23  1  0  0  0
  2  3  1  0  0  0
  3  4  1  0  0  0
  3  5  2  0  0  0
  6  7  1  0  0  0
  6 17  1  0  0  0
  7  8  1  0  0  0
  7 13  1  0  0  0
  8  9  1  0  0  0
  8 11  1  0  0  0
  9 10  1  0  0  0
 11 12  1  0  0  0
 13 14  1  0  0  0
 14 15  1  0  0  0
 14 16  2  0  0  0
 17 18  1  0  0  0
 17 19  1  0  0  0
 19 20  1  0  0  0
 19 23  1  0  0  0
 20 21  2  0  0  0
 20 22  1  0  0  0
  1 24  1  0  0  0
  2 25  1  0  0  0
  4 26  1  0  0  0
  4 27  1  0  0  0
  5 28  1  0  0  0
  6 29  1  0  0  0
  7 30  1  0  0  0
  8 31  1  0  0  0
  9 32  1  0  0  0
  9 33  1  0  0  0
 10 34  1  0  0  0
 10 35  1  0  0  0
 10 36  1  0  0  0
 11 37  1  0  0  0
 11 38  1  0  0  0
 12 39  1  0  0  0
 12 40  1  0  0  0
 12 41  1  0  0  0
 13 42  1  0  0  0
 15 43  1  0  0  0
 15 44  1  0  0  0
 15 45  1  0  0  0
 17 46  1  0  0  0
 18 47  1  0  0  0
 19 48  1  0  0  0
 22 49  1  0  0  0
 23 50  1  0  0  0
 23 51  1  0  0  0
M  END
$$$$
