6ax4_ligand
  -I-interpret- 

137140  0  0  0  0  0  0  0  0999 V2000
   -5.8920   26.9440   72.4810 C   0  0  0  0  0
   -5.0560   26.0700   72.6870 O   0  0  0  0  0
   -5.8680   27.7420   71.1770 C   0  0  0  0  0
   -4.5040   27.9900   70.6880 N   0  0  0  0  0
   -3.6060   28.7160   71.3890 C   0  0  0  0  0
   -3.8870   29.1480   72.4960 O   0  0  0  0  0
   -2.2530   28.9220   70.7770 C   0  0  0  0  0
   -4.2410   27.3130   69.4110 C   0  0  0  0  0
   -5.6100   27.1400   68.8360 C   0  0  0  0  0
   -6.5110   26.9350   70.0360 C   0  0  0  0  0
   -6.8670   27.2480   73.3500 N   0  0  0  0  0
   -7.0280   26.5270   74.6110 C   0  0  0  0  0
   -8.0780   25.4160   74.5820 C   0  0  0  0  0
   -8.3300   24.7520   75.5880 O   0  0  0  0  0
   -7.3070   27.4970   75.7580 C   0  0  0  0  0
   -6.1750   28.4620   76.0650 C   0  0  0  0  0
   -6.6060   29.4660   77.1180 C   0  0  0  0  0
   -4.9300   27.7360   76.5190 C   0  0  0  0  0
   -9.5600   23.7240   71.7250 C   0  0  0  0  0
   -8.6740   25.2000   73.4090 N   0  0  0  0  0
   -9.1490   24.5300   70.8890 O   0  0  0  0  0
   -9.5270   24.0510   73.2090 C   0  0  0  0  0
  -10.9400   24.3240   73.7270 C   0  0  0  0  0
  -11.5490   25.5750   73.1690 C   0  0  0  0  0
  -11.2300   27.0300   75.2170 C   0  0  0  0  0
  -12.3280   26.6760   76.1830 C   0  0  0  0  0
  -11.8480   26.6770   77.5840 C   0  0  0  0  0
  -12.9530   26.1910   78.4780 C   0  0  0  0  0
  -12.5450   26.0820   79.9060 C   0  0  0  0  0
  -13.7030   25.6640   80.7930 C   0  0  0  0  0
  -14.1160   24.2170   80.5530 C   0  0  0  0  0
  -15.1440   23.7140   81.5610 C   0  0  0  0  0
  -14.6420   23.7670   82.9860 C   0  0  0  0  0
  -13.7170   22.8420   83.4450 C   0  0  0  0  0
  -13.2430   22.9000   84.7420 C   0  0  0  0  0
  -13.6800   23.8880   85.5950 C   0  0  0  0  0
  -14.5920   24.8170   85.1510 C   0  0  0  0  0
  -15.0760   24.7530   83.8580 C   0  0  0  0  0
  -11.6600   26.7910   73.8350 N   0  3  0  0  0
  -12.1540   25.7630   71.9750 C   0  0  0  0  0
  -12.3070   27.6520   73.0650 C   0  0  0  0  0
  -12.6230   27.0450   71.9280 N   0  0  0  0  0
  -10.0680   22.5370   71.4190 N   0  0  0  0  0
  -10.1170   22.0350   70.0660 C   0  0  0  0  0
  -11.2020   22.7790   69.2790 C   0  0  0  0  0
  -11.8950   23.6390   69.8220 O   0  0  0  0  0
  -10.3350   20.5210   70.0680 C   0  0  0  0  0
  -11.5210   20.1740   70.7740 O   0  0  0  0  0
  -11.3070   22.4770   67.9830 N   0  0  0  0  0
  -12.1650   23.2080   67.0710 C   0  0  0  0  0
  -12.0980   22.5600   65.6880 C   0  0  0  0  0
  -12.9990   23.2030   64.6650 C   0  0  0  0  0
  -10.7160   22.6850   65.2780 O   0  0  0  0  0
   -9.7520   21.3870   65.1110 P   0  0  0  0  0
   -9.7110   20.6790   66.4580 O   0  0  0  0  0
  -10.4020   20.5180   64.0630 O   0  0  0  0  0
   -8.4000   21.9230   64.6680 O   0  0  0  0  0
  -13.6040   23.3110   67.5680 C   0  0  0  0  0
  -14.1850   22.3210   67.9960 O   0  0  0  0  0
  -13.3710   27.6490   70.8170 C   0  0  0  0  0
  -14.3000   26.6390   70.1440 C   0  0  0  0  0
  -14.7470   27.0870   68.7870 C   0  0  0  0  0
  -15.8310   26.2490   68.1690 C   0  0  0  0  0
  -15.5030   24.7770   68.0360 C   0  0  0  0  0
  -14.1630   24.5260   67.5230 N   0  0  0  0  0
   -6.3902   28.6697   71.4111 H   0  0  0  0  0
   -2.0586   29.9901   70.6794 H   0  0  0  0  0
   -1.4941   28.4702   71.4158 H   0  0  0  0  0
   -2.2260   28.4550   69.7925 H   0  0  0  0  0
   -3.7114   26.3683   69.5342 H   0  0  0  0  0
   -3.5773   27.8815   68.7596 H   0  0  0  0  0
   -5.6565   26.2980   68.1453 H   0  0  0  0  0
   -5.9133   28.0034   68.2438 H   0  0  0  0  0
   -7.5279   27.2712   69.8334 H   0  0  0  0  0
   -6.5981   25.8795   70.2938 H   0  0  0  0  0
   -7.5142   28.0034   73.1246 H   0  0  0  0  0
   -6.0755   26.0232   74.7754 H   0  0  0  0  0
   -7.4602   26.8936   76.6528 H   0  0  0  0  0
   -8.1653   28.0998   75.4612 H   0  0  0  0  0
   -5.9358   28.9909   75.1424 H   0  0  0  0  0
   -7.4639   30.0296   76.7512 H   0  0  0  0  0
   -6.8802   28.9378   78.0312 H   0  0  0  0  0
   -5.7825   30.1493   77.3253 H   0  0  0  0  0
   -5.1515   27.1673   77.4221 H   0  0  0  0  0
   -4.5996   27.0573   75.7327 H   0  0  0  0  0
   -4.1440   28.4615   76.7286 H   0  0  0  0  0
   -8.5256   25.8554   72.6417 H   0  0  0  0  0
   -9.1300   23.2031   73.7671 H   0  0  0  0  0
  -10.8753   24.4448   74.8083 H   0  0  0  0  0
  -11.5689   23.4881   73.4205 H   0  0  0  0  0
  -10.3600   26.4082   75.4284 H   0  0  0  0  0
  -10.9851   28.0858   75.3327 H   0  0  0  0  0
  -12.6857   25.6746   75.9437 H   0  0  0  0  0
  -13.1190   27.4203   76.0909 H   0  0  0  0  0
  -11.5578   27.6871   77.8731 H   0  0  0  0  0
  -10.9831   26.0203   77.6774 H   0  0  0  0  0
  -13.2394   25.1955   78.1388 H   0  0  0  0  0
  -13.7670   26.9136   78.4207 H   0  0  0  0  0
  -12.1950   27.0595   80.2377 H   0  0  0  0  0
  -11.7645   25.3250   79.9823 H   0  0  0  0  0
  -14.5553   26.3033   80.5630 H   0  0  0  0  0
  -13.3871   25.7595   81.8318 H   0  0  0  0  0
  -13.2247   23.5973   80.6512 H   0  0  0  0  0
  -14.5680   24.1612   79.5627 H   0  0  0  0  0
  -15.3633   22.6732   81.3229 H   0  0  0  0  0
  -16.0214   24.3571   81.4921 H   0  0  0  0  0
  -13.3594   22.0599   82.7753 H   0  0  0  0  0
  -12.5211   22.1613   85.0904 H   0  0  0  0  0
  -13.3051   23.9340   86.6175 H   0  0  0  0  0
  -14.9340   25.6060   85.8208 H   0  0  0  0  0
  -15.8078   25.4867   83.5200 H   0  0  0  0  0
  -12.2510   25.0187   71.1846 H   0  0  0  0  0
  -12.5407   28.6852   73.3217 H   0  0  0  0  0
  -10.4391   21.9554   72.1703 H   0  0  0  0  0
   -9.1639   22.2181   69.5699 H   0  0  0  0  0
   -9.4855   20.0473   70.5600 H   0  0  0  0  0
  -10.4315   20.1815   69.0367 H   0  0  0  0  0
  -11.6332   19.2207   70.7597 H   0  0  0  0  0
  -10.7595   21.6976   67.6182 H   0  0  0  0  0
  -11.7988   24.2329   67.0114 H   0  0  0  0  0
  -12.4433   21.5281   65.7512 H   0  0  0  0  0
  -14.0336   23.1376   65.0017 H   0  0  0  0  0
  -12.7204   24.2498   64.5442 H   0  0  0  0  0
  -12.8923   22.6849   63.7119 H   0  0  0  0  0
   -9.2939   21.2511   67.1064 H   0  0  0  0  0
   -8.0286   22.4676   65.3659 H   0  0  0  0  0
  -12.6558   28.0044   70.0752 H   0  0  0  0  0
  -13.9786   28.4620   71.2145 H   0  0  0  0  0
  -15.1854   26.5273   70.7699 H   0  0  0  0  0
  -13.7518   25.7043   70.0260 H   0  0  0  0  0
  -13.8802   27.0161   68.1300 H   0  0  0  0  0
  -15.1531   28.0917   68.9043 H   0  0  0  0  0
  -15.9865   26.6296   67.1595 H   0  0  0  0  0
  -16.6977   26.3205   68.8261 H   0  0  0  0  0
  -16.2113   24.3455   67.3288 H   0  0  0  0  0
  -15.5612   24.3365   69.0313 H   0  0  0  0  0
  -13.6353   25.2990   67.1176 H   0  0  0  0  0
  1  2  2  0  0  0
  1  3  1  0  0  0
 11  1  1  0  0  0
  3  4  1  0  0  0
  3 10  1  0  0  0
  4  5  1  0  0  0
  4  8  1  0  0  0
  5  6  2  0  0  0
  5  7  1  0  0  0
  9  8  1  0  0  0
 10  9  1  0  0  0
 12 11  1  0  0  0
 13 12  1  0  0  0
 12 15  1  0  0  0
 13 14  2  0  0  0
 20 13  1  0  0  0
 15 16  1  0  0  0
 16 17  1  0  0  0
 16 18  1  0  0  0
 19 21  2  0  0  0
 22 19  1  0  0  0
 19 43  1  0  0  0
 22 20  1  0  0  0
 23 22  1  0  0  0
 24 23  1  0  0  0
 39 24  4  0  0  0
 24 40  4  0  0  0
 25 26  1  0  0  0
 25 39  1  0  0  0
 26 27  1  0  0  0
 27 28  1  0  0  0
 28 29  1  0  0  0
 29 30  1  0  0  0
 30 31  1  0  0  0
 31 32  1  0  0  0
 32 33  1  0  0  0
 33 34  4  0  0  0
 33 38  4  0  0  0
 34 35  4  0  0  0
 35 36  4  0  0  0
 36 37  4  0  0  0
 37 38  4  0  0  0
 39 41  4  0  0  0
 40 42  4  0  0  0
 41 42  4  0  0  0
 42 60  1  0  0  0
 43 44  1  0  0  0
 44 45  1  0  0  0
 44 47  1  0  0  0
 45 46  2  0  0  0
 45 49  1  0  0  0
 47 48  1  0  0  0
 49 50  1  0  0  0
 50 51  1  0  0  0
 50 58  1  0  0  0
 51 52  1  0  0  0
 51 53  1  0  0  0
 53 54  1  0  0  0
 54 55  1  0  0  0
 54 56  2  0  0  0
 54 57  1  0  0  0
 58 59  2  0  0  0
 58 65  1  0  0  0
 60 61  1  0  0  0
 61 62  1  0  0  0
 62 63  1  0  0  0
 63 64  1  0  0  0
 64 65  1  0  0  0
  3 66  1  0  0  0
  7 67  1  0  0  0
  7 68  1  0  0  0
  7 69  1  0  0  0
  8 70  1  0  0  0
  8 71  1  0  0  0
  9 72  1  0  0  0
  9 73  1  0  0  0
 10 74  1  0  0  0
 10 75  1  0  0  0
 11 76  1  0  0  0
 12 77  1  0  0  0
 15 78  1  0  0  0
 15 79  1  0  0  0
 16 80  1  0  0  0
 17 81  1  0  0  0
 17 82  1  0  0  0
 17 83  1  0  0  0
 18 84  1  0  0  0
 18 85  1  0  0  0
 18 86  1  0  0  0
 20 87  1  0  0  0
 22 88  1  0  0  0
 23 89  1  0  0  0
 23 90  1  0  0  0
 25 91  1  0  0  0
 25 92  1  0  0  0
 26 93  1  0  0  0
 26 94  1  0  0  0
 27 95  1  0  0  0
 27 96  1  0  0  0
 28 97  1  0  0  0
 28 98  1  0  0  0
 29 99  1  0  0  0
 29100  1  0  0  0
 30101  1  0  0  0
 30102  1  0  0  0
 31103  1  0  0  0
 31104  1  0  0  0
 32105  1  0  0  0
 32106  1  0  0  0
 34107  1  0  0  0
 35108  1  0  0  0
 36109  1  0  0  0
 37110  1  0  0  0
 38111  1  0  0  0
 40112  1  0  0  0
 41113  1  0  0  0
 43114  1  0  0  0
 44115  1  0  0  0
 47116  1  0  0  0
 47117  1  0  0  0
 48118  1  0  0  0
 49119  1  0  0  0
 50120  1  0  0  0
 51121  1  0  0  0
 52122  1  0  0  0
 52123  1  0  0  0
 52124  1  0  0  0
 55125  1  0  0  0
 57126  1  0  0  0
 60127  1  0  0  0
 60128  1  0  0  0
 61129  1  0  0  0
 61130  1  0  0  0
 62131  1  0  0  0
 62132  1  0  0  0
 63133  1  0  0  0
 63134  1  0  0  0
 64135  1  0  0  0
 64136  1  0  0  0
 65137  1  0  0  0
M  END
$$$$
