### 
### Created by X-TOOL on Wed Jan  1 15:39:34 2020
### 

@<TRIPOS>MOLECULE
6ax4_ligand
  135   138     1     0     0
SMALL
GAST_HUCK


@<TRIPOS>ATOM
      1 C          -5.8920   26.9440   72.4810 C.2       1 N7P         0.2041
      2 O          -5.0560   26.0700   72.6870 O.2       1 N7P        -0.3944
      3 CA         -5.8680   27.7420   71.1770 C.3       1 N7P         0.1337
      4 N          -4.5040   27.9900   70.6880 N.am      1 N7P        -0.2520
      5 C1         -3.6060   28.7160   71.3890 C.2       1 N7P         0.1776
      6 O1         -3.8870   29.1480   72.4960 O.2       1 N7P        -0.3970
      7 C2         -2.2530   28.9220   70.7770 C.3       1 N7P         0.0260
      8 CD         -4.2410   27.3130   69.4110 C.3       1 N7P         0.0369
      9 CG         -5.6100   27.1400   68.8360 C.3       1 N7P        -0.0281
     10 CB         -6.5110   26.9350   70.0360 C.3       1 N7P        -0.0104
     11 N          -6.8670   27.2480   73.3500 N.am      1 LEU        -0.2637
     12 CA         -7.0280   26.5270   74.6110 C.3       1 LEU         0.1312
     13 C          -8.0780   25.4160   74.5820 C.2       1 LEU         0.2042
     14 O          -8.3300   24.7520   75.5880 O.2       1 LEU        -0.3944
     15 CB         -7.3070   27.4970   75.7580 C.3       1 LEU        -0.0101
     16 CG         -6.1750   28.4620   76.0650 C.3       1 LEU        -0.0425
     17 CD1        -6.6060   29.4660   77.1180 C.3       1 LEU        -0.0625
     18 CD2        -4.9300   27.7360   76.5190 C.3       1 LEU        -0.0625
     19 C          -9.5600   23.7240   71.7250 C.2       1 56A         0.2090
     20 N          -8.6740   25.2000   73.4090 N.am      1 56A        -0.2594
     21 O          -9.1490   24.5300   70.8890 O.2       1 56A        -0.3939
     22 CA         -9.5270   24.0510   73.2090 C.3       1 56A         0.1549
     23 CB        -10.9400   24.3240   73.7270 C.3       1 56A         0.0774
     24 CG        -11.5490   25.5750   73.1690 C.2       1 56A         0.1423
     25 C27       -11.2300   27.0300   75.2170 C.3       1 56A         0.0112
     26 C28       -12.3280   26.6760   76.1830 C.3       1 56A        -0.0429
     27 C29       -11.8480   26.6770   77.5840 C.3       1 56A        -0.0523
     28 C30       -12.9530   26.1910   78.4780 C.3       1 56A        -0.0530
     29 C31       -12.5450   26.0820   79.9060 C.3       1 56A        -0.0529
     30 C32       -13.7030   25.6640   80.7930 C.3       1 56A        -0.0513
     31 C33       -14.1160   24.2170   80.5530 C.3       1 56A        -0.0433
     32 C34       -15.1440   23.7140   81.5610 C.3       1 56A        -0.0192
     33 C35       -14.6420   23.7670   82.9860 C.ar      1 56A        -0.0430
     34 C36       -13.7170   22.8420   83.4450 C.ar      1 56A        -0.0603
     35 C37       -13.2430   22.9000   84.7420 C.ar      1 56A        -0.0686
     36 C38       -13.6800   23.8880   85.5950 C.ar      1 56A        -0.0687
     37 C39       -14.5920   24.8170   85.1510 C.ar      1 56A        -0.0686
     38 C40       -15.0760   24.7530   83.8580 C.ar      1 56A        -0.0603
     39 ND1       -11.6600   26.7910   73.8350 N.2       1 56A        -0.2820
     40 CD2       -12.1540   25.7630   71.9750 C.2       1 56A         0.1834
     41 CE1       -12.3070   27.6520   73.0650 C.2       1 56A         0.1683
     42 NE2       -12.6230   27.0450   71.9280 N.pl3     1 56A        -0.1512
     43 N         -10.0680   22.5370   71.4190 N.am      1 SER        -0.2612
     44 CA        -10.1170   22.0350   70.0660 C.3       1 SER         0.1539
     45 C         -11.2020   22.7790   69.2790 C.2       1 SER         0.2063
     46 O         -11.8950   23.6390   69.8220 O.2       1 SER        -0.3943
     47 CB        -10.3350   20.5210   70.0680 C.3       1 SER         0.0843
     48 OG        -11.5210   20.1740   70.7740 O.3       1 SER        -0.3903
     49 N         -11.3070   22.4770   67.9830 N.am      1 TPO        -0.2610
     50 CA        -12.1650   23.2080   67.0710 C.3       1 TPO         0.1610
     51 CB        -12.0980   22.5600   65.6880 C.3       1 TPO         0.1262
     52 CG2       -12.9990   23.2030   64.6650 C.3       1 TPO        -0.0298
     53 OG1       -10.7160   22.6850   65.2780 O.3       1 TPO        -0.2685
     54 P          -9.7520   21.3870   65.1110 P.3       1 TPO         0.2014
     55 O1P        -9.7110   20.6790   66.4580 O.co2     1 TPO        -0.5537
     56 O2P       -10.4020   20.5180   64.0630 O.co2     1 TPO        -0.5537
     57 O3P        -8.4000   21.9230   64.6680 O.co2     1 TPO        -0.5537
     58 C         -13.6040   23.3110   67.5680 C.2       1 TPO         0.2046
     59 O         -14.1850   22.3210   67.9960 O.2       1 TPO        -0.3944
     60 C1        -13.3710   27.6490   70.8170 C.3       1 AML         0.0847
     61 C2        -14.3000   26.6390   70.1440 C.3       1 AML        -0.0215
     62 C3        -14.7470   27.0870   68.7870 C.3       1 AML        -0.0485
     63 C4        -15.8310   26.2490   68.1690 C.3       1 AML        -0.0327
     64 C5        -15.5030   24.7770   68.0360 C.3       1 AML         0.0309
     65 N1        -14.1630   24.5260   67.5230 N.am      1 AML        -0.2850
     66 H1         -6.3988   28.6931   71.3305 H         1 N7P         0.0802
     67 H2         -1.6323   29.5266   71.4546 H         1 N7P         0.0467
     68 H3         -2.3613   29.4444   69.8150 H         1 N7P         0.0467
     69 H4         -1.7726   27.9463   70.6124 H         1 N7P         0.0467
     70 H5         -3.7537   26.3401   69.5720 H         1 N7P         0.0524
     71 H6         -3.6124   27.9341   68.7560 H         1 N7P         0.0524
     72 H7         -5.6435   26.2635   68.1722 H         1 N7P         0.0287
     73 H8         -5.9106   28.0369   68.2746 H         1 N7P         0.0287
     74 H9         -7.5237   27.3087   69.8243 H         1 N7P         0.0313
     75 H10        -6.5615   25.8685   70.3007 H         1 N7P         0.0313
     76 H11        -7.5016   27.9886   73.1291 H         1 LEU         0.1883
     77 H12        -6.0631   26.0416   74.8192 H         1 LEU         0.0800
     78 H13        -7.5088   26.9068   76.6640 H         1 LEU         0.0315
     79 H14        -8.1985   28.0867   75.4984 H         1 LEU         0.0315
     80 H15        -5.9341   29.0096   75.1419 H         1 LEU         0.0298
     81 H16        -5.7757   30.1562   77.3281 H         1 LEU         0.0232
     82 H17        -6.8830   28.9341   78.0402 H         1 LEU         0.0232
     83 H18        -7.4717   30.0355   76.7490 H         1 LEU         0.0232
     84 H19        -4.6267   27.0114   75.7489 H         1 LEU         0.0232
     85 H20        -5.1374   27.2056   77.4601 H         1 LEU         0.0232
     86 H21        -4.1195   28.4624   76.6784 H         1 LEU         0.0232
     87 H22        -8.5285   25.8426   72.6567 H         1 56A         0.1887
     88 H23        -9.1097   23.1941   73.7581 H         1 56A         0.0858
     89 H24       -10.8979   24.4157   74.8224 H         1 56A         0.0714
     90 H25       -11.5814   23.4729   73.4547 H         1 56A         0.0714
     91 H26       -10.3460   26.4118   75.4324 H         1 56A         0.0388
     92 H27       -10.9723   28.0927   75.3365 H         1 56A         0.0388
     93 H28       -12.7089   25.6736   75.9377 H         1 56A         0.0273
     94 H29       -13.1402   27.4112   76.0842 H         1 56A         0.0273
     95 H30       -11.5601   27.6980   77.8748 H         1 56A         0.0266
     96 H31       -10.9781   26.0102   77.6766 H         1 56A         0.0266
     97 H32       -13.2744   25.1985   78.1292 H         1 56A         0.0265
     98 H33       -13.7953   26.8949   78.4075 H         1 56A         0.0265
     99 H34       -12.1717   27.0595   80.2452 H         1 56A         0.0265
    100 H35       -11.7433   25.3336   79.9911 H         1 56A         0.0265
    101 H36       -14.5631   26.3174   80.5848 H         1 56A         0.0267
    102 H37       -13.4027   25.7772   81.8451 H         1 56A         0.0267
    103 H38       -13.2206   23.5816   80.6193 H         1 56A         0.0287
    104 H39       -14.5474   24.1386   79.5442 H         1 56A         0.0287
    105 H40       -15.3959   22.6717   81.3157 H         1 56A         0.0426
    106 H41       -16.0468   24.3375   81.4831 H         1 56A         0.0426
    107 H42       -13.3614   22.0642   82.7789 H         1 56A         0.0557
    108 H43       -12.5251   22.1654   85.0885 H         1 56A         0.0599
    109 H44       -13.3072   23.9337   86.6118 H         1 56A         0.0559
    110 H45       -14.9321   25.6016   85.8171 H         1 56A         0.0599
    111 H46       -15.8038   25.4827   83.5219 H         1 56A         0.0557
    112 H47       -12.2510   25.0194   71.1854 H         1 56A         0.1941
    113 H48       -12.5405   28.6843   73.3214 H         1 56A         0.1815
    114 H49       -10.4318   21.9668   72.1555 H         1 SER         0.1884
    115 H50        -9.1486   22.2365   69.5849 H         1 SER         0.0823
    116 H51        -9.4745   20.0350   70.5510 H         1 SER         0.0606
    117 H52       -10.4196   20.1690   69.0293 H         1 SER         0.0606
    118 H53       -12.2682   20.5882   70.3585 H         1 SER         0.2097
    119 H54       -10.7702   21.7129   67.6253 H         1 TPO         0.1884
    120 H55       -11.7722   24.2321   66.9876 H         1 TPO         0.0830
    121 H56       -12.3725   21.4981   65.7715 H         1 TPO         0.0695
    122 H57       -12.8922   22.6810   63.7026 H         1 TPO         0.0260
    123 H58       -12.7188   24.2596   64.5421 H         1 TPO         0.0260
    124 H59       -14.0435   23.1376   65.0036 H         1 TPO         0.0260
    125 H60       -12.6569   28.0281   70.0712 H         1 56A         0.0657
    126 H61       -13.9734   28.4835   71.2052 H         1 56A         0.0657
    127 H62       -15.1871   26.4980   70.7789 H         1 56A         0.0295
    128 H63       -13.7665   25.6825   70.0417 H         1 56A         0.0295
    129 H64       -13.8754   27.0670   68.1162 H         1 56A         0.0267
    130 H65       -15.1197   28.1183   68.8732 H         1 56A         0.0267
    131 H66       -16.0374   26.6449   67.1637 H         1 56A         0.0285
    132 H67       -16.7324   26.3429   68.7923 H         1 56A         0.0285
    133 H68       -16.2303   24.3185   67.3499 H         1 56A         0.0520
    134 H69       -15.5895   24.3096   69.0280 H         1 56A         0.0520
    135 H70       -13.6456   25.2839   67.1255 H         1 TPO         0.1851
@<TRIPOS>BOND
     1    1    2 2  
     2    1    3 1  
     3   11    1 am 
     4    3    4 1  
     5    3   10 1  
     6    4    5 am 
     7    4    8 1  
     8    5    6 2  
     9    5    7 1  
    10    9    8 1  
    11   10    9 1  
    12   12   11 1  
    13   13   12 1  
    14   12   15 1  
    15   13   14 2  
    16   20   13 am 
    17   15   16 1  
    18   16   17 1  
    19   16   18 1  
    20   19   21 2  
    21   22   19 1  
    22   19   43 am 
    23   22   20 1  
    24   23   22 1  
    25   24   23 1  
    26   39   24 1  
    27   24   40 2  
    28   25   26 1  
    29   25   39 1  
    30   26   27 1  
    31   27   28 1  
    32   28   29 1  
    33   29   30 1  
    34   30   31 1  
    35   31   32 1  
    36   32   33 1  
    37   33   34 ar 
    38   33   38 ar 
    39   34   35 ar 
    40   35   36 ar 
    41   36   37 ar 
    42   37   38 ar 
    43   39   41 2  
    44   40   42 1  
    45   41   42 1  
    46   42   60 1  
    47   43   44 1  
    48   44   45 1  
    49   44   47 1  
    50   45   46 2  
    51   45   49 am 
    52   47   48 1  
    53   49   50 1  
    54   50   51 1  
    55   50   58 1  
    56   51   52 1  
    57   51   53 1  
    58   53   54 1  
    59   54   55 ar 
    60   54   56 ar 
    61   54   57 ar 
    62   58   59 2  
    63   58   65 am 
    64   60   61 1  
    65   61   62 1  
    66   62   63 1  
    67   63   64 1  
    68   64   65 1  
    69    3   66 1  
    70    7   67 1  
    71    7   68 1  
    72    7   69 1  
    73    8   70 1  
    74    8   71 1  
    75    9   72 1  
    76    9   73 1  
    77   10   74 1  
    78   10   75 1  
    79   11   76 1  
    80   12   77 1  
    81   15   78 1  
    82   15   79 1  
    83   16   80 1  
    84   17   81 1  
    85   17   82 1  
    86   17   83 1  
    87   18   84 1  
    88   18   85 1  
    89   18   86 1  
    90   20   87 1  
    91   22   88 1  
    92   23   89 1  
    93   23   90 1  
    94   25   91 1  
    95   25   92 1  
    96   26   93 1  
    97   26   94 1  
    98   27   95 1  
    99   27   96 1  
   100   28   97 1  
   101   28   98 1  
   102   29   99 1  
   103   29  100 1  
   104   30  101 1  
   105   30  102 1  
   106   31  103 1  
   107   31  104 1  
   108   32  105 1  
   109   32  106 1  
   110   34  107 1  
   111   35  108 1  
   112   36  109 1  
   113   37  110 1  
   114   38  111 1  
   115   40  112 1  
   116   41  113 1  
   117   43  114 1  
   118   44  115 1  
   119   47  116 1  
   120   47  117 1  
   121   48  118 1  
   122   49  119 1  
   123   50  120 1  
   124   51  121 1  
   125   52  122 1  
   126   52  123 1  
   127   52  124 1  
   128   60  125 1  
   129   60  126 1  
   130   61  127 1  
   131   61  128 1  
   132   62  129 1  
   133   62  130 1  
   134   63  131 1  
   135   63  132 1  
   136   64  133 1  
   137   64  134 1  
   138   65  135 1  
@<TRIPOS>SUBSTRUCTURE
     1 N7P         1

