1b6p_ligand
  -I-interpret- 

102104  0  0  0  0  0  0  0  0999 V2000
    4.5630    4.0010    8.3210 C   0  0  0  0  0
    3.4360    4.5310    9.1740 C   0  0  0  0  0
    3.4030    3.8420   10.5380 C   0  0  0  0  0
    3.7610    4.4410   11.5530 O   0  0  0  0  0
    2.9830    2.5800   10.5530 N   0  0  0  0  0
    2.8660    1.8050   11.8030 C   0  0  0  0  0
    4.0830    0.9430   12.1490 C   0  0  0  0  0
    4.1980   -0.2060   11.7110 O   0  0  0  0  0
    1.5910    0.9310   11.7770 C   0  0  0  0  0
    1.4310    0.1730   13.0840 C   0  0  0  0  0
    0.3740    1.8040   11.5190 C   0  0  0  0  0
    4.9680    1.4910   12.9750 N   0  0  0  0  0
    6.1810    0.7720   13.3940 C   0  0  0  0  0
    7.4100    1.6560   13.1960 C   0  0  0  0  0
    7.4890    2.2610   11.8200 C   0  0  0  0  0
    7.6380    1.4560   10.6930 C   0  0  0  0  0
    7.3830    3.6370   11.6410 C   0  0  0  0  0
    7.6770    2.0070    9.4210 C   0  0  0  0  0
    7.4220    4.1990   10.3730 C   0  0  0  0  0
    7.5670    3.3770    9.2680 C   0  0  0  0  0
    6.0910    0.3320   14.8580 C   0  0  0  0  0
    4.8840   -0.5730   15.0820 C   0  0  0  0  0
    7.2830   -0.3770   15.2120 O   0  0  0  0  0
    7.5850    3.9280    8.0080 O   0  0  0  0  0
    4.8820   -0.9670   16.5060 N   0  3  0  0  0
    4.6710   -2.4110   16.8090 C   0  0  0  0  0
    3.2320   -2.8410   16.5010 C   0  0  0  0  0
    3.0550   -4.3340   16.6410 C   0  0  0  0  0
    3.0400   -4.9370   17.8990 C   0  0  0  0  0
    3.0240   -6.3180   18.0300 C   0  0  0  0  0
    3.0330   -5.1550   15.5170 C   0  0  0  0  0
    3.0160   -6.5320   15.6350 C   0  0  0  0  0
    3.0180   -7.1120   16.8880 C   0  0  0  0  0
    3.0420   -8.4890   16.9630 O   0  0  0  0  0
    3.7280   -8.9520   18.1170 C   0  0  0  0  0
    5.6430   -3.4390   16.2130 C   0  0  0  0  0
    5.7940   -3.5610   14.9950 O   0  0  0  0  0
    6.2620   -4.2000   17.1120 N   0  0  0  0  0
    7.1980   -5.2890   16.7830 C   0  0  0  0  0
    6.9550   -6.3660   17.8430 C   0  0  0  0  0
    7.1020   -6.1210   19.0450 O   0  0  0  0  0
    8.6750   -4.8280   16.8010 C   0  0  0  0  0
    8.9080   -3.7920   15.6980 C   0  0  0  0  0
    9.6070   -6.0200   16.5900 C   0  0  0  0  0
   10.2840   -3.2030   15.6970 C   0  0  0  0  0
    6.5130   -7.5330   17.3840 N   0  0  0  0  0
    6.2380   -8.6400   18.2810 C   0  0  0  0  0
    5.1030   -9.5230   17.7730 C   0  0  0  0  0
    5.5131    4.1799    8.8244 H   0  0  0  0  0
    4.4279    2.9304    8.1670 H   0  0  0  0  0
    4.5589    4.5113    7.3578 H   0  0  0  0  0
    2.4927    4.3368    8.6635 H   0  0  0  0  0
    3.5890    5.5992    9.3277 H   0  0  0  0  0
    2.7334    2.1331    9.6708 H   0  0  0  0  0
    2.8046    2.5526   12.5939 H   0  0  0  0  0
    1.6836    0.2018   10.9722 H   0  0  0  0  0
    1.3225    0.8834   13.9036 H   0  0  0  0  0
    0.5447   -0.4592   13.0297 H   0  0  0  0  0
    2.3114   -0.4471   13.2530 H   0  0  0  0  0
   -0.5155    1.1768   11.4599 H   0  0  0  0  0
    0.2623    2.5194   12.3338 H   0  0  0  0  0
    0.5055    2.3397   10.5789 H   0  0  0  0  0
    4.8021    2.4337   13.3273 H   0  0  0  0  0
    6.2707   -0.1205   12.7747 H   0  0  0  0  0
    8.2923    1.0310   13.3334 H   0  0  0  0  0
    7.3478    2.4740   13.9137 H   0  0  0  0  0
    7.7253    0.3761   10.8128 H   0  0  0  0  0
    7.2675    4.2836   12.5109 H   0  0  0  0  0
    7.7935    1.3648    8.5480 H   0  0  0  0  0
    7.3392    5.2786   10.2477 H   0  0  0  0  0
    5.9801    1.2199   15.4805 H   0  0  0  0  0
    4.9445   -1.4540   14.4430 H   0  0  0  0  0
    3.9624   -0.0482   14.8306 H   0  0  0  0  0
    7.2287   -0.6538   16.1296 H   0  0  0  0  0
    7.4994    4.8818    8.0758 H   0  0  0  0  0
    4.0946   -0.4759   16.9294 H   0  0  0  0  0
    5.8124   -0.7419   16.8583 H   0  0  0  0  0
    4.8917   -2.4362   17.8761 H   0  0  0  0  0
    3.0023   -2.5622   15.4726 H   0  0  0  0  0
    2.5664   -2.3477   17.2094 H   0  0  0  0  0
    3.0409   -4.3133   18.7929 H   0  0  0  0  0
    3.0162   -6.7766   19.0188 H   0  0  0  0  0
    3.0291   -4.7033   14.5250 H   0  0  0  0  0
    3.0011   -7.1575   14.7425 H   0  0  0  0  0
    3.1337   -9.7440   18.5727 H   0  0  0  0  0
    3.8680   -8.1081   18.7925 H   0  0  0  0  0
    6.0754   -4.0165   18.0979 H   0  0  0  0  0
    7.0229   -5.6530   15.7706 H   0  0  0  0  0
    8.8894   -4.3802   17.7714 H   0  0  0  0  0
    8.2067   -2.9751   15.8682 H   0  0  0  0  0
    8.7731   -4.3003   14.7432 H   0  0  0  0  0
    9.4514   -6.7468   17.3873 H   0  0  0  0  0
    9.3905   -6.4829   15.6272 H   0  0  0  0  0
   10.6418   -5.6777   16.6055 H   0  0  0  0  0
   10.4657   -2.7059   16.6499 H   0  0  0  0  0
   11.0174   -3.9966   15.5541 H   0  0  0  0  0
   10.3674   -2.4791   14.8863 H   0  0  0  0  0
    6.3644   -7.6524   16.3820 H   0  0  0  0  0
    7.1378   -9.2510   18.3523 H   0  0  0  0  0
    5.9428   -8.2294   19.2466 H   0  0  0  0  0
    5.1821   -9.5854   16.6877 H   0  0  0  0  0
    5.1936  -10.4990   18.2499 H   0  0  0  0  0
  2  1  1  0  0  0
  2  3  1  0  0  0
  3  5  1  0  0  0
  3  4  2  0  0  0
  5  6  1  0  0  0
  6  9  1  0  0  0
  6  7  1  0  0  0
  7 12  1  0  0  0
  7  8  2  0  0  0
 12 13  1  0  0  0
 13 21  1  0  0  0
 13 14  1  0  0  0
 14 15  1  0  0  0
 15 17  4  0  0  0
 15 16  4  0  0  0
 16 18  4  0  0  0
 18 20  4  0  0  0
 20 24  1  0  0  0
 20 19  4  0  0  0
 17 19  4  0  0  0
 21 23  1  0  0  0
 21 22  1  0  0  0
 22 25  1  0  0  0
 25 26  1  0  0  0
 26 36  1  0  0  0
 26 27  1  0  0  0
 27 28  1  0  0  0
 28 31  4  0  0  0
 28 29  4  0  0  0
 29 30  4  0  0  0
 30 33  4  0  0  0
 33 34  1  0  0  0
 33 32  4  0  0  0
 31 32  4  0  0  0
 34 35  1  0  0  0
 35 48  1  0  0  0
 48 47  1  0  0  0
 47 46  1  0  0  0
 46 40  1  0  0  0
 40 41  2  0  0  0
 40 39  1  0  0  0
 39 42  1  0  0  0
 39 38  1  0  0  0
 36 38  1  0  0  0
 36 37  2  0  0  0
 42 44  1  0  0  0
 42 43  1  0  0  0
 43 45  1  0  0  0
  9 11  1  0  0  0
  9 10  1  0  0  0
  1 49  1  0  0  0
  1 50  1  0  0  0
  1 51  1  0  0  0
  2 52  1  0  0  0
  2 53  1  0  0  0
  5 54  1  0  0  0
  6 55  1  0  0  0
  9 56  1  0  0  0
 10 57  1  0  0  0
 10 58  1  0  0  0
 10 59  1  0  0  0
 11 60  1  0  0  0
 11 61  1  0  0  0
 11 62  1  0  0  0
 12 63  1  0  0  0
 13 64  1  0  0  0
 14 65  1  0  0  0
 14 66  1  0  0  0
 16 67  1  0  0  0
 17 68  1  0  0  0
 18 69  1  0  0  0
 19 70  1  0  0  0
 21 71  1  0  0  0
 22 72  1  0  0  0
 22 73  1  0  0  0
 23 74  1  0  0  0
 24 75  1  0  0  0
 25 76  1  0  0  0
 25 77  1  0  0  0
 26 78  1  0  0  0
 27 79  1  0  0  0
 27 80  1  0  0  0
 29 81  1  0  0  0
 30 82  1  0  0  0
 31 83  1  0  0  0
 32 84  1  0  0  0
 35 85  1  0  0  0
 35 86  1  0  0  0
 38 87  1  0  0  0
 39 88  1  0  0  0
 42 89  1  0  0  0
 43 90  1  0  0  0
 43 91  1  0  0  0
 44 92  1  0  0  0
 44 93  1  0  0  0
 44 94  1  0  0  0
 45 95  1  0  0  0
 45 96  1  0  0  0
 45 97  1  0  0  0
 46 98  1  0  0  0
 47 99  1  0  0  0
 47100  1  0  0  0
 48101  1  0  0  0
 48102  1  0  0  0
M  END
$$$$
