5hgq_ligand
  -I-interpret- 

 41 43  0  0  0  0  0  0  0  0999 V2000
    7.5390  -25.1670  -20.9240 O   0  0  0  0  0
    6.9980  -25.3270  -19.8350 C   0  0  0  0  0
    7.1760  -26.5870  -19.0660 C   0  0  0  0  0
    6.6360  -26.7000  -17.7790 C   0  0  0  0  0
    6.8040  -27.8750  -17.0580 C   0  0  0  0  0
    7.5220  -28.9520  -17.6340 C   0  0  0  0  0
    7.7030  -30.1730  -16.8980 O   0  0  0  0  0
    8.0570  -28.8360  -18.9130 C   0  0  0  0  0
    7.8880  -27.6560  -19.6350 C   0  0  0  0  0
    8.4090  -27.5450  -20.8780 O   0  0  0  0  0
    6.2130  -24.3410  -19.2830 O   0  0  0  0  0
    6.2100  -24.1770  -17.8950 C   0  0  0  0  0
    5.8390  -25.4750  -17.1620 C   0  0  0  0  0
    5.2040  -23.0980  -17.5410 C   0  0  0  0  0
    5.7080  -21.7790  -18.1020 C   0  0  0  0  0
    6.9350  -21.4160  -17.4230 O   0  0  0  0  0
    6.7340  -21.0090  -16.0540 C   0  0  0  0  0
    8.0320  -20.4810  -15.5040 C   0  0  0  0  0
    5.6960  -19.9440  -15.9350 C   0  0  0  0  0
    4.4450  -20.3470  -16.5730 C   0  0  0  0  0
    4.6260  -20.7550  -17.9360 C   0  0  0  0  0
    6.3862  -27.9680  -16.0556 H   0  0  0  0  0
    8.2075  -30.7936  -17.4290 H   0  0  0  0  0
    8.6085  -29.6682  -19.3505 H   0  0  0  0  0
    8.8594  -28.3607  -21.1090 H   0  0  0  0  0
    7.2154  -23.8973  -17.5802 H   0  0  0  0  0
    6.0977  -25.3757  -16.1078 H   0  0  0  0  0
    4.7694  -25.6536  -17.2721 H   0  0  0  0  0
    5.0939  -23.0280  -16.4588 H   0  0  0  0  0
    4.2298  -23.3390  -17.9664 H   0  0  0  0  0
    5.9393  -21.8525  -19.1646 H   0  0  0  0  0
    6.3937  -21.8795  -15.4932 H   0  0  0  0  0
    8.7890  -21.2640  -15.5479 H   0  0  0  0  0
    8.3562  -19.6267  -16.0983 H   0  0  0  0  0
    7.8874  -20.1714  -14.4690 H   0  0  0  0  0
    6.0635  -19.0450  -16.4298 H   0  0  0  0  0
    5.5035  -19.7643  -14.8773 H   0  0  0  0  0
    3.7740  -19.4881  -16.5668 H   0  0  0  0  0
    4.0451  -21.1965  -16.0194 H   0  0  0  0  0
    3.6915  -21.2013  -18.2760 H   0  0  0  0  0
    4.9113  -19.8742  -18.5112 H   0  0  0  0  0
  1  2  2  0  0  0
  2  3  1  0  0  0
  2 11  1  0  0  0
  3  4  4  0  0  0
  3  9  4  0  0  0
  4  5  4  0  0  0
  4 13  1  0  0  0
  5  6  4  0  0  0
  6  7  1  0  0  0
  6  8  4  0  0  0
  8  9  4  0  0  0
  9 10  1  0  0  0
 11 12  1  0  0  0
 12 13  1  0  0  0
 12 14  1  0  0  0
 14 15  1  0  0  0
 15 16  1  0  0  0
 15 21  1  0  0  0
 16 17  1  0  0  0
 17 18  1  0  0  0
 17 19  1  0  0  0
 19 20  1  0  0  0
 20 21  1  0  0  0
  5 22  1  0  0  0
  7 23  1  0  0  0
  8 24  1  0  0  0
 10 25  1  0  0  0
 12 26  1  0  0  0
 13 27  1  0  0  0
 13 28  1  0  0  0
 14 29  1  0  0  0
 14 30  1  0  0  0
 15 31  1  0  0  0
 17 32  1  0  0  0
 18 33  1  0  0  0
 18 34  1  0  0  0
 18 35  1  0  0  0
 19 36  1  0  0  0
 19 37  1  0  0  0
 20 38  1  0  0  0
 20 39  1  0  0  0
 21 40  1  0  0  0
 21 41  1  0  0  0
M  END
$$$$
