### 
### Created by X-TOOL on Mon Sep 10 21:13:05 2018
### 

@<TRIPOS>MOLECULE
3sjt_ligand
   31    30     1     0     0
SMALL
GAST_HUCK


@<TRIPOS>ATOM
      1 B1         26.1880  -13.1650    7.0090 B         1 5AB         3.0000
      2 C1         21.2870  -17.3560    7.2430 C.3       1 5AB         0.0295
      3 N1         21.3700  -17.6080    5.8140 N.4       1 5AB         0.2227
      4 O1         20.0010  -15.8600    8.5410 O.co2     1 5AB        -0.5422
      5 C2         20.1890  -16.3220    7.4640 C.2       1 5AB         0.0957
      6 O2         26.5420  -13.7610    5.8190 O.3       1 5AB        -0.8710
      7 C3         22.6200  -16.8190    7.7580 C.3       1 5AB        -0.0042
      8 O3         26.2920  -11.7980    6.8620 O.3       1 5AB        -0.8710
      9 C4         23.1140  -15.4660    7.2310 C.3       1 5AB        -0.0754
     10 O4         27.0780  -13.5420    7.9840 O.3       1 5AB        -0.8710
     11 C5         24.4960  -14.9700    7.6730 C.3       1 5AB        -0.1826
     12 O5         19.4560  -15.8740    6.3520 O.co2     1 5AB        -0.5422
     13 C6         24.8740  -13.5220    7.3500 C.3       1 5AB        -0.3457
     14 C9         20.9280  -18.6440    7.9670 C.3       1 5AB        -0.0136
     15 H          20.4750  -17.9661    5.4806 H         1 5AB         0.1999
     16 H          21.5916  -16.7385    5.3289 H         1 5AB         0.1999
     17 H          22.1014  -18.2956    5.6331 H         1 5AB         0.1999
     18 H          25.9523  -13.4600    5.1238 H         1 5AB        -0.1290
     19 H          23.3658  -17.5431    7.4298 H         1 5AB         0.0315
     20 H          22.4749  -16.6731    8.8284 H         1 5AB         0.0315
     21 H          27.1968  -11.5694    6.6370 H         1 5AB        -0.1290
     22 H          22.4090  -14.7327    7.6227 H         1 5AB         0.0242
     23 H          23.1876  -15.5903    6.1506 H         1 5AB         0.0242
     24 H          27.9620  -13.2636    7.7337 H         1 5AB        -0.1290
     25 H          25.2127  -15.5852    7.1290 H         1 5AB        -0.0084
     26 H          24.4926  -15.0331    8.7612 H         1 5AB        -0.0084
     27 H          24.8497  -13.3737    6.2704 H         1 5AB        -0.2101
     28 H          24.1630  -12.8472    7.8268 H         1 5AB        -0.2101
     29 H          21.7058  -19.3871    7.7911 H         1 5AB         0.0280
     30 H          20.8464  -18.4477    9.0361 H         1 5AB         0.0280
     31 H          19.9754  -19.0172    7.5910 H         1 5AB         0.0280
@<TRIPOS>BOND
     1    1    6 1  
     2    1    8 1  
     3    1   10 1  
     4    2    3 1  
     5    2    5 1  
     6    7    2 1  
     7    2   14 1  
     8    5    4 ar 
     9    5   12 ar 
    10    9    7 1  
    11   11    9 1  
    12   13   11 1  
    13    3   15 1  
    14    3   16 1  
    15    3   17 1  
    16    6   18 1  
    17    7   19 1  
    18    7   20 1  
    19    8   21 1  
    20    9   22 1  
    21    9   23 1  
    22   10   24 1  
    23   11   25 1  
    24   11   26 1  
    25   13   27 1  
    26   13   28 1  
    27    1   13 du 
    28   14   29 1  
    29   14   30 1  
    30   14   31 1  
@<TRIPOS>SUBSTRUCTURE
     1 5AB         1

