3sjt_ligand
  -I-interpret- 

 32 31  0  0  0  0  0  0  0  0999 V2000
   26.1880  -13.1650    7.0090 B   0  0  0  0  0
   21.2870  -17.3560    7.2430 C   0  0  0  0  0
   21.3700  -17.6080    5.8140 N   0  3  0  0  0
   20.0010  -15.8600    8.5410 O   0  0  0  0  0
   20.1890  -16.3220    7.4640 C   0  0  0  0  0
   26.5420  -13.7610    5.8190 O   0  0  0  0  0
   22.6200  -16.8190    7.7580 C   0  0  0  0  0
   26.2920  -11.7980    6.8620 O   0  0  0  0  0
   23.1140  -15.4660    7.2310 C   0  0  0  0  0
   27.0780  -13.5420    7.9840 O   0  0  0  0  0
   24.4960  -14.9700    7.6730 C   0  0  0  0  0
   19.4560  -15.8740    6.3520 O   0  0  0  0  0
   24.8740  -13.5220    7.3500 C   0  0  0  0  0
   20.9280  -18.6440    7.9670 C   0  0  0  0  0
   20.4750  -17.9661    5.4806 H   0  0  0  0  0
   21.5916  -16.7385    5.3289 H   0  0  0  0  0
   22.1014  -18.2956    5.6331 H   0  0  0  0  0
   25.9217  -13.4996    5.1345 H   0  0  0  0  0
   23.3658  -17.5431    7.4298 H   0  0  0  0  0
   22.4749  -16.6731    8.8284 H   0  0  0  0  0
   25.6795  -11.5026    6.1844 H   0  0  0  0  0
   22.4090  -14.7327    7.6227 H   0  0  0  0  0
   23.1876  -15.5903    6.1506 H   0  0  0  0  0
   27.0292  -14.4924    8.1101 H   0  0  0  0  0
   25.2127  -15.5852    7.1290 H   0  0  0  0  0
   24.4926  -15.0331    8.7612 H   0  0  0  0  0
   19.7376  -16.3543    5.5699 H   0  0  0  0  0
   24.6949  -12.9917    8.2853 H   0  0  0  0  0
   24.3019  -13.2986    6.4495 H   0  0  0  0  0
   21.7058  -19.3871    7.7911 H   0  0  0  0  0
   20.8464  -18.4477    9.0361 H   0  0  0  0  0
   19.9754  -19.0172    7.5910 H   0  0  0  0  0
  1  6  1  0  0  0
  1  8  1  0  0  0
  1 10  1  0  0  0
  2  3  1  0  0  0
  2  5  1  0  0  0
  7  2  1  0  0  0
  2 14  1  0  0  0
  5  4  2  0  0  0
  5 12  1  0  0  0
  9  7  1  0  0  0
 11  9  1  0  0  0
 13 11  1  0  0  0
  1 13  1  0  0  0
  3 15  1  0  0  0
  3 16  1  0  0  0
  3 17  1  0  0  0
  6 18  1  0  0  0
  7 19  1  0  0  0
  7 20  1  0  0  0
  8 21  1  0  0  0
  9 22  1  0  0  0
  9 23  1  0  0  0
 10 24  1  0  0  0
 11 25  1  0  0  0
 11 26  1  0  0  0
 12 27  1  0  0  0
 13 28  1  0  0  0
 13 29  1  0  0  0
 14 30  1  0  0  0
 14 31  1  0  0  0
 14 32  1  0  0  0
M  END
$$$$
