4pf5_ligand
  -I-interpret- 

 33 34  0  0  0  0  0  0  0  0999 V2000
  -16.3440  -14.6490  -32.0560 C   0  0  0  0  0
  -14.8740  -14.8960  -31.7900 C   0  0  0  0  0
  -14.6840  -16.2730  -31.5280 O   0  0  0  0  0
  -14.0210  -14.4810  -32.9540 C   0  0  0  0  0
  -12.7010  -14.8990  -32.7310 O   0  0  0  0  0
  -14.5390  -15.0280  -34.2690 C   0  0  0  0  0
  -13.8100  -14.4330  -35.3330 O   0  0  0  0  0
  -15.9950  -14.6600  -34.4680 C   0  0  0  0  0
  -16.7720  -15.0200  -33.3750 O   0  0  0  0  0
  -16.5280  -15.4570  -35.6880 C   0  0  0  0  0
  -16.6390  -16.8490  -35.3030 O   0  0  0  0  0
  -18.0120  -11.4500  -31.6300 C   0  0  0  0  0
  -17.6070  -12.5140  -32.4270 C   0  0  0  0  0
  -16.9000  -13.3800  -31.6620 N   0  0  0  0  0
  -16.9110  -12.8810  -30.3970 N   0  0  0  0  0
  -17.5860  -11.6850  -30.3910 N   0  0  0  0  0
  -18.8300  -10.2360  -32.0920 C   0  0  0  0  0
  -19.7340  -10.7550  -33.0590 O   0  0  0  0  0
  -16.7799  -15.3476  -31.3418 H   0  0  0  0  0
  -14.5727  -14.2968  -30.9308 H   0  0  0  0  0
  -15.2308  -16.5344  -30.7835 H   0  0  0  0  0
  -14.0574  -13.3944  -33.0313 H   0  0  0  0  0
  -12.3908  -14.5433  -31.8950 H   0  0  0  0  0
  -14.4266  -16.1121  -34.2555 H   0  0  0  0  0
  -12.8786  -14.6458  -35.2395 H   0  0  0  0  0
  -16.0566  -13.5809  -34.6085 H   0  0  0  0  0
  -15.8451  -15.3539  -36.5313 H   0  0  0  0  0
  -17.5018  -15.0725  -35.9914 H   0  0  0  0  0
  -16.9680  -17.3601  -36.0461 H   0  0  0  0  0
  -17.8221  -12.6319  -33.4891 H   0  0  0  0  0
  -18.1956   -9.4533  -32.5080 H   0  0  0  0  0
  -19.3522   -9.7588  -31.2628 H   0  0  0  0  0
  -20.2840  -10.0437  -33.3954 H   0  0  0  0  0
  1  2  1  0  0  0
  1  9  1  0  0  0
 14  1  1  0  0  0
  2  3  1  0  0  0
  2  4  1  0  0  0
  4  5  1  0  0  0
  4  6  1  0  0  0
  6  7  1  0  0  0
  8  6  1  0  0  0
  9  8  1  0  0  0
  8 10  1  0  0  0
 10 11  1  0  0  0
 13 12  4  0  0  0
 12 16  4  0  0  0
 12 17  1  0  0  0
 13 14  4  0  0  0
 14 15  4  0  0  0
 15 16  4  0  0  0
 17 18  1  0  0  0
  1 19  1  0  0  0
  2 20  1  0  0  0
  3 21  1  0  0  0
  4 22  1  0  0  0
  5 23  1  0  0  0
  6 24  1  0  0  0
  7 25  1  0  0  0
  8 26  1  0  0  0
 10 27  1  0  0  0
 10 28  1  0  0  0
 11 29  1  0  0  0
 13 30  1  0  0  0
 17 31  1  0  0  0
 17 32  1  0  0  0
 18 33  1  0  0  0
M  END
$$$$
