1b46_ligand
  -I-interpret- 

 62 62  0  0  0  0  0  0  0  0999 V2000
    6.7660   16.3870   15.1390 N   0  3  0  0  0
    6.3140   17.7280   14.6600 C   0  0  0  0  0
    5.0830   18.1570   15.4200 C   0  0  0  0  0
    4.1450   17.3810   15.6580 O   0  0  0  0  0
    6.0390   17.6230   13.1280 C   0  0  0  0  0
    5.0770   16.5230   12.6910 C   0  0  0  0  0
    4.9850   16.4040   11.1500 C   0  0  0  0  0
    6.2050   15.7360   10.5340 C   0  0  0  0  0
    6.3720   14.3080   10.9700 N   0  3  0  0  0
    4.9700   19.4160   15.8200 N   0  0  0  0  0
    3.7360   19.9220   16.4280 C   0  0  0  0  0
    2.5470   19.8630   15.4810 C   0  0  0  0  0
    2.6260   20.1430   14.2660 O   0  0  0  0  0
    4.0770   21.3960   16.7230 C   0  0  0  0  0
    5.5800   21.3400   16.8930 C   0  0  0  0  0
    6.0190   20.4540   15.7250 C   0  0  0  0  0
    1.3760   19.5380   16.0320 N   0  0  0  0  0
    0.1360   19.4660   15.3030 C   0  0  0  0  0
   -0.9460   20.2840   16.0330 C   0  0  0  0  0
   -1.9040   20.6800   15.3660 O   0  0  0  0  0
   -0.4030   18.0340   15.1640 C   0  0  0  0  0
   -1.4620   18.0400   14.0310 C   0  0  0  0  0
   -2.1740   16.6980   14.0750 C   0  0  0  0  0
   -3.4740   16.7950   13.2670 C   0  0  0  0  0
   -3.0760   16.7440   11.8380 N   0  3  0  0  0
   -0.7610   20.6360   17.2110 O   0  0  0  0  0
    7.5978   16.1047   14.6206 H   0  0  0  0  0
    6.9852   16.4388   16.1338 H   0  0  0  0  0
    6.0225   15.7052   14.9885 H   0  0  0  0  0
    7.0797   18.4838   14.8352 H   0  0  0  0  0
    6.9969   17.3929   12.6616 H   0  0  0  0  0
    5.5764   18.5659   12.8362 H   0  0  0  0  0
    4.0857   16.7687   13.0718 H   0  0  0  0  0
    5.4456   15.5750   13.0828 H   0  0  0  0  0
    4.9158   17.4123   10.7418 H   0  0  0  0  0
    4.1152   15.7906   10.9148 H   0  0  0  0  0
    7.0867   16.2886   10.8587 H   0  0  0  0  0
    6.0763   15.7408    9.4516 H   0  0  0  0  0
    7.2021   13.9135   10.5275 H   0  0  0  0  0
    6.4768   14.2734   11.9840 H   0  0  0  0  0
    5.5501   13.7710   10.6934 H   0  0  0  0  0
    3.4464   19.3332   17.2984 H   0  0  0  0  0
    3.5574   21.7945   17.5944 H   0  0  0  0  0
    3.7554   22.0802   15.9378 H   0  0  0  0  0
    6.0463   22.3251   16.8775 H   0  0  0  0  0
    5.8834   20.9456   17.8628 H   0  0  0  0  0
    6.0819   20.9592   14.7612 H   0  0  0  0  0
    7.0420   20.0828   15.7869 H   0  0  0  0  0
    1.3580   19.3278   17.0299 H   0  0  0  0  0
    0.3508   19.8582   14.3090 H   0  0  0  0  0
   -0.8506   17.7034   16.1013 H   0  0  0  0  0
    0.4065   17.3445   14.9244 H   0  0  0  0  0
   -0.9866   18.1910   13.0618 H   0  0  0  0  0
   -2.1710   18.8557   14.1723 H   0  0  0  0  0
   -2.4024   16.4370   15.1084 H   0  0  0  0  0
   -1.5324   15.9276   13.6474 H   0  0  0  0  0
   -4.0105   17.7164   13.4936 H   0  0  0  0  0
   -4.1537   15.9800   13.5156 H   0  0  0  0  0
   -3.9086   16.8053   11.2520 H   0  0  0  0  0
   -2.4549   17.5262   11.6312 H   0  0  0  0  0
   -2.5919   15.8656   11.6523 H   0  0  0  0  0
    0.0350   20.2180   17.5474 H   0  0  0  0  0
  2  1  1  0  0  0
  2  5  1  0  0  0
  3  2  1  0  0  0
  3  4  2  0  0  0
  5  6  1  0  0  0
  6  7  1  0  0  0
  7  8  1  0  0  0
  8  9  1  0  0  0
 12 11  1  0  0  0
 11 14  1  0  0  0
 11 10  1  0  0  0
 10 16  1  0  0  0
 16 15  1  0  0  0
 14 15  1  0  0  0
 12 13  2  0  0  0
 10  3  1  0  0  0
 17 18  1  0  0  0
 18 21  1  0  0  0
 18 19  1  0  0  0
 19 20  2  0  0  0
 19 26  1  0  0  0
 21 22  1  0  0  0
 22 23  1  0  0  0
 23 24  1  0  0  0
 24 25  1  0  0  0
 12 17  1  0  0  0
  1 27  1  0  0  0
  1 28  1  0  0  0
  1 29  1  0  0  0
  2 30  1  0  0  0
  5 31  1  0  0  0
  5 32  1  0  0  0
  6 33  1  0  0  0
  6 34  1  0  0  0
  7 35  1  0  0  0
  7 36  1  0  0  0
  8 37  1  0  0  0
  8 38  1  0  0  0
  9 39  1  0  0  0
  9 40  1  0  0  0
  9 41  1  0  0  0
 11 42  1  0  0  0
 14 43  1  0  0  0
 14 44  1  0  0  0
 15 45  1  0  0  0
 15 46  1  0  0  0
 16 47  1  0  0  0
 16 48  1  0  0  0
 17 49  1  0  0  0
 18 50  1  0  0  0
 21 51  1  0  0  0
 21 52  1  0  0  0
 22 53  1  0  0  0
 22 54  1  0  0  0
 23 55  1  0  0  0
 23 56  1  0  0  0
 24 57  1  0  0  0
 24 58  1  0  0  0
 25 59  1  0  0  0
 25 60  1  0  0  0
 25 61  1  0  0  0
 26 62  1  0  0  0
M  END
$$$$
