5e1o_ligand
  -I-interpret- 

115115  0  0  0  0  0  0  0  0999 V2000
    7.9870   35.2380  -16.5260 N   0  3  0  0  0
    7.1200   35.5130  -15.3380 C   0  0  0  0  0
    5.9820   34.5050  -15.2810 C   0  0  0  0  0
    5.6000   33.9510  -16.3200 O   0  0  0  0  0
    6.5530   36.9420  -15.4320 C   0  0  0  0  0
    5.4830   37.1170  -16.4980 C   0  0  0  0  0
    5.3860   38.5460  -17.0000 C   0  0  0  0  0
    4.3890   38.6430  -18.0670 N   0  0  0  0  0
    3.0820   38.7290  -17.8710 C   0  0  0  0  0
    2.5740   38.7590  -16.6500 N   0  0  0  0  0
    2.2720   38.7980  -18.9010 N   0  0  0  0  0
    5.4210   34.2340  -14.0790 N   0  0  0  0  0
    4.2470   33.3430  -14.0280 C   0  0  0  0  0
    3.0440   33.9880  -14.7090 C   0  0  0  0  0
    2.9490   35.1980  -14.6980 O   0  0  0  0  0
    3.9730   33.1710  -12.5270 C   0  0  0  0  0
    4.6460   34.3130  -11.8780 C   0  0  0  0  0
    5.7970   34.7260  -12.7440 C   0  0  0  0  0
    2.1800   33.1920  -15.3260 N   0  0  0  0  0
    1.0840   33.7430  -16.1080 C   0  0  0  0  0
   -0.0080   32.7520  -16.4000 C   0  0  0  0  0
    0.2010   31.5340  -16.4660 O   0  0  0  0  0
    1.6080   34.3690  -17.4320 C   0  0  0  0  0
    2.0430   33.3300  -18.4530 C   0  0  0  0  0
    2.5470   33.9460  -19.7800 C   0  0  0  0  0
    3.8010   34.7730  -19.5970 C   0  0  0  0  0
    4.3410   35.2730  -20.8880 N   0  3  0  0  0
   -1.1960   33.3010  -16.6360 N   0  0  0  0  0
   -2.3750   32.5310  -16.9930 C   0  0  0  0  0
   -2.1140   31.7970  -18.3120 C   0  0  0  0  0
   -1.5040   32.3450  -19.2300 O   0  0  0  0  0
   -3.5810   33.4890  -17.1020 C   0  0  0  0  0
   -4.8830   32.8880  -17.6010 C   0  0  0  0  0
   -5.9420   33.9870  -17.7750 C   0  0  0  0  0
   -6.2970   34.4950  -16.4510 N   0  0  0  0  0
   -7.1420   33.8880  -15.6100 C   0  0  0  0  0
   -7.7640   32.7470  -15.9460 N   0  0  0  0  0
   -7.3690   34.4310  -14.4180 N   0  0  0  0  0
   -2.5380   30.5430  -18.3610 N   0  0  0  0  0
   -2.5060   29.7600  -19.5610 C   0  0  0  0  0
   -3.3640   30.4620  -20.6160 C   0  0  0  0  0
   -4.5530   30.7310  -20.4000 O   0  0  0  0  0
   -3.0150   28.3350  -19.3090 C   0  0  0  0  0
   -2.0000   27.5890  -18.4220 C   0  0  0  0  0
   -3.2570   27.5860  -20.6260 C   0  0  0  0  0
   -2.3920   26.1630  -18.0780 C   0  0  0  0  0
   -2.7290   30.7960  -21.7350 N   0  0  0  0  0
   -3.4160   31.4090  -22.8580 C   0  0  0  0  0
   -4.4150   30.4240  -23.4740 C   0  0  0  0  0
   -4.2290   29.1910  -23.4550 O   0  0  0  0  0
   -2.4070   31.8770  -23.9040 C   0  0  0  0  0
   -5.4520   30.8550  -23.9990 O   0  0  0  0  0
    8.3608   34.2912  -16.4607 H   0  0  0  0  0
    7.4332   35.3282  -17.3778 H   0  0  0  0  0
    8.7560   35.9078  -16.5465 H   0  0  0  0  0
    7.7161   35.4226  -14.4299 H   0  0  0  0  0
    7.3808   37.6005  -15.6951 H   0  0  0  0  0
    6.0910   37.1693  -14.4713 H   0  0  0  0  0
    4.5228   36.8513  -16.0557 H   0  0  0  0  0
    5.7458   36.4818  -17.3439 H   0  0  0  0  0
    6.3563   38.8525  -17.3907 H   0  0  0  0  0
    5.0886   39.1935  -16.1751 H   0  0  0  0  0
    4.7246   38.6445  -19.0302 H   0  0  0  0  0
    1.5653   38.8349  -16.5190 H   0  0  0  0  0
    3.1910   38.7063  -15.8395 H   0  0  0  0  0
    2.6495   38.7853  -19.8485 H   0  0  0  0  0
    4.4237   32.3976  -14.5410 H   0  0  0  0  0
    4.3500   32.2180  -12.1558 H   0  0  0  0  0
    2.9045   33.1585  -12.3119 H   0  0  0  0  0
    5.0030   34.0268  -10.8887 H   0  0  0  0  0
    3.9487   35.1422  -11.7580 H   0  0  0  0  0
    5.9641   35.8030  -12.7289 H   0  0  0  0  0
    6.7457   34.3138  -12.4002 H   0  0  0  0  0
    2.2857   32.1803  -15.2510 H   0  0  0  0  0
    0.6390   34.5203  -15.4868 H   0  0  0  0  0
    2.4785   34.9779  -17.1882 H   0  0  0  0  0
    0.7928   34.9437  -17.8716 H   0  0  0  0  0
    1.1743   32.7141  -18.6857 H   0  0  0  0  0
    2.8686   32.7670  -18.0176 H   0  0  0  0  0
    1.7655   34.6015  -20.1642 H   0  0  0  0  0
    2.7803   33.1287  -20.4624 H   0  0  0  0  0
    4.5591   34.1398  -19.1362 H   0  0  0  0  0
    3.5500   35.6351  -18.9791 H   0  0  0  0  0
    5.1824   35.8224  -20.7132 H   0  0  0  0  0
    4.5693   34.4812  -21.4892 H   0  0  0  0  0
    3.6407   35.8573  -21.3446 H   0  0  0  0  0
   -1.2839   34.3146  -16.5626 H   0  0  0  0  0
   -2.5983   31.7847  -16.2306 H   0  0  0  0  0
   -3.2990   34.2462  -17.8335 H   0  0  0  0  0
   -3.7797   33.8395  -16.0892 H   0  0  0  0  0
   -5.2413   32.1591  -16.8741 H   0  0  0  0  0
   -4.7079   32.4056  -18.5627 H   0  0  0  0  0
   -6.8247   33.5811  -18.2691 H   0  0  0  0  0
   -5.5460   34.7939  -18.3916 H   0  0  0  0  0
   -5.8718   35.3712  -16.1480 H   0  0  0  0  0
   -8.4053   32.3031  -15.2887 H   0  0  0  0  0
   -7.5953   32.3239  -16.8586 H   0  0  0  0  0
   -6.9015   35.2987  -14.1555 H   0  0  0  0  0
   -2.9025   30.1168  -17.5090 H   0  0  0  0  0
   -1.4776   29.6744  -19.9119 H   0  0  0  0  0
   -3.9745   28.3851  -18.7942 H   0  0  0  0  0
   -1.9346   28.1372  -17.4821 H   0  0  0  0  0
   -1.0659   27.5367  -18.9812 H   0  0  0  0  0
   -4.0019   28.1209  -21.2151 H   0  0  0  0  0
   -2.3235   27.5267  -21.1856 H   0  0  0  0  0
   -3.6170   26.5802  -20.4096 H   0  0  0  0  0
   -3.3401   26.1678  -17.5403 H   0  0  0  0  0
   -2.4965   25.5847  -18.9960 H   0  0  0  0  0
   -1.6198   25.7163  -17.4516 H   0  0  0  0  0
   -1.7276   30.6161  -21.8072 H   0  0  0  0  0
   -3.9679   32.2776  -22.4987 H   0  0  0  0  0
   -3.3936   29.0012  -23.0218 H   0  0  0  0  0
   -1.7335   32.6076  -23.4559 H   0  0  0  0  0
   -1.8325   31.0222  -24.2608 H   0  0  0  0  0
   -2.9372   32.3342  -24.7394 H   0  0  0  0  0
  1  2  1  0  0  0
  2  3  1  0  0  0
  2  5  1  0  0  0
  3  4  2  0  0  0
  3 12  1  0  0  0
  5  6  1  0  0  0
  6  7  1  0  0  0
  7  8  1  0  0  0
  8  9  1  0  0  0
  9 10  1  0  0  0
  9 11  2  0  0  0
 12 13  1  0  0  0
 12 18  1  0  0  0
 13 14  1  0  0  0
 13 16  1  0  0  0
 14 15  2  0  0  0
 14 19  1  0  0  0
 16 17  1  0  0  0
 17 18  1  0  0  0
 19 20  1  0  0  0
 20 21  1  0  0  0
 20 23  1  0  0  0
 21 22  2  0  0  0
 21 28  1  0  0  0
 23 24  1  0  0  0
 24 25  1  0  0  0
 25 26  1  0  0  0
 26 27  1  0  0  0
 28 29  1  0  0  0
 29 30  1  0  0  0
 29 32  1  0  0  0
 30 31  2  0  0  0
 30 39  1  0  0  0
 32 33  1  0  0  0
 33 34  1  0  0  0
 34 35  1  0  0  0
 35 36  1  0  0  0
 36 37  1  0  0  0
 36 38  2  0  0  0
 39 40  1  0  0  0
 40 41  1  0  0  0
 40 43  1  0  0  0
 41 42  2  0  0  0
 41 47  1  0  0  0
 43 44  1  0  0  0
 43 45  1  0  0  0
 44 46  1  0  0  0
 47 48  1  0  0  0
 48 49  1  0  0  0
 48 51  1  0  0  0
 49 50  1  0  0  0
 49 52  2  0  0  0
  1 53  1  0  0  0
  1 54  1  0  0  0
  1 55  1  0  0  0
  2 56  1  0  0  0
  5 57  1  0  0  0
  5 58  1  0  0  0
  6 59  1  0  0  0
  6 60  1  0  0  0
  7 61  1  0  0  0
  7 62  1  0  0  0
  8 63  1  0  0  0
 10 64  1  0  0  0
 10 65  1  0  0  0
 11 66  1  0  0  0
 13 67  1  0  0  0
 16 68  1  0  0  0
 16 69  1  0  0  0
 17 70  1  0  0  0
 17 71  1  0  0  0
 18 72  1  0  0  0
 18 73  1  0  0  0
 19 74  1  0  0  0
 20 75  1  0  0  0
 23 76  1  0  0  0
 23 77  1  0  0  0
 24 78  1  0  0  0
 24 79  1  0  0  0
 25 80  1  0  0  0
 25 81  1  0  0  0
 26 82  1  0  0  0
 26 83  1  0  0  0
 27 84  1  0  0  0
 27 85  1  0  0  0
 27 86  1  0  0  0
 28 87  1  0  0  0
 29 88  1  0  0  0
 32 89  1  0  0  0
 32 90  1  0  0  0
 33 91  1  0  0  0
 33 92  1  0  0  0
 34 93  1  0  0  0
 34 94  1  0  0  0
 35 95  1  0  0  0
 37 96  1  0  0  0
 37 97  1  0  0  0
 38 98  1  0  0  0
 39 99  1  0  0  0
 40100  1  0  0  0
 43101  1  0  0  0
 44102  1  0  0  0
 44103  1  0  0  0
 45104  1  0  0  0
 45105  1  0  0  0
 45106  1  0  0  0
 46107  1  0  0  0
 46108  1  0  0  0
 46109  1  0  0  0
 47110  1  0  0  0
 48111  1  0  0  0
 50112  1  0  0  0
 51113  1  0  0  0
 51114  1  0  0  0
 51115  1  0  0  0
M  END
$$$$
