### 
### Created by X-TOOL on Mon Sep 10 21:13:20 2018
### 

@<TRIPOS>MOLECULE
5e1o_ligand
  116   116     1     0     0
SMALL
GAST_HUCK


@<TRIPOS>ATOM
      1 N           7.9870   35.2380  -16.5260 N.4       1 ARG         0.2379
      2 CA          7.1200   35.5130  -15.3380 C.3       1 ARG         0.0653
      3 C           5.9820   34.5050  -15.2810 C.2       1 ARG         0.2292
      4 O           5.6000   33.9510  -16.3200 O.2       1 ARG        -0.3905
      5 CB          6.5530   36.9420  -15.4320 C.3       1 ARG         0.0110
      6 CG          5.4830   37.1170  -16.4980 C.3       1 ARG        -0.0125
      7 CD          5.3860   38.5460  -17.0000 C.3       1 ARG         0.0629
      8 NE          4.3890   38.6430  -18.0670 N.pl3     1 ARG        -0.2723
      9 CZ          3.0820   38.7290  -17.8710 C.cat     1 ARG         0.2882
     10 NH1         2.5740   38.7590  -16.6500 N.pl3     1 ARG        -0.2849
     11 NH2         2.2720   38.7980  -18.9010 N.pl3     1 ARG        -0.2849
     12 N           5.4210   34.2340  -14.0790 N.am      1 PRO        -0.2471
     13 CA          4.2470   33.3430  -14.0280 C.3       1 PRO         0.1339
     14 C           3.0440   33.9880  -14.7090 C.2       1 PRO         0.2041
     15 O           2.9490   35.1980  -14.6980 O.2       1 PRO        -0.3944
     16 CB          3.9730   33.1710  -12.5270 C.3       1 PRO        -0.0104
     17 CG          4.6460   34.3130  -11.8780 C.3       1 PRO        -0.0281
     18 CD          5.7970   34.7260  -12.7440 C.3       1 PRO         0.0371
     19 N           2.1800   33.1920  -15.3260 N.am      1 LYS        -0.2637
     20 CA          1.0840   33.7430  -16.1080 C.3       1 LYS         0.1310
     21 C          -0.0080   32.7520  -16.4000 C.2       1 LYS         0.2039
     22 O           0.2010   31.5340  -16.4660 O.2       1 LYS        -0.3944
     23 CB          1.6080   34.3690  -17.4320 C.3       1 LYS        -0.0122
     24 CG          2.0430   33.3300  -18.4530 C.3       1 LYS        -0.0440
     25 CD          2.5470   33.9460  -19.7800 C.3       1 LYS        -0.0124
     26 CE          3.8010   34.7730  -19.5970 C.3       1 LYS        -0.0354
     27 NZ          4.3410   35.2730  -20.8880 N.4       1 LYS         0.2185
     28 N          -1.1960   33.3010  -16.6360 N.am      1 ARG        -0.2637
     29 CA         -2.3750   32.5310  -16.9930 C.3       1 ARG         0.1311
     30 C          -2.1140   31.7970  -18.3120 C.2       1 ARG         0.2039
     31 O          -1.5040   32.3450  -19.2300 O.2       1 ARG        -0.3944
     32 CB         -3.5810   33.4890  -17.1020 C.3       1 ARG        -0.0092
     33 CG         -4.8830   32.8880  -17.6010 C.3       1 ARG        -0.0156
     34 CD         -5.9420   33.9870  -17.7750 C.3       1 ARG         0.0627
     35 NE         -6.2970   34.4950  -16.4510 N.pl3     1 ARG        -0.2723
     36 CZ         -7.1420   33.8880  -15.6100 C.cat     1 ARG         0.2882
     37 NH1        -7.7640   32.7470  -15.9460 N.pl3     1 ARG        -0.2849
     38 NH2        -7.3690   34.4310  -14.4180 N.pl3     1 ARG        -0.2849
     39 N          -2.5380   30.5430  -18.3610 N.am      1 ILE        -0.2635
     40 CA         -2.5060   29.7600  -19.5610 C.3       1 ILE         0.1335
     41 C          -3.3640   30.4620  -20.6160 C.2       1 ILE         0.2036
     42 O          -4.5530   30.7310  -20.4000 O.2       1 ILE        -0.3944
     43 CB         -3.0150   28.3350  -19.3090 C.3       1 ILE        -0.0037
     44 CG1        -2.0000   27.5890  -18.4220 C.3       1 ILE        -0.0491
     45 CG2        -3.2570   27.5860  -20.6260 C.3       1 ILE        -0.0582
     46 CD1        -2.3920   26.1630  -18.0780 C.3       1 ILE        -0.0648
     47 N          -2.7290   30.7960  -21.7350 N.am      1 ALA        -0.2697
     48 CA         -3.4160   31.4090  -22.8580 C.3       1 ALA         0.0916
     49 C          -4.4150   30.4240  -23.4740 C.2       1 ALA         0.0598
     50 O          -4.2290   29.1910  -23.4550 O.co2     1 ALA        -0.5666
     51 CB         -2.4070   31.8770  -23.9040 C.3       1 ALA        -0.0300
     52 OXT        -5.4520   30.8550  -23.9990 O.co2     1 ALA        -0.5666
     53 H1          8.7380   35.9097  -16.5565 H         1 ARG         0.2015
     54 H2          7.4369   35.3107  -17.3675 H         1 ARG         0.2015
     55 H3          8.3703   34.3085  -16.4543 H         1 ARG         0.2015
     56 H4          7.7240   35.4246  -14.4229 H         1 ARG         0.1098
     57 H5          7.3821   37.6283  -15.6591 H         1 ARG         0.0347
     58 H6          6.1158   37.2049  -14.4575 H         1 ARG         0.0347
     59 H7          4.5111   36.8266  -16.0724 H         1 ARG         0.0302
     60 H8          5.7220   36.4608  -17.3478 H         1 ARG         0.0302
     61 H9          6.3655   38.8613  -17.3889 H         1 ARG         0.0689
     62 H10         5.0926   39.2036  -16.1685 H         1 ARG         0.0689
     63 H11         4.7279   38.6445  -19.0396 H         1 ARG         0.2642
     64 H12         1.5547   38.8261  -16.5178 H         1 ARG         0.2615
     65 H13         3.1977   38.7152  -15.8315 H         1 ARG         0.2615
     66 H14         2.6526   38.7758  -19.8579 H         1 ARG         0.2615
     67 H15         1.2556   38.8743  -18.7527 H         1 ARG         0.2615
     68 H16         4.4677   32.3757  -14.5030 H         1 PRO         0.0802
     69 H17         4.3912   32.2202  -12.1649 H         1 PRO         0.0313
     70 H18         2.8917   33.1959  -12.3268 H         1 PRO         0.0313
     71 H19         5.0142   34.0143  -10.8854 H         1 PRO         0.0287
     72 H20         3.9405   35.1501  -11.7708 H         1 PRO         0.0287
     73 H21         5.9132   35.8198  -12.7471 H         1 PRO         0.0524
     74 H22         6.7325   34.2588  -12.4026 H         1 PRO         0.0524
     75 H23         2.2837   32.2001  -15.2524 H         1 LYS         0.1883
     76 H24         0.6369   34.5509  -15.5102 H         1 LYS         0.0800
     77 H25         2.4695   35.0118  -17.1982 H         1 LYS         0.0312
     78 H26         0.8051   34.9780  -17.8729 H         1 LYS         0.0312
     79 H27         1.1849   32.6785  -18.6748 H         1 LYS         0.0269
     80 H28         2.8553   32.7306  -18.0162 H         1 LYS         0.0269
     81 H29         1.7567   34.5906  -20.1920 H         1 LYS         0.0317
     82 H30         2.7620   33.1316  -20.4875 H         1 LYS         0.0317
     83 H31         4.5669   34.1511  -19.1105 H         1 LYS         0.0813
     84 H32         3.5659   35.6345  -18.9547 H         1 LYS         0.0813
     85 H33         5.1726   35.8162  -20.7165 H         1 LYS         0.1994
     86 H34         3.6497   35.8507  -21.3402 H         1 LYS         0.1994
     87 H35         4.5670   34.4914  -21.4830 H         1 LYS         0.1994
     88 H36        -1.2822   34.2947  -16.5640 H         1 ARG         0.1883
     89 H37        -2.5792   31.7887  -16.2073 H         1 ARG         0.0800
     90 H38        -3.3020   34.2999  -17.7909 H         1 ARG         0.0313
     91 H39        -3.7677   33.9059  -16.1013 H         1 ARG         0.0313
     92 H40        -5.2442   32.1474  -16.8723 H         1 ARG         0.0301
     93 H41        -4.7084   32.3952  -18.5688 H         1 ARG         0.0301
     94 H42        -6.8341   33.5699  -18.2649 H         1 ARG         0.0689
     95 H43        -5.5340   34.8030  -18.3895 H         1 ARG         0.0689
     96 H44        -5.8676   35.3798  -16.1450 H         1 ARG         0.2642
     97 H45        -8.4104   32.2979  -15.2816 H         1 ARG         0.2615
     98 H46        -7.5949   32.3205  -16.8682 H         1 ARG         0.2615
     99 H47        -6.8958   35.3064  -14.1523 H         1 ARG         0.2615
    100 H48        -8.0181   33.9763  -13.7601 H         1 ARG         0.2615
    101 H49        -2.8954   30.1252  -17.5257 H         1 ILE         0.1883
    102 H50        -1.4686   29.7012  -19.9221 H         1 ILE         0.0803
    103 H51        -3.9721   28.3961  -18.7703 H         1 ILE         0.0345
    104 H52        -1.8871   28.1502  -17.4827 H         1 ILE         0.0267
    105 H53        -1.0361   27.5620  -18.9512 H         1 ILE         0.0267
    106 H54        -3.9843   28.1421  -21.2358 H         1 ILE         0.0235
    107 H55        -3.6514   26.5821  -20.4098 H         1 ILE         0.0235
    108 H56        -2.3090   27.4968  -21.1767 H         1 ILE         0.0235
    109 H57        -1.6135   25.7111  -17.4458 H         1 ILE         0.0230
    110 H58        -2.4977   25.5783  -19.0037 H         1 ILE         0.0230
    111 H59        -3.3487   26.1665  -17.5352 H         1 ILE         0.0230
    112 H60        -1.7472   30.6196  -21.8057 H         1 ALA         0.1875
    113 H61        -3.9711   32.2854  -22.4923 H         1 ALA         0.0723
    114 H62        -2.9409   32.3386  -24.7477 H         1 ALA         0.0270
    115 H63        -1.8265   31.0152  -24.2649 H         1 ALA         0.0270
    116 H64        -1.7267   32.6144  -23.4531 H         1 ALA         0.0270
@<TRIPOS>BOND
     1    1    2 1  
     2    2    3 1  
     3    2    5 1  
     4    3    4 2  
     5    3   12 am 
     6    5    6 1  
     7    6    7 1  
     8    7    8 1  
     9    8    9 ar 
    10    9   10 ar 
    11    9   11 ar 
    12   12   13 1  
    13   12   18 1  
    14   13   14 1  
    15   13   16 1  
    16   14   15 2  
    17   14   19 am 
    18   16   17 1  
    19   17   18 1  
    20   19   20 1  
    21   20   21 1  
    22   20   23 1  
    23   21   22 2  
    24   21   28 am 
    25   23   24 1  
    26   24   25 1  
    27   25   26 1  
    28   26   27 1  
    29   28   29 1  
    30   29   30 1  
    31   29   32 1  
    32   30   31 2  
    33   30   39 am 
    34   32   33 1  
    35   33   34 1  
    36   34   35 1  
    37   35   36 ar 
    38   36   37 ar 
    39   36   38 ar 
    40   39   40 1  
    41   40   41 1  
    42   40   43 1  
    43   41   42 2  
    44   41   47 am 
    45   43   44 1  
    46   43   45 1  
    47   44   46 1  
    48   47   48 1  
    49   48   49 1  
    50   48   51 1  
    51   49   50 ar 
    52   49   52 ar 
    53    1   53 1  
    54    1   54 1  
    55    1   55 1  
    56    2   56 1  
    57    5   57 1  
    58    5   58 1  
    59    6   59 1  
    60    6   60 1  
    61    7   61 1  
    62    7   62 1  
    63    8   63 1  
    64   10   64 1  
    65   10   65 1  
    66   11   66 1  
    67   11   67 1  
    68   13   68 1  
    69   16   69 1  
    70   16   70 1  
    71   17   71 1  
    72   17   72 1  
    73   18   73 1  
    74   18   74 1  
    75   19   75 1  
    76   20   76 1  
    77   23   77 1  
    78   23   78 1  
    79   24   79 1  
    80   24   80 1  
    81   25   81 1  
    82   25   82 1  
    83   26   83 1  
    84   26   84 1  
    85   27   85 1  
    86   27   86 1  
    87   27   87 1  
    88   28   88 1  
    89   29   89 1  
    90   32   90 1  
    91   32   91 1  
    92   33   92 1  
    93   33   93 1  
    94   34   94 1  
    95   34   95 1  
    96   35   96 1  
    97   37   97 1  
    98   37   98 1  
    99   38   99 1  
   100   38  100 1  
   101   39  101 1  
   102   40  102 1  
   103   43  103 1  
   104   44  104 1  
   105   44  105 1  
   106   45  106 1  
   107   45  107 1  
   108   45  108 1  
   109   46  109 1  
   110   46  110 1  
   111   46  111 1  
   112   47  112 1  
   113   48  113 1  
   114   51  114 1  
   115   51  115 1  
   116   51  116 1  
@<TRIPOS>SUBSTRUCTURE
     1 ARG         1

