### 
### Created by X-TOOL on Mon Sep 10 21:13:02 2018
### 

@<TRIPOS>MOLECULE
2wp1_ligand
  125   125     1     0     0
SMALL
GAST_HUCK


@<TRIPOS>ATOM
      1 N          -5.4600    4.6300  -29.9230 N.4       1 ALA         0.2377
      2 CA         -6.7840    3.9950  -30.1890 C.3       1 ALA         0.0623
      3 C          -7.9280    4.9790  -29.9340 C.2       1 ALA         0.2289
      4 O          -7.8710    5.7910  -29.0080 O.2       1 ALA        -0.3905
      5 CB         -6.9530    2.7540  -29.3100 C.3       1 ALA        -0.0040
      6 N          -8.9830    4.9240  -30.7630 N.am      1 PRO        -0.2471
      7 CA        -10.1340    5.8200  -30.6090 C.3       1 PRO         0.1339
      8 C         -10.9120    5.5540  -29.3200 C.2       1 PRO         0.2041
      9 O         -10.8590    4.4570  -28.7580 O.2       1 PRO        -0.3944
     10 CB        -10.9770    5.5190  -31.8470 C.3       1 PRO        -0.0104
     11 CG         -9.9750    5.0310  -32.8380 C.3       1 PRO        -0.0281
     12 CD         -9.0970    4.1450  -32.0060 C.3       1 PRO         0.0371
     13 N         -11.6280    6.5720  -28.8560 N.am      1 ARG        -0.2637
     14 CA        -12.4360    6.4620  -27.6500 C.3       1 ARG         0.1311
     15 C         -13.6400    7.3850  -27.7550 C.2       1 ARG         0.2039
     16 O         -13.5120    8.5730  -28.0580 O.2       1 ARG        -0.3944
     17 CB        -11.6120    6.8030  -26.4000 C.3       1 ARG        -0.0092
     18 CG        -10.5670    5.7510  -26.0480 C.3       1 ARG        -0.0156
     19 CD         -9.8340    6.0910  -24.7610 C.3       1 ARG         0.0627
     20 NE        -10.6990    6.0170  -23.5850 N.pl3     1 ARG        -0.2723
     21 CZ        -10.2700    6.1390  -22.3310 C.cat     1 ARG         0.2882
     22 NH1        -8.9820    6.3440  -22.0840 N.pl3     1 ARG        -0.2849
     23 NH2       -11.1250    6.0410  -21.3190 N.pl3     1 ARG        -0.2849
     24 OH        -20.8520    2.4910  -26.9230 O.2       1 ALY        -0.3974
     25 CH        -21.6380    3.4360  -27.0360 C.2       1 ALY         0.1729
     26 CH3       -23.1300    3.2340  -26.8620 C.3       1 ALY         0.0256
     27 NZ        -21.2570    4.6790  -27.3090 N.am      1 ALY        -0.2872
     28 CE        -19.8770    5.1080  -27.5070 C.3       1 ALY         0.0309
     29 CD        -19.4960    6.1230  -26.4400 C.3       1 ALY        -0.0325
     30 CG        -18.5230    7.1710  -26.9560 C.3       1 ALY        -0.0470
     31 CB        -17.2090    6.5440  -27.3410 C.3       1 ALY        -0.0123
     32 CA        -16.0710    7.5330  -27.5760 C.3       1 ALY         0.1310
     33 N         -14.8120    6.8110  -27.5180 N.am      1 ALY        -0.2637
     34 C         -16.1180    8.6570  -26.5410 C.2       1 ALY         0.2039
     35 O         -15.7080    8.4750  -25.3960 O.2       1 ALY        -0.3944
     36 N         -16.6170    9.8190  -26.9490 N.am      1 GLN        -0.2636
     37 CA        -16.7100   10.9650  -26.0470 C.3       1 GLN         0.1330
     38 C         -18.1560   11.4110  -25.8620 C.2       1 GLN         0.2040
     39 O         -18.7270   12.0890  -26.7150 O.2       1 GLN        -0.3944
     40 CB        -15.8730   12.1340  -26.5820 C.3       1 GLN         0.0045
     41 CG        -14.3800   11.8490  -26.6700 C.3       1 GLN         0.0412
     42 CD        -13.7740   11.4960  -25.3250 C.2       1 GLN         0.1737
     43 OE1       -13.9130   12.2450  -24.3570 O.2       1 GLN        -0.3973
     44 NE2       -13.0920   10.3540  -25.2570 N.am      1 GLN        -0.3009
     45 N         -18.7400   11.0270  -24.7360 N.am      1 LEU        -0.2637
     46 CA        -20.1190   11.3770  -24.4310 C.3       1 LEU         0.1312
     47 C         -20.2190   12.8600  -24.1090 C.2       1 LEU         0.2039
     48 O         -19.8380   13.2900  -23.0180 O.2       1 LEU        -0.3944
     49 CB        -20.6070   10.5520  -23.2410 C.3       1 LEU        -0.0101
     50 CG        -20.5410    9.0370  -23.4310 C.3       1 LEU        -0.0425
     51 CD1       -20.8290    8.3500  -22.1120 C.3       1 LEU        -0.0625
     52 CD2       -21.5340    8.6070  -24.5000 C.3       1 LEU        -0.0625
     53 N         -20.7290   13.6370  -25.0600 N.am      1 ALA        -0.2640
     54 CA        -20.8750   15.0790  -24.8780 C.3       1 ALA         0.1279
     55 C         -19.7020   15.6700  -24.0880 C.2       1 ALA         0.1989
     56 O         -19.9560   16.2740  -23.0230 O.2       1 ALA        -0.3947
     57 CB        -22.1910   15.3780  -24.1650 C.3       1 ALA        -0.0244
     58 N         -18.5420   15.5170  -24.5380 N.am      1 THR        -0.2990
     59 H1         -4.7257    3.9620  -30.0982 H         1 ALA         0.2015
     60 H2         -5.4185    4.9305  -28.9617 H         1 ALA         0.2015
     61 H3         -5.3414    5.4264  -30.5294 H         1 ALA         0.2015
     62 H4         -6.8178    3.6870  -31.2445 H         1 ALA         0.1095
     63 H5         -7.9307    2.2921  -29.5119 H         1 ALA         0.0310
     64 H6         -6.8966    3.0446  -28.2506 H         1 ALA         0.0310
     65 H7         -6.1533    2.0332  -29.5356 H         1 ALA         0.0310
     66 H8         -9.8050    6.8696  -30.6123 H         1 PRO         0.0802
     67 H9        -11.4801    6.4270  -32.2108 H         1 PRO         0.0313
     68 H10       -11.7281    4.7444  -31.6328 H         1 PRO         0.0313
     69 H11        -9.4027    5.8661  -33.2682 H         1 PRO         0.0287
     70 H12       -10.4596    4.4637  -33.6463 H         1 PRO         0.0287
     71 H13        -9.5688    3.1679  -31.8255 H         1 PRO         0.0524
     72 H14        -8.1146    3.9962  -32.4780 H         1 PRO         0.0524
     73 H15       -11.6115    7.4410  -29.3505 H         1 ARG         0.1883
     74 H16       -12.7922    5.4252  -27.5601 H         1 ARG         0.0800
     75 H17       -12.3003    6.9070  -25.5483 H         1 ARG         0.0313
     76 H18       -11.0969    7.7592  -26.5741 H         1 ARG         0.0313
     77 H19        -9.8361    5.6872  -26.8676 H         1 ARG         0.0301
     78 H20       -11.0674    4.7790  -25.9264 H         1 ARG         0.0301
     79 H21        -9.4360    7.1133  -24.8418 H         1 ARG         0.0689
     80 H22        -9.0023    5.3828  -24.6316 H         1 ARG         0.0689
     81 H23       -11.7057    5.8603  -23.7366 H         1 ARG         0.2642
     82 H24        -8.6525    6.4381  -21.1127 H         1 ARG         0.2615
     83 H25        -8.3121    6.4090  -22.8637 H         1 ARG         0.2615
     84 H26       -12.1257    5.8820  -21.5038 H         1 ARG         0.2615
     85 H27       -10.7872    6.1241  -20.3495 H         1 ARG         0.2615
     86 H28       -23.6487    4.1939  -27.0020 H         1 ALY         0.0467
     87 H29       -23.3328    2.8518  -25.8507 H         1 ALY         0.0467
     88 H30       -23.4914    2.5099  -27.6070 H         1 ALY         0.0467
     89 H31       -21.9716    5.3744  -27.3846 H         1 ALY         0.1850
     90 H32       -19.7764    5.5678  -28.5012 H         1 ALY         0.0520
     91 H33       -19.2097    4.2363  -27.4369 H         1 ALY         0.0520
     92 H34       -19.0284    5.5915  -25.5981 H         1 ALY         0.0285
     93 H35       -20.4086    6.6294  -26.0926 H         1 ALY         0.0285
     94 H36       -18.3478    7.9183  -26.1680 H         1 ALY         0.0268
     95 H37       -18.9588    7.6633  -27.8379 H         1 ALY         0.0268
     96 H38       -17.3617    5.9719  -28.2680 H         1 ALY         0.0312
     97 H39       -16.9067    5.8605  -26.5339 H         1 ALY         0.0312
     98 H40       -16.1811    7.9759  -28.5769 H         1 ALY         0.0800
     99 H41       -14.8296    5.8377  -27.2892 H         1 ALY         0.1883
    100 H42       -16.9354    9.9111  -27.8925 H         1 GLN         0.1883
    101 H43       -16.3102   10.6663  -25.0667 H         1 GLN         0.0801
    102 H44       -16.0200   12.9962  -25.9150 H         1 GLN         0.0337
    103 H45       -16.2356   12.3841  -27.5899 H         1 GLN         0.0337
    104 H46       -13.8729   12.7433  -27.0612 H         1 GLN         0.0504
    105 H47       -14.2220   11.0067  -27.3597 H         1 GLN         0.0504
    106 H48       -12.6718   10.0732  -24.3941 H         1 GLN         0.1814
    107 H49       -13.0002    9.7773  -26.0688 H         1 GLN         0.1814
    108 H50       -18.2192   10.4823  -24.0786 H         1 LEU         0.1883
    109 H51       -20.7487   11.1559  -25.3054 H         1 LEU         0.0800
    110 H52       -21.6541   10.8252  -23.0435 H         1 LEU         0.0315
    111 H53       -19.9892   10.8132  -22.3692 H         1 LEU         0.0315
    112 H54       -19.5282    8.7611  -23.7597 H         1 LEU         0.0298
    113 H55       -20.7815    7.2595  -22.2485 H         1 LEU         0.0232
    114 H56       -21.8332    8.6324  -21.7630 H         1 LEU         0.0232
    115 H57       -20.0814    8.6590  -21.3667 H         1 LEU         0.0232
    116 H58       -21.3011    9.1204  -25.4445 H         1 LEU         0.0232
    117 H59       -22.5532    8.8706  -24.1811 H         1 LEU         0.0232
    118 H60       -21.4658    7.5191  -24.6476 H         1 LEU         0.0232
    119 H61       -21.0203   13.2232  -25.9225 H         1 ALA         0.1883
    120 H62       -20.8967   15.5531  -25.8703 H         1 ALA         0.0797
    121 H63       -22.2964   16.4646  -24.0303 H         1 ALA         0.0277
    122 H64       -22.1958   14.8845  -23.1819 H         1 ALA         0.0277
    123 H65       -23.0293   15.0004  -24.7689 H         1 ALA         0.0277
    124 H66       -17.7595   15.8929  -24.0416 H         1 THR         0.1815
    125 H67       -18.3992   15.0190  -25.3934 H         1 THR         0.1815
@<TRIPOS>BOND
     1    2    1 1  
     2    3    2 1  
     3    2    5 1  
     4    3    4 2  
     5    6    3 am 
     6    7    6 1  
     7    6   12 1  
     8    8    7 1  
     9    7   10 1  
    10    8    9 2  
    11   13    8 am 
    12   10   11 1  
    13   11   12 1  
    14   14   13 1  
    15   15   14 1  
    16   14   17 1  
    17   15   16 2  
    18   33   15 am 
    19   17   18 1  
    20   18   19 1  
    21   19   20 1  
    22   20   21 ar 
    23   21   22 ar 
    24   21   23 ar 
    25   25   24 2  
    26   25   26 1  
    27   27   25 am 
    28   28   27 1  
    29   29   28 1  
    30   30   29 1  
    31   31   30 1  
    32   32   31 1  
    33   32   33 1  
    34   32   34 1  
    35   34   35 2  
    36   34   36 am 
    37   36   37 1  
    38   37   38 1  
    39   37   40 1  
    40   38   39 2  
    41   38   45 am 
    42   40   41 1  
    43   41   42 1  
    44   42   43 2  
    45   42   44 am 
    46   45   46 1  
    47   46   47 1  
    48   46   49 1  
    49   47   48 2  
    50   47   53 am 
    51   49   50 1  
    52   50   51 1  
    53   50   52 1  
    54   53   54 1  
    55   54   55 1  
    56   54   57 1  
    57   55   56 2  
    58   55   58 am 
    59    1   59 1  
    60    1   60 1  
    61    1   61 1  
    62    2   62 1  
    63    5   63 1  
    64    5   64 1  
    65    5   65 1  
    66    7   66 1  
    67   10   67 1  
    68   10   68 1  
    69   11   69 1  
    70   11   70 1  
    71   12   71 1  
    72   12   72 1  
    73   13   73 1  
    74   14   74 1  
    75   17   75 1  
    76   17   76 1  
    77   18   77 1  
    78   18   78 1  
    79   19   79 1  
    80   19   80 1  
    81   20   81 1  
    82   22   82 1  
    83   22   83 1  
    84   23   84 1  
    85   23   85 1  
    86   26   86 1  
    87   26   87 1  
    88   26   88 1  
    89   27   89 1  
    90   28   90 1  
    91   28   91 1  
    92   29   92 1  
    93   29   93 1  
    94   30   94 1  
    95   30   95 1  
    96   31   96 1  
    97   31   97 1  
    98   32   98 1  
    99   33   99 1  
   100   36  100 1  
   101   37  101 1  
   102   40  102 1  
   103   40  103 1  
   104   41  104 1  
   105   41  105 1  
   106   44  106 1  
   107   44  107 1  
   108   45  108 1  
   109   46  109 1  
   110   49  110 1  
   111   49  111 1  
   112   50  112 1  
   113   51  113 1  
   114   51  114 1  
   115   51  115 1  
   116   52  116 1  
   117   52  117 1  
   118   52  118 1  
   119   53  119 1  
   120   54  120 1  
   121   57  121 1  
   122   57  122 1  
   123   57  123 1  
   124   58  124 1  
   125   58  125 1  
@<TRIPOS>SUBSTRUCTURE
     1 ALA         1

