2wp1_ligand
  -I-interpret- 

124124  0  0  0  0  0  0  0  0999 V2000
   -5.4600    4.6300  -29.9230 N   0  3  0  0  0
   -6.7840    3.9950  -30.1890 C   0  0  0  0  0
   -7.9280    4.9790  -29.9340 C   0  0  0  0  0
   -7.8710    5.7910  -29.0080 O   0  0  0  0  0
   -6.9530    2.7540  -29.3100 C   0  0  0  0  0
   -8.9830    4.9240  -30.7630 N   0  0  0  0  0
  -10.1340    5.8200  -30.6090 C   0  0  0  0  0
  -10.9120    5.5540  -29.3200 C   0  0  0  0  0
  -10.8590    4.4570  -28.7580 O   0  0  0  0  0
  -10.9770    5.5190  -31.8470 C   0  0  0  0  0
   -9.9750    5.0310  -32.8380 C   0  0  0  0  0
   -9.0970    4.1450  -32.0060 C   0  0  0  0  0
  -11.6280    6.5720  -28.8560 N   0  0  0  0  0
  -12.4360    6.4620  -27.6500 C   0  0  0  0  0
  -13.6400    7.3850  -27.7550 C   0  0  0  0  0
  -13.5120    8.5730  -28.0580 O   0  0  0  0  0
  -11.6120    6.8030  -26.4000 C   0  0  0  0  0
  -10.5670    5.7510  -26.0480 C   0  0  0  0  0
   -9.8340    6.0910  -24.7610 C   0  0  0  0  0
  -10.6990    6.0170  -23.5850 N   0  0  0  0  0
  -10.2700    6.1390  -22.3310 C   0  0  0  0  0
   -8.9820    6.3440  -22.0840 N   0  0  0  0  0
  -11.1250    6.0410  -21.3190 N   0  0  0  0  0
  -20.8520    2.4910  -26.9230 O   0  0  0  0  0
  -21.6380    3.4360  -27.0360 C   0  0  0  0  0
  -23.1300    3.2340  -26.8620 C   0  0  0  0  0
  -21.2570    4.6790  -27.3090 N   0  0  0  0  0
  -19.8770    5.1080  -27.5070 C   0  0  0  0  0
  -19.4960    6.1230  -26.4400 C   0  0  0  0  0
  -18.5230    7.1710  -26.9560 C   0  0  0  0  0
  -17.2090    6.5440  -27.3410 C   0  0  0  0  0
  -16.0710    7.5330  -27.5760 C   0  0  0  0  0
  -14.8120    6.8110  -27.5180 N   0  0  0  0  0
  -16.1180    8.6570  -26.5410 C   0  0  0  0  0
  -15.7080    8.4750  -25.3960 O   0  0  0  0  0
  -16.6170    9.8190  -26.9490 N   0  0  0  0  0
  -16.7100   10.9650  -26.0470 C   0  0  0  0  0
  -18.1560   11.4110  -25.8620 C   0  0  0  0  0
  -18.7270   12.0890  -26.7150 O   0  0  0  0  0
  -15.8730   12.1340  -26.5820 C   0  0  0  0  0
  -14.3800   11.8490  -26.6700 C   0  0  0  0  0
  -13.7740   11.4960  -25.3250 C   0  0  0  0  0
  -13.9130   12.2450  -24.3570 O   0  0  0  0  0
  -13.0920   10.3540  -25.2570 N   0  0  0  0  0
  -18.7400   11.0270  -24.7360 N   0  0  0  0  0
  -20.1190   11.3770  -24.4310 C   0  0  0  0  0
  -20.2190   12.8600  -24.1090 C   0  0  0  0  0
  -19.8380   13.2900  -23.0180 O   0  0  0  0  0
  -20.6070   10.5520  -23.2410 C   0  0  0  0  0
  -20.5410    9.0370  -23.4310 C   0  0  0  0  0
  -20.8290    8.3500  -22.1120 C   0  0  0  0  0
  -21.5340    8.6070  -24.5000 C   0  0  0  0  0
  -20.7290   13.6370  -25.0600 N   0  0  0  0  0
  -20.8750   15.0790  -24.8780 C   0  0  0  0  0
  -19.7020   15.6700  -24.0880 C   0  0  0  0  0
  -19.9560   16.2740  -23.0230 O   0  0  0  0  0
  -22.1910   15.3780  -24.1650 C   0  0  0  0  0
  -18.5420   15.5170  -24.5380 N   0  0  0  0  0
   -5.3557    5.4558  -30.5126 H   0  0  0  0  0
   -5.4060    4.9025  -28.9416 H   0  0  0  0  0
   -4.7165    3.9642  -30.1337 H   0  0  0  0  0
   -6.8174    3.7012  -31.2381 H   0  0  0  0  0
   -6.9446    3.0496  -28.2609 H   0  0  0  0  0
   -7.9011    2.2703  -29.5450 H   0  0  0  0  0
   -6.1332    2.0612  -29.5002 H   0  0  0  0  0
   -9.8398    6.8667  -30.5320 H   0  0  0  0  0
  -11.5258    6.3914  -32.2018 H   0  0  0  0  0
  -11.7620    4.7885  -31.6512 H   0  0  0  0  0
   -9.4275    5.8388  -33.3235 H   0  0  0  0  0
  -10.4285    4.5106  -33.6816 H   0  0  0  0  0
   -9.5040    3.1448  -31.8571 H   0  0  0  0  0
   -8.1362    3.9240  -32.4709 H   0  0  0  0  0
  -11.6112    7.4584  -29.3604 H   0  0  0  0  0
  -12.7777    5.4313  -27.5550 H   0  0  0  0  0
  -12.3048    6.8672  -25.5609 H   0  0  0  0  0
  -11.0817    7.7333  -26.6035 H   0  0  0  0  0
   -9.8374    5.7093  -26.8567 H   0  0  0  0  0
  -11.0750    4.7964  -25.9107 H   0  0  0  0  0
   -9.4676    7.1142  -24.8440 H   0  0  0  0  0
   -9.0296    5.3668  -24.6318 H   0  0  0  0  0
  -11.6959    5.8618  -23.7351 H   0  0  0  0  0
   -8.3186    6.4084  -22.8561 H   0  0  0  0  0
  -10.7905    6.1233  -20.3589 H   0  0  0  0  0
  -12.1160    5.8835  -21.5020 H   0  0  0  0  0
  -23.4868    2.5163  -27.6007 H   0  0  0  0  0
  -23.3296    2.8552  -25.8596 H   0  0  0  0  0
  -23.6428    4.1857  -27.0010 H   0  0  0  0  0
  -21.9859    5.3883  -27.3861 H   0  0  0  0  0
  -19.7791    5.5655  -28.4915 H   0  0  0  0  0
  -19.2167    4.2438  -27.4350 H   0  0  0  0  0
  -19.0121    5.5874  -25.6233 H   0  0  0  0  0
  -20.4045    6.6345  -26.1222 H   0  0  0  0  0
  -18.3442    7.9011  -26.1666 H   0  0  0  0  0
  -18.9552    7.6461  -27.8367 H   0  0  0  0  0
  -17.3726    6.0208  -28.2831 H   0  0  0  0  0
  -16.9073    5.9069  -26.5096 H   0  0  0  0  0
  -16.1727    7.9951  -28.5579 H   0  0  0  0  0
  -14.8300    5.8182  -27.2846 H   0  0  0  0  0
  -16.9417    9.9130  -27.9113 H   0  0  0  0  0
  -16.3205   10.6546  -25.0774 H   0  0  0  0  0
  -16.0001   12.9635  -25.8864 H   0  0  0  0  0
  -16.2200   12.3391  -27.5947 H   0  0  0  0  0
  -13.8871   12.7504  -27.0341 H   0  0  0  0  0
  -14.2395   10.9972  -27.3354 H   0  0  0  0  0
  -12.6597   10.0697  -24.3780 H   0  0  0  0  0
  -13.0020    9.7637  -26.0840 H   0  0  0  0  0
  -18.2088   10.4715  -24.0655 H   0  0  0  0  0
  -20.7435   11.1609  -25.2978 H   0  0  0  0  0
  -21.6572   10.8042  -23.0942 H   0  0  0  0  0
  -19.9520   10.7918  -22.4034 H   0  0  0  0  0
  -19.5425    8.7496  -23.7603 H   0  0  0  0  0
  -20.0876    8.6571  -21.3744 H   0  0  0  0  0
  -21.8242    8.6307  -21.7673 H   0  0  0  0  0
  -20.7817    7.2696  -22.2486 H   0  0  0  0  0
  -22.5412    8.8884  -24.1927 H   0  0  0  0  0
  -21.2889    9.0995  -25.4410 H   0  0  0  0  0
  -21.4810    7.5260  -24.6296 H   0  0  0  0  0
  -21.0261   13.2150  -25.9398 H   0  0  0  0  0
  -20.8785   15.5449  -25.8634 H   0  0  0  0  0
  -23.0208   15.0034  -24.7644 H   0  0  0  0  0
  -22.1945   14.8885  -23.1911 H   0  0  0  0  0
  -22.2942   16.4549  -24.0321 H   0  0  0  0  0
  -17.7433   15.8952  -24.0286 H   0  0  0  0  0
  -18.3968   15.0143  -25.4135 H   0  0  0  0  0
  2  1  1  0  0  0
  3  2  1  0  0  0
  2  5  1  0  0  0
  3  4  2  0  0  0
  6  3  1  0  0  0
  7  6  1  0  0  0
  6 12  1  0  0  0
  8  7  1  0  0  0
  7 10  1  0  0  0
  8  9  2  0  0  0
 13  8  1  0  0  0
 10 11  1  0  0  0
 11 12  1  0  0  0
 14 13  1  0  0  0
 15 14  1  0  0  0
 14 17  1  0  0  0
 15 16  2  0  0  0
 33 15  1  0  0  0
 17 18  1  0  0  0
 18 19  1  0  0  0
 19 20  1  0  0  0
 20 21  1  0  0  0
 21 22  2  0  0  0
 21 23  1  0  0  0
 25 24  2  0  0  0
 25 26  1  0  0  0
 27 25  1  0  0  0
 28 27  1  0  0  0
 29 28  1  0  0  0
 30 29  1  0  0  0
 31 30  1  0  0  0
 32 31  1  0  0  0
 32 33  1  0  0  0
 32 34  1  0  0  0
 34 35  2  0  0  0
 34 36  1  0  0  0
 36 37  1  0  0  0
 37 38  1  0  0  0
 37 40  1  0  0  0
 38 39  2  0  0  0
 38 45  1  0  0  0
 40 41  1  0  0  0
 41 42  1  0  0  0
 42 43  2  0  0  0
 42 44  1  0  0  0
 45 46  1  0  0  0
 46 47  1  0  0  0
 46 49  1  0  0  0
 47 48  2  0  0  0
 47 53  1  0  0  0
 49 50  1  0  0  0
 50 51  1  0  0  0
 50 52  1  0  0  0
 53 54  1  0  0  0
 54 55  1  0  0  0
 54 57  1  0  0  0
 55 56  2  0  0  0
 55 58  1  0  0  0
  1 59  1  0  0  0
  1 60  1  0  0  0
  1 61  1  0  0  0
  2 62  1  0  0  0
  5 63  1  0  0  0
  5 64  1  0  0  0
  5 65  1  0  0  0
  7 66  1  0  0  0
 10 67  1  0  0  0
 10 68  1  0  0  0
 11 69  1  0  0  0
 11 70  1  0  0  0
 12 71  1  0  0  0
 12 72  1  0  0  0
 13 73  1  0  0  0
 14 74  1  0  0  0
 17 75  1  0  0  0
 17 76  1  0  0  0
 18 77  1  0  0  0
 18 78  1  0  0  0
 19 79  1  0  0  0
 19 80  1  0  0  0
 20 81  1  0  0  0
 22 82  1  0  0  0
 23 83  1  0  0  0
 23 84  1  0  0  0
 26 85  1  0  0  0
 26 86  1  0  0  0
 26 87  1  0  0  0
 27 88  1  0  0  0
 28 89  1  0  0  0
 28 90  1  0  0  0
 29 91  1  0  0  0
 29 92  1  0  0  0
 30 93  1  0  0  0
 30 94  1  0  0  0
 31 95  1  0  0  0
 31 96  1  0  0  0
 32 97  1  0  0  0
 33 98  1  0  0  0
 36 99  1  0  0  0
 37100  1  0  0  0
 40101  1  0  0  0
 40102  1  0  0  0
 41103  1  0  0  0
 41104  1  0  0  0
 44105  1  0  0  0
 44106  1  0  0  0
 45107  1  0  0  0
 46108  1  0  0  0
 49109  1  0  0  0
 49110  1  0  0  0
 50111  1  0  0  0
 51112  1  0  0  0
 51113  1  0  0  0
 51114  1  0  0  0
 52115  1  0  0  0
 52116  1  0  0  0
 52117  1  0  0  0
 53118  1  0  0  0
 54119  1  0  0  0
 57120  1  0  0  0
 57121  1  0  0  0
 57122  1  0  0  0
 58123  1  0  0  0
 58124  1  0  0  0
M  END
$$$$
