6hub_ligand
  -I-interpret- 

 91 92  0  0  0  0  0  0  0  0999 V2000
   58.7830 -134.5810   33.7480 C   0  0  0  0  0
   59.9770 -134.8140   34.6170 C   0  0  0  0  0
   61.3900 -134.0490   37.2190 C   0  0  0  0  0
   62.7150 -135.2350   40.1680 C   0  0  0  0  0
   63.7230 -134.9610   42.3090 C   0  0  0  0  0
   64.2510 -132.6480   42.5560 C   0  0  0  0  0
   65.3170 -130.4640   41.2420 C   0  0  0  0  0
   65.8670 -129.4070   40.5650 C   0  0  0  0  0
   64.9810 -132.8240   41.4100 C   0  0  0  0  0
   62.0650 -136.3100   43.5200 C   0  0  0  0  0
   60.5880 -138.8090   42.4870 C   0  0  0  0  0
   65.5090 -131.7320   40.7640 C   0  0  0  0  0
   65.3620 -128.2230   40.8740 N   0  3  0  0  0
   64.5980 -130.2730   42.3900 C   0  0  0  0  0
   64.0630 -131.3710   43.0420 C   0  0  0  0  0
   63.7180 -133.7420   43.2110 C   0  0  0  0  0
   63.5550 -136.2320   43.1460 C   0  0  0  0  0
   61.3420 -137.9300   43.8330 S   0  0  0  0  0
   62.4590 -138.8030   44.3330 O   0  0  0  0  0
   60.3200 -137.6980   44.9140 O   0  0  0  0  0
   62.6000 -134.8460   41.4010 N   0  0  0  0  0
   63.7440 -135.6750   39.7190 O   0  0  0  0  0
   61.4870 -135.1060   39.3390 C   0  0  0  0  0
   60.6580 -136.3440   39.5530 C   0  0  0  0  0
   59.2730 -136.1160   38.9980 C   0  0  0  0  0
   61.2530 -137.3980   38.8550 O   0  0  0  0  0
   61.9040 -134.9990   37.9600 N   0  0  0  0  0
   60.5560 -133.2810   37.6470 O   0  0  0  0  0
   61.8740 -133.9560   35.8030 C   0  0  0  0  0
   62.8110 -132.7760   35.7430 C   0  0  0  0  0
   63.6060 -132.8090   34.4620 C   0  0  0  0  0
   64.6280 -133.9070   34.5240 C   0  0  0  0  0
   64.3510 -131.5090   34.3070 C   0  0  0  0  0
   60.7170 -133.7710   34.9380 N   0  0  0  0  0
   60.2150 -135.9310   35.0170 O   0  0  0  0  0
   59.2300 -134.2740   32.4000 N   0  0  0  0  0
   59.5420 -133.9970   31.4120 N   0  0  0  0  0
   59.8450 -133.7050   30.4450 N   0  0  0  0  0
   58.1590 -133.3300   34.2440 C   0  0  0  0  0
   56.8570 -133.4600   34.6200 C   0  0  0  0  0
   55.8040 -133.5110   33.7100 C   0  0  0  0  0
   54.5100 -133.5920   34.2000 C   0  0  0  0  0
   54.2810 -133.6380   35.5670 C   0  0  0  0  0
   55.3490 -133.5960   36.4370 C   0  0  0  0  0
   56.6300 -133.4980   35.9650 C   0  0  0  0  0
   58.1219 -135.4476   33.7597 H   0  0  0  0  0
   64.6648 -135.0173   41.7632 H   0  0  0  0  0
   65.6635 -129.5701   39.5067 H   0  0  0  0  0
   66.9238 -129.3781   40.8304 H   0  0  0  0  0
   65.1423 -133.8260   41.0123 H   0  0  0  0  0
   61.5323 -135.9229   42.6514 H   0  0  0  0  0
   61.9794 -135.7722   44.4642 H   0  0  0  0  0
   61.3295 -138.9821   41.7070 H   0  0  0  0  0
   60.2074 -139.7649   42.8468 H   0  0  0  0  0
   59.7659 -138.2177   42.0838 H   0  0  0  0  0
   66.0913 -131.8784   39.8543 H   0  0  0  0  0
   65.8291 -127.5016   40.3246 H   0  0  0  0  0
   64.3632 -128.2162   40.6672 H   0  0  0  0  0
   65.5059 -128.0421   41.8675 H   0  0  0  0  0
   64.4481 -129.2688   42.7865 H   0  0  0  0  0
   63.4841 -131.2239   43.9538 H   0  0  0  0  0
   64.3223 -133.9537   44.0931 H   0  0  0  0  0
   62.6897 -133.5170   43.4939 H   0  0  0  0  0
   64.1814 -136.1996   44.0374 H   0  0  0  0  0
   63.8648 -137.1140   42.5854 H   0  0  0  0  0
   61.7164 -134.4582   41.7316 H   0  0  0  0  0
   60.8959 -134.2301   39.6064 H   0  0  0  0  0
   60.5958 -136.5749   40.6165 H   0  0  0  0  0
   58.8114 -135.2726   39.5116 H   0  0  0  0  0
   59.3412 -135.9005   37.9317 H   0  0  0  0  0
   58.6697 -137.0108   39.1513 H   0  0  0  0  0
   60.7354 -138.1966   38.9814 H   0  0  0  0  0
   62.5855 -135.6506   37.5709 H   0  0  0  0  0
   62.3988 -134.8530   35.4742 H   0  0  0  0  0
   63.4958 -132.8200   36.5899 H   0  0  0  0  0
   62.2288 -131.8552   35.7787 H   0  0  0  0  0
   62.9212 -132.9712   33.6296 H   0  0  0  0  0
   65.3018 -133.7276   35.3618 H   0  0  0  0  0
   64.1237 -134.8637   34.6600 H   0  0  0  0  0
   65.1979 -133.9240   33.5950 H   0  0  0  0  0
   63.6383 -130.6849   34.2745 H   0  0  0  0  0
   65.0251 -131.3749   35.1530 H   0  0  0  0  0
   64.9268 -131.5298   33.3817 H   0  0  0  0  0
   60.4815 -132.8438   34.5840 H   0  0  0  0  0
   58.1843 -132.6133   33.4231 H   0  0  0  0  0
   58.7176 -133.0233   35.1283 H   0  0  0  0  0
   55.9932 -133.4877   32.6368 H   0  0  0  0  0
   53.6685 -133.6197   33.5077 H   0  0  0  0  0
   53.2631 -133.7069   35.9508 H   0  0  0  0  0
   55.1718 -133.6413   37.5115 H   0  0  0  0  0
   57.4668 -133.4504   36.6618 H   0  0  0  0  0
  2  1  1  0  0  0
  1 36  1  0  0  0
  1 39  1  0  0  0
 34  2  1  0  0  0
  2 35  2  0  0  0
  3 27  1  0  0  0
  3 28  2  0  0  0
 29  3  1  0  0  0
  4 21  1  0  0  0
  4 22  2  0  0  0
 23  4  1  0  0  0
  5 16  1  0  0  0
  5 17  1  0  0  0
 21  5  1  0  0  0
  6  9  4  0  0  0
  6 15  4  0  0  0
 16  6  1  0  0  0
  7  8  1  0  0  0
 12  7  4  0  0  0
 14  7  4  0  0  0
  8 13  1  0  0  0
  9 12  4  0  0  0
 17 10  1  0  0  0
 10 18  1  0  0  0
 18 11  1  0  0  0
 15 14  4  0  0  0
 18 19  2  0  0  0
 18 20  2  0  0  0
 23 24  1  0  0  0
 27 23  1  0  0  0
 24 25  1  0  0  0
 24 26  1  0  0  0
 29 30  1  0  0  0
 29 34  1  0  0  0
 30 31  1  0  0  0
 31 32  1  0  0  0
 31 33  1  0  0  0
 36 37  3  0  0  0
 37 38  3  0  0  0
 39 40  1  0  0  0
 40 41  4  0  0  0
 40 45  4  0  0  0
 41 42  4  0  0  0
 42 43  4  0  0  0
 43 44  4  0  0  0
 44 45  4  0  0  0
  1 46  1  0  0  0
  5 47  1  0  0  0
  8 48  1  0  0  0
  8 49  1  0  0  0
  9 50  1  0  0  0
 10 51  1  0  0  0
 10 52  1  0  0  0
 11 53  1  0  0  0
 11 54  1  0  0  0
 11 55  1  0  0  0
 12 56  1  0  0  0
 13 57  1  0  0  0
 13 58  1  0  0  0
 13 59  1  0  0  0
 14 60  1  0  0  0
 15 61  1  0  0  0
 16 62  1  0  0  0
 16 63  1  0  0  0
 17 64  1  0  0  0
 17 65  1  0  0  0
 21 66  1  0  0  0
 23 67  1  0  0  0
 24 68  1  0  0  0
 25 69  1  0  0  0
 25 70  1  0  0  0
 25 71  1  0  0  0
 26 72  1  0  0  0
 27 73  1  0  0  0
 29 74  1  0  0  0
 30 75  1  0  0  0
 30 76  1  0  0  0
 31 77  1  0  0  0
 32 78  1  0  0  0
 32 79  1  0  0  0
 32 80  1  0  0  0
 33 81  1  0  0  0
 33 82  1  0  0  0
 33 83  1  0  0  0
 34 84  1  0  0  0
 39 85  1  0  0  0
 39 86  1  0  0  0
 41 87  1  0  0  0
 42 88  1  0  0  0
 43 89  1  0  0  0
 44 90  1  0  0  0
 45 91  1  0  0  0
M  END
$$$$
