6bed_ligand
  -I-interpret- 

118122  0  0  0  0  0  0  0  0999 V2000
   90.4580  102.7110   42.1180 C   0  0  0  0  0
   91.0820  101.7720   42.9490 C   0  0  0  0  0
   91.7250  102.1800   44.1230 C   0  0  0  0  0
   91.7400  103.5550   44.4470 C   0  0  0  0  0
   91.1240  105.9570   43.8630 C   0  0  0  0  0
   90.5200  106.8220   42.9810 C   0  0  0  0  0
   89.8630  106.3970   41.8380 C   0  0  0  0  0
   89.8370  105.0570   41.5650 C   0  0  0  0  0
   90.4630  104.0960   42.4250 C   0  0  0  0  0
   91.1220  104.5420   43.6090 C   0  0  0  0  0
   91.7190  106.8300   44.9480 C   0  0  0  0  0
   91.5510  108.2640   44.5240 C   0  0  0  0  0
   90.9750  109.2360   45.5440 C   0  0  0  0  0
   89.2070  107.4070   40.9220 C   0  0  0  0  0
   90.5300   99.3530   43.1380 C   0  0  0  0  0
   90.7300   98.0500   42.4720 C   0  0  0  0  0
   91.8600   97.7140   41.8060 C   0  0  0  0  0
   93.0780   98.5650   41.6860 C   0  0  0  0  0
   94.1370   98.1300   40.9800 C   0  0  0  0  0
   95.5080   98.8380   40.8050 C   0  0  0  0  0
   95.3440  100.3580   40.5040 C   0  0  0  0  0
   96.7140  101.0930   40.4010 C   0  0  0  0  0
   96.6000  102.5940   40.1030 C   0  0  0  0  0
   95.5990  103.3860   41.0280 C   0  0  0  0  0
   95.6050  104.9220   40.6640 C   0  0  0  0  0
   94.6300  105.8060   41.4610 C   0  0  0  0  0
   94.7420  107.3150   41.0630 C   0  0  0  0  0
   93.7730  108.2700   41.8290 C   0  0  0  0  0
   93.6830  108.1130   43.1840 C   0  0  0  0  0
   89.5640   97.1070   42.5710 C   0  0  0  0  0
   96.2840   98.6330   42.1090 C   0  0  0  0  0
   97.6820  100.4090   39.3920 C   0  0  0  0  0
   95.9690  103.1520   42.5070 C   0  0  0  0  0
   93.1870  105.3690   41.2450 C   0  0  0  0  0
   97.7020  105.9570   39.9720 C   0  0  0  0  0
   99.0370  106.4530   40.4660 C   0  0  0  0  0
   95.1920  108.4970   39.0430 C   0  0  0  0  0
   97.6370   99.3870   47.8370 C   0  0  0  0  0
   96.0160   98.4510   46.2780 C   0  0  0  0  0
   94.7390   98.7260   45.4750 C   0  0  0  0  0
   93.9680  100.2110   47.2970 C   0  0  0  0  0
   95.2810   99.9120   48.0400 C   0  0  0  0  0
   92.3710  101.2130   45.0090 C   0  0  0  0  0
   91.0510  100.4100   42.5130 N   0  0  0  0  0
   93.6250  100.9410   44.9440 N   0  0  0  0  0
   94.1560   99.9970   45.8660 N   0  0  0  0  0
   96.3780   99.5940   47.1330 N   0  3  0  0  0
   89.8440  102.2150   40.9670 O   0  0  0  0  0
   89.1950  104.6820   40.4300 O   0  0  0  0  0
   90.6290  108.1390   43.3480 O   0  0  0  0  0
   92.3840  106.4970   45.9410 O   0  0  0  0  0
   92.8860  108.8270   44.0820 O   0  0  0  0  0
   94.5400  107.3920   39.6370 O   0  0  0  0  0
   96.9370  105.4490   40.9750 O   0  0  0  0  0
   97.3100  105.9910   38.7890 O   0  0  0  0  0
   96.2550  102.8000   38.6980 O   0  0  0  0  0
   94.6290  100.5590   39.2900 O   0  0  0  0  0
   89.9510   99.4410   44.1890 O   0  0  0  0  0
   92.3820  103.9210   45.5930 O   0  0  0  0  0
   89.9797  108.9037   45.8389 H   0  0  0  0  0
   91.6231  109.2680   46.4198 H   0  0  0  0  0
   90.9112  110.2299   45.1011 H   0  0  0  0  0
   88.4454  107.9565   41.4753 H   0  0  0  0  0
   89.9603  108.1018   40.5505 H   0  0  0  0  0
   88.7444  106.8877   40.0827 H   0  0  0  0  0
   91.8808   96.7401   41.3169 H   0  0  0  0  0
   93.1104   99.5407   42.1708 H   0  0  0  0  0
   94.0196   97.1721   40.4733 H   0  0  0  0  0
   96.0393   98.4122   39.9538 H   0  0  0  0  0
   94.7872  100.7767   41.3423 H   0  0  0  0  0
   97.1409  101.0068   41.4002 H   0  0  0  0  0
   97.5837  103.0073   40.3258 H   0  0  0  0  0
   94.5859  103.0183   40.8649 H   0  0  0  0  0
   95.3091  104.9645   39.6158 H   0  0  0  0  0
   94.9074  105.6880   42.5085 H   0  0  0  0  0
   95.7308  107.6707   41.3526 H   0  0  0  0  0
   93.1928  109.0298   41.3055 H   0  0  0  0  0
   94.3108  107.3344   43.6173 H   0  0  0  0  0
   89.2016   96.8730   41.5700 H   0  0  0  0  0
   89.8811   96.1900   43.0676 H   0  0  0  0  0
   88.7666   97.5765   43.1470 H   0  0  0  0  0
   95.7250   99.0714   42.9357 H   0  0  0  0  0
   96.4195   97.5660   42.2858 H   0  0  0  0  0
   97.2579   99.1161   42.0305 H   0  0  0  0  0
   97.8729   99.3844   39.7112 H   0  0  0  0  0
   97.2276  100.4036   38.4012 H   0  0  0  0  0
   98.6209  100.9617   39.3595 H   0  0  0  0  0
   95.9067  102.0872   42.7317 H   0  0  0  0  0
   96.9851  103.5036   42.6860 H   0  0  0  0  0
   95.2758  103.7004   43.1448 H   0  0  0  0  0
   92.9402  105.4456   40.1861 H   0  0  0  0  0
   93.0684  104.3364   41.5733 H   0  0  0  0  0
   92.5234  106.0134   41.8216 H   0  0  0  0  0
   99.8348  105.9037   39.9662 H   0  0  0  0  0
   99.1325  107.5161   40.2452 H   0  0  0  0  0
   99.1056  106.2966   41.5425 H   0  0  0  0  0
   94.8121  109.4199   39.4811 H   0  0  0  0  0
   96.2647  108.4232   39.2215 H   0  0  0  0  0
   95.0001  108.4967   37.9700 H   0  0  0  0  0
   97.5561   98.5045   48.4716 H   0  0  0  0  0
   98.4378   99.2424   47.1118 H   0  0  0  0  0
   97.8555  100.2598   48.4523 H   0  0  0  0  0
   96.8316   98.2747   45.5767 H   0  0  0  0  0
   95.8402   97.5858   46.9173 H   0  0  0  0  0
   94.0194   97.9311   45.6711 H   0  0  0  0  0
   94.9885   98.7622   44.4146 H   0  0  0  0  0
   93.6797  101.2473   47.4735 H   0  0  0  0  0
   93.1853   99.5465   47.6629 H   0  0  0  0  0
   95.1142   99.0466   48.6814 H   0  0  0  0  0
   95.5585  100.8031   48.6030 H   0  0  0  0  0
   91.7636  100.7016   45.7557 H   0  0  0  0  0
   91.4827  100.2230   41.6080 H   0  0  0  0  0
   96.5325  100.4010   46.5286 H   0  0  0  0  0
   89.4518  102.9412   40.4766 H   0  0  0  0  0
   89.2388  103.7273   40.3395 H   0  0  0  0  0
   96.1860  103.7411   38.5213 H   0  0  0  0  0
   94.5398  101.5004   39.1246 H   0  0  0  0  0
   92.3227  104.8730   45.7016 H   0  0  0  0  0
  2  1  4  0  0  0
  1  9  4  0  0  0
  1 48  1  0  0  0
  3  2  4  0  0  0
  2 44  1  0  0  0
  3  4  4  0  0  0
 43  3  1  0  0  0
  4 10  4  0  0  0
  4 59  1  0  0  0
  5  6  4  0  0  0
 10  5  4  0  0  0
  5 11  1  0  0  0
  6  7  4  0  0  0
  6 50  1  0  0  0
  8  7  4  0  0  0
  7 14  1  0  0  0
  9  8  4  0  0  0
  8 49  1  0  0  0
 10  9  4  0  0  0
 11 12  1  0  0  0
 11 51  2  0  0  0
 12 13  1  0  0  0
 12 50  1  0  0  0
 12 52  1  0  0  0
 15 16  1  0  0  0
 44 15  1  0  0  0
 15 58  2  0  0  0
 16 17  2  0  0  0
 16 30  1  0  0  0
 17 18  1  0  0  0
 18 19  2  0  0  0
 19 20  1  0  0  0
 20 21  1  0  0  0
 20 31  1  0  0  0
 21 22  1  0  0  0
 21 57  1  0  0  0
 22 23  1  0  0  0
 22 32  1  0  0  0
 23 24  1  0  0  0
 23 56  1  0  0  0
 25 24  1  0  0  0
 24 33  1  0  0  0
 26 25  1  0  0  0
 25 54  1  0  0  0
 27 26  1  0  0  0
 26 34  1  0  0  0
 28 27  1  0  0  0
 27 53  1  0  0  0
 29 28  2  0  0  0
 52 29  1  0  0  0
 35 36  1  0  0  0
 54 35  1  0  0  0
 35 55  2  0  0  0
 53 37  1  0  0  0
 47 38  1  0  0  0
 40 39  1  0  0  0
 39 47  1  0  0  0
 46 40  1  0  0  0
 41 42  1  0  0  0
 46 41  1  0  0  0
 42 47  1  0  0  0
 45 43  2  0  0  0
 45 46  1  0  0  0
 13 60  1  0  0  0
 13 61  1  0  0  0
 13 62  1  0  0  0
 14 63  1  0  0  0
 14 64  1  0  0  0
 14 65  1  0  0  0
 17 66  1  0  0  0
 18 67  1  0  0  0
 19 68  1  0  0  0
 20 69  1  0  0  0
 21 70  1  0  0  0
 22 71  1  0  0  0
 23 72  1  0  0  0
 24 73  1  0  0  0
 25 74  1  0  0  0
 26 75  1  0  0  0
 27 76  1  0  0  0
 28 77  1  0  0  0
 29 78  1  0  0  0
 30 79  1  0  0  0
 30 80  1  0  0  0
 30 81  1  0  0  0
 31 82  1  0  0  0
 31 83  1  0  0  0
 31 84  1  0  0  0
 32 85  1  0  0  0
 32 86  1  0  0  0
 32 87  1  0  0  0
 33 88  1  0  0  0
 33 89  1  0  0  0
 33 90  1  0  0  0
 34 91  1  0  0  0
 34 92  1  0  0  0
 34 93  1  0  0  0
 36 94  1  0  0  0
 36 95  1  0  0  0
 36 96  1  0  0  0
 37 97  1  0  0  0
 37 98  1  0  0  0
 37 99  1  0  0  0
 38100  1  0  0  0
 38101  1  0  0  0
 38102  1  0  0  0
 39103  1  0  0  0
 39104  1  0  0  0
 40105  1  0  0  0
 40106  1  0  0  0
 41107  1  0  0  0
 41108  1  0  0  0
 42109  1  0  0  0
 42110  1  0  0  0
 43111  1  0  0  0
 44112  1  0  0  0
 47113  1  0  0  0
 48114  1  0  0  0
 49115  1  0  0  0
 56116  1  0  0  0
 57117  1  0  0  0
 59118  1  0  0  0
M  END
$$$$
