6cjr_ligand
  -I-interpret- 

 60 63  0  0  0  0  0  0  0  0999 V2000
   21.5640  108.0920  -97.3890 C   0  0  0  0  0
   20.5620  107.6730  -99.7500 C   0  0  0  0  0
   19.4910  107.1700 -100.4520 C   0  0  0  0  0
   17.6150  105.4640 -100.3560 N   0  0  0  0  0
   20.3070  107.8660 -102.5780 C   0  0  0  0  0
   18.2090  106.7620  -98.5040 O   0  0  0  0  0
   20.5590  107.4910  -98.2770 N   0  0  0  0  0
   22.3950  109.1120 -102.5800 N   0  0  0  0  0
   21.4230  108.3980 -101.9130 C   0  0  0  0  0
   21.5420  108.3130 -100.5010 C   0  0  0  0  0
   23.8040  108.9870 -102.4720 N   0  0  0  0  0
   22.2500  110.2760  -96.2410 C   0  0  0  0  0
   22.5220  109.5180  -94.9300 C   0  0  0  0  0
   22.5720  107.9750  -95.0690 C   0  0  0  0  0
   21.5410  107.3620  -96.0400 C   0  0  0  0  0
   24.4080  109.9470 -103.2530 C   0  0  0  0  0
   23.4050  110.7410 -103.8230 C   0  0  0  0  0
   22.1630  110.2030 -103.3850 C   0  0  0  0  0
   22.1180  112.5480 -105.3420 C   0  0  0  0  0
   19.6980  112.6240 -105.0940 C   0  0  0  0  0
   19.3210  107.2300 -101.8220 C   0  0  0  0  0
   26.5050  109.2670 -102.4570 F   0  0  0  0  0
   24.4350  112.4880 -105.1570 O   0  0  0  0  0
   26.4720  109.8820 -104.6310 F   0  0  0  0  0
   26.2800  111.3520 -102.9620 F   0  0  0  0  0
   23.7560  110.0110  -94.4160 O   0  0  0  0  0
   18.3960  106.4630  -99.6580 C   0  0  0  0  0
   21.2430  109.5710  -97.1690 C   0  0  0  0  0
   20.8530  110.9480 -103.9000 C   0  0  0  0  0
   20.9880  112.3570 -104.3700 C   0  0  0  0  0
   23.4020  111.9940 -104.8130 C   0  0  0  0  0
   21.2200  113.2670 -103.1750 C   0  0  0  0  0
   25.9520  110.1020 -103.3810 C   0  0  0  0  0
   22.5505  108.0027  -97.8439 H   0  0  0  0  0
   16.8634  104.9738  -99.8710 H   0  0  0  0  0
   17.8163  105.2502 -101.3328 H   0  0  0  0  0
   20.2125  107.9478 -103.6608 H   0  0  0  0  0
   19.8231  106.9206  -97.8605 H   0  0  0  0  0
   22.4064  108.7518 -100.0026 H   0  0  0  0  0
   23.1954  110.3443  -96.7792 H   0  0  0  0  0
   21.8246  111.2436  -95.9748 H   0  0  0  0  0
   21.6849  109.6999  -94.2560 H   0  0  0  0  0
   22.3505  107.5671  -94.0828 H   0  0  0  0  0
   23.5569  107.7309  -95.4671 H   0  0  0  0  0
   21.7909  106.3136  -96.2029 H   0  0  0  0  0
   20.5465  107.4587  -95.6044 H   0  0  0  0  0
   22.2488  113.6169 -105.5108 H   0  0  0  0  0
   21.8707  112.0216 -106.2639 H   0  0  0  0  0
   19.6999  113.6464 -105.4720 H   0  0  0  0  0
   19.5993  111.9276 -105.9267 H   0  0  0  0  0
   18.8627  112.4910 -104.4065 H   0  0  0  0  0
   18.4430  106.7936 -102.2982 H   0  0  0  0  0
   23.9618  109.5602  -93.5938 H   0  0  0  0  0
   20.2614  109.6306  -96.6990 H   0  0  0  0  0
   21.2832  110.0666  -98.1390 H   0  0  0  0  0
   20.1881  110.9933 -103.0375 H   0  0  0  0  0
   20.5226  110.3828 -104.7715 H   0  0  0  0  0
   22.1667  113.0079 -102.7010 H   0  0  0  0  0
   21.2517  114.3037 -103.5101 H   0  0  0  0  0
   20.4073  113.1397 -102.4598 H   0  0  0  0  0
  7  1  1  0  0  0
  1 15  1  0  0  0
  1 28  1  0  0  0
  2  3  4  0  0  0
  2  7  1  0  0  0
 10  2  4  0  0  0
 21  3  4  0  0  0
  3 27  1  0  0  0
 27  4  1  0  0  0
  9  5  4  0  0  0
  5 21  4  0  0  0
 27  6  2  0  0  0
  8  9  1  0  0  0
  8 11  4  0  0  0
 18  8  4  0  0  0
  9 10  4  0  0  0
 16 11  4  0  0  0
 12 13  1  0  0  0
 28 12  1  0  0  0
 14 13  1  0  0  0
 13 26  1  0  0  0
 15 14  1  0  0  0
 17 16  4  0  0  0
 16 33  1  0  0  0
 17 18  4  0  0  0
 31 17  1  0  0  0
 18 29  1  0  0  0
 19 30  1  0  0  0
 19 31  1  0  0  0
 30 20  1  0  0  0
 33 22  1  0  0  0
 31 23  2  0  0  0
 33 24  1  0  0  0
 33 25  1  0  0  0
 29 30  1  0  0  0
 30 32  1  0  0  0
  1 34  1  0  0  0
  4 35  1  0  0  0
  4 36  1  0  0  0
  5 37  1  0  0  0
  7 38  1  0  0  0
 10 39  1  0  0  0
 12 40  1  0  0  0
 12 41  1  0  0  0
 13 42  1  0  0  0
 14 43  1  0  0  0
 14 44  1  0  0  0
 15 45  1  0  0  0
 15 46  1  0  0  0
 19 47  1  0  0  0
 19 48  1  0  0  0
 20 49  1  0  0  0
 20 50  1  0  0  0
 20 51  1  0  0  0
 21 52  1  0  0  0
 26 53  1  0  0  0
 28 54  1  0  0  0
 28 55  1  0  0  0
 29 56  1  0  0  0
 29 57  1  0  0  0
 32 58  1  0  0  0
 32 59  1  0  0  0
 32 60  1  0  0  0
M  END
$$$$
