4rx9_ligand
  -I-interpret- 

 53 56  0  0  0  0  0  0  0  0999 V2000
    0.7180    4.4890   13.2900 C   0  0  0  0  0
   -0.7130    4.6440   12.7470 C   0  0  0  0  0
    5.2170    1.8220   14.5260 C   0  0  0  0  0
    4.4300    0.6850   14.7330 C   0  0  0  0  0
    4.9710   -0.4290   15.5510 C   0  0  0  0  0
    3.1500    0.6100   14.2180 C   0  0  0  0  0
    1.1240   -0.6660   14.3210 C   0  0  0  0  0
    0.5630   -1.7050   15.0130 C   0  0  0  0  0
   -0.7590   -2.0190   14.8630 C   0  0  0  0  0
   -1.5550   -1.2470   14.0420 C   0  0  0  0  0
   -1.0320   -0.1890   13.3200 C   0  0  0  0  0
    0.3360    0.0910   13.4620 C   0  0  0  0  0
   -3.8080    1.2280   11.9570 C   0  0  0  0  0
   -2.7330    1.9180   11.2450 C   0  0  0  0  0
    1.2070    5.8250   13.6600 N   0  3  0  0  0
   -0.7520    5.3880   11.3930 C   0  0  0  0  0
    0.1280    4.6870   10.3370 C   0  0  0  0  0
    1.5640    4.7040   10.8860 C   0  0  0  0  0
    1.6340    3.8850   12.1900 C   0  0  0  0  0
    3.0030    3.7850   12.6300 N   0  0  0  0  0
    3.4680    2.7320   13.3130 C   0  0  0  0  0
    4.6980    2.8070   13.8170 N   0  0  0  0  0
    6.2030   -0.3310   15.8860 N   0  0  0  0  0
    4.2250   -1.2820   15.9020 O   0  0  0  0  0
    2.4190   -0.4840   14.4890 N   0  0  0  0  0
   -1.9070    0.5170   12.5830 N   0  0  0  0  0
   -3.2430    0.4460   12.7360 N   0  0  0  0  0
   -1.6570    1.4470   11.6780 N   0  0  0  0  0
    2.6950    1.6520   13.5010 N   0  0  0  0  0
    0.7265    3.8256   14.1548 H   0  0  0  0  0
   -1.2862    5.2263   13.4684 H   0  0  0  0  0
   -1.1262    3.6467   12.5958 H   0  0  0  0  0
    6.2245    1.8925   14.9360 H   0  0  0  0  0
    1.1798   -2.2912   15.6942 H   0  0  0  0  0
   -1.1820   -2.8747   15.3892 H   0  0  0  0  0
   -2.6177   -1.4753   13.9605 H   0  0  0  0  0
    0.7833    0.9074   12.8950 H   0  0  0  0  0
   -4.8810    1.3711   11.8296 H   0  0  0  0  0
   -2.8465    2.6915   10.4855 H   0  0  0  0  0
    0.6037    6.2186   14.3821 H   0  0  0  0  0
    2.1603    5.7505   14.0151 H   0  0  0  0  0
    1.1952    6.4296   12.8386 H   0  0  0  0  0
   -0.3721    6.3985   11.5433 H   0  0  0  0  0
   -1.7810    5.3974   11.0337 H   0  0  0  0  0
    0.0706    5.2007    9.3774 H   0  0  0  0  0
   -0.2110    3.6660   10.1615 H   0  0  0  0  0
    1.8596    5.7331   11.0904 H   0  0  0  0  0
    2.2370    4.2661   10.1488 H   0  0  0  0  0
    1.2620    2.8797   11.9923 H   0  0  0  0  0
    3.6437    4.5481   12.4119 H   0  0  0  0  0
    6.6195   -1.0250   16.5067 H   0  0  0  0  0
    6.7679    0.4411   15.5322 H   0  0  0  0  0
    2.9323   -1.2766   14.8747 H   0  0  0  0  0
  1  2  1  0  0  0
  1 15  1  0  0  0
 19  1  1  0  0  0
  2 16  1  0  0  0
  4  3  4  0  0  0
  3 22  4  0  0  0
  4  5  1  0  0  0
  6  4  4  0  0  0
  5 23  1  0  0  0
  5 24  2  0  0  0
 25  6  1  0  0  0
  6 29  4  0  0  0
  7  8  4  0  0  0
 12  7  4  0  0  0
  7 25  1  0  0  0
  9  8  4  0  0  0
 10  9  4  0  0  0
 11 10  4  0  0  0
 11 12  4  0  0  0
 26 11  1  0  0  0
 13 14  4  0  0  0
 27 13  4  0  0  0
 14 28  4  0  0  0
 17 16  1  0  0  0
 18 17  1  0  0  0
 19 18  1  0  0  0
 20 19  1  0  0  0
 21 20  1  0  0  0
 21 22  4  0  0  0
 29 21  4  0  0  0
 26 27  4  0  0  0
 26 28  4  0  0  0
  1 30  1  0  0  0
  2 31  1  0  0  0
  2 32  1  0  0  0
  3 33  1  0  0  0
  8 34  1  0  0  0
  9 35  1  0  0  0
 10 36  1  0  0  0
 12 37  1  0  0  0
 13 38  1  0  0  0
 14 39  1  0  0  0
 15 40  1  0  0  0
 15 41  1  0  0  0
 15 42  1  0  0  0
 16 43  1  0  0  0
 16 44  1  0  0  0
 17 45  1  0  0  0
 17 46  1  0  0  0
 18 47  1  0  0  0
 18 48  1  0  0  0
 19 49  1  0  0  0
 20 50  1  0  0  0
 23 51  1  0  0  0
 23 52  1  0  0  0
 25 53  1  0  0  0
M  END
$$$$
