5unh_ligand
  -I-interpret- 

 77 83  0  0  0  0  0  0  0  0999 V2000
  107.4340  -74.0050    4.7830 N   0  0  0  0  0
  102.8280  -70.4180    7.5190 N   0  0  0  0  0
  110.2110  -75.9370    4.6870 C   0  0  0  0  0
  111.4520  -76.5460    5.2970 C   0  0  0  0  0
  106.1200  -73.8500    4.3180 C   0  0  0  0  0
  108.2920  -72.8030    4.8110 C   0  0  0  0  0
  107.9170  -71.7890    5.8720 C   0  0  0  0  0
  107.9040  -69.5090    6.6530 C   0  0  0  0  0
  105.4360  -68.5230    9.1270 C   0  0  0  0  0
  105.1490  -67.4260    9.9480 C   0  0  0  0  0
  107.4880  -66.9490   10.1560 C   0  0  0  0  0
  107.1950  -72.1450    7.0120 C   0  0  0  0  0
  104.9790  -77.3310    5.1160 C   0  0  0  0  0
  103.6320  -77.2500    4.8030 C   0  0  0  0  0
  103.9090  -74.9500    4.1310 C   0  0  0  0  0
  100.9550  -75.6080    6.3950 C   0  0  0  0  0
  100.2480  -75.8450    8.6970 C   0  0  0  0  0
   99.5460  -76.2920    4.6690 O   0  0  0  0  0
  100.6900  -76.0050    4.9700 C   0  0  0  0  0
  102.0930  -74.9270    6.8400 C   0  0  0  0  0
  102.2950  -74.7030    8.1950 C   0  0  0  0  0
  101.3760  -75.1660    9.1250 C   0  0  0  0  0
  100.0320  -76.0620    7.3440 C   0  0  0  0  0
  101.6800  -75.9740    4.0240 N   0  0  0  0  0
  101.2840  -76.0400    2.6220 C   0  0  0  0  0
  101.4620  -77.4190    2.0880 C   0  0  0  0  0
  100.7040  -78.4050    2.6590 O   0  0  0  0  0
  101.0540  -79.5730    2.0280 C   0  0  0  0  0
  101.9800  -79.3450    1.1140 C   0  0  0  0  0
  102.2500  -77.9460    1.1420 C   0  0  0  0  0
  103.0800  -76.0560    4.3230 C   0  0  0  0  0
  105.8070  -76.2210    4.9520 C   0  0  0  0  0
  105.2660  -75.0350    4.4430 C   0  0  0  0  0
  105.7600  -72.7980    3.8150 O   0  0  0  0  0
  107.8650  -75.2460    5.2620 C   0  0  0  0  0
  109.2720  -75.3790    5.7360 C   0  0  0  0  0
  107.1370  -76.3110    5.3530 N   0  0  0  0  0
  106.8300  -71.1960    7.9520 C   0  0  0  0  0
  107.1680  -69.8540    7.7860 C   0  0  0  0  0
  108.2730  -70.4580    5.7190 C   0  0  0  0  0
  106.7740  -68.8190    8.7850 C   0  0  0  0  0
  107.7860  -68.0210    9.3310 C   0  0  0  0  0
  106.1760  -66.6500   10.4580 C   0  0  0  0  0
  104.2560  -69.3710    8.7080 C   0  0  0  0  0
  103.3690  -69.9050    9.5600 N   0  0  0  0  0
  102.4830  -70.5570    8.7760 N   0  0  0  0  0
  103.9530  -69.6680    7.4400 N   0  0  0  0  0
  109.6831  -76.7188    4.1410 H   0  0  0  0  0
  110.5195  -75.1175    4.0379 H   0  0  0  0  0
  111.9891  -75.7840    5.8619 H   0  0  0  0  0
  111.1659  -77.3599    5.9633 H   0  0  0  0  0
  112.0931  -76.9319    4.5044 H   0  0  0  0  0
  108.1823  -72.3099    3.8451 H   0  0  0  0  0
  109.3047  -73.1388    5.0340 H   0  0  0  0  0
  108.1942  -68.4694    6.5010 H   0  0  0  0  0
  104.1138  -67.1820   10.1865 H   0  0  0  0  0
  108.2928  -66.3400   10.5677 H   0  0  0  0  0
  106.9138  -73.1870    7.1649 H   0  0  0  0  0
  105.3935  -78.2664    5.4921 H   0  0  0  0  0
  102.9950  -78.1251    4.9317 H   0  0  0  0  0
  103.4967  -74.0208    3.7377 H   0  0  0  0  0
   99.5259  -76.2110    9.4269 H   0  0  0  0  0
  102.8266  -74.5696    6.1174 H   0  0  0  0  0
  103.1795  -74.1610    8.5295 H   0  0  0  0  0
  101.5413  -74.9959   10.1889 H   0  0  0  0  0
   99.1363  -76.5903    7.0174 H   0  0  0  0  0
  101.9089  -75.3565    2.0472 H   0  0  0  0  0
  100.2328  -75.7636    2.5397 H   0  0  0  0  0
  100.6276  -80.5512    2.2501 H   0  0  0  0  0
  102.4475  -80.0844    0.4637 H   0  0  0  0  0
  102.9609  -77.4085    0.5144 H   0  0  0  0  0
  109.6263  -74.3816    5.9963 H   0  0  0  0  0
  109.2707  -76.0721    6.5773 H   0  0  0  0  0
  106.2698  -71.5031    8.8352 H   0  0  0  0  0
  108.8535  -70.1551    4.8476 H   0  0  0  0  0
  108.8276  -68.2473    9.1028 H   0  0  0  0  0
  105.9468  -65.7998   11.1004 H   0  0  0  0  0
  1  5  1  0  0  0
  6  1  1  0  0  0
  1 35  1  0  0  0
  2 46  4  0  0  0
 47  2  4  0  0  0
  3  4  1  0  0  0
 36  3  1  0  0  0
  5 33  1  0  0  0
  5 34  2  0  0  0
  7  6  1  0  0  0
 12  7  4  0  0  0
 40  7  4  0  0  0
 39  8  4  0  0  0
  8 40  4  0  0  0
  9 10  4  0  0  0
  9 41  4  0  0  0
 44  9  1  0  0  0
 10 43  4  0  0  0
 42 11  4  0  0  0
 43 11  4  0  0  0
 38 12  4  0  0  0
 13 14  4  0  0  0
 32 13  4  0  0  0
 31 14  4  0  0  0
 15 31  4  0  0  0
 33 15  4  0  0  0
 19 16  1  0  0  0
 16 20  4  0  0  0
 16 23  4  0  0  0
 17 22  4  0  0  0
 23 17  4  0  0  0
 19 18  2  0  0  0
 24 19  1  0  0  0
 20 21  4  0  0  0
 21 22  4  0  0  0
 24 25  1  0  0  0
 31 24  1  0  0  0
 25 26  1  0  0  0
 26 27  4  0  0  0
 26 30  4  0  0  0
 27 28  4  0  0  0
 29 28  4  0  0  0
 30 29  4  0  0  0
 33 32  4  0  0  0
 37 32  1  0  0  0
 35 36  1  0  0  0
 35 37  2  0  0  0
 39 38  4  0  0  0
 41 39  1  0  0  0
 41 42  4  0  0  0
 44 45  4  0  0  0
 44 47  4  0  0  0
 45 46  4  0  0  0
  3 48  1  0  0  0
  3 49  1  0  0  0
  4 50  1  0  0  0
  4 51  1  0  0  0
  4 52  1  0  0  0
  6 53  1  0  0  0
  6 54  1  0  0  0
  8 55  1  0  0  0
 10 56  1  0  0  0
 11 57  1  0  0  0
 12 58  1  0  0  0
 13 59  1  0  0  0
 14 60  1  0  0  0
 15 61  1  0  0  0
 17 62  1  0  0  0
 20 63  1  0  0  0
 21 64  1  0  0  0
 22 65  1  0  0  0
 23 66  1  0  0  0
 25 67  1  0  0  0
 25 68  1  0  0  0
 28 69  1  0  0  0
 29 70  1  0  0  0
 30 71  1  0  0  0
 36 72  1  0  0  0
 36 73  1  0  0  0
 38 74  1  0  0  0
 40 75  1  0  0  0
 42 76  1  0  0  0
 43 77  1  0  0  0
M  END
$$$$
