5tq7_ligand
  -I-interpret- 

 63 67  0  0  0  0  0  0  0  0999 V2000
   16.9030   -8.6600   13.5070 C   0  0  0  0  0
   16.5380   -7.7250   12.5530 C   0  0  0  0  0
   17.5460   -8.2620   14.6700 C   0  0  0  0  0
   10.7230   -1.6240   11.1210 C   0  0  0  0  0
   10.2220   -1.0200    8.3020 C   0  0  0  0  0
   11.5660   -0.8590    8.9890 C   0  0  0  0  0
   10.7340    1.0910    7.0260 C   0  0  0  0  0
    7.3440   -3.6840    6.5580 C   0  0  0  0  0
   11.7150   -1.8460   10.0640 N   0  0  0  0  0
   13.0170   -1.9400   10.5040 C   0  0  0  0  0
    9.0870    0.7270    9.7920 C   0  0  0  0  0
    9.1420   -0.7300    9.3520 C   0  0  0  0  0
    9.3010   -1.6470   10.5630 C   0  0  0  0  0
   10.0180   -0.1780    7.1050 N   0  0  0  0  0
    9.1520   -0.5180    6.0940 C   0  0  0  0  0
    8.3990   -1.7310    6.2500 C   0  0  0  0  0
    8.3670   -2.9280    7.0420 C   0  0  0  0  0
    6.7510   -3.0440    5.4960 N   0  0  0  0  0
    7.3790   -1.8430    5.3030 C   0  0  0  0  0
    7.1350   -0.9540    4.3310 N   0  0  0  0  0
    7.9730    0.0850    4.2910 C   0  0  0  0  0
    8.9860    0.3770    5.1110 N   0  0  0  0  0
   13.9140   -1.1980   10.1340 O   0  0  0  0  0
   13.2240   -2.9330   11.4090 N   0  0  0  0  0
   12.4500   -4.1670   11.5720 C   0  0  0  0  0
   13.5190   -5.2310   11.7890 C   0  0  0  0  0
   14.7630   -4.5360   12.3530 C   0  0  0  0  0
   14.5530   -3.0430   12.0200 C   0  0  0  0  0
   16.2710   -5.1780   11.6240 S   0  0  0  0  0
   15.9330   -5.8410   10.3950 O   0  0  0  0  0
   17.2530   -4.1280   11.5980 O   0  0  0  0  0
   16.8050   -6.3880   12.7880 C   0  0  0  0  0
   17.4500   -5.9740   13.9450 C   0  0  0  0  0
   17.8250   -6.9220   14.8820 C   0  0  0  0  0
   16.6838   -9.7151   13.3431 H   0  0  0  0  0
   16.0478   -8.0376   11.6310 H   0  0  0  0  0
   17.8315   -9.0033   15.4164 H   0  0  0  0  0
   10.9046   -0.6461   11.5668 H   0  0  0  0  0
   10.8187   -2.4205   11.8589 H   0  0  0  0  0
   10.1711   -2.0385    7.9170 H   0  0  0  0  0
   11.6277    0.1419    9.4162 H   0  0  0  0  0
   12.3587   -1.0109    8.2564 H   0  0  0  0  0
   11.3460    1.1059    6.1242 H   0  0  0  0  0
   10.0160    1.9104    6.9929 H   0  0  0  0  0
   11.3730    1.2013    7.9021 H   0  0  0  0  0
    7.0401   -4.6531    6.9538 H   0  0  0  0  0
    8.2386    0.8714   10.4609 H   0  0  0  0  0
   10.0097    0.9830   10.3128 H   0  0  0  0  0
    8.9735    1.3657    8.9160 H   0  0  0  0  0
    8.1903   -0.9361    8.8623 H   0  0  0  0  0
    8.6246   -1.2986   11.3435 H   0  0  0  0  0
    9.0763   -2.6662   10.2486 H   0  0  0  0  0
    9.0312   -3.1814    7.8682 H   0  0  0  0  0
    7.8076    0.7916    3.4777 H   0  0  0  0  0
   11.8170   -4.3801   10.7106 H   0  0  0  0  0
   11.7427   -4.1104   12.3994 H   0  0  0  0  0
   13.7563   -5.7269   10.8478 H   0  0  0  0  0
   13.1616   -5.9905   12.4843 H   0  0  0  0  0
   14.8788   -4.7042   13.4237 H   0  0  0  0  0
   14.6201   -2.4304   12.9190 H   0  0  0  0  0
   15.3252   -2.6834   11.3399 H   0  0  0  0  0
   17.6584   -4.9175   14.1137 H   0  0  0  0  0
   18.3420   -6.6124   15.7903 H   0  0  0  0  0
  2  1  4  0  0  0
  1  3  4  0  0  0
 32  2  4  0  0  0
  3 34  4  0  0  0
  9  4  1  0  0  0
  4 13  1  0  0  0
  6  5  1  0  0  0
  5 12  1  0  0  0
  5 14  1  0  0  0
  9  6  1  0  0  0
 14  7  1  0  0  0
 17  8  4  0  0  0
 18  8  4  0  0  0
 10  9  1  0  0  0
 10 23  2  0  0  0
 24 10  1  0  0  0
 12 11  1  0  0  0
 13 12  1  0  0  0
 14 15  1  0  0  0
 15 16  4  0  0  0
 15 22  4  0  0  0
 16 17  4  0  0  0
 16 19  4  0  0  0
 19 18  4  0  0  0
 19 20  4  0  0  0
 21 20  4  0  0  0
 22 21  4  0  0  0
 24 25  1  0  0  0
 28 24  1  0  0  0
 26 25  1  0  0  0
 27 26  1  0  0  0
 27 28  1  0  0  0
 29 27  1  0  0  0
 29 30  2  0  0  0
 29 31  2  0  0  0
 29 32  1  0  0  0
 32 33  4  0  0  0
 33 34  4  0  0  0
  1 35  1  0  0  0
  2 36  1  0  0  0
  3 37  1  0  0  0
  4 38  1  0  0  0
  4 39  1  0  0  0
  5 40  1  0  0  0
  6 41  1  0  0  0
  6 42  1  0  0  0
  7 43  1  0  0  0
  7 44  1  0  0  0
  7 45  1  0  0  0
  8 46  1  0  0  0
 11 47  1  0  0  0
 11 48  1  0  0  0
 11 49  1  0  0  0
 12 50  1  0  0  0
 13 51  1  0  0  0
 13 52  1  0  0  0
 17 53  1  0  0  0
 21 54  1  0  0  0
 25 55  1  0  0  0
 25 56  1  0  0  0
 26 57  1  0  0  0
 26 58  1  0  0  0
 27 59  1  0  0  0
 28 60  1  0  0  0
 28 61  1  0  0  0
 33 62  1  0  0  0
 34 63  1  0  0  0
M  END
$$$$
