5hn0_ligand
  -I-interpret- 

 29 30  0  0  0  0  0  0  0  0999 V2000
   18.0060   64.0090   10.4810 C   0  0  0  0  0
   17.8990   64.2040   11.8640 C   0  0  0  0  0
   17.8710   63.0990   12.7230 C   0  0  0  0  0
   19.0240   59.6920   15.0580 O   0  0  0  0  0
   20.3170   60.4910   13.4640 O   0  0  0  0  0
   17.6200   62.9180    6.1650 C   0  0  0  0  0
   18.5530   61.9860    5.7000 C   0  0  0  0  0
   19.3150   61.2560    6.6190 C   0  0  0  0  0
   19.1840   61.4620    7.9940 C   0  0  0  0  0
   19.1820   60.2630   13.9500 C   0  0  0  0  0
   17.9200   60.6250   13.1820 C   0  0  0  0  0
   17.9850   61.7910   12.2270 C   0  0  0  0  0
   18.0530   61.5440   10.8470 C   0  0  0  0  0
   18.0890   62.6140    9.9380 C   0  0  0  0  0
   18.0120   65.0790    9.6280 O   0  0  0  0  0
   18.2410   62.3840    8.4660 C   0  0  0  0  0
   17.4660   63.1130    7.5420 C   0  0  0  0  0
   17.8377   65.2136   12.2703 H   0  0  0  0  0
   17.7587   63.2572   13.7956 H   0  0  0  0  0
   18.0858   59.6144   15.2458 H   0  0  0  0  0
   17.0166   63.4889    5.4593 H   0  0  0  0  0
   18.6857   61.8293    4.6295 H   0  0  0  0  0
   20.0241   60.5126    6.2548 H   0  0  0  0  0
   19.8106   60.9097    8.6944 H   0  0  0  0  0
   17.1912   60.9114   13.9402 H   0  0  0  0  0
   17.6975   59.7555   12.5634 H   0  0  0  0  0
   18.0780   60.5181   10.4795 H   0  0  0  0  0
   18.0913   64.7657    8.7240 H   0  0  0  0  0
   16.7373   63.8380    7.9046 H   0  0  0  0  0
  1  2  4  0  0  0
 14  1  4  0  0  0
  1 15  1  0  0  0
  2  3  4  0  0  0
 12  3  4  0  0  0
 10  4  1  0  0  0
 10  5  2  0  0  0
  7  6  4  0  0  0
  6 17  4  0  0  0
  8  7  4  0  0  0
  9  8  4  0  0  0
 16  9  4  0  0  0
 11 10  1  0  0  0
 12 11  1  0  0  0
 13 12  4  0  0  0
 14 13  4  0  0  0
 14 16  1  0  0  0
 16 17  4  0  0  0
  2 18  1  0  0  0
  3 19  1  0  0  0
  4 20  1  0  0  0
  6 21  1  0  0  0
  7 22  1  0  0  0
  8 23  1  0  0  0
  9 24  1  0  0  0
 11 25  1  0  0  0
 11 26  1  0  0  0
 13 27  1  0  0  0
 15 28  1  0  0  0
 17 29  1  0  0  0
M  END
$$$$
