5eei_ligand
  -I-interpret- 

 39 39  0  0  0  0  0  0  0  0999 V2000
    3.5580   -8.7140    1.6040 O   0  0  0  0  0
    5.0390   -7.0310    2.8860 O   0  0  0  0  0
    4.4390   -7.8860    0.9540 N   0  0  0  0  0
    5.1450   -7.0400    1.6670 C   0  0  0  0  0
    6.0770   -6.1070    0.9290 C   0  0  0  0  0
    5.5460   -5.7040   -0.4290 C   0  0  0  0  0
    6.4250   -4.6400   -1.0500 C   0  0  0  0  0
    5.9100   -3.2480   -0.7060 C   0  0  0  0  0
    6.3920   -2.2720   -1.7590 C   0  0  0  0  0
    5.7660   -0.9010   -1.5470 C   0  0  0  0  0
    6.2230   -0.3080   -0.2340 C   0  0  0  0  0
    5.4330   -0.1540    0.6850 O   0  0  0  0  0
    7.5170   -0.0110   -0.1990 N   0  0  0  0  0
    8.2540    0.5420    0.8680 C   0  0  0  0  0
    9.6320    0.4080    0.8200 C   0  0  0  0  0
   10.4350    0.9430    1.8220 C   0  0  0  0  0
    9.8590    1.6490    2.8680 C   0  0  0  0  0
    8.4860    1.7870    2.9330 C   0  0  0  0  0
    7.6880    1.2500    1.9350 C   0  0  0  0  0
    3.1145   -9.2741    0.9628 H   0  0  0  0  0
    4.5426   -7.9273   -0.0599 H   0  0  0  0  0
    7.0217   -6.6291    0.7772 H   0  0  0  0  0
    6.1871   -5.2023    1.5270 H   0  0  0  0  0
    4.5386   -5.3050   -0.3102 H   0  0  0  0  0
    5.5377   -6.5790   -1.0790 H   0  0  0  0  0
    6.4143   -4.7620   -2.1331 H   0  0  0  0  0
    7.4373   -4.7475   -0.6603 H   0  0  0  0  0
    6.2843   -2.9483    0.2728 H   0  0  0  0  0
    4.8203   -3.2543   -0.6809 H   0  0  0  0  0
    6.1036   -2.6432   -2.7424 H   0  0  0  0  0
    7.4756   -2.1802   -1.6853 H   0  0  0  0  0
    4.6812   -1.0057   -1.5299 H   0  0  0  0  0
    6.0729   -0.2420   -2.3592 H   0  0  0  0  0
    8.0433   -0.2075   -1.0504 H   0  0  0  0  0
   10.0926   -0.1231   -0.0130 H   0  0  0  0  0
   11.5159    0.8076    1.7853 H   0  0  0  0  0
   10.4891    2.0944    3.6378 H   0  0  0  0  0
    8.0304    2.3180    3.7688 H   0  0  0  0  0
    6.6068    1.3805    1.9814 H   0  0  0  0  0
  3  1  1  0  0  0
  4  2  2  0  0  0
  3  4  1  0  0  0
  4  5  1  0  0  0
  5  6  1  0  0  0
  6  7  1  0  0  0
  7  8  1  0  0  0
  8  9  1  0  0  0
  9 10  1  0  0  0
 10 11  1  0  0  0
 11 12  2  0  0  0
 11 13  1  0  0  0
 13 14  1  0  0  0
 14 15  4  0  0  0
 14 19  4  0  0  0
 15 16  4  0  0  0
 16 17  4  0  0  0
 17 18  4  0  0  0
 18 19  4  0  0  0
  1 20  1  0  0  0
  3 21  1  0  0  0
  5 22  1  0  0  0
  5 23  1  0  0  0
  6 24  1  0  0  0
  6 25  1  0  0  0
  7 26  1  0  0  0
  7 27  1  0  0  0
  8 28  1  0  0  0
  8 29  1  0  0  0
  9 30  1  0  0  0
  9 31  1  0  0  0
 10 32  1  0  0  0
 10 33  1  0  0  0
 13 34  1  0  0  0
 15 35  1  0  0  0
 16 36  1  0  0  0
 17 37  1  0  0  0
 18 38  1  0  0  0
 19 39  1  0  0  0
M  END
$$$$
