3qbh_ligand
  -I-interpret- 

 79 82  0  0  0  0  0  0  0  0999 V2000
   28.7780    5.2150   14.3000 S   0  0  0  0  0
   29.5930    3.6230   14.1070 C   0  0  0  0  0
   30.9700    3.8330   13.4070 C   0  0  0  0  0
   31.9250    4.7850   14.1980 C   0  0  0  0  0
   31.3680    6.2090   14.5170 C   0  0  0  0  0
   29.9880    6.1180   15.2500 C   0  0  0  0  0
   32.3940    7.0700   15.3420 C   0  0  0  0  0
   31.8020    8.3860   15.8730 C   0  0  0  0  0
   31.5160    8.5250   17.2550 C   0  0  0  0  0
   30.9550    9.7160   17.7760 C   0  0  0  0  0
   30.6770   10.7830   16.8740 C   0  0  0  0  0
   30.9710   10.6570   15.4960 C   0  0  0  0  0
   31.5340    9.4630   14.9910 C   0  0  0  0  0
   30.1060   11.9770   17.3100 O   0  0  0  0  0
   30.6650    9.8190   19.2910 C   0  0  0  0  0
   29.3520    9.1360   19.7770 C   0  0  0  0  0
   29.2380    7.6830   19.6880 N   0  0  0  0  0
   28.1800    7.2680   18.9400 C   0  0  0  0  0
   27.5250    8.3320   18.4570 O   0  0  0  0  0
   28.0520    9.5350   19.0420 C   0  0  0  0  0
   27.8220    6.1280   18.6920 O   0  0  0  0  0
   30.1620    6.7260   20.3190 C   0  0  0  0  0
   30.2440    6.7890   21.8660 C   0  0  0  0  0
   31.1530    5.6460   22.3960 C   0  0  0  0  0
   33.1640    4.8650   13.4740 O   0  0  0  0  0
   31.6490    2.5440   13.0870 N   0  3  0  0  0
   31.0770    1.6410   12.0330 C   0  0  0  0  0
   30.9750    2.3530   10.6680 C   0  0  0  0  0
   32.1410    2.7400    9.9650 C   0  0  0  0  0
   32.0660    3.3980    8.7080 C   0  0  0  0  0
   30.7890    3.6680    8.1630 C   0  0  0  0  0
   29.6130    3.2880    8.8530 C   0  0  0  0  0
   29.7040    2.6300   10.1050 C   0  0  0  0  0
   33.3530    3.8070    7.9570 C   0  0  0  0  0
   33.9860    5.0620    8.6140 C   0  0  0  0  0
   34.4040    2.6810    7.7570 C   0  0  0  0  0
   27.5960    4.9960   15.1010 O   0  0  0  0  0
   28.6370    5.8460   13.0000 O   0  0  0  0  0
   28.9710    2.9650   13.5002 H   0  0  0  0  0
   29.7461    3.1695   15.0863 H   0  0  0  0  0
   30.7374    4.3292   12.4648 H   0  0  0  0  0
   32.0544    4.3451   15.1868 H   0  0  0  0  0
   31.2146    6.7186   13.5658 H   0  0  0  0  0
   30.1391    5.5929   16.1931 H   0  0  0  0  0
   29.6152    7.1316   15.3978 H   0  0  0  0  0
   33.2175    7.3263   14.6755 H   0  0  0  0  0
   32.7011    6.4774   16.2037 H   0  0  0  0  0
   31.7327    7.6974   17.9305 H   0  0  0  0  0
   30.7621   11.4858   14.8196 H   0  0  0  0  0
   31.7609    9.3708   13.9289 H   0  0  0  0  0
   29.9960   12.5694   16.5627 H   0  0  0  0  0
   30.5604   10.8810   19.5132 H   0  0  0  0  0
   31.4839    9.3076   19.7969 H   0  0  0  0  0
   29.4440    9.4965   20.8015 H   0  0  0  0  0
   28.2520   10.2848   18.2766 H   0  0  0  0  0
   27.3348    9.9786   19.7326 H   0  0  0  0  0
   31.1577    6.9681   19.9474 H   0  0  0  0  0
   29.7927    5.7311   20.0701 H   0  0  0  0  0
   29.2436    6.6748   22.2834 H   0  0  0  0  0
   30.6643    7.7494   22.1643 H   0  0  0  0  0
   30.7366    4.6841   22.0969 H   0  0  0  0  0
   32.1537    5.7560   21.9781 H   0  0  0  0  0
   31.2042    5.6989   23.4835 H   0  0  0  0  0
   33.4842    3.9787   13.2909 H   0  0  0  0  0
   31.5897    2.0019   13.9490 H   0  0  0  0  0
   32.5613    2.8182   12.7224 H   0  0  0  0  0
   30.0748    1.3437   12.3417 H   0  0  0  0  0
   31.7359    0.7797   11.9233 H   0  0  0  0  0
   33.1187    2.5284   10.3979 H   0  0  0  0  0
   30.7096    4.1743    7.2010 H   0  0  0  0  0
   28.6355    3.5018    8.4207 H   0  0  0  0  0
   28.7973    2.3372   10.6345 H   0  0  0  0  0
   33.0263    4.0416    6.9439 H   0  0  0  0  0
   33.2750    5.8874    8.5773 H   0  0  0  0  0
   34.2347    4.8408    9.6519 H   0  0  0  0  0
   34.8914    5.3363    8.0726 H   0  0  0  0  0
   34.7233    2.3069    8.7297 H   0  0  0  0  0
   33.9594    1.8687    7.1820 H   0  0  0  0  0
   35.2642    3.0800    7.2195 H   0  0  0  0  0
  1  2  1  0  0  0
  1  6  1  0  0  0
  1 37  2  0  0  0
  1 38  2  0  0  0
  2  3  1  0  0  0
  3  4  1  0  0  0
  3 26  1  0  0  0
  4  5  1  0  0  0
  4 25  1  0  0  0
  5  6  1  0  0  0
  5  7  1  0  0  0
  7  8  1  0  0  0
  8  9  4  0  0  0
  8 13  4  0  0  0
  9 10  4  0  0  0
 10 11  4  0  0  0
 10 15  1  0  0  0
 11 12  4  0  0  0
 11 14  1  0  0  0
 12 13  4  0  0  0
 15 16  1  0  0  0
 16 17  1  0  0  0
 16 20  1  0  0  0
 17 18  1  0  0  0
 17 22  1  0  0  0
 18 19  1  0  0  0
 18 21  2  0  0  0
 19 20  1  0  0  0
 22 23  1  0  0  0
 23 24  1  0  0  0
 26 27  1  0  0  0
 27 28  1  0  0  0
 28 29  4  0  0  0
 28 33  4  0  0  0
 29 30  4  0  0  0
 30 31  4  0  0  0
 30 34  1  0  0  0
 31 32  4  0  0  0
 32 33  4  0  0  0
 34 35  1  0  0  0
 34 36  1  0  0  0
  2 39  1  0  0  0
  2 40  1  0  0  0
  3 41  1  0  0  0
  4 42  1  0  0  0
  5 43  1  0  0  0
  6 44  1  0  0  0
  6 45  1  0  0  0
  7 46  1  0  0  0
  7 47  1  0  0  0
  9 48  1  0  0  0
 12 49  1  0  0  0
 13 50  1  0  0  0
 14 51  1  0  0  0
 15 52  1  0  0  0
 15 53  1  0  0  0
 16 54  1  0  0  0
 20 55  1  0  0  0
 20 56  1  0  0  0
 22 57  1  0  0  0
 22 58  1  0  0  0
 23 59  1  0  0  0
 23 60  1  0  0  0
 24 61  1  0  0  0
 24 62  1  0  0  0
 24 63  1  0  0  0
 25 64  1  0  0  0
 26 65  1  0  0  0
 26 66  1  0  0  0
 27 67  1  0  0  0
 27 68  1  0  0  0
 29 69  1  0  0  0
 31 70  1  0  0  0
 32 71  1  0  0  0
 33 72  1  0  0  0
 34 73  1  0  0  0
 35 74  1  0  0  0
 35 75  1  0  0  0
 35 76  1  0  0  0
 36 77  1  0  0  0
 36 78  1  0  0  0
 36 79  1  0  0  0
M  END
$$$$
