1pfy_ligand
  -I-interpret- 

 55 57  0  0  0  0  0  0  0  0999 V2000
   14.5910    9.0130   19.4400 N   0  3  0  0  0
   14.2100   10.3800   19.8280 C   0  0  0  0  0
   12.7120   10.5500   20.1730 C   0  0  0  0  0
   11.7250    9.9970   19.1310 C   0  0  0  0  0
   10.0470   10.3030   19.7020 S   0  0  0  0  0
    9.1100    9.7460   18.2620 C   0  0  0  0  0
   15.0490   10.7980   21.0490 C   0  0  0  0  0
   15.6200    9.7380   21.6860 N   0  0  0  0  0
   16.4990   10.0520   23.0040 S   0  0  0  0  0
   16.7810    8.7150   23.4640 O   0  0  0  0  0
   17.6150   10.8830   22.6730 O   0  0  0  0  0
   15.5980   10.7810   24.0710 O   0  0  0  0  0
   14.4220   10.1500   24.5900 C   0  0  0  0  0
   13.7550   11.1010   25.5890 C   0  0  0  0  0
   14.6540   11.2180   26.6800 O   0  0  0  0  0
   13.5760   12.5240   25.0160 C   0  0  0  0  0
   12.2070   12.8910   25.1750 O   0  0  0  0  0
   14.5120   13.3740   25.8620 C   0  0  0  0  0
   14.0200   14.6940   25.9940 O   0  0  0  0  0
   14.6640   12.5580   27.1470 C   0  0  0  0  0
   15.9490   12.8460   27.8080 N   0  0  0  0  0
   17.2180   12.5980   27.3900 C   0  0  0  0  0
   18.1640   13.0080   28.2590 N   0  0  0  0  0
   17.4700   13.5720   29.3120 C   0  0  0  0  0
   17.8080   14.1680   30.5080 C   0  0  0  0  0
   19.0920   14.3220   30.8670 N   0  0  0  0  0
   16.8550   14.6330   31.3590 N   0  0  0  0  0
   15.5410   14.5040   31.0370 C   0  0  0  0  0
   15.1130   13.9280   29.8850 N   0  0  0  0  0
   16.0780   13.4710   29.0340 C   0  0  0  0  0
   15.0680   11.9840   21.3560 O   0  0  0  0  0
   14.0409    8.7247   18.6309 H   0  0  0  0  0
   15.5829    8.9920   19.2032 H   0  0  0  0  0
   14.4124    8.3778   20.2178 H   0  0  0  0  0
   14.3998   11.0116   18.9602 H   0  0  0  0  0
   12.5280   11.6225   20.2359 H   0  0  0  0  0
   12.5397    9.9892   21.0916 H   0  0  0  0  0
   11.8827    8.9258   19.0050 H   0  0  0  0  0
   11.8847   10.4908   18.1725 H   0  0  0  0  0
    9.3953   10.3388   17.3929 H   0  0  0  0  0
    9.3270    8.6946   18.0734 H   0  0  0  0  0
    8.0441    9.8696   18.4537 H   0  0  0  0  0
   15.4974    8.7847   21.3445 H   0  0  0  0  0
   14.6906    9.2184   25.0881 H   0  0  0  0  0
   13.7327    9.9247   23.7762 H   0  0  0  0  0
   12.7732   10.7064   25.8506 H   0  0  0  0  0
   13.8093   12.6314   23.9567 H   0  0  0  0  0
   12.0710   13.7745   24.8250 H   0  0  0  0  0
   15.4969   13.5556   25.4318 H   0  0  0  0  0
   14.6273   15.2085   26.5308 H   0  0  0  0  0
   13.8863   12.7768   27.8788 H   0  0  0  0  0
   17.4494   12.1133   26.4415 H   0  0  0  0  0
   19.8365   13.9956   30.2509 H   0  0  0  0  0
   19.3233   14.7654   31.7560 H   0  0  0  0  0
   14.7955   14.8810   31.7371 H   0  0  0  0  0
  1  2  1  0  0  0
  2  3  1  0  0  0
  2  7  1  0  0  0
  3  4  1  0  0  0
  4  5  1  0  0  0
  5  6  1  0  0  0
  7  8  1  0  0  0
  7 31  2  0  0  0
  8  9  1  0  0  0
  9 10  2  0  0  0
  9 11  2  0  0  0
  9 12  1  0  0  0
 12 13  1  0  0  0
 13 14  1  0  0  0
 14 15  1  0  0  0
 14 16  1  0  0  0
 15 20  1  0  0  0
 16 17  1  0  0  0
 16 18  1  0  0  0
 18 19  1  0  0  0
 18 20  1  0  0  0
 20 21  1  0  0  0
 21 22  4  0  0  0
 21 30  4  0  0  0
 22 23  4  0  0  0
 23 24  4  0  0  0
 24 25  4  0  0  0
 24 30  4  0  0  0
 25 26  1  0  0  0
 25 27  4  0  0  0
 27 28  4  0  0  0
 28 29  4  0  0  0
 29 30  4  0  0  0
  1 32  1  0  0  0
  1 33  1  0  0  0
  1 34  1  0  0  0
  2 35  1  0  0  0
  3 36  1  0  0  0
  3 37  1  0  0  0
  4 38  1  0  0  0
  4 39  1  0  0  0
  6 40  1  0  0  0
  6 41  1  0  0  0
  6 42  1  0  0  0
  8 43  1  0  0  0
 13 44  1  0  0  0
 13 45  1  0  0  0
 14 46  1  0  0  0
 16 47  1  0  0  0
 17 48  1  0  0  0
 18 49  1  0  0  0
 19 50  1  0  0  0
 20 51  1  0  0  0
 22 52  1  0  0  0
 26 53  1  0  0  0
 26 54  1  0  0  0
 28 55  1  0  0  0
M  END
$$$$
