6ccx_ligand
  -I-interpret- 

 48 51  0  0  0  0  0  0  0  0999 V2000
   12.8750    7.3150   17.1860 C   0  0  0  0  0
   12.1720    7.5300   15.8370 C   0  0  0  0  0
   14.3110    6.8290   16.9930 C   0  0  0  0  0
   15.0980    7.8920   16.1950 C   0  0  0  0  0
   13.1400    7.9160   14.7090 C   0  0  0  0  0
   12.3670    8.6710   13.6060 C   0  0  0  0  0
   13.1580    8.9810   12.5050 C   0  0  0  0  0
   13.3970    7.9980   11.5110 C   0  0  0  0  0
   13.7220   10.2800   12.4010 C   0  0  0  0  0
   14.5280   10.5980   11.2950 C   0  0  0  0  0
   14.7550    9.6170   10.3090 C   0  0  0  0  0
   14.2020    8.3160   10.4050 C   0  0  0  0  0
   11.6640    3.2510   18.5610 C   0  0  0  0  0
   11.1270    1.9530   18.4310 C   0  0  0  0  0
   10.1440    1.5010   19.3430 C   0  0  0  0  0
    9.7350    2.3710   20.3680 C   0  0  0  0  0
   10.2770    3.6050   20.4460 C   0  0  0  0  0
   11.2260    4.0470   19.5760 C   0  0  0  0  0
   10.8180    5.6230   21.0220 C   0  0  0  0  0
   12.3430    6.1670   19.3250 C   0  0  0  0  0
   12.0830    6.3870   18.0190 N   0  0  0  0  0
   14.2910    8.6800   15.2470 N   0  3  0  0  0
   10.0530    4.5820   21.3270 N   0  0  0  0  0
   13.2970    6.6800   19.9140 O   0  0  0  0  0
   11.5320    5.2950   19.9450 C   0  0  0  0  0
   15.7590   10.0010    8.9490 Cl  0  0  0  0  0
   11.6860    0.8480   17.0290 Br  0  0  0  0  0
   12.9390    8.2699   17.7077 H   0  0  0  0  0
   11.4626    8.3484   15.9596 H   0  0  0  0  0
   11.6956    6.5902   15.5579 H   0  0  0  0  0
   14.3098    5.8856   16.4470 H   0  0  0  0  0
   14.7811    6.6757   17.9644 H   0  0  0  0  0
   15.8429    7.3567   15.6061 H   0  0  0  0  0
   15.5055    8.5944   16.9221 H   0  0  0  0  0
   13.5619    7.0202   14.2533 H   0  0  0  0  0
   12.0090    9.6080   14.0327 H   0  0  0  0  0
   11.5593    8.0240   13.2636 H   0  0  0  0  0
   12.9596    7.0040   11.6047 H   0  0  0  0  0
   13.5311   11.0249   13.1735 H   0  0  0  0  0
   14.9714   11.5893   11.2009 H   0  0  0  0  0
   14.3984    7.5731    9.6320 H   0  0  0  0  0
   12.4174    3.6113   17.8605 H   0  0  0  0  0
    9.7148    0.5031   19.2527 H   0  0  0  0  0
    8.9867    2.0523   21.0937 H   0  0  0  0  0
   10.8556    6.5730   21.5550 H   0  0  0  0  0
   11.3040    5.8897   17.5874 H   0  0  0  0  0
   14.8903    8.9394   14.4635 H   0  0  0  0  0
   13.9249    9.4918   15.7444 H   0  0  0  0  0
  1  2  1  0  0  0
  1  3  1  0  0  0
 21  1  1  0  0  0
  2  5  1  0  0  0
  3  4  1  0  0  0
  4 22  1  0  0  0
  5  6  1  0  0  0
  5 22  1  0  0  0
  6  7  1  0  0  0
  7  8  4  0  0  0
  7  9  4  0  0  0
  8 12  4  0  0  0
  9 10  4  0  0  0
 10 11  4  0  0  0
 12 11  4  0  0  0
 11 26  1  0  0  0
 13 14  4  0  0  0
 18 13  4  0  0  0
 14 15  4  0  0  0
 14 27  1  0  0  0
 16 15  4  0  0  0
 17 16  4  0  0  0
 18 17  4  0  0  0
 23 17  4  0  0  0
 25 18  4  0  0  0
 19 23  4  0  0  0
 25 19  4  0  0  0
 20 21  1  0  0  0
 20 24  2  0  0  0
 20 25  1  0  0  0
  1 28  1  0  0  0
  2 29  1  0  0  0
  2 30  1  0  0  0
  3 31  1  0  0  0
  3 32  1  0  0  0
  4 33  1  0  0  0
  4 34  1  0  0  0
  5 35  1  0  0  0
  6 36  1  0  0  0
  6 37  1  0  0  0
  8 38  1  0  0  0
  9 39  1  0  0  0
 10 40  1  0  0  0
 12 41  1  0  0  0
 13 42  1  0  0  0
 15 43  1  0  0  0
 16 44  1  0  0  0
 19 45  1  0  0  0
 21 46  1  0  0  0
 22 47  1  0  0  0
 22 48  1  0  0  0
M  END
$$$$
