2r3k_ligand
  -I-interpret- 

 38 41  0  0  0  0  0  0  0  0999 V2000
   -0.3820   31.7800    8.6640 C   0  0  0  0  0
    0.1670   30.5590    8.9710 C   0  0  0  0  0
    1.3800   30.5110    8.3510 N   0  0  0  0  0
    1.6120   31.6870    7.6480 N   0  0  0  0  0
    0.5380   32.4470    7.8470 C   0  0  0  0  0
   -0.3240   29.4720    9.7700 C   0  0  0  0  0
    0.4650   28.3660    9.8910 C   0  0  0  0  0
    1.7410   28.3370    9.2260 C   0  0  0  0  0
    2.1990   29.4130    8.4560 C   0  0  0  0  0
    3.4130   29.4610    7.8030 N   0  0  0  0  0
    0.0270   27.1920   10.6960 C   0  0  0  0  0
    4.4530   28.5030    8.1630 C   0  0  0  0  0
    4.5160   27.4910    7.0730 C   0  0  0  0  0
    4.7150   27.8440    5.7340 C   0  0  0  0  0
    4.7440   26.9450    4.7500 N   0  0  0  0  0
    4.5650   25.6710    5.1210 C   0  0  0  0  0
    4.3350   25.2060    6.3620 N   0  0  0  0  0
    4.3210   26.1300    7.3300 C   0  0  0  0  0
   -0.1020   27.2750   12.0940 C   0  0  0  0  0
   -0.5260   26.1620   12.8350 C   0  0  0  0  0
   -0.8220   24.9620   12.1870 C   0  0  0  0  0
   -0.6960   24.8760   10.7980 C   0  0  0  0  0
   -0.2780   25.9880   10.0610 C   0  0  0  0  0
   -2.0210   32.3970    9.2230 Br  0  0  0  0  0
    0.3953   33.4453    7.4333 H   0  0  0  0  0
   -1.2944   29.5286   10.2632 H   0  0  0  0  0
    2.3691   27.4517    9.3246 H   0  0  0  0  0
    3.5817   30.1577    7.0773 H   0  0  0  0  0
    4.2228   28.0267    9.1160 H   0  0  0  0  0
    5.4140   29.0046    8.2770 H   0  0  0  0  0
    4.8518   28.8964    5.4853 H   0  0  0  0  0
    4.6109   24.9258    4.3269 H   0  0  0  0  0
    4.1511   25.8097    8.3579 H   0  0  0  0  0
    0.1289   28.2098   12.6048 H   0  0  0  0  0
   -0.6244   26.2345   13.9181 H   0  0  0  0  0
   -1.1500   24.0958   12.7617 H   0  0  0  0  0
   -0.9241   23.9400   10.2881 H   0  0  0  0  0
   -0.1894   25.9133    8.9772 H   0  0  0  0  0
  1  2  4  0  0  0
  1  5  4  0  0  0
  1 24  1  0  0  0
  2  3  4  0  0  0
  2  6  4  0  0  0
  3  4  4  0  0  0
  3  9  4  0  0  0
  4  5  4  0  0  0
  6  7  4  0  0  0
  7  8  4  0  0  0
  7 11  1  0  0  0
  8  9  4  0  0  0
  9 10  1  0  0  0
 10 12  1  0  0  0
 11 19  4  0  0  0
 11 23  4  0  0  0
 12 13  1  0  0  0
 13 14  4  0  0  0
 13 18  4  0  0  0
 14 15  4  0  0  0
 15 16  4  0  0  0
 16 17  4  0  0  0
 17 18  4  0  0  0
 19 20  4  0  0  0
 20 21  4  0  0  0
 21 22  4  0  0  0
 22 23  4  0  0  0
  5 25  1  0  0  0
  6 26  1  0  0  0
  8 27  1  0  0  0
 10 28  1  0  0  0
 12 29  1  0  0  0
 12 30  1  0  0  0
 14 31  1  0  0  0
 16 32  1  0  0  0
 18 33  1  0  0  0
 19 34  1  0  0  0
 20 35  1  0  0  0
 21 36  1  0  0  0
 22 37  1  0  0  0
 23 38  1  0  0  0
M  END
$$$$
