4qmo_ligand
  -I-interpret- 

 26 29  0  0  0  0  0  0  0  0999 V2000
  125.5600   -1.1840   76.5080 C   0  0  0  0  0
  124.8050   -1.8190   77.4870 C   0  0  0  0  0
  124.6190   -3.2430   77.4490 C   0  0  0  0  0
  125.1930   -3.9800   76.4170 C   0  0  0  0  0
  125.9680   -3.3170   75.4100 C   0  0  0  0  0
  126.1540   -1.9290   75.4510 C   0  0  0  0  0
  126.6280   -3.7890   74.3170 N   0  0  0  0  0
  127.2180   -2.7810   73.6790 C   0  0  0  0  0
  126.9450   -1.5580   74.3470 C   0  0  0  0  0
  127.3860   -0.1510   73.9990 C   0  0  0  0  0
  128.0770    0.2550   72.7210 C   0  0  0  0  0
  129.1200    0.2810   70.8030 C   0  0  0  0  0
  128.5760   -0.5140   71.7380 N   0  0  0  0  0
  128.3390    1.5790   72.3630 C   0  0  0  0  0
  128.9810    1.5550   71.1760 N   0  0  0  0  0
  127.9720   -2.9160   72.5480 O   0  0  0  0  0
  124.2550   -0.9540   78.4790 N   0  0  0  0  0
  124.5660    0.3570   78.3180 C   0  0  0  0  0
  125.5170    0.4920   76.9250 S   0  0  0  0  0
  124.0336   -3.7419   78.2214 H   0  0  0  0  0
  125.0532   -5.0602   76.3748 H   0  0  0  0  0
  126.6648   -4.7672   74.0304 H   0  0  0  0  0
  127.1879    0.6315   74.7315 H   0  0  0  0  0
  129.5991   -0.0597   69.8851 H   0  0  0  0  0
  128.0741    2.4675   72.9361 H   0  0  0  0  0
  124.2586    1.1756   78.9688 H   0  0  0  0  0
  1  2  4  0  0  0
  1  6  4  0  0  0
  1 19  4  0  0  0
  2  3  4  0  0  0
  2 17  4  0  0  0
  3  4  4  0  0  0
  4  5  4  0  0  0
  5  6  4  0  0  0
  5  7  1  0  0  0
  6  9  1  0  0  0
  7  8  1  0  0  0
  8  9  1  0  0  0
  8 16  2  0  0  0
  9 10  2  0  0  0
 10 11  1  0  0  0
 11 13  4  0  0  0
 11 14  4  0  0  0
 13 12  4  0  0  0
 12 15  4  0  0  0
 14 15  4  0  0  0
 17 18  4  0  0  0
 18 19  4  0  0  0
  3 20  1  0  0  0
  4 21  1  0  0  0
  7 22  1  0  0  0
 10 23  1  0  0  0
 12 24  1  0  0  0
 14 25  1  0  0  0
 18 26  1  0  0  0
M  END
$$$$
