6a6k_ligand
  -I-interpret- 

 71 74  0  0  0  0  0  0  0  0999 V2000
   68.1880   -2.6500  149.9670 C   0  0  0  0  0
   68.1050   -3.4110  148.8050 C   0  0  0  0  0
   68.5580   -4.7440  148.7760 C   0  0  0  0  0
   68.2790   -1.3120  147.2510 C   0  0  0  0  0
   69.6770   -1.2350  147.1350 C   0  0  0  0  0
   67.5480   -0.1260  147.1180 C   0  0  0  0  0
   66.5760   -3.2330  146.7980 C   0  0  0  0  0
   66.1210   -2.3630  145.5650 C   0  0  0  0  0
   64.9400   -2.8500  144.7170 C   0  0  0  0  0
   64.3090   -1.5860  144.0880 C   0  0  0  0  0
   65.8750   -4.6020  147.1220 C   0  0  0  0  0
   66.2220   -5.8140  146.4120 C   0  0  0  0  0
   65.5970   -7.0940  146.6900 C   0  0  0  0  0
   64.6470   -7.0070  147.6890 C   0  0  0  0  0
   64.8460   -4.7090  148.1360 C   0  0  0  0  0
   72.2750   -5.9930  156.7500 C   0  0  0  0  0
   71.3330   -6.7930  155.7940 C   0  0  0  0  0
   71.8130   -8.2700  155.7620 C   0  0  0  0  0
   70.7780   -4.9350  154.6300 C   0  0  0  0  0
   70.3440   -4.2780  153.3220 C   0  0  0  0  0
   70.5330   -6.3520  152.2480 C   0  0  0  0  0
   70.7920   -7.0440  153.5870 C   0  0  0  0  0
   69.1710   -4.5620  151.0920 C   0  0  0  0  0
   68.7230   -3.2360  151.1220 C   0  0  0  0  0
   69.1030   -5.3320  149.9230 C   0  0  0  0  0
   67.5600   -2.7090  147.5640 C   0  0  0  0  0
   70.2880    0.0020  146.8670 C   0  0  0  0  0
   69.5380    1.1670  146.7270 C   0  0  0  0  0
   68.1670    1.1110  146.8510 C   0  0  0  0  0
   64.1790   -5.9560  148.4640 C   0  0  0  0  0
   71.2990   -6.2240  154.5810 N   0  3  0  0  0
   69.7310   -5.1570  152.3520 N   0  0  0  0  0
   71.6760    0.1250  146.7390 O   0  0  0  0  0
   64.0880   -1.8340  142.7190 O   0  0  0  0  0
   67.8429   -1.6161  149.9786 H   0  0  0  0  0
   68.4837   -5.3214  147.8545 H   0  0  0  0  0
   70.2857   -2.1315  147.2524 H   0  0  0  0  0
   66.4638   -0.1605  147.2245 H   0  0  0  0  0
   66.9751   -2.3623  144.8878 H   0  0  0  0  0
   65.7918   -1.4158  145.9923 H   0  0  0  0  0
   64.2148   -3.3890  145.3266 H   0  0  0  0  0
   65.2704   -3.5481  143.9479 H   0  0  0  0  0
   64.9787   -0.7347  144.2096 H   0  0  0  0  0
   63.3655   -1.3545  144.5823 H   0  0  0  0  0
   66.9852   -5.7636  145.6354 H   0  0  0  0  0
   65.8485   -8.0183  146.1699 H   0  0  0  0  0
   64.1668   -7.9592  147.9145 H   0  0  0  0  0
   64.5584   -3.8090  148.6794 H   0  0  0  0  0
   72.2272   -6.4244  157.7499 H   0  0  0  0  0
   73.2983   -6.0466  156.3783 H   0  0  0  0  0
   71.9544   -4.9519  156.7864 H   0  0  0  0  0
   70.3056   -6.7765  156.1577 H   0  0  0  0  0
   72.8391   -8.3094  155.3965 H   0  0  0  0  0
   71.7681   -8.6872  156.7680 H   0  0  0  0  0
   71.1675   -8.8462  155.0992 H   0  0  0  0  0
   69.8683   -5.0165  155.2249 H   0  0  0  0  0
   71.5894   -4.3126  155.0074 H   0  0  0  0  0
   71.2497   -3.8888  152.8568 H   0  0  0  0  0
   69.5907   -3.5353  153.5848 H   0  0  0  0  0
   69.9860   -7.0555  151.6203 H   0  0  0  0  0
   71.5012   -6.0580  151.8428 H   0  0  0  0  0
   71.5401   -7.8152  153.4032 H   0  0  0  0  0
   69.8294   -7.4115  153.9427 H   0  0  0  0  0
   68.7904   -2.6591  152.0443 H   0  0  0  0  0
   69.4645   -6.3602  149.9076 H   0  0  0  0  0
   70.0321    2.1164  146.5208 H   0  0  0  0  0
   67.5672    2.0148  146.7436 H   0  0  0  0  0
   63.4055   -6.0544  149.2257 H   0  0  0  0  0
   72.2660   -6.1021  154.2803 H   0  0  0  0  0
   71.8996    1.0409  146.5580 H   0  0  0  0  0
   63.6958   -1.0572  142.3135 H   0  0  0  0  0
  1  2  4  0  0  0
 24  1  4  0  0  0
  3  2  4  0  0  0
  2 26  1  0  0  0
 25  3  4  0  0  0
  4  5  4  0  0  0
  4  6  4  0  0  0
 26  4  1  0  0  0
  5 27  4  0  0  0
  6 29  4  0  0  0
  7  8  1  0  0  0
  7 11  1  0  0  0
 26  7  2  0  0  0
  8  9  1  0  0  0
  9 10  1  0  0  0
 10 34  1  0  0  0
 11 12  4  0  0  0
 11 15  4  0  0  0
 12 13  4  0  0  0
 13 14  4  0  0  0
 30 14  4  0  0  0
 15 30  4  0  0  0
 17 16  1  0  0  0
 17 18  1  0  0  0
 31 17  1  0  0  0
 20 19  1  0  0  0
 19 31  1  0  0  0
 32 20  1  0  0  0
 21 22  1  0  0  0
 32 21  1  0  0  0
 22 31  1  0  0  0
 23 24  4  0  0  0
 23 25  4  0  0  0
 23 32  1  0  0  0
 27 28  4  0  0  0
 27 33  1  0  0  0
 28 29  4  0  0  0
  1 35  1  0  0  0
  3 36  1  0  0  0
  5 37  1  0  0  0
  6 38  1  0  0  0
  8 39  1  0  0  0
  8 40  1  0  0  0
  9 41  1  0  0  0
  9 42  1  0  0  0
 10 43  1  0  0  0
 10 44  1  0  0  0
 12 45  1  0  0  0
 13 46  1  0  0  0
 14 47  1  0  0  0
 15 48  1  0  0  0
 16 49  1  0  0  0
 16 50  1  0  0  0
 16 51  1  0  0  0
 17 52  1  0  0  0
 18 53  1  0  0  0
 18 54  1  0  0  0
 18 55  1  0  0  0
 19 56  1  0  0  0
 19 57  1  0  0  0
 20 58  1  0  0  0
 20 59  1  0  0  0
 21 60  1  0  0  0
 21 61  1  0  0  0
 22 62  1  0  0  0
 22 63  1  0  0  0
 24 64  1  0  0  0
 25 65  1  0  0  0
 28 66  1  0  0  0
 29 67  1  0  0  0
 30 68  1  0  0  0
 31 69  1  0  0  0
 33 70  1  0  0  0
 34 71  1  0  0  0
M  END
$$$$
