5b5p_ligand
  -I-interpret- 

 47 50  0  0  0  0  0  0  0  0999 V2000
  -48.4700   30.3120    6.4510 C   0  0  0  0  0
  -47.1000   30.1750    6.3460 C   0  0  0  0  0
  -44.5360   30.4860   15.2990 C   0  0  0  0  0
  -49.0020   30.9420    7.5540 C   0  0  0  0  0
  -44.4670   31.0480   14.0380 C   0  0  0  0  0
  -46.2640   30.6640    7.3270 C   0  0  0  0  0
  -43.8230   30.9990   16.3640 C   0  0  0  0  0
  -42.9650   32.6640   14.8800 C   0  0  0  0  0
  -38.5720   30.0210   20.7140 C   0  0  0  0  0
  -48.1570   31.4290    8.5250 C   0  0  0  0  0
  -43.6730   32.1620   13.8260 C   0  0  0  0  0
  -46.7860   31.2980    8.4310 C   0  0  0  0  0
  -43.0300   32.1050   16.1270 C   0  0  0  0  0
  -38.9730   31.4220   19.2120 C   0  0  0  0  0
  -48.7470   32.0980    9.6870 C   0  0  0  0  0
  -46.4870   32.3730   10.4130 C   0  0  0  0  0
  -45.6610   32.9190   11.5200 C   0  0  0  0  0
  -43.4930   32.8890   12.5340 C   0  0  0  0  0
  -42.1020   32.0690   18.2650 C   0  0  0  0  0
  -41.2010   32.9490   19.1140 C   0  0  0  0  0
  -39.0200   31.2450   20.5670 N   0  0  0  0  0
  -38.5180   30.3720   18.5040 N   0  0  0  0  0
  -45.9210   31.7830    9.4080 N   0  0  0  0  0
  -38.2750   29.5020   19.4960 N   0  0  0  0  0
  -47.8360   32.5520   10.6000 N   0  0  0  0  0
  -44.3570   32.5240   11.4560 N   0  0  0  0  0
  -49.9600   32.2120    9.7750 O   0  0  0  0  0
  -46.1890   33.5910   12.3910 O   0  0  0  0  0
  -42.2470   32.7680   17.0500 O   0  0  0  0  0
  -39.4920   32.9420   18.4900 S   0  0  0  0  0
  -49.1236   29.9255    5.6690 H   0  0  0  0  0
  -46.6743   29.6740    5.4766 H   0  0  0  0  0
  -45.1707   29.6140   15.4568 H   0  0  0  0  0
  -50.0814   31.0538    7.6569 H   0  0  0  0  0
  -45.0352   30.6160   13.2143 H   0  0  0  0  0
  -45.1848   30.5479    7.2277 H   0  0  0  0  0
  -43.8835   30.5483   17.3546 H   0  0  0  0  0
  -42.3294   33.5356   14.7234 H   0  0  0  0  0
  -38.4564   29.5021   21.6655 H   0  0  0  0  0
  -42.4834   32.6522   12.1984 H   0  0  0  0  0
  -43.7122   33.9349   12.7489 H   0  0  0  0  0
  -43.0631   31.8884   18.7464 H   0  0  0  0  0
  -41.6753   31.0774   18.1142 H   0  0  0  0  0
  -41.1998   32.5632   20.1334 H   0  0  0  0  0
  -41.5795   33.9705   19.0777 H   0  0  0  0  0
  -48.1648   33.0334   11.4370 H   0  0  0  0  0
  -44.0093   31.9847   10.6631 H   0  0  0  0  0
  2  1  4  0  0  0
  4  1  4  0  0  0
  6  2  4  0  0  0
  3  5  4  0  0  0
  7  3  4  0  0  0
 10  4  4  0  0  0
 11  5  4  0  0  0
 12  6  4  0  0  0
 13  7  4  0  0  0
  8 11  4  0  0  0
 13  8  4  0  0  0
 21  9  4  0  0  0
  9 24  4  0  0  0
 12 10  4  0  0  0
 15 10  1  0  0  0
 11 18  1  0  0  0
 23 12  1  0  0  0
 29 13  1  0  0  0
 14 21  4  0  0  0
 14 22  4  0  0  0
 30 14  1  0  0  0
 25 15  1  0  0  0
 15 27  2  0  0  0
 17 16  1  0  0  0
 16 23  2  0  0  0
 16 25  1  0  0  0
 26 17  1  0  0  0
 17 28  2  0  0  0
 18 26  1  0  0  0
 20 19  1  0  0  0
 19 29  1  0  0  0
 20 30  1  0  0  0
 22 24  4  0  0  0
  1 31  1  0  0  0
  2 32  1  0  0  0
  3 33  1  0  0  0
  4 34  1  0  0  0
  5 35  1  0  0  0
  6 36  1  0  0  0
  7 37  1  0  0  0
  8 38  1  0  0  0
  9 39  1  0  0  0
 18 40  1  0  0  0
 18 41  1  0  0  0
 19 42  1  0  0  0
 19 43  1  0  0  0
 20 44  1  0  0  0
 20 45  1  0  0  0
 25 46  1  0  0  0
 26 47  1  0  0  0
M  END
$$$$
