4wh9_ligand
  -I-interpret- 

 25 25  0  0  0  0  0  0  0  0999 V2000
   17.4910   -6.5850   -1.1770 O   0  0  0  0  0
   18.4160   -5.6570   -1.8030 S   0  0  0  0  0
   19.7190   -5.8250   -1.1830 O   0  0  0  0  0
   17.8970   -4.2620   -1.6760 O   0  0  0  0  0
   18.4760   -6.0250   -3.4330 C   0  0  0  0  0
   19.1430   -7.4140   -3.5930 C   0  0  0  0  0
   18.9160   -8.1720   -5.1790 S   0  0  0  0  0
   17.2820   -8.6470   -4.8980 C   0  0  0  0  0
   16.8960   -9.7670   -4.1220 C   0  0  0  0  0
   15.5710  -10.1770   -4.0440 C   0  0  0  0  0
   15.2750  -11.3320   -3.4070 O   0  0  0  0  0
   14.4960   -9.5380   -4.6760 C   0  0  0  0  0
   14.9010   -8.3630   -5.3680 C   0  0  0  0  0
   13.9600   -7.7010   -6.0550 F   0  0  0  0  0
   16.2320   -7.9420   -5.5090 C   0  0  0  0  0
   16.4990   -6.8380   -6.2180 C   0  0  0  0  0
   16.7220   -5.9070   -6.8270 N   0  0  0  0  0
   18.5126   -3.6537   -2.0915 H   0  0  0  0  0
   19.0528   -5.2693   -3.9662 H   0  0  0  0  0
   17.4690   -6.0433   -3.8498 H   0  0  0  0  0
   18.6797   -8.0731   -2.8589 H   0  0  0  0  0
   20.2152   -7.2660   -3.4644 H   0  0  0  0  0
   17.6572  -10.3209   -3.5725 H   0  0  0  0  0
   14.3267  -11.4786   -3.4367 H   0  0  0  0  0
   13.4683   -9.8995   -4.6414 H   0  0  0  0  0
  1  2  2  0  0  0
  2  3  2  0  0  0
  2  4  1  0  0  0
  2  5  1  0  0  0
  5  6  1  0  0  0
  6  7  1  0  0  0
  7  8  1  0  0  0
  8  9  4  0  0  0
  8 15  4  0  0  0
  9 10  4  0  0  0
 10 11  1  0  0  0
 10 12  4  0  0  0
 12 13  4  0  0  0
 13 14  1  0  0  0
 13 15  4  0  0  0
 15 16  1  0  0  0
 16 17  3  0  0  0
  4 18  1  0  0  0
  5 19  1  0  0  0
  5 20  1  0  0  0
  6 21  1  0  0  0
  6 22  1  0  0  0
  9 23  1  0  0  0
 11 24  1  0  0  0
 12 25  1  0  0  0
M  END
$$$$
