5tbp_ligand
  -I-interpret- 

 46 48  0  0  0  0  0  0  0  0999 V2000
    8.8650   13.5240   24.8490 C   0  0  0  0  0
    9.5450   11.2700   24.3770 C   0  0  0  0  0
    6.6110   13.9760   25.9030 C   0  0  0  0  0
    8.7030   15.0690   26.7650 C   0  0  0  0  0
    7.9780   14.5270   25.5520 C   0  0  0  0  0
   15.9340   12.6330   24.9860 C   0  0  0  0  0
   15.9740    8.8040   21.9790 C   0  0  0  0  0
   16.3710    7.7380   22.9760 C   0  0  0  0  0
   16.1160   11.5310   24.1450 C   0  0  0  0  0
   12.7970    8.5490   21.2940 C   0  0  0  0  0
   13.4180    9.5740   22.2040 C   0  0  0  0  0
   14.8680    9.6830   22.4990 C   0  0  0  0  0
   15.0300   10.9480   23.5220 C   0  0  0  0  0
   13.6930   11.4550   23.7180 C   0  0  0  0  0
   12.7970   10.6030   22.9090 C   0  0  0  0  0
   11.4520   10.7660   22.8240 C   0  0  0  0  0
   10.5470   11.7450   23.5420 C   0  0  0  0  0
   10.6930   13.1080   23.3500 C   0  0  0  0  0
    9.8650   13.9960   24.0150 C   0  0  0  0  0
    8.7050   12.1580   25.0340 C   0  0  0  0  0
   13.5300   12.5520   24.5580 C   0  0  0  0  0
   14.6320   13.1440   25.1900 C   0  0  0  0  0
   16.1070    7.8870   24.1970 O   0  0  0  0  0
   16.9680    6.7010   22.5830 O   0  0  0  0  0
   16.9860   13.2010   25.5940 F   0  0  0  0  0
    9.4176   10.1966   24.5170 H   0  0  0  0  0
    6.7214   13.1653   26.6232 H   0  0  0  0  0
    6.0016   14.7687   26.3370 H   0  0  0  0  0
    6.1300   13.5989   25.0005 H   0  0  0  0  0
    8.1160   15.8734   27.2082 H   0  0  0  0  0
    8.8358   14.2700   27.4944 H   0  0  0  0  0
    9.6775   15.4526   26.4629 H   0  0  0  0  0
    7.7786   15.3436   24.8581 H   0  0  0  0  0
   15.6180    8.3086   21.0757 H   0  0  0  0  0
   16.8447    9.4311   21.7874 H   0  0  0  0  0
   17.1167   11.1313   23.9808 H   0  0  0  0  0
   13.2112    8.6565   20.2915 H   0  0  0  0  0
   13.0134    7.5501   21.6728 H   0  0  0  0  0
   11.7181    8.7006   21.2609 H   0  0  0  0  0
   10.9469   10.0897   22.1344 H   0  0  0  0  0
   11.4614   13.4828   22.6739 H   0  0  0  0  0
   10.0004   15.0693   23.8819 H   0  0  0  0  0
    7.9219   11.7837   25.6934 H   0  0  0  0  0
   12.5320   12.9564   24.7268 H   0  0  0  0  0
   14.4841   14.0041   25.8431 H   0  0  0  0  0
   17.0908    6.7449   21.6319 H   0  0  0  0  0
  1  5  1  0  0  0
  1 19  4  0  0  0
 20  1  4  0  0  0
 17  2  4  0  0  0
  2 20  4  0  0  0
  5  3  1  0  0  0
  5  4  1  0  0  0
  9  6  4  0  0  0
  6 22  4  0  0  0
  6 25  1  0  0  0
  7  8  1  0  0  0
 12  7  1  0  0  0
  8 23  2  0  0  0
  8 24  1  0  0  0
 13  9  4  0  0  0
 11 10  1  0  0  0
 11 12  2  0  0  0
 15 11  1  0  0  0
 13 12  1  0  0  0
 14 13  4  0  0  0
 15 14  1  0  0  0
 14 21  4  0  0  0
 16 15  2  0  0  0
 16 17  1  0  0  0
 17 18  4  0  0  0
 18 19  4  0  0  0
 21 22  4  0  0  0
  2 26  1  0  0  0
  3 27  1  0  0  0
  3 28  1  0  0  0
  3 29  1  0  0  0
  4 30  1  0  0  0
  4 31  1  0  0  0
  4 32  1  0  0  0
  5 33  1  0  0  0
  7 34  1  0  0  0
  7 35  1  0  0  0
  9 36  1  0  0  0
 10 37  1  0  0  0
 10 38  1  0  0  0
 10 39  1  0  0  0
 16 40  1  0  0  0
 18 41  1  0  0  0
 19 42  1  0  0  0
 20 43  1  0  0  0
 21 44  1  0  0  0
 22 45  1  0  0  0
 24 46  1  0  0  0
M  END
$$$$
