5zqo_ligand
  -I-interpret- 

 49 52  0  0  0  0  0  0  0  0999 V2000
   12.2110   69.3080   22.9610 C   0  0  0  0  0
   11.3570   69.8470   23.9630 C   0  0  0  0  0
    8.9970   70.4260   24.3600 C   0  0  0  0  0
   11.7000   69.7670   25.3200 C   0  0  0  0  0
   12.6530   70.7120   13.1430 C   0  0  0  0  0
   12.4010   70.4900   14.5980 C   0  0  0  0  0
   12.3230   69.1570   15.1210 C   0  0  0  0  0
   11.9000   70.0380   17.3240 C   0  0  0  0  0
   11.4520   70.8600   19.6340 C   0  0  0  0  0
   12.2140   70.6680   20.9090 C   0  0  0  0  0
   12.8890   69.1650   25.7350 C   0  0  0  0  0
   13.7510   68.6440   24.7750 C   0  0  0  0  0
   13.4090   68.7280   23.4130 C   0  0  0  0  0
   12.1140   68.2830   20.7080 C   0  0  0  0  0
   11.5290   68.4480   19.2910 C   0  0  0  0  0
   12.2180   71.5030   15.5050 C   0  0  0  0  0
   12.3120   72.9550   15.0350 C   0  0  0  0  0
   12.7180   73.2020   13.5750 C   0  0  0  0  0
   12.2280   72.1150   12.6410 C   0  0  0  0  0
   12.0740   68.9230   16.4890 N   0  0  0  0  0
   11.6610   69.8040   18.6510 N   0  0  0  0  0
   11.8080   69.4300   21.6020 N   0  0  0  0  0
   11.9730   71.2860   16.8550 N   0  0  0  0  0
   12.4430   68.0920   14.4650 O   0  0  0  0  0
   10.1690   70.4260   23.5320 O   0  0  0  0  0
    8.7099   69.3980   24.5812 H   0  0  0  0  0
    9.2107   70.9530   25.2899 H   0  0  0  0  0
    8.1833   70.9270   23.8357 H   0  0  0  0  0
   11.0240   70.1837   26.0667 H   0  0  0  0  0
   12.0617   69.9782   12.5953 H   0  0  0  0  0
   13.7272   70.6210   12.9818 H   0  0  0  0  0
   11.8011   71.7907   19.1867 H   0  0  0  0  0
   10.3921   70.8586   19.8884 H   0  0  0  0  0
   12.0075   71.5138   21.5648 H   0  0  0  0  0
   13.2749   70.5969   20.6693 H   0  0  0  0  0
   13.1383   69.1040   26.7944 H   0  0  0  0  0
   14.6866   68.1731   25.0768 H   0  0  0  0  0
   14.1036   68.3256   22.6757 H   0  0  0  0  0
   13.1979   68.2167   20.6133 H   0  0  0  0  0
   11.6681   67.3913   21.1487 H   0  0  0  0  0
   10.4584   68.2677   19.3881 H   0  0  0  0  0
   12.0904   67.7631   18.6556 H   0  0  0  0  0
   13.0977   73.4088   15.6390 H   0  0  0  0  0
   11.3051   73.3609   15.1324 H   0  0  0  0  0
   13.8069   73.2181   13.5282 H   0  0  0  0  0
   12.2700   74.1436   13.2574 H   0  0  0  0  0
   11.1395   72.1553   12.6007 H   0  0  0  0  0
   12.6649   72.2794   11.6560 H   0  0  0  0  0
   11.8492   72.0777   17.4861 H   0  0  0  0  0
  1  2  4  0  0  0
  1 13  4  0  0  0
 22  1  1  0  0  0
  2  4  4  0  0  0
  2 25  1  0  0  0
 25  3  1  0  0  0
  4 11  4  0  0  0
  6  5  1  0  0  0
  5 19  1  0  0  0
  7  6  1  0  0  0
  6 16  2  0  0  0
 20  7  1  0  0  0
  7 24  2  0  0  0
  8 20  4  0  0  0
 21  8  1  0  0  0
  8 23  1  0  0  0
 10  9  1  0  0  0
  9 21  1  0  0  0
 22 10  1  0  0  0
 12 11  4  0  0  0
 13 12  4  0  0  0
 14 15  1  0  0  0
 14 22  1  0  0  0
 15 21  1  0  0  0
 16 17  1  0  0  0
 16 23  1  0  0  0
 17 18  1  0  0  0
 18 19  1  0  0  0
  3 26  1  0  0  0
  3 27  1  0  0  0
  3 28  1  0  0  0
  4 29  1  0  0  0
  5 30  1  0  0  0
  5 31  1  0  0  0
  9 32  1  0  0  0
  9 33  1  0  0  0
 10 34  1  0  0  0
 10 35  1  0  0  0
 11 36  1  0  0  0
 12 37  1  0  0  0
 13 38  1  0  0  0
 14 39  1  0  0  0
 14 40  1  0  0  0
 15 41  1  0  0  0
 15 42  1  0  0  0
 17 43  1  0  0  0
 17 44  1  0  0  0
 18 45  1  0  0  0
 18 46  1  0  0  0
 19 47  1  0  0  0
 19 48  1  0  0  0
 23 49  1  0  0  0
M  END
$$$$
