4brx_ligand
  -I-interpret- 

 57 60  0  0  0  0  0  0  0  0999 V2000
  -10.4060    3.0680   -1.1270 C   0  0  0  0  0
   -9.4360    2.0920   -0.4360 C   0  0  0  0  0
   -8.0290    2.3360   -0.8170 O   0  0  0  0  0
   -7.7180    2.2780   -2.1980 C   0  0  0  0  0
   -8.5580    3.3080   -2.9820 C   0  0  0  0  0
   -9.9410    3.5130   -2.4760 N   0  0  0  0  0
  -10.8530    4.3310   -3.2650 C   0  0  0  0  0
  -12.1740    4.5700   -2.8470 C   0  0  0  0  0
  -13.0060    5.3980   -3.6230 C   0  0  0  0  0
  -14.2890    5.6360   -3.2880 O   0  0  0  0  0
  -14.5970    4.9820   -1.9540 C   0  0  0  0  0
  -10.3880    4.9470   -4.4340 C   0  0  0  0  0
  -11.2420    5.7570   -5.1890 C   0  0  0  0  0
  -12.5480    5.9920   -4.7920 C   0  0  0  0  0
  -13.4230    6.7610   -5.4880 N   0  0  0  0  0
  -13.1570    7.8440   -6.2600 C   0  0  0  0  0
  -11.9210    8.3250   -6.4160 N   0  0  0  0  0
  -14.1820    8.4690   -6.8980 N   0  0  0  0  0
  -13.9550    9.5430   -7.6620 C   0  0  0  0  0
  -11.6920    9.4010   -7.2020 C   0  0  0  0  0
  -10.4600    9.8600   -7.4290 N   0  0  0  0  0
   -9.3200    9.3200   -6.9750 C   0  0  0  0  0
   -9.2420    9.0360   -5.5990 C   0  0  0  0  0
   -8.0780    8.5050   -5.0780 C   0  0  0  0  0
   -6.9850    8.2550   -5.9300 C   0  0  0  0  0
   -7.0470    8.5680   -7.2950 C   0  0  0  0  0
   -8.2180    9.1210   -7.8260 C   0  0  0  0  0
   -8.2440    9.4030   -9.3440 C   0  0  0  0  0
   -9.0550   10.2010   -9.8520 O   0  0  0  0  0
   -7.4290    8.6130  -10.0680 N   0  0  0  0  0
  -12.7040   10.0120   -7.8160 N   0  0  0  0  0
   -7.3660    8.8450  -11.5430 C   0  0  0  0  0
  -10.4834    3.9545   -0.4976 H   0  0  0  0  0
  -11.3544    2.5479   -1.2618 H   0  0  0  0  0
   -9.6989    1.0797   -0.7430 H   0  0  0  0  0
   -9.5241    2.2334    0.6412 H   0  0  0  0  0
   -7.9428    1.2788   -2.5710 H   0  0  0  0  0
   -6.6606    2.5050   -2.3337 H   0  0  0  0  0
   -8.6500    2.9277   -3.9994 H   0  0  0  0  0
   -8.0455    4.2655   -2.8894 H   0  0  0  0  0
  -12.5504    4.1177   -1.9295 H   0  0  0  0  0
  -14.4361    3.9068   -2.0322 H   0  0  0  0  0
  -13.9398    5.3943   -1.1883 H   0  0  0  0  0
  -15.6356    5.1768   -1.6865 H   0  0  0  0  0
   -9.3579    4.7946   -4.7560 H   0  0  0  0  0
  -10.8727    6.2123   -6.1079 H   0  0  0  0  0
  -14.4043    6.4905   -5.4223 H   0  0  0  0  0
  -14.7867   10.0399   -8.1615 H   0  0  0  0  0
  -10.3778   10.7002   -8.0014 H   0  0  0  0  0
  -10.0942    9.2336   -4.9487 H   0  0  0  0  0
   -8.0060    8.2809   -4.0137 H   0  0  0  0  0
   -6.0769    7.8113   -5.5218 H   0  0  0  0  0
   -6.1879    8.3817   -7.9394 H   0  0  0  0  0
   -6.8735    7.8812   -9.6250 H   0  0  0  0  0
   -8.3574    8.7057  -11.9741 H   0  0  0  0  0
   -7.0244    9.8621  -11.7353 H   0  0  0  0  0
   -6.6704    8.1358  -11.9917 H   0  0  0  0  0
  1  2  1  0  0  0
  1  6  1  0  0  0
  2  3  1  0  0  0
  3  4  1  0  0  0
  4  5  1  0  0  0
  5  6  1  0  0  0
  6  7  1  0  0  0
  7  8  4  0  0  0
  7 12  4  0  0  0
  8  9  4  0  0  0
  9 10  1  0  0  0
  9 14  4  0  0  0
 10 11  1  0  0  0
 12 13  4  0  0  0
 13 14  4  0  0  0
 14 15  1  0  0  0
 15 16  1  0  0  0
 16 17  4  0  0  0
 16 18  4  0  0  0
 17 20  4  0  0  0
 18 19  4  0  0  0
 19 31  4  0  0  0
 20 21  1  0  0  0
 20 31  4  0  0  0
 21 22  1  0  0  0
 22 23  4  0  0  0
 22 27  4  0  0  0
 23 24  4  0  0  0
 24 25  4  0  0  0
 25 26  4  0  0  0
 26 27  4  0  0  0
 27 28  1  0  0  0
 28 29  2  0  0  0
 28 30  1  0  0  0
 30 32  1  0  0  0
  1 33  1  0  0  0
  1 34  1  0  0  0
  2 35  1  0  0  0
  2 36  1  0  0  0
  4 37  1  0  0  0
  4 38  1  0  0  0
  5 39  1  0  0  0
  5 40  1  0  0  0
  8 41  1  0  0  0
 11 42  1  0  0  0
 11 43  1  0  0  0
 11 44  1  0  0  0
 12 45  1  0  0  0
 13 46  1  0  0  0
 15 47  1  0  0  0
 19 48  1  0  0  0
 21 49  1  0  0  0
 23 50  1  0  0  0
 24 51  1  0  0  0
 25 52  1  0  0  0
 26 53  1  0  0  0
 30 54  1  0  0  0
 32 55  1  0  0  0
 32 56  1  0  0  0
 32 57  1  0  0  0
M  END
$$$$
