3emg_ligand
  -I-interpret- 

 51 53  0  0  0  0  0  0  0  0999 V2000
   15.7190   39.6340    6.3370 C   0  0  0  0  0
   14.5590   38.8840    6.9040 C   0  0  0  0  0
   15.1970   37.6190    7.2780 C   0  0  0  0  0
   15.2430   37.1750    5.9480 O   0  0  0  0  0
   13.9660   39.5200    8.0260 N   0  0  0  0  0
   12.7120   39.6910    8.1220 C   0  0  0  0  0
   12.1050   39.2640    7.2770 O   0  0  0  0  0
   12.1660   40.3430    9.3120 C   0  0  0  0  0
   12.7940   41.7140   10.0650 S   0  0  0  0  0
   11.6680   41.7020   11.1760 C   0  0  0  0  0
   10.9430   40.7210   11.0000 N   0  0  0  0  0
   11.1030   39.9920   10.0550 C   0  0  0  0  0
   10.1970   38.8610    9.8350 C   0  0  0  0  0
   11.5740   42.6030   12.2620 C   0  0  0  0  0
   10.5490   42.6030   13.1230 C   0  0  0  0  0
   10.6700   43.4750   14.1260 C   0  0  0  0  0
   11.6530   44.2590   14.2790 N   0  0  0  0  0
   12.6110   44.1580   13.4980 C   0  0  0  0  0
   13.6640   44.9360   13.7070 N   0  0  0  0  0
   14.8490   44.9240   13.0370 C   0  0  0  0  0
   15.1010   44.1790   11.9450 C   0  0  0  0  0
   16.3550   44.2380   11.3560 C   0  0  0  0  0
   16.7570   43.4330   10.1780 C   0  0  0  0  0
   17.2970   45.0740   11.8300 C   0  0  0  0  0
   17.0420   45.8220   12.9190 C   0  0  0  0  0
   18.1270   46.6820   13.4620 C   0  0  0  0  0
   15.8300   45.7480   13.5260 C   0  0  0  0  0
   12.5870   43.3520   12.5060 N   0  0  0  0  0
   15.3892   40.6220    6.0158 H   0  0  0  0  0
   16.4910   39.7373    7.0996 H   0  0  0  0  0
   16.1206   39.0882    5.4832 H   0  0  0  0  0
   13.7265   38.7928    6.2063 H   0  0  0  0  0
   14.7070   36.9887    8.0202 H   0  0  0  0  0
   16.1258   37.6532    7.8474 H   0  0  0  0  0
   15.6468   36.3046    5.9162 H   0  0  0  0  0
   14.5678   39.8506    8.7803 H   0  0  0  0  0
    9.7199   38.9636    8.8604 H   0  0  0  0  0
   10.7645   37.9309    9.8671 H   0  0  0  0  0
    9.4352   38.8504   10.6146 H   0  0  0  0  0
    9.6868   41.9451   13.0139 H   0  0  0  0  0
    9.8685   43.5153   14.8636 H   0  0  0  0  0
   13.5761   45.6227   14.4561 H   0  0  0  0  0
   14.3268   43.5353   11.5275 H   0  0  0  0  0
   16.6725   42.3731   10.4179 H   0  0  0  0  0
   16.1042   43.6698    9.3378 H   0  0  0  0  0
   17.7888   43.6662    9.9151 H   0  0  0  0  0
   18.2644   45.1450   11.3329 H   0  0  0  0  0
   18.9754   46.0590   13.7451 H   0  0  0  0  0
   18.4378   47.3970   12.7002 H   0  0  0  0  0
   17.7602   47.2182   14.3373 H   0  0  0  0  0
   15.6342   46.3508   14.4128 H   0  0  0  0  0
  1  2  1  0  0  0
  2  3  1  0  0  0
  2  5  1  0  0  0
  3  4  1  0  0  0
  5  6  1  0  0  0
  6  7  2  0  0  0
  6  8  1  0  0  0
  8  9  4  0  0  0
  8 12  4  0  0  0
  9 10  4  0  0  0
 10 11  4  0  0  0
 10 14  1  0  0  0
 11 12  4  0  0  0
 12 13  1  0  0  0
 14 15  4  0  0  0
 14 28  4  0  0  0
 15 16  4  0  0  0
 16 17  4  0  0  0
 17 18  4  0  0  0
 18 19  1  0  0  0
 18 28  4  0  0  0
 19 20  1  0  0  0
 20 21  4  0  0  0
 20 27  4  0  0  0
 21 22  4  0  0  0
 22 23  1  0  0  0
 22 24  4  0  0  0
 24 25  4  0  0  0
 25 26  1  0  0  0
 25 27  4  0  0  0
  1 29  1  0  0  0
  1 30  1  0  0  0
  1 31  1  0  0  0
  2 32  1  0  0  0
  3 33  1  0  0  0
  3 34  1  0  0  0
  4 35  1  0  0  0
  5 36  1  0  0  0
 13 37  1  0  0  0
 13 38  1  0  0  0
 13 39  1  0  0  0
 15 40  1  0  0  0
 16 41  1  0  0  0
 19 42  1  0  0  0
 21 43  1  0  0  0
 23 44  1  0  0  0
 23 45  1  0  0  0
 23 46  1  0  0  0
 24 47  1  0  0  0
 26 48  1  0  0  0
 26 49  1  0  0  0
 26 50  1  0  0  0
 27 51  1  0  0  0
M  END
$$$$
