2vwy_ligand
  -I-interpret- 

 43 46  0  0  0  0  0  0  0  0999 V2000
   13.7700    7.5110   11.5220 N   0  0  0  0  0
   13.1190    6.3010   11.8330 C   0  0  0  0  0
   13.9870    5.3590   12.2370 N   0  0  0  0  0
   13.4830    4.1580   12.5420 C   0  0  0  0  0
   12.1480    3.8860   12.4540 C   0  0  0  0  0
   11.3220    4.9190   12.0260 C   0  0  0  0  0
    9.9220    4.7170   11.9110 N   0  0  0  0  0
    9.2720    3.5320   12.2780 C   0  0  0  0  0
    9.1930    3.1180   13.5940 C   0  0  0  0  0
    9.7500    3.7850   14.6630 O   0  0  0  0  0
    9.5580    2.7950   15.6960 C   0  0  0  0  0
    8.5970    1.7730   15.3270 O   0  0  0  0  0
    8.5420    1.9860   13.9670 C   0  0  0  0  0
    7.9340    1.1670   13.0460 C   0  0  0  0  0
    8.0080    1.5550   11.7220 C   0  0  0  0  0
    8.6550    2.7210   11.3420 C   0  0  0  0  0
    8.7180    3.1820    9.6760 Cl  0  0  0  0  0
   11.7910    6.1280   11.7170 N   0  0  0  0  0
    9.4790    8.8260    8.1730 C   0  0  0  0  0
    9.4320    9.8170    9.6410 S   0  0  0  0  0
    9.1170   11.1510    9.1760 O   0  0  0  0  0
    8.5740    9.1340   10.5890 O   0  0  0  0  0
   11.1450    9.7890   10.1520 C   0  0  0  0  0
   11.8640   10.9590   10.0540 C   0  0  0  0  0
   13.1870   10.9670   10.4360 C   0  0  0  0  0
   13.7860    9.8220   10.9140 C   0  0  0  0  0
   13.0790    8.6440   11.0200 C   0  0  0  0  0
   11.7450    8.6360   10.6320 C   0  0  0  0  0
   14.7781    7.5751   11.6633 H   0  0  0  0  0
   14.1606    3.3705   12.8717 H   0  0  0  0  0
   11.7483    2.9042   12.7076 H   0  0  0  0  0
    9.3559    5.4797   11.5392 H   0  0  0  0  0
    9.1773    3.3061   16.5803 H   0  0  0  0  0
   10.5158    2.3043   15.8690 H   0  0  0  0  0
    7.4180    0.2548   13.3457 H   0  0  0  0  0
    7.5467    0.9294   10.9578 H   0  0  0  0  0
    8.5079    8.8637    7.6794 H   0  0  0  0  0
   10.2451    9.2115    7.5003 H   0  0  0  0  0
    9.7128    7.7952    8.4393 H   0  0  0  0  0
   11.3922   11.8672    9.6789 H   0  0  0  0  0
   13.7656   11.8876   10.3595 H   0  0  0  0  0
   14.8340    9.8484   11.2125 H   0  0  0  0  0
   11.1659    7.7155   10.7058 H   0  0  0  0  0
  1  2  1  0  0  0
 27  1  1  0  0  0
  2  3  4  0  0  0
  2 18  4  0  0  0
  3  4  4  0  0  0
  4  5  4  0  0  0
  6  5  4  0  0  0
  6  7  1  0  0  0
 18  6  4  0  0  0
  7  8  1  0  0  0
  8  9  4  0  0  0
  8 16  4  0  0  0
  9 10  1  0  0  0
  9 13  4  0  0  0
 10 11  1  0  0  0
 12 11  1  0  0  0
 13 12  1  0  0  0
 13 14  4  0  0  0
 15 14  4  0  0  0
 16 15  4  0  0  0
 16 17  1  0  0  0
 20 19  1  0  0  0
 20 21  2  0  0  0
 20 22  2  0  0  0
 23 20  1  0  0  0
 24 23  4  0  0  0
 23 28  4  0  0  0
 25 24  4  0  0  0
 26 25  4  0  0  0
 26 27  4  0  0  0
 27 28  4  0  0  0
  1 29  1  0  0  0
  4 30  1  0  0  0
  5 31  1  0  0  0
  7 32  1  0  0  0
 11 33  1  0  0  0
 11 34  1  0  0  0
 14 35  1  0  0  0
 15 36  1  0  0  0
 19 37  1  0  0  0
 19 38  1  0  0  0
 19 39  1  0  0  0
 24 40  1  0  0  0
 25 41  1  0  0  0
 26 42  1  0  0  0
 28 43  1  0  0  0
M  END
$$$$
