1tnk_ligand
  -I-interpret- 

 24 24  0  0  0  0  0  0  0  0999 V2000
   29.1850   15.9530   14.3410 C   0  0  0  0  0
   29.7360   15.8910   15.7220 C   0  0  0  0  0
   29.3620   14.5200   16.1610 C   0  0  0  0  0
   29.3740   14.3520   17.6500 C   0  0  0  0  0
   29.7500   13.1000   18.1070 C   0  0  0  0  0
   29.2170   12.6100   19.2830 C   0  0  0  0  0
   28.3150   13.3710   20.0020 C   0  0  0  0  0
   27.9480   14.6290   19.5470 C   0  0  0  0  0
   28.4780   15.1240   18.3700 C   0  0  0  0  0
   29.7690   15.0690   13.3340 N   0  3  0  0  0
   29.3878   16.9655   13.9920 H   0  0  0  0  0
   28.1431   15.6451   14.4294 H   0  0  0  0  0
   29.3394   16.6695   16.3737 H   0  0  0  0  0
   30.8102   16.0718   15.7601 H   0  0  0  0  0
   30.0951   13.8289   15.7451 H   0  0  0  0  0
   28.3461   14.3286   15.8156 H   0  0  0  0  0
   30.4645   12.5031   17.5402 H   0  0  0  0  0
   29.5077   11.6234   19.6439 H   0  0  0  0  0
   27.8913   12.9822   20.9280 H   0  0  0  0  0
   27.2400   15.2287   20.1189 H   0  0  0  0  0
   28.1930   16.1133   18.0120 H   0  0  0  0  0
   29.2992   15.2160   12.4407 H   0  0  0  0  0
   30.7626   15.2776   13.2353 H   0  0  0  0  0
   29.6514   14.0987   13.6258 H   0  0  0  0  0
  2  1  1  0  0  0
  1 10  1  0  0  0
  2  3  1  0  0  0
  3  4  1  0  0  0
  4  5  4  0  0  0
  4  9  4  0  0  0
  5  6  4  0  0  0
  6  7  4  0  0  0
  7  8  4  0  0  0
  8  9  4  0  0  0
  1 11  1  0  0  0
  1 12  1  0  0  0
  2 13  1  0  0  0
  2 14  1  0  0  0
  3 15  1  0  0  0
  3 16  1  0  0  0
  5 17  1  0  0  0
  6 18  1  0  0  0
  7 19  1  0  0  0
  8 20  1  0  0  0
  9 21  1  0  0  0
 10 22  1  0  0  0
 10 23  1  0  0  0
 10 24  1  0  0  0
M  END
$$$$
