3fxb_ligand
  -I-interpret- 

 20 20  0  0  0  0  0  0  0  0999 V2000
    6.8640   -7.7190    7.3890 O   0  0  0  0  0
    6.6270   -8.6020    6.5790 C   0  0  0  0  0
    7.5980   -9.2170    6.1510 O   0  0  0  0  0
    5.2040   -8.9150    6.1080 C   0  0  0  0  0
    4.2020   -8.7000    7.2200 C   0  0  0  0  0
    2.8050   -8.8980    6.6500 C   0  0  0  0  0
    2.7820  -10.3200    6.2160 N   0  0  0  0  0
    3.9570  -11.0100    5.7660 C   0  0  0  0  0
    3.9610  -12.4830    5.3420 C   0  0  0  0  0
    5.1490  -10.3090    5.7000 N   0  0  0  0  0
    7.3032   -9.8833    5.5259 H   0  0  0  0  0
    4.9556   -8.2502    5.2807 H   0  0  0  0  0
    4.3017   -7.6922    7.6232 H   0  0  0  0  0
    4.3807   -9.4110    8.0266 H   0  0  0  0  0
    2.5977   -8.2147    5.8264 H   0  0  0  0  0
    2.0285   -8.6807    7.3834 H   0  0  0  0  0
    1.8961  -10.8249    6.2391 H   0  0  0  0  0
    4.2768  -12.5594    4.3016 H   0  0  0  0  0
    4.6521  -13.0400    5.9747 H   0  0  0  0  0
    2.9569  -12.8934    5.4493 H   0  0  0  0  0
  1  2  2  0  0  0
  2  3  1  0  0  0
  2  4  1  0  0  0
  4  5  1  0  0  0
  4 10  1  0  0  0
  5  6  1  0  0  0
  6  7  1  0  0  0
  7  8  1  0  0  0
  8  9  1  0  0  0
  8 10  2  0  0  0
  3 11  1  0  0  0
  4 12  1  0  0  0
  5 13  1  0  0  0
  5 14  1  0  0  0
  6 15  1  0  0  0
  6 16  1  0  0  0
  7 17  1  0  0  0
  9 18  1  0  0  0
  9 19  1  0  0  0
  9 20  1  0  0  0
M  END
$$$$
