2xg3_ligand
  -I-interpret- 

 64 66  0  0  0  0  0  0  0  0999 V2000
  -15.8410    7.6400   -3.4740 O   0  0  0  0  0
  -15.4830    8.2180   -2.3290 C   0  0  0  0  0
  -16.4240    8.4940   -1.4520 N   0  0  0  0  0
  -14.1270    8.8430   -2.1480 C   0  0  0  0  0
  -14.0120   10.0600   -1.4820 C   0  0  0  0  0
  -12.9810    8.2060   -2.5890 C   0  0  0  0  0
  -11.7280    8.7880   -2.4450 C   0  0  0  0  0
  -11.6070   10.0050   -1.7830 C   0  0  0  0  0
  -12.7560   10.6330   -1.2970 C   0  0  0  0  0
  -20.1870    8.8450   -1.3780 C   0  0  0  0  0
  -18.7150    9.2800   -1.2880 C   0  0  0  0  0
  -17.8080    8.1200   -1.6310 C   0  0  0  0  0
  -18.1200    6.9310   -0.7500 C   0  0  0  0  0
  -19.6000    6.6270   -0.8210 C   0  0  0  0  0
  -19.9620    5.4710    0.1270 C   0  0  0  0  0
  -18.5120   10.3090   -2.2490 O   0  0  0  0  0
  -17.7430    7.2510    0.5980 O   0  0  0  0  0
  -20.3790    7.7640   -0.4820 O   0  0  0  0  0
  -21.3790    5.2750   -0.0710 O   0  0  0  0  0
  -25.0370   11.0390   -1.0620 C   0  0  0  0  0
  -24.5470   10.2880    0.1630 C   0  0  0  0  0
  -23.0240   10.3180    0.2840 C   0  0  0  0  0
  -22.3500    9.8780   -1.0020 C   0  0  0  0  0
  -22.9480   10.7540   -2.0990 C   0  0  0  0  0
  -22.3340   10.4710   -3.4570 C   0  0  0  0  0
  -25.9710   10.7010    2.0780 C   0  0  0  0  0
  -26.2840   11.6320    3.2240 C   0  0  0  0  0
  -24.9510   11.0740    1.3090 N   0  0  0  0  0
  -26.4520   10.8330   -1.2030 O   0  0  0  0  0
  -22.6670    9.4820    1.3520 O   0  0  0  0  0
  -20.9330    9.9570   -0.8850 O   0  0  0  0  0
  -24.3540   10.5180   -2.2060 O   0  0  0  0  0
  -22.5320    9.0980   -3.7810 O   0  0  0  0  0
  -26.5210    9.6110    1.9300 O   0  0  0  0  0
  -16.1636    8.9969   -0.6037 H   0  0  0  0  0
  -14.9028   10.5633   -1.1062 H   0  0  0  0  0
  -13.0630    7.2263   -3.0596 H   0  0  0  0  0
  -10.8444    8.2935   -2.8487 H   0  0  0  0  0
  -10.6276   10.4631   -1.6451 H   0  0  0  0  0
  -12.6689   11.5816   -0.7673 H   0  0  0  0  0
  -20.4782    8.5535   -2.3871 H   0  0  0  0  0
  -18.4894    9.6233   -0.2784 H   0  0  0  0  0
  -17.9775    7.8519   -2.6738 H   0  0  0  0  0
  -17.5668    6.0539   -1.0858 H   0  0  0  0  0
  -19.8215    6.3414   -1.8493 H   0  0  0  0  0
  -19.7215    5.7017    1.1648 H   0  0  0  0  0
  -19.3895    4.5691   -0.0896 H   0  0  0  0  0
  -17.5981   10.6011   -2.2152 H   0  0  0  0  0
  -17.9359    6.5038    1.1690 H   0  0  0  0  0
  -21.6840    4.5607    0.4932 H   0  0  0  0  0
  -24.8403   12.1067   -0.9652 H   0  0  0  0  0
  -24.9276    9.2685    0.1011 H   0  0  0  0  0
  -22.6885   11.3382    0.4702 H   0  0  0  0  0
  -22.5310    8.8303   -1.2423 H   0  0  0  0  0
  -22.7396   11.7866   -1.8189 H   0  0  0  0  0
  -21.2668   10.6912   -3.4300 H   0  0  0  0  0
  -22.8085   11.0980   -4.2118 H   0  0  0  0  0
  -27.3387   11.9053    3.1908 H   0  0  0  0  0
  -26.0667   11.1309    4.1673 H   0  0  0  0  0
  -25.6719   12.5298    3.1386 H   0  0  0  0  0
  -24.4440   11.9306    1.5316 H   0  0  0  0  0
  -26.7676   11.3059   -1.9765 H   0  0  0  0  0
  -21.7122    9.4817    1.4514 H   0  0  0  0  0
  -22.1449    8.9140   -4.6400 H   0  0  0  0  0
  2  1  2  0  0  0
  3  2  1  0  0  0
  2  4  1  0  0  0
 12  3  1  0  0  0
  4  5  4  0  0  0
  4  6  4  0  0  0
  5  9  4  0  0  0
  6  7  4  0  0  0
  7  8  4  0  0  0
  9  8  4  0  0  0
 10 11  1  0  0  0
 10 18  1  0  0  0
 31 10  1  0  0  0
 11 12  1  0  0  0
 11 16  1  0  0  0
 12 13  1  0  0  0
 14 13  1  0  0  0
 13 17  1  0  0  0
 14 15  1  0  0  0
 18 14  1  0  0  0
 15 19  1  0  0  0
 21 20  1  0  0  0
 20 29  1  0  0  0
 20 32  1  0  0  0
 21 22  1  0  0  0
 28 21  1  0  0  0
 22 23  1  0  0  0
 22 30  1  0  0  0
 23 24  1  0  0  0
 23 31  1  0  0  0
 24 25  1  0  0  0
 32 24  1  0  0  0
 25 33  1  0  0  0
 26 27  1  0  0  0
 26 28  1  0  0  0
 26 34  2  0  0  0
  3 35  1  0  0  0
  5 36  1  0  0  0
  6 37  1  0  0  0
  7 38  1  0  0  0
  8 39  1  0  0  0
  9 40  1  0  0  0
 10 41  1  0  0  0
 11 42  1  0  0  0
 12 43  1  0  0  0
 13 44  1  0  0  0
 14 45  1  0  0  0
 15 46  1  0  0  0
 15 47  1  0  0  0
 16 48  1  0  0  0
 17 49  1  0  0  0
 19 50  1  0  0  0
 20 51  1  0  0  0
 21 52  1  0  0  0
 22 53  1  0  0  0
 23 54  1  0  0  0
 24 55  1  0  0  0
 25 56  1  0  0  0
 25 57  1  0  0  0
 27 58  1  0  0  0
 27 59  1  0  0  0
 27 60  1  0  0  0
 28 61  1  0  0  0
 29 62  1  0  0  0
 30 63  1  0  0  0
 33 64  1  0  0  0
M  END
$$$$
