3o95_ligand
  -I-interpret- 

 57 58  0  0  0  0  0  0  0  0999 V2000
   16.3760  -35.1240   17.8240 C   0  0  0  0  0
   15.5890  -35.9600   18.8110 C   0  0  0  0  0
   14.3630  -36.6340   18.1790 C   0  0  0  0  0
   14.7360  -37.4110   16.9300 C   0  0  0  0  0
   13.8060  -37.6270   19.1850 C   0  0  0  0  0
   17.7000  -33.4600   16.0500 C   0  0  0  0  0
   19.2310  -31.4100   15.5910 C   0  0  0  0  0
   19.4490  -35.2450   15.6700 C   0  0  0  0  0
   20.6650  -34.6510   16.0060 C   0  0  0  0  0
   21.8440  -35.1330   15.4530 C   0  0  0  0  0
   23.0910  -36.7040   13.9690 C   0  0  0  0  0
   19.4270  -36.3360   14.7900 C   0  0  0  0  0
   19.0430  -30.9200   16.7280 O   0  0  0  0  0
   20.1080  -30.9750   14.8140 O   0  0  0  0  0
   18.3860  -32.5470   15.0540 C   0  0  0  0  0
   16.5290  -33.0540   16.6830 C   0  0  0  0  0
   15.8960  -31.7010   16.4480 C   0  0  0  0  0
   14.3940  -31.8090   16.6390 C   0  0  0  0  0
   15.9190  -33.8900   17.5520 N   0  0  0  0  0
   13.2610  -35.6570   17.8000 C   0  0  0  0  0
   17.5330  -35.5690   17.2080 C   0  0  0  0  0
   18.0690  -36.9520   17.5270 C   0  0  0  0  0
   19.3940  -36.8510   18.1140 N   0  3  0  0  0
   18.1930  -34.7390   16.3030 C   0  0  0  0  0
   20.6030  -36.8170   14.2330 C   0  0  0  0  0
   21.8090  -36.2050   14.5690 C   0  0  0  0  0
   15.2346  -35.2972   19.6004 H   0  0  0  0  0
   16.2474  -36.7461   19.1808 H   0  0  0  0  0
   13.8612  -37.9476   16.5627 H   0  0  0  0  0
   15.0873  -36.7191   16.1646 H   0  0  0  0  0
   15.5265  -38.1225   17.1688 H   0  0  0  0  0
   13.4633  -37.0917   20.0705 H   0  0  0  0  0
   12.9701  -38.1650   18.7379 H   0  0  0  0  0
   14.5864  -38.3343   19.4658 H   0  0  0  0  0
   20.6900  -33.8112   16.7004 H   0  0  0  0  0
   22.7966  -34.6708   15.7121 H   0  0  0  0  0
   23.5625  -35.9008   13.4028 H   0  0  0  0  0
   23.7603  -37.0305   14.7650 H   0  0  0  0  0
   22.8780  -37.5418   13.3051 H   0  0  0  0  0
   18.4777  -36.8105   14.5413 H   0  0  0  0  0
   18.3296  -31.3914   17.1644 H   0  0  0  0  0
   17.5792  -32.0687   14.4987 H   0  0  0  0  0
   19.0783  -33.1866   14.5065 H   0  0  0  0  0
   16.1115  -31.3691   15.4324 H   0  0  0  0  0
   16.3028  -30.9800   17.1571 H   0  0  0  0  0
   13.9896  -32.5298   15.9284 H   0  0  0  0  0
   14.1812  -32.1402   17.6554 H   0  0  0  0  0
   13.9365  -30.8342   16.4699 H   0  0  0  0  0
   12.4276  -36.2043   17.3595 H   0  0  0  0  0
   12.9209  -35.1310   18.6921 H   0  0  0  0  0
   13.6474  -34.9379   17.0777 H   0  0  0  0  0
   18.1288  -37.5333   16.6069 H   0  0  0  0  0
   17.4001  -37.4401   18.2358 H   0  0  0  0  0
   19.7437  -37.7859   18.3240 H   0  0  0  0  0
   20.0225  -36.3917   17.4548 H   0  0  0  0  0
   19.3429  -36.3047   18.9739 H   0  0  0  0  0
   20.5839  -37.6607   13.5431 H   0  0  0  0  0
  1  2  1  0  0  0
 19  1  4  0  0  0
  1 21  4  0  0  0
  2  3  1  0  0  0
  3  4  1  0  0  0
  3  5  1  0  0  0
  3 20  1  0  0  0
  6 15  1  0  0  0
 16  6  4  0  0  0
  6 24  4  0  0  0
  7 13  1  0  0  0
  7 14  2  0  0  0
 15  7  1  0  0  0
  8  9  4  0  0  0
  8 12  4  0  0  0
 24  8  1  0  0  0
  9 10  4  0  0  0
 10 26  4  0  0  0
 26 11  1  0  0  0
 12 25  4  0  0  0
 16 17  1  0  0  0
 16 19  4  0  0  0
 17 18  1  0  0  0
 21 22  1  0  0  0
 21 24  4  0  0  0
 22 23  1  0  0  0
 25 26  4  0  0  0
  2 27  1  0  0  0
  2 28  1  0  0  0
  4 29  1  0  0  0
  4 30  1  0  0  0
  4 31  1  0  0  0
  5 32  1  0  0  0
  5 33  1  0  0  0
  5 34  1  0  0  0
  9 35  1  0  0  0
 10 36  1  0  0  0
 11 37  1  0  0  0
 11 38  1  0  0  0
 11 39  1  0  0  0
 12 40  1  0  0  0
 13 41  1  0  0  0
 15 42  1  0  0  0
 15 43  1  0  0  0
 17 44  1  0  0  0
 17 45  1  0  0  0
 18 46  1  0  0  0
 18 47  1  0  0  0
 18 48  1  0  0  0
 20 49  1  0  0  0
 20 50  1  0  0  0
 20 51  1  0  0  0
 22 52  1  0  0  0
 22 53  1  0  0  0
 23 54  1  0  0  0
 23 55  1  0  0  0
 23 56  1  0  0  0
 25 57  1  0  0  0
M  END
$$$$
