5ye7_ligand
  -I-interpret- 

 51 54  0  0  0  0  0  0  0  0999 V2000
  -49.7560  -21.0220   23.6340 C   0  0  0  0  0
  -48.7270  -22.0340   23.1810 C   0  0  0  0  0
  -47.8170  -23.3340   21.2040 C   0  0  0  0  0
  -46.5090  -23.5520   21.6470 C   0  0  0  0  0
  -45.7000  -24.4880   21.0050 C   0  0  0  0  0
  -46.1960  -25.2140   19.9240 C   0  0  0  0  0
  -46.3920  -28.7270   19.4410 C   0  0  0  0  0
  -46.5890  -29.2920   18.1860 C   0  0  0  0  0
  -47.7360  -30.0460   17.9730 C   0  0  0  0  0
  -48.6680  -30.2120   19.0000 C   0  0  0  0  0
  -50.9470  -30.1550   18.5780 C   0  0  0  0  0
  -50.8110  -28.7770   18.4200 C   0  0  0  0  0
  -51.9140  -27.9650   18.2420 C   0  0  0  0  0
  -53.1710  -28.5490   18.2180 C   0  0  0  0  0
  -54.2840  -27.7280   18.0360 C   0  0  0  0  0
  -55.5440  -28.3120   18.0110 C   0  0  0  0  0
  -55.6800  -29.6970   18.1670 C   0  0  0  0  0
  -54.5650  -30.5160   18.3520 C   0  0  0  0  0
  -53.3100  -29.9300   18.3760 C   0  0  0  0  0
  -52.2040  -30.7400   18.5530 C   0  0  0  0  0
  -48.4520  -29.6530   20.2520 C   0  0  0  0  0
  -47.3160  -28.9010   20.4630 C   0  0  0  0  0
  -47.4930  -24.9860   19.4800 C   0  0  0  0  0
  -48.2970  -24.0520   20.1180 C   0  0  0  0  0
  -48.7050  -22.3870   21.8010 N   0  0  0  0  0
  -45.2430  -27.9420   19.6920 N   0  0  0  0  0
  -47.9530  -22.5120   23.9980 O   0  0  0  0  0
  -45.5250  -26.4610   17.6720 O   0  0  0  0  0
  -43.8180  -25.9630   19.0440 O   0  0  0  0  0
  -49.8250  -30.9790   18.7640 O   0  0  0  0  0
  -45.1880  -26.4120   19.0760 S   0  0  0  0  0
  -50.4031  -21.4750   24.3851 H   0  0  0  0  0
  -49.2492  -20.1575   24.0628 H   0  0  0  0  0
  -50.3546  -20.7069   22.7793 H   0  0  0  0  0
  -46.1212  -22.9890   22.4960 H   0  0  0  0  0
  -44.6787  -24.6522   21.3488 H   0  0  0  0  0
  -45.8607  -29.1467   17.3882 H   0  0  0  0  0
  -47.9092  -30.5094   17.0017 H   0  0  0  0  0
  -49.8161  -28.3320   18.4372 H   0  0  0  0  0
  -51.7985  -26.8877   18.1229 H   0  0  0  0  0
  -54.1674  -26.6509   17.9159 H   0  0  0  0  0
  -56.4286  -27.6911   17.8697 H   0  0  0  0  0
  -56.6741  -30.1433   18.1435 H   0  0  0  0  0
  -54.6793  -31.5930   18.4749 H   0  0  0  0  0
  -52.3177  -31.8177   18.6706 H   0  0  0  0  0
  -49.1706  -29.8065   21.0571 H   0  0  0  0  0
  -47.1424  -28.4412   21.4359 H   0  0  0  0  0
  -47.8804  -25.5432   18.6270 H   0  0  0  0  0
  -49.3134  -23.8811   19.7633 H   0  0  0  0  0
  -49.3783  -21.9260   21.1890 H   0  0  0  0  0
  -44.4669  -28.3124   20.2405 H   0  0  0  0  0
  2  1  1  0  0  0
 25  2  1  0  0  0
  2 27  2  0  0  0
  4  3  4  0  0  0
 24  3  4  0  0  0
  3 25  1  0  0  0
  5  4  4  0  0  0
  6  5  4  0  0  0
  6 23  4  0  0  0
 31  6  1  0  0  0
  7  8  4  0  0  0
  7 22  4  0  0  0
 26  7  1  0  0  0
  8  9  4  0  0  0
  9 10  4  0  0  0
 21 10  4  0  0  0
 10 30  1  0  0  0
 11 12  4  0  0  0
 11 20  4  0  0  0
 30 11  1  0  0  0
 12 13  4  0  0  0
 13 14  4  0  0  0
 14 15  4  0  0  0
 19 14  4  0  0  0
 15 16  4  0  0  0
 17 16  4  0  0  0
 18 17  4  0  0  0
 19 18  4  0  0  0
 20 19  4  0  0  0
 22 21  4  0  0  0
 23 24  4  0  0  0
 26 31  1  0  0  0
 31 28  2  0  0  0
 31 29  2  0  0  0
  1 32  1  0  0  0
  1 33  1  0  0  0
  1 34  1  0  0  0
  4 35  1  0  0  0
  5 36  1  0  0  0
  8 37  1  0  0  0
  9 38  1  0  0  0
 12 39  1  0  0  0
 13 40  1  0  0  0
 15 41  1  0  0  0
 16 42  1  0  0  0
 17 43  1  0  0  0
 18 44  1  0  0  0
 20 45  1  0  0  0
 21 46  1  0  0  0
 22 47  1  0  0  0
 23 48  1  0  0  0
 24 49  1  0  0  0
 25 50  1  0  0  0
 26 51  1  0  0  0
M  END
$$$$
