4yes_ligand
  -I-interpret- 

 49 51  0  0  0  0  0  0  0  0999 V2000
    4.2200   19.8170   49.5520 C   0  0  0  0  0
    3.4920   18.9290   48.6850 C   0  0  0  0  0
    5.3360   20.1470   49.1810 O   0  0  0  0  0
    2.1650   18.5500   48.6220 C   0  0  0  0  0
    2.0160   17.6620   47.5280 C   0  0  0  0  0
    3.2540   17.5410   46.9350 C   0  0  0  0  0
    4.1280   18.3050   47.6530 N   0  0  0  0  0
    3.7120   16.7670   45.7770 C   0  0  0  0  0
    3.6510   20.2560   50.7350 N   0  0  0  0  0
    4.1950   21.3560   51.5060 C   0  0  0  0  0
    5.6950   21.2390   51.5730 C   0  0  0  0  0
    6.2950   20.2290   51.9240 O   0  0  0  0  0
    3.5800   21.1610   52.8730 C   0  0  0  0  0
    2.2260   20.5490   52.5860 C   0  0  0  0  0
    2.4850   19.6830   51.3790 C   0  0  0  0  0
    6.3120   22.4000   51.1470 N   0  0  0  0  0
    7.7430   22.5270   51.2630 C   0  0  0  0  0
    8.4980   22.5280   49.9720 C   0  0  0  0  0
    9.1980   21.4230   49.5200 C   0  0  0  0  0
    9.2060   20.1300   50.2780 C   0  0  0  0  0
    8.2080   19.1800   49.7090 N   0  3  0  0  0
    9.9240   21.4610   48.3480 C   0  0  0  0  0
    9.9720   22.6340   47.6080 C   0  0  0  0  0
    9.2500   23.7270   48.0400 C   0  0  0  0  0
    9.2710   25.1700   47.0540 Cl  0  0  0  0  0
    8.5290   23.6900   49.2160 C   0  0  0  0  0
    1.3724   18.8765   49.2952 H   0  0  0  0  0
    1.0962   17.1681   47.2147 H   0  0  0  0  0
    3.5376   15.7065   45.9585 H   0  0  0  0  0
    3.1605   17.0808   44.8907 H   0  0  0  0  0
    4.7772   16.9404   45.6240 H   0  0  0  0  0
    3.9779   22.3367   51.0827 H   0  0  0  0  0
    3.4999   22.0971   53.4257 H   0  0  0  0  0
    4.1919   20.5251   53.5128 H   0  0  0  0  0
    1.4561   21.2994   52.4064 H   0  0  0  0  0
    1.8335   19.9838   53.4313 H   0  0  0  0  0
    2.6546   18.6440   51.6615 H   0  0  0  0  0
    1.6261   19.6653   50.7081 H   0  0  0  0  0
    5.7588   23.1613   50.7535 H   0  0  0  0  0
    8.0868   21.6568   51.8221 H   0  0  0  0  0
    7.9311   23.4925   51.7325 H   0  0  0  0  0
    8.9494   20.3297   51.3184 H   0  0  0  0  0
   10.1982   19.6846   50.2049 H   0  0  0  0  0
    8.2298   18.3084   50.2384 H   0  0  0  0  0
    7.2766   19.5916   49.7677 H   0  0  0  0  0
    8.4371   18.9922   48.7330 H   0  0  0  0  0
   10.4572   20.5744   48.0048 H   0  0  0  0  0
   10.5711   22.6907   46.6992 H   0  0  0  0  0
    7.9845   24.5731   49.5502 H   0  0  0  0  0
  1  2  1  0  0  0
  1  3  2  0  0  0
  1  9  1  0  0  0
  2  4  4  0  0  0
  2  7  4  0  0  0
  4  5  4  0  0  0
  5  6  4  0  0  0
  6  7  4  0  0  0
  6  8  1  0  0  0
  9 10  1  0  0  0
  9 15  1  0  0  0
 10 11  1  0  0  0
 10 13  1  0  0  0
 11 12  2  0  0  0
 11 16  1  0  0  0
 13 14  1  0  0  0
 14 15  1  0  0  0
 16 17  1  0  0  0
 17 18  1  0  0  0
 18 19  4  0  0  0
 18 26  4  0  0  0
 19 20  1  0  0  0
 19 22  4  0  0  0
 20 21  1  0  0  0
 22 23  4  0  0  0
 23 24  4  0  0  0
 24 25  1  0  0  0
 24 26  4  0  0  0
  4 27  1  0  0  0
  5 28  1  0  0  0
  8 29  1  0  0  0
  8 30  1  0  0  0
  8 31  1  0  0  0
 10 32  1  0  0  0
 13 33  1  0  0  0
 13 34  1  0  0  0
 14 35  1  0  0  0
 14 36  1  0  0  0
 15 37  1  0  0  0
 15 38  1  0  0  0
 16 39  1  0  0  0
 17 40  1  0  0  0
 17 41  1  0  0  0
 20 42  1  0  0  0
 20 43  1  0  0  0
 21 44  1  0  0  0
 21 45  1  0  0  0
 21 46  1  0  0  0
 22 47  1  0  0  0
 23 48  1  0  0  0
 26 49  1  0  0  0
M  END
$$$$
