3cf8_ligand
  -I-interpret- 

 32 34  0  0  0  0  0  0  0  0999 V2000
   11.9150   18.6260  -12.2090 C   0  0  0  0  0
   12.2600   17.5760  -11.3630 C   0  0  0  0  0
   13.4690   16.8820  -11.5480 C   0  0  0  0  0
   14.3410   17.2470  -12.5850 C   0  0  0  0  0
   13.9840   18.3070  -13.4220 C   0  0  0  0  0
   12.7780   18.9930  -13.2360 C   0  0  0  0  0
   13.8270   15.8340  -10.6990 C   0  0  0  0  0
   15.0340   15.1760  -10.8970 C   0  0  0  0  0
   15.8720   15.5550  -11.9550 C   0  0  0  0  0
   17.0790   14.8720  -12.0900 C   0  0  0  0  0
   17.1210   13.5200  -12.4430 C   0  0  0  0  0
   18.3550   12.8710  -12.5400 C   0  0  0  0  0
   19.5420   13.5680  -12.2800 C   0  0  0  0  0
   19.5040   14.9130  -11.9180 C   0  0  0  0  0
   18.2670   15.5630  -11.8190 C   0  0  0  0  0
   15.5440   16.5960  -12.8100 O   0  0  0  0  0
   13.1060   15.4930   -9.7600 O   0  0  0  0  0
   20.6650   15.5810  -11.6680 O   0  0  0  0  0
   20.7420   12.9420  -12.3770 O   0  0  0  0  0
   15.3890   14.1490  -10.0570 O   0  0  0  0  0
   12.4330   20.0320  -14.0540 O   0  0  0  0  0
   11.3970   17.2500  -10.3580 O   0  0  0  0  0
   10.9740   19.1575  -12.0674 H   0  0  0  0  0
   14.6528   18.6036  -14.2300 H   0  0  0  0  0
   16.1977   12.9757  -12.6412 H   0  0  0  0  0
   18.3939   11.8181  -12.8191 H   0  0  0  0  0
   18.2287   16.6131  -11.5293 H   0  0  0  0  0
   20.4656   16.4903  -11.4336 H   0  0  0  0  0
   21.4434   13.5628  -12.1669 H   0  0  0  0  0
   14.7040   14.0267   -9.3956 H   0  0  0  0  0
   13.1225   20.1650  -14.7086 H   0  0  0  0  0
   11.7558   16.5149   -9.8555 H   0  0  0  0  0
  1  2  4  0  0  0
  1  6  4  0  0  0
  2  3  4  0  0  0
  2 22  1  0  0  0
  3  4  4  0  0  0
  3  7  1  0  0  0
  4  5  4  0  0  0
  4 16  1  0  0  0
  5  6  4  0  0  0
  6 21  1  0  0  0
  7  8  1  0  0  0
  7 17  2  0  0  0
  8  9  2  0  0  0
  8 20  1  0  0  0
  9 10  1  0  0  0
  9 16  1  0  0  0
 10 11  4  0  0  0
 10 15  4  0  0  0
 11 12  4  0  0  0
 12 13  4  0  0  0
 13 14  4  0  0  0
 13 19  1  0  0  0
 14 15  4  0  0  0
 14 18  1  0  0  0
  1 23  1  0  0  0
  5 24  1  0  0  0
 11 25  1  0  0  0
 12 26  1  0  0  0
 15 27  1  0  0  0
 18 28  1  0  0  0
 19 29  1  0  0  0
 20 30  1  0  0  0
 21 31  1  0  0  0
 22 32  1  0  0  0
M  END
$$$$
