2qd7_ligand
  -I-interpret- 

 76 80  0  0  0  0  0  0  0  0999 V2000
   15.7990   34.9010   17.7930 C   0  0  0  0  0
   15.2650   35.8150   18.6450 O   0  0  0  0  0
   15.8940   37.0150   18.3890 C   0  0  0  0  0
   16.7990   36.8680   17.3670 O   0  0  0  0  0
   16.7810   35.5430   17.0400 C   0  0  0  0  0
   17.5590   34.8700   16.1090 C   0  0  0  0  0
   17.2820   33.5300   15.9640 C   0  0  0  0  0
   16.3260   32.9060   16.7240 C   0  0  0  0  0
   15.4960   33.5800   17.6090 C   0  0  0  0  0
   18.3310   32.5530   14.9410 S   0  0  0  0  0
   17.5450   31.4520   14.4340 O   0  0  0  0  0
   18.9800   33.4600   14.0140 O   0  0  0  0  0
   19.5450   31.9210   15.8580 N   0  0  0  0  0
   20.4050   32.8770   16.5370 C   0  0  0  0  0
   21.8880   32.5200   16.5770 C   0  0  0  0  0
   22.4580   32.4660   15.1510 C   0  0  0  0  0
   22.6430   33.5450   17.4220 C   0  0  0  0  0
   19.2780   30.6780   16.5480 C   0  0  0  0  0
   20.1130   29.5170   15.9900 C   0  0  0  0  0
   20.0080   28.4050   16.9070 O   0  0  0  0  0
   19.7050   29.0580   14.6090 C   0  0  0  0  0
   20.6950   28.1640   14.0840 N   0  0  0  0  0
   21.5680   28.4800   13.1080 C   0  0  0  0  0
   21.6490   29.5530   12.5210 O   0  0  0  0  0
   22.3930   27.4380   12.8720 O   0  0  0  0  0
   23.2150   27.5130   11.6860 C   0  0  0  0  0
   24.5420   26.8680   12.0230 C   0  0  0  0  0
   24.2740   25.4600   11.9680 O   0  0  0  0  0
   23.3070   25.2350   10.9570 C   0  0  0  0  0
   22.2570   24.4470   11.5030 O   0  0  0  0  0
   21.0310   25.1440   11.5490 C   0  0  0  0  0
   21.2000   26.3740   10.6240 C   0  0  0  0  0
   22.6950   26.5770   10.5860 C   0  0  0  0  0
   18.3500   28.3800   14.5140 C   0  0  0  0  0
   17.8930   26.5890   12.7950 C   0  0  0  0  0
   17.6510   26.2220   11.4790 C   0  0  0  0  0
   17.4620   27.1500   10.4950 C   0  0  0  0  0
   17.6060   28.5090   10.7860 C   0  0  0  0  0
   17.8720   28.8930   12.1120 C   0  0  0  0  0
   18.0130   27.9390   13.1060 C   0  0  0  0  0
   16.4196   37.3407   19.2866 H   0  0  0  0  0
   15.1472   37.7546   18.1003 H   0  0  0  0  0
   18.3371   35.3691   15.5314 H   0  0  0  0  0
   16.2123   31.8262   16.6282 H   0  0  0  0  0
   14.6649   33.0930   18.1192 H   0  0  0  0  0
   20.0682   32.9141   17.5730 H   0  0  0  0  0
   20.3271   33.8115   15.9814 H   0  0  0  0  0
   22.0088   31.5363   17.0308 H   0  0  0  0  0
   21.9233   31.7102   14.5757 H   0  0  0  0  0
   22.3369   33.4393   14.6756 H   0  0  0  0  0
   23.5167   32.2103   15.1937 H   0  0  0  0  0
   22.5213   34.5356   16.9838 H   0  0  0  0  0
   22.2432   33.5432   18.4360 H   0  0  0  0  0
   23.7012   33.2848   17.4468 H   0  0  0  0  0
   18.2241   30.4342   16.4138 H   0  0  0  0  0
   19.5378   30.8096   17.5984 H   0  0  0  0  0
   21.1353   29.8824   15.8928 H   0  0  0  0  0
   20.5248   27.6675   16.5744 H   0  0  0  0  0
   19.6235   29.9766   14.0279 H   0  0  0  0  0
   20.7416   27.2237   14.4766 H   0  0  0  0  0
   23.2446   28.5565   11.3724 H   0  0  0  0  0
   24.9132   27.1778   12.9999 H   0  0  0  0  0
   25.3302   27.1636   11.3306 H   0  0  0  0  0
   23.7678   24.7455   10.0990 H   0  0  0  0  0
   20.7892   25.4479   12.5675 H   0  0  0  0  0
   20.2068   24.5126   11.2173 H   0  0  0  0  0
   20.6666   27.2511   10.9905 H   0  0  0  0  0
   20.7726   26.2162    9.6338 H   0  0  0  0  0
   22.9433   26.9822    9.6050 H   0  0  0  0  0
   17.5938   29.0992   14.8288 H   0  0  0  0  0
   18.3760   27.4916   15.1451 H   0  0  0  0  0
   17.9875   25.8311   13.5727 H   0  0  0  0  0
   17.6106   25.1632   11.2233 H   0  0  0  0  0
   17.1997   26.8316    9.4861 H   0  0  0  0  0
   17.5138   29.2578    9.9993 H   0  0  0  0  0
   17.9680   29.9501   12.3598 H   0  0  0  0  0
  1  2  1  0  0  0
  5  1  4  0  0  0
  9  1  4  0  0  0
  2  3  1  0  0  0
  4  3  1  0  0  0
  5  4  1  0  0  0
  6  5  4  0  0  0
  7  6  4  0  0  0
  7  8  4  0  0  0
 10  7  1  0  0  0
  8  9  4  0  0  0
 10 11  2  0  0  0
 10 12  2  0  0  0
 13 10  1  0  0  0
 13 14  1  0  0  0
 18 13  1  0  0  0
 14 15  1  0  0  0
 15 16  1  0  0  0
 15 17  1  0  0  0
 19 18  1  0  0  0
 19 20  1  0  0  0
 21 19  1  0  0  0
 21 22  1  0  0  0
 34 21  1  0  0  0
 22 23  1  0  0  0
 23 24  2  0  0  0
 23 25  1  0  0  0
 25 26  1  0  0  0
 26 27  1  0  0  0
 26 33  1  0  0  0
 27 28  1  0  0  0
 29 28  1  0  0  0
 29 30  1  0  0  0
 33 29  1  0  0  0
 31 30  1  0  0  0
 32 31  1  0  0  0
 33 32  1  0  0  0
 40 34  1  0  0  0
 35 36  4  0  0  0
 35 40  4  0  0  0
 36 37  4  0  0  0
 37 38  4  0  0  0
 38 39  4  0  0  0
 39 40  4  0  0  0
  3 41  1  0  0  0
  3 42  1  0  0  0
  6 43  1  0  0  0
  8 44  1  0  0  0
  9 45  1  0  0  0
 14 46  1  0  0  0
 14 47  1  0  0  0
 15 48  1  0  0  0
 16 49  1  0  0  0
 16 50  1  0  0  0
 16 51  1  0  0  0
 17 52  1  0  0  0
 17 53  1  0  0  0
 17 54  1  0  0  0
 18 55  1  0  0  0
 18 56  1  0  0  0
 19 57  1  0  0  0
 20 58  1  0  0  0
 21 59  1  0  0  0
 22 60  1  0  0  0
 26 61  1  0  0  0
 27 62  1  0  0  0
 27 63  1  0  0  0
 29 64  1  0  0  0
 31 65  1  0  0  0
 31 66  1  0  0  0
 32 67  1  0  0  0
 32 68  1  0  0  0
 33 69  1  0  0  0
 34 70  1  0  0  0
 34 71  1  0  0  0
 35 72  1  0  0  0
 36 73  1  0  0  0
 37 74  1  0  0  0
 38 75  1  0  0  0
 39 76  1  0  0  0
M  END
$$$$
