2qrk_ligand
  -I-interpret- 

 37 39  0  0  0  0  0  0  0  0999 V2000
   29.8420    4.0540    6.9800 P   0  0  0  0  0
   29.9870    5.4360    6.3680 O   0  0  0  0  0
   30.0090    2.9770    5.9210 O   0  0  0  0  0
   28.6270    3.8520    7.8920 O   0  0  0  0  0
   31.1640    3.9620    7.8720 O   0  0  0  0  0
   31.5930    2.7450    8.4380 C   0  0  0  0  0
   32.4570    3.1390    9.6170 C   0  0  0  0  0
   32.7240    1.9210   10.2950 O   0  0  0  0  0
   33.7850    3.7790    9.2270 C   0  0  0  0  0
   34.1090    4.8530   10.1280 O   0  0  0  0  0
   34.7560    2.6210    9.4080 C   0  0  0  0  0
   36.1070    3.0170    9.6900 O   0  0  0  0  0
   34.1100    1.8940   10.5770 C   0  0  0  0  0
   34.5730    0.4950   10.6840 N   0  0  0  0  0
   34.8010   -0.3670    9.6580 C   0  0  0  0  0
   35.2330   -1.5620   10.1430 N   0  0  0  0  0
   35.2760   -1.4480   11.4970 C   0  0  0  0  0
   35.6520   -2.3270   12.6220 C   0  0  0  0  0
   36.0800   -3.5960   12.3500 N   0  0  0  0  0
   35.5690   -1.8190   13.8850 N   0  0  0  0  0
   35.1600   -0.5480   14.1470 C   0  0  0  0  0
   34.8010    0.3120   13.1580 N   0  0  0  0  0
   34.8470   -0.0830   11.8530 C   0  0  0  0  0
   29.9140    2.1126    6.3276 H   0  0  0  0  0
   28.6255    2.9522    8.2265 H   0  0  0  0  0
   32.1451    2.1395    7.7192 H   0  0  0  0  0
   30.7507    2.1254    8.7457 H   0  0  0  0  0
   31.9343    3.8870   10.2131 H   0  0  0  0  0
   33.7927    4.2127    8.2270 H   0  0  0  0  0
   34.9464    5.2447    9.8692 H   0  0  0  0  0
   34.8861    2.0248    8.5048 H   0  0  0  0  0
   36.6543    2.2347    9.7901 H   0  0  0  0  0
   34.3654    2.3695   11.5240 H   0  0  0  0  0
   34.6587   -0.1348    8.6026 H   0  0  0  0  0
   36.1349   -3.9197   11.3843 H   0  0  0  0  0
   36.3446   -4.2195   13.1127 H   0  0  0  0  0
   35.1191   -0.2092   15.1822 H   0  0  0  0  0
  1  2  2  0  0  0
  1  3  1  0  0  0
  1  4  1  0  0  0
  1  5  1  0  0  0
  5  6  1  0  0  0
  6  7  1  0  0  0
  7  8  1  0  0  0
  7  9  1  0  0  0
  8 13  1  0  0  0
  9 10  1  0  0  0
  9 11  1  0  0  0
 11 12  1  0  0  0
 11 13  1  0  0  0
 13 14  1  0  0  0
 14 15  4  0  0  0
 14 23  4  0  0  0
 15 16  4  0  0  0
 16 17  4  0  0  0
 17 18  4  0  0  0
 17 23  4  0  0  0
 18 19  1  0  0  0
 18 20  4  0  0  0
 20 21  4  0  0  0
 21 22  4  0  0  0
 22 23  4  0  0  0
  3 24  1  0  0  0
  4 25  1  0  0  0
  6 26  1  0  0  0
  6 27  1  0  0  0
  7 28  1  0  0  0
  9 29  1  0  0  0
 10 30  1  0  0  0
 11 31  1  0  0  0
 12 32  1  0  0  0
 13 33  1  0  0  0
 15 34  1  0  0  0
 19 35  1  0  0  0
 19 36  1  0  0  0
 21 37  1  0  0  0
M  END
$$$$
