6hax_ligand
  -I-interpret- 

125132  0  0  0  0  0  0  0  0999 V2000
  -36.5600   14.5670  -33.2670 N   0  0  0  0  0
  -35.9930   14.3210  -30.9400 C   0  0  0  0  0
  -35.8000   17.4010  -30.7810 C   0  0  0  0  0
  -36.2910   17.5070  -33.2100 C   0  0  0  0  0
  -38.0040   16.6040  -31.6590 C   0  0  0  0  0
  -34.9870   13.1950  -29.0440 C   0  0  0  0  0
  -33.5450   14.6590  -30.3490 C   0  0  0  0  0
  -36.0260   13.6340  -28.0110 C   0  0  0  0  0
  -37.3470   13.5210  -23.7860 C   0  0  0  0  0
  -36.7130   13.4710  -22.5470 C   0  0  0  0  0
  -35.5100   12.7870  -22.4000 C   0  0  0  0  0
  -35.5990   12.1810  -24.7290 C   0  0  0  0  0
  -35.3410   12.1980  -19.8850 C   0  0  0  0  0
  -33.2810   12.6540  -19.2500 C   0  0  0  0  0
  -35.9000   15.2480  -32.1630 C   0  0  0  0  0
  -36.4940   16.6750  -31.9430 C   0  0  0  0  0
  -34.8950   14.1120  -30.1870 N   0  0  0  0  0
  -37.0530   13.7690  -30.6850 O   0  0  0  0  0
  -33.5740   13.2410  -28.4290 C   0  0  0  0  0
  -32.6760   13.6730  -29.5780 C   0  0  0  0  0
  -32.2990   12.5480  -30.3880 O   0  0  0  0  0
  -36.2840   14.8280  -27.8270 O   0  0  0  0  0
  -36.6050   12.6450  -27.3290 N   0  0  0  0  0
  -37.5160   12.8890  -26.2210 C   0  0  0  0  0
  -36.7990   12.8700  -24.8970 C   0  0  0  0  0
  -34.9550   12.1540  -23.5060 C   0  0  0  0  0
  -34.8640   12.6860  -21.0760 C   0  0  0  0  0
  -34.4310   12.2180  -18.8470 N   0  0  0  0  0
  -33.1850   13.1130  -20.9020 S   0  0  0  0  0
  -36.7210   11.6950  -19.6070 C   0  0  0  0  0
  -36.1090   14.0720  -34.4250 C   0  0  0  0  0
  -37.1900   13.4430  -35.3350 C   0  0  0  0  0
  -34.9360   14.0830  -34.7720 O   0  0  0  0  0
  -38.4130   13.3340  -34.6480 F   0  0  0  0  0
  -37.3290   13.7580  -36.7700 C   0  0  0  0  0
  -36.9400   12.3760  -36.3260 C   0  0  0  0  0
  -38.5400   14.1700  -24.0180 O   0  0  0  0  0
  -39.1760   14.8880  -22.9420 C   0  0  0  0  0
  -38.5660   16.2670  -22.8090 C   0  0  0  0  0
  -39.2400   19.9060  -27.3220 C   0  0  0  0  0
  -40.2750   19.3990  -28.2390 N   0  3  0  0  0
  -39.8130   19.4200  -29.6360 C   0  0  0  0  0
  -40.9920   19.3070  -30.6060 C   0  0  0  0  0
  -42.1390   18.6590  -29.9620 N   0  0  0  0  0
  -42.6650   19.4620  -28.8520 C   0  0  0  0  0
  -41.5290   20.1600  -28.1090 C   0  0  0  0  0
  -43.0610   18.0010  -30.8250 C   0  0  0  0  0
  -44.3550   18.4660  -31.0550 C   0  0  0  0  0
  -45.1630   17.7710  -31.9620 C   0  0  0  0  0
  -44.7010   16.7090  -32.6360 N   0  0  0  0  0
  -43.4640   16.2270  -32.3980 N   0  0  0  0  0
  -42.6480   16.8340  -31.5280 C   0  0  0  0  0
  -41.4630   16.2320  -31.3680 N   0  0  0  0  0
  -46.5390   18.2210  -32.3140 C   0  0  0  0  0
  -47.3600   17.4830  -33.1860 C   0  0  0  0  0
  -48.6710   17.8950  -33.4460 C   0  0  0  0  0
  -49.1720   19.0370  -32.8440 C   0  0  0  0  0
  -48.4000   19.7370  -31.9420 C   0  0  0  0  0
  -47.0940   19.3410  -31.6850 C   0  0  0  0  0
  -46.9040   16.4170  -33.8930 O   0  0  0  0  0
  -38.7600   17.1680  -24.0080 C   0  0  0  0  0
  -37.9240   17.0900  -25.1190 C   0  0  0  0  0
  -38.0710   17.9690  -26.1830 C   0  0  0  0  0
  -39.0140   18.9920  -26.1390 C   0  0  0  0  0
  -39.8470   19.0670  -25.0330 C   0  0  0  0  0
  -39.7050   18.1890  -23.9730 C   0  0  0  0  0
  -37.5632   14.4428  -33.1311 H   0  0  0  0  0
  -35.9327   16.8265  -29.8643 H   0  0  0  0  0
  -34.7366   17.4993  -30.9990 H   0  0  0  0  0
  -36.2400   18.3906  -30.6580 H   0  0  0  0  0
  -35.2254   17.5837  -33.4259 H   0  0  0  0  0
  -36.7984   17.0243  -34.0453 H   0  0  0  0  0
  -36.7050   18.5039  -33.0587 H   0  0  0  0  0
  -38.5102   16.1401  -32.5055 H   0  0  0  0  0
  -38.1760   16.0102  -30.7612 H   0  0  0  0  0
  -38.3921   17.6116  -31.5097 H   0  0  0  0  0
  -35.3039   12.2001  -29.3566 H   0  0  0  0  0
  -33.4567   15.6792  -29.9755 H   0  0  0  0  0
  -33.2509   14.7510  -31.3945 H   0  0  0  0  0
  -37.1614   13.9702  -21.6880 H   0  0  0  0  0
  -35.1607   11.6543  -25.5767 H   0  0  0  0  0
  -32.4240   12.7256  -18.5803 H   0  0  0  0  0
  -34.8464   15.4328  -32.3725 H   0  0  0  0  0
  -33.2755   12.2776  -28.0156 H   0  0  0  0  0
  -33.5170   13.9273  -27.5841 H   0  0  0  0  0
  -31.7348   14.1131  -29.2486 H   0  0  0  0  0
  -31.7542   11.9507  -29.8704 H   0  0  0  0  0
  -36.4016   11.6813  -27.5941 H   0  0  0  0  0
  -38.2692   12.1011  -26.2154 H   0  0  0  0  0
  -37.9643   13.8735  -26.3550 H   0  0  0  0  0
  -34.0034   11.6316  -23.4082 H   0  0  0  0  0
  -37.4409   12.4926  -19.7906 H   0  0  0  0  0
  -36.9374   10.8508  -20.2616 H   0  0  0  0  0
  -36.7874   11.3762  -18.5668 H   0  0  0  0  0
  -36.9997   14.5160  -37.4807 H   0  0  0  0  0
  -38.0431   14.2350  -37.4413 H   0  0  0  0  0
  -37.2275   11.3410  -36.5109 H   0  0  0  0  0
  -36.1860   11.6215  -36.5502 H   0  0  0  0  0
  -39.0317   14.3404  -22.0106 H   0  0  0  0  0
  -40.2404   14.9855  -23.1555 H   0  0  0  0  0
  -37.4916   16.1265  -22.6907 H   0  0  0  0  0
  -39.0613   16.7511  -21.9673 H   0  0  0  0  0
  -39.5727   20.8717  -26.9413 H   0  0  0  0  0
  -38.3043   19.9745  -27.8769 H   0  0  0  0  0
  -40.4577   18.4308  -27.9752 H   0  0  0  0  0
  -39.1460   18.5729  -29.7963 H   0  0  0  0  0
  -39.2983   20.3631  -29.8198 H   0  0  0  0  0
  -40.6852   18.7063  -31.4622 H   0  0  0  0  0
  -41.2856   20.3089  -30.9191 H   0  0  0  0  0
  -43.1898   18.8051  -28.1583 H   0  0  0  0  0
  -43.3421   20.2169  -29.2518 H   0  0  0  0  0
  -41.3849   21.1516  -28.5381 H   0  0  0  0  0
  -41.7901   20.2302  -27.0531 H   0  0  0  0  0
  -44.7290   19.3509  -30.5400 H   0  0  0  0  0
  -40.7852   16.6083  -30.7052 H   0  0  0  0  0
  -41.2380   15.3970  -31.9089 H   0  0  0  0  0
  -49.2992   17.3165  -34.1233 H   0  0  0  0  0
  -50.1776   19.3826  -33.0837 H   0  0  0  0  0
  -48.8158   20.6041  -31.4288 H   0  0  0  0  0
  -46.4902   19.9130  -30.9805 H   0  0  0  0  0
  -47.6184   16.0572  -34.4238 H   0  0  0  0  0
  -37.1444   16.3290  -25.1534 H   0  0  0  0  0
  -37.4398   17.8568  -27.0645 H   0  0  0  0  0
  -40.6255   19.8291  -24.9981 H   0  0  0  0  0
  -40.3436   18.2988  -23.0965 H   0  0  0  0  0
 15  1  1  0  0  0
  1 31  1  0  0  0
  2 15  1  0  0  0
 17  2  1  0  0  0
  2 18  2  0  0  0
 16  3  1  0  0  0
 16  4  1  0  0  0
 16  5  1  0  0  0
  8  6  1  0  0  0
  6 17  1  0  0  0
  6 19  1  0  0  0
 17  7  1  0  0  0
 20  7  1  0  0  0
  8 22  2  0  0  0
 23  8  1  0  0  0
  9 10  4  0  0  0
  9 25  4  0  0  0
 37  9  1  0  0  0
 10 11  4  0  0  0
 11 26  4  0  0  0
 11 27  1  0  0  0
 25 12  4  0  0  0
 12 26  4  0  0  0
 27 13  4  0  0  0
 13 28  4  0  0  0
 13 30  1  0  0  0
 14 28  4  0  0  0
 29 14  4  0  0  0
 15 16  1  0  0  0
 19 20  1  0  0  0
 20 21  1  0  0  0
 24 23  1  0  0  0
 25 24  1  0  0  0
 27 29  4  0  0  0
 31 32  1  0  0  0
 31 33  2  0  0  0
 32 34  1  0  0  0
 32 35  1  0  0  0
 32 36  1  0  0  0
 36 35  1  0  0  0
 38 37  1  0  0  0
 39 38  1  0  0  0
 61 39  1  0  0  0
 40 41  1  0  0  0
 64 40  1  0  0  0
 41 42  1  0  0  0
 41 46  1  0  0  0
 42 43  1  0  0  0
 43 44  1  0  0  0
 45 44  1  0  0  0
 44 47  1  0  0  0
 46 45  1  0  0  0
 47 48  4  0  0  0
 47 52  4  0  0  0
 48 49  4  0  0  0
 49 50  4  0  0  0
 49 54  1  0  0  0
 51 50  4  0  0  0
 52 51  4  0  0  0
 52 53  1  0  0  0
 54 55  4  0  0  0
 54 59  4  0  0  0
 55 56  4  0  0  0
 55 60  1  0  0  0
 56 57  4  0  0  0
 58 57  4  0  0  0
 59 58  4  0  0  0
 62 61  4  0  0  0
 61 66  4  0  0  0
 63 62  4  0  0  0
 63 64  4  0  0  0
 64 65  4  0  0  0
 65 66  4  0  0  0
  1 67  1  0  0  0
  3 68  1  0  0  0
  3 69  1  0  0  0
  3 70  1  0  0  0
  4 71  1  0  0  0
  4 72  1  0  0  0
  4 73  1  0  0  0
  5 74  1  0  0  0
  5 75  1  0  0  0
  5 76  1  0  0  0
  6 77  1  0  0  0
  7 78  1  0  0  0
  7 79  1  0  0  0
 10 80  1  0  0  0
 12 81  1  0  0  0
 14 82  1  0  0  0
 15 83  1  0  0  0
 19 84  1  0  0  0
 19 85  1  0  0  0
 20 86  1  0  0  0
 21 87  1  0  0  0
 23 88  1  0  0  0
 24 89  1  0  0  0
 24 90  1  0  0  0
 26 91  1  0  0  0
 30 92  1  0  0  0
 30 93  1  0  0  0
 30 94  1  0  0  0
 35 95  1  0  0  0
 35 96  1  0  0  0
 36 97  1  0  0  0
 36 98  1  0  0  0
 38 99  1  0  0  0
 38100  1  0  0  0
 39101  1  0  0  0
 39102  1  0  0  0
 40103  1  0  0  0
 40104  1  0  0  0
 41105  1  0  0  0
 42106  1  0  0  0
 42107  1  0  0  0
 43108  1  0  0  0
 43109  1  0  0  0
 45110  1  0  0  0
 45111  1  0  0  0
 46112  1  0  0  0
 46113  1  0  0  0
 48114  1  0  0  0
 53115  1  0  0  0
 53116  1  0  0  0
 56117  1  0  0  0
 57118  1  0  0  0
 58119  1  0  0  0
 59120  1  0  0  0
 60121  1  0  0  0
 62122  1  0  0  0
 63123  1  0  0  0
 65124  1  0  0  0
 66125  1  0  0  0
M  END
$$$$
