5t92_ligand
  -I-interpret- 

 52 55  0  0  0  0  0  0  0  0999 V2000
  -41.6380   10.6350  -24.8580 C   0  0  0  0  0
  -40.6980   11.4120  -24.1620 C   0  0  0  0  0
  -39.4050   10.9270  -23.9700 C   0  0  0  0  0
  -40.4440    6.4050  -25.0810 C   0  0  0  0  0
  -39.6730    7.5950  -27.2810 C   0  0  0  0  0
  -37.5410    5.9350  -25.8800 C   0  0  0  0  0
  -37.1830    5.8500  -27.2440 C   0  0  0  0  0
  -36.7240    4.6450  -27.7890 C   0  0  0  0  0
  -36.6010    3.5120  -26.9710 C   0  0  0  0  0
  -36.9330    3.5790  -25.6060 C   0  0  0  0  0
  -37.4180    4.7870  -25.0650 C   0  0  0  0  0
  -38.9930    8.6170  -27.9830 C   0  0  0  0  0
  -39.0950    8.7540  -29.3750 C   0  0  0  0  0
  -39.9450    7.9120  -30.1030 C   0  0  0  0  0
  -40.6270    6.8810  -29.4260 C   0  0  0  0  0
  -40.4980    6.7340  -28.0320 C   0  0  0  0  0
  -39.9890    8.1250  -31.6070 C   0  0  0  0  0
  -40.4880    7.2250  -32.4700 C   0  0  0  0  0
  -40.5170    7.3570  -33.9400 C   0  0  0  0  0
  -39.0110    9.6810  -24.4760 C   0  0  0  0  0
  -39.9380    8.8690  -25.1490 C   0  0  0  0  0
  -41.2510    9.3760  -25.3520 C   0  0  0  0  0
  -37.5530    9.2700  -24.2900 C   0  0  0  0  0
  -37.3400    7.7450  -24.2920 C   0  0  0  0  0
  -38.0950    7.0750  -25.3510 N   0  0  0  0  0
  -39.5010    7.4810  -25.7270 C   0  0  0  0  0
  -40.9950   12.6750  -23.6460 O   0  0  0  0  0
  -36.1900    2.3700  -27.5110 F   0  0  0  0  0
  -40.0290    8.3330  -34.4960 O   0  0  0  0  0
  -41.0430    6.3550  -34.6450 O   0  0  0  0  0
  -42.6526   11.0020  -25.0132 H   0  0  0  0  0
  -38.6859   11.5294  -23.4149 H   0  0  0  0  0
  -40.3298    6.4273  -23.9972 H   0  0  0  0  0
  -41.4786    6.6261  -25.3432 H   0  0  0  0  0
  -40.1761    5.4171  -25.4556 H   0  0  0  0  0
  -37.2651    6.7322  -27.8789 H   0  0  0  0  0
  -36.4630    4.5873  -28.8457 H   0  0  0  0  0
  -36.8159    2.7017  -24.9699 H   0  0  0  0  0
  -37.6995    4.8359  -24.0131 H   0  0  0  0  0
  -38.3717    9.3185  -27.4262 H   0  0  0  0  0
  -38.5119    9.5168  -29.8910 H   0  0  0  0  0
  -41.2592    6.1921  -29.9862 H   0  0  0  0  0
  -41.0459    5.9401  -27.5244 H   0  0  0  0  0
  -39.5942    9.0589  -32.0071 H   0  0  0  0  0
  -40.9102    6.3138  -32.0462 H   0  0  0  0  0
  -41.9744    8.7751  -25.9032 H   0  0  0  0  0
  -37.2281    9.6450  -23.3195 H   0  0  0  0  0
  -36.9874    9.6810  -25.1263 H   0  0  0  0  0
  -37.6863    7.3559  -23.3345 H   0  0  0  0  0
  -36.2804    7.5537  -24.4619 H   0  0  0  0  0
  -40.2179   13.0321  -23.2098 H   0  0  0  0  0
  -41.3748    5.6829  -34.0452 H   0  0  0  0  0
  2  1  4  0  0  0
 22  1  4  0  0  0
  3  2  4  0  0  0
  2 27  1  0  0  0
 20  3  4  0  0  0
 26  4  1  0  0  0
  5 12  4  0  0  0
  5 16  4  0  0  0
 26  5  1  0  0  0
  6  7  4  0  0  0
  6 11  4  0  0  0
 25  6  1  0  0  0
  7  8  4  0  0  0
  8  9  4  0  0  0
 10  9  4  0  0  0
  9 28  1  0  0  0
 11 10  4  0  0  0
 12 13  4  0  0  0
 13 14  4  0  0  0
 15 14  4  0  0  0
 14 17  1  0  0  0
 16 15  4  0  0  0
 17 18  2  0  0  0
 18 19  1  0  0  0
 19 29  2  0  0  0
 19 30  1  0  0  0
 20 21  4  0  0  0
 23 20  1  0  0  0
 21 22  4  0  0  0
 21 26  1  0  0  0
 24 23  1  0  0  0
 24 25  1  0  0  0
 25 26  1  0  0  0
  1 31  1  0  0  0
  3 32  1  0  0  0
  4 33  1  0  0  0
  4 34  1  0  0  0
  4 35  1  0  0  0
  7 36  1  0  0  0
  8 37  1  0  0  0
 10 38  1  0  0  0
 11 39  1  0  0  0
 12 40  1  0  0  0
 13 41  1  0  0  0
 15 42  1  0  0  0
 16 43  1  0  0  0
 17 44  1  0  0  0
 18 45  1  0  0  0
 22 46  1  0  0  0
 23 47  1  0  0  0
 23 48  1  0  0  0
 24 49  1  0  0  0
 24 50  1  0  0  0
 27 51  1  0  0  0
 30 52  1  0  0  0
M  END
$$$$
