5f1z_ligand
  -I-interpret- 

 51 53  0  0  0  0  0  0  0  0999 V2000
  -20.4950   20.1990  482.6320 C   0  0  0  0  0
  -19.3550   20.9780  481.9500 C   0  0  0  0  0
  -22.0660   21.9450  481.8940 C   0  0  0  0  0
  -23.5520   23.8220  481.1530 C   0  0  0  0  0
  -22.8340   28.1130  479.6070 C   0  0  0  0  0
  -24.2600   21.4040  480.9910 C   0  0  0  0  0
  -25.1270   19.3220  480.6790 C   0  0  0  0  0
  -23.9610   20.0470  481.1540 C   0  0  0  0  0
  -21.5130   19.5540  484.8950 C   0  0  0  0  0
  -20.4680   20.4140  484.1690 C   0  0  0  0  0
  -19.1020   20.0830  484.7840 C   0  0  0  0  0
  -21.8010   20.6100  482.0610 N   0  0  0  0  0
  -23.2520   22.3840  481.3700 C   0  0  0  0  0
  -22.6380   24.8850  481.2250 C   0  0  0  0  0
  -23.3140   26.0230  480.9520 C   0  0  0  0  0
  -24.6180   25.6970  480.7120 N   0  0  0  0  0
  -25.7230   26.5970  480.3760 C   0  0  0  0  0
  -24.7360   24.3120  480.8360 N   0  0  0  0  0
  -22.6680   27.3950  480.9500 C   0  0  0  0  0
  -23.2870   28.2340  482.0730 C   0  0  0  0  0
  -21.2660   27.2100  481.1880 O   0  0  0  0  0
  -25.5000   21.4900  480.4630 N   0  0  0  0  0
  -26.0100   20.2000  480.2810 N   0  0  0  0  0
  -25.2810   17.9460  480.6530 N   0  0  0  0  0
  -22.7130   19.6720  481.6930 C   0  0  0  0  0
  -22.4930   18.4810  481.8190 O   0  0  0  0  0
  -20.3532   19.1347  482.4444 H   0  0  0  0  0
  -19.4682   22.0419  482.1584 H   0  0  0  0  0
  -18.3970   20.6306  482.3370 H   0  0  0  0  0
  -19.3957   20.8109  480.8736 H   0  0  0  0  0
  -21.3122   22.6761  482.1863 H   0  0  0  0  0
  -22.3701   27.5193  478.8193 H   0  0  0  0  0
  -23.8953   28.2383  479.3922 H   0  0  0  0  0
  -22.3543   29.0905  479.6573 H   0  0  0  0  0
  -21.2743   18.4996  484.7555 H   0  0  0  0  0
  -21.5026   19.7926  485.9585 H   0  0  0  0  0
  -22.5012   19.7615  484.4844 H   0  0  0  0  0
  -20.6909   21.4724  484.3040 H   0  0  0  0  0
  -19.1183   20.3157  485.8487 H   0  0  0  0  0
  -18.8900   19.0228  484.6458 H   0  0  0  0  0
  -18.3305   20.6761  484.2929 H   0  0  0  0  0
  -21.5762   24.8068  481.4586 H   0  0  0  0  0
  -25.8598   27.3187  481.1813 H   0  0  0  0  0
  -25.4923   27.1235  479.4499 H   0  0  0  0  0
  -26.6365   26.0165  480.2476 H   0  0  0  0  0
  -24.3596   28.3299  481.9042 H   0  0  0  0  0
  -23.1110   27.7436  483.0304 H   0  0  0  0  0
  -22.8292   29.2232  482.0804 H   0  0  0  0  0
  -20.8279   28.0642  481.1925 H   0  0  0  0  0
  -24.5307   17.3424  480.9894 H   0  0  0  0  0
  -26.1447   17.5361  480.2975 H   0  0  0  0  0
  1  2  1  0  0  0
  1 10  1  0  0  0
 12  1  1  0  0  0
  3 12  1  0  0  0
 13  3  2  0  0  0
  4 13  1  0  0  0
 14  4  4  0  0  0
  4 18  4  0  0  0
 19  5  1  0  0  0
  6  8  4  0  0  0
 13  6  1  0  0  0
  6 22  4  0  0  0
  8  7  4  0  0  0
  7 23  4  0  0  0
  7 24  1  0  0  0
  8 25  1  0  0  0
 10  9  1  0  0  0
 10 11  1  0  0  0
 12 25  1  0  0  0
 15 14  4  0  0  0
 15 16  4  0  0  0
 15 19  1  0  0  0
 16 17  1  0  0  0
 16 18  4  0  0  0
 19 20  1  0  0  0
 19 21  1  0  0  0
 22 23  4  0  0  0
 25 26  2  0  0  0
  1 27  1  0  0  0
  2 28  1  0  0  0
  2 29  1  0  0  0
  2 30  1  0  0  0
  3 31  1  0  0  0
  5 32  1  0  0  0
  5 33  1  0  0  0
  5 34  1  0  0  0
  9 35  1  0  0  0
  9 36  1  0  0  0
  9 37  1  0  0  0
 10 38  1  0  0  0
 11 39  1  0  0  0
 11 40  1  0  0  0
 11 41  1  0  0  0
 14 42  1  0  0  0
 17 43  1  0  0  0
 17 44  1  0  0  0
 17 45  1  0  0  0
 20 46  1  0  0  0
 20 47  1  0  0  0
 20 48  1  0  0  0
 21 49  1  0  0  0
 24 50  1  0  0  0
 24 51  1  0  0  0
M  END
$$$$
