2bbb_ligand
  -I-interpret- 

 87 92  0  0  0  0  0  0  0  0999 V2000
   12.8760   22.9320    4.3100 O   0  0  0  0  0
   13.9040   22.3520    4.9250 C   0  0  0  0  0
   14.9410   22.9190    5.1390 O   0  0  0  0  0
   13.6540   21.0860    5.2950 N   0  0  0  0  0
   14.5960   20.3240    6.1320 C   0  0  0  0  0
   15.2710   19.2060    5.3240 C   0  0  0  0  0
   14.3590   18.3970    4.7680 O   0  0  0  0  0
   16.1560   19.7970    4.2210 C   0  0  0  0  0
   17.5450   19.1160    4.1280 C   0  0  0  0  0
   18.2830   19.4590    2.8270 C   0  0  0  0  0
   19.6540   18.8610    2.6380 C   0  0  0  0  0
   19.7440   17.5860    1.9400 C   0  0  0  0  0
   21.0340   16.9620    1.7490 C   0  0  0  0  0
   22.2070   17.6450    2.2720 C   0  0  0  0  0
   22.1300   18.9280    2.9710 C   0  0  0  0  0
   20.8360   19.5640    3.1470 C   0  0  0  0  0
   18.3860   19.4580    5.3790 C   0  0  0  0  0
   18.7810   20.5500    5.6710 O   0  0  0  0  0
   19.4380   18.2280    7.4560 C   0  0  0  0  0
   20.9950   18.3710    7.3610 C   0  0  0  0  0
   21.5380   16.4870    5.6560 C   0  0  0  0  0
   21.6120   16.9660    7.1320 C   0  0  0  0  0
   20.6660   16.2150    7.9700 C   0  0  0  0  0
   20.9300   14.9410    8.6150 C   0  0  0  0  0
   19.8520   14.3990    9.4090 C   0  0  0  0  0
   18.5930   15.0870    9.5510 C   0  0  0  0  0
   18.3240   16.3550    8.9080 C   0  0  0  0  0
   19.4150   16.9050    8.1270 C   0  0  0  0  0
   17.4900   17.6780    4.3150 N   0  0  0  0  0
   18.1160   17.0990    5.3810 C   0  0  0  0  0
   18.6910   18.2310    6.1250 C   0  0  0  0  0
   13.8320   19.7330    7.3350 C   0  0  0  0  0
   13.2940   20.8300    8.2290 C   0  0  0  0  0
   14.2560   21.5300    9.0870 C   0  0  0  0  0
   13.7800   22.6220    9.9160 C   0  0  0  0  0
   12.3670   22.9770    9.8370 C   0  0  0  0  0
   11.3970   22.2490    9.0310 C   0  0  0  0  0
   11.8710   21.1470    8.2100 C   0  0  0  0  0
   13.0370   24.3340    3.9770 C   0  0  0  0  0
   11.7140   24.9450    3.4900 C   0  0  0  0  0
   11.4530   24.3640    2.1830 O   0  0  0  0  0
   12.7080   24.2050    1.5010 C   0  0  0  0  0
   13.6830   24.4880    2.6230 C   0  0  0  0  0
   21.8780   15.0040    5.4970 C   0  0  0  0  0
   23.1320   14.6290    5.8260 N   0  0  0  0  0
   21.0270   14.2140    5.0920 O   0  0  0  0  0
   12.7892   20.6404    4.9885 H   0  0  0  0  0
   15.3798   20.9932    6.4868 H   0  0  0  0  0
   15.8862   18.6281    6.0137 H   0  0  0  0  0
   13.8021   18.0243    5.4554 H   0  0  0  0  0
   16.3175   20.8496    4.4536 H   0  0  0  0  0
   15.6470   19.6437    3.2694 H   0  0  0  0  0
   18.4298   20.5389    2.8446 H   0  0  0  0  0
   17.6692   19.0551    2.0219 H   0  0  0  0  0
   18.8420   17.1040    1.5630 H   0  0  0  0  0
   21.1249   16.0085    1.2288 H   0  0  0  0  0
   23.1843   17.1815    2.1375 H   0  0  0  0  0
   23.0335   19.4013    3.3554 H   0  0  0  0  0
   20.7465   20.5315    3.6409 H   0  0  0  0  0
   18.9315   19.0550    7.9536 H   0  0  0  0  0
   21.3840   18.7996    8.2846 H   0  0  0  0  0
   21.2560   19.0290    6.5321 H   0  0  0  0  0
   22.2661   17.0601    5.0819 H   0  0  0  0  0
   20.5157   16.6345    5.3078 H   0  0  0  0  0
   22.6748   16.8817    7.3589 H   0  0  0  0  0
   21.8840   14.4250    8.5065 H   0  0  0  0  0
   19.9942   13.4439    9.9146 H   0  0  0  0  0
   17.8146   14.6350   10.1658 H   0  0  0  0  0
   17.3646   16.8632    9.0043 H   0  0  0  0  0
   16.9818   17.0978    3.6475 H   0  0  0  0  0
   18.1763   16.0385    5.6257 H   0  0  0  0  0
   14.5174   19.1146    7.9146 H   0  0  0  0  0
   12.9942   19.1441    6.9617 H   0  0  0  0  0
   15.3056   21.2364    9.1016 H   0  0  0  0  0
   14.4579   23.1609   10.5779 H   0  0  0  0  0
   12.0183   23.8342   10.4129 H   0  0  0  0  0
   10.3422   22.5235    9.0430 H   0  0  0  0  0
   11.1792   20.5715    7.5949 H   0  0  0  0  0
   13.5235   24.7519    4.8584 H   0  0  0  0  0
   11.7825   26.0312    3.4296 H   0  0  0  0  0
   10.9026   24.7278    4.1847 H   0  0  0  0  0
   12.8270   24.8592    0.6373 H   0  0  0  0  0
   12.8385   23.2263    1.0392 H   0  0  0  0  0
   14.5043   23.7750    2.5517 H   0  0  0  0  0
   14.0309   25.5162    2.5239 H   0  0  0  0  0
   23.4101   13.6511    5.7433 H   0  0  0  0  0
   23.8016   15.3234    6.1573 H   0  0  0  0  0
  2  1  1  0  0  0
  1 39  1  0  0  0
  2  3  2  0  0  0
  4  2  1  0  0  0
  5  4  1  0  0  0
  6  5  1  0  0  0
  5 32  1  0  0  0
  6  7  1  0  0  0
  8  6  1  0  0  0
  9  8  1  0  0  0
  9 10  1  0  0  0
 17  9  1  0  0  0
  9 29  1  0  0  0
 10 11  1  0  0  0
 11 12  4  0  0  0
 11 16  4  0  0  0
 12 13  4  0  0  0
 13 14  4  0  0  0
 15 14  4  0  0  0
 16 15  4  0  0  0
 17 18  2  0  0  0
 31 17  1  0  0  0
 19 20  1  0  0  0
 19 28  1  0  0  0
 19 31  1  0  0  0
 20 22  1  0  0  0
 22 21  1  0  0  0
 21 44  1  0  0  0
 22 23  1  0  0  0
 23 24  4  0  0  0
 23 28  4  0  0  0
 24 25  4  0  0  0
 25 26  4  0  0  0
 26 27  4  0  0  0
 27 28  4  0  0  0
 29 30  1  0  0  0
 30 31  2  0  0  0
 32 33  1  0  0  0
 33 34  4  0  0  0
 33 38  4  0  0  0
 34 35  4  0  0  0
 35 36  4  0  0  0
 36 37  4  0  0  0
 37 38  4  0  0  0
 39 40  1  0  0  0
 39 43  1  0  0  0
 40 41  1  0  0  0
 41 42  1  0  0  0
 42 43  1  0  0  0
 44 45  1  0  0  0
 44 46  2  0  0  0
  4 47  1  0  0  0
  5 48  1  0  0  0
  6 49  1  0  0  0
  7 50  1  0  0  0
  8 51  1  0  0  0
  8 52  1  0  0  0
 10 53  1  0  0  0
 10 54  1  0  0  0
 12 55  1  0  0  0
 13 56  1  0  0  0
 14 57  1  0  0  0
 15 58  1  0  0  0
 16 59  1  0  0  0
 19 60  1  0  0  0
 20 61  1  0  0  0
 20 62  1  0  0  0
 21 63  1  0  0  0
 21 64  1  0  0  0
 22 65  1  0  0  0
 24 66  1  0  0  0
 25 67  1  0  0  0
 26 68  1  0  0  0
 27 69  1  0  0  0
 29 70  1  0  0  0
 30 71  1  0  0  0
 32 72  1  0  0  0
 32 73  1  0  0  0
 34 74  1  0  0  0
 35 75  1  0  0  0
 36 76  1  0  0  0
 37 77  1  0  0  0
 38 78  1  0  0  0
 39 79  1  0  0  0
 40 80  1  0  0  0
 40 81  1  0  0  0
 42 82  1  0  0  0
 42 83  1  0  0  0
 43 84  1  0  0  0
 43 85  1  0  0  0
 45 86  1  0  0  0
 45 87  1  0  0  0
M  END
$$$$
