1ysi_ligand
  -I-interpret- 

 60 63  0  0  0  0  0  0  0  0999 V2000
    4.9210  -11.2230   -2.6550 C   0  0  0  0  0
    4.3900  -11.2030   -3.9410 C   0  0  0  0  0
    4.8620  -10.2790   -4.8670 C   0  0  0  0  0
    5.8590   -9.3800   -4.5040 C   0  0  0  0  0
    6.3940   -9.3930   -3.2230 C   0  0  0  0  0
    5.9220  -10.3180   -2.3000 C   0  0  0  0  0
    3.4350  -12.0640   -4.2810 F   0  0  0  0  0
    7.4380   -8.4570   -2.8600 C   0  0  0  0  0
    8.6360   -8.4580   -3.5570 C   0  0  0  0  0
    9.6530   -7.5650   -3.2230 C   0  0  0  0  0
    9.4780   -6.6580   -2.1830 C   0  0  0  0  0
    8.2810   -6.6510   -1.4810 C   0  0  0  0  0
    7.2600   -7.5530   -1.8200 C   0  0  0  0  0
   10.5550   -5.7440   -1.8660 C   0  0  0  0  0
   11.5110   -5.6600   -2.6290 O   0  0  0  0  0
   10.5540   -4.9760   -0.7620 N   0  0  0  0  0
   11.9180   -3.8820   -0.4540 S   0  0  0  0  0
   11.9410   -2.5710   -1.5860 C   0  0  0  0  0
   10.9290   -1.6120   -1.5650 C   0  0  0  0  0
   10.9400   -0.5550   -2.4710 C   0  0  0  0  0
   11.9640   -0.4440   -3.4090 C   0  0  0  0  0
   12.9750   -1.4010   -3.4290 C   0  0  0  0  0
   12.9630   -2.4640   -2.5170 C   0  0  0  0  0
   13.1540   -4.5940   -0.5910 O   0  0  0  0  0
   11.8170   -3.3590    0.8780 O   0  0  0  0  0
    9.9220    0.3570   -2.4070 N   0  0  0  0  0
    9.0310    0.2340   -1.5700 O   0  0  0  0  0
    9.8260    1.3150   -3.1420 O   0  0  0  0  0
   12.0320    0.5920   -4.3460 N   0  0  0  0  0
   13.0630    0.7830   -5.3530 C   0  0  0  0  0
   12.8460   -0.1700   -6.5450 C   0  0  0  0  0
   11.0930   -0.2530   -7.0140 S   0  0  0  0  0
    9.9950   -1.2400   -6.1160 C   0  0  0  0  0
    9.0780   -0.6440   -5.2570 C   0  0  0  0  0
    8.1950   -1.4320   -4.5290 C   0  0  0  0  0
    8.2280   -2.8150   -4.6610 C   0  0  0  0  0
    9.1450   -3.4100   -5.5200 C   0  0  0  0  0
   10.0280   -2.6230   -6.2480 C   0  0  0  0  0
    4.5552  -11.9453   -1.9252 H   0  0  0  0  0
    4.4509  -10.2594   -5.8763 H   0  0  0  0  0
    6.2245   -8.6571   -5.2334 H   0  0  0  0  0
    6.3363  -10.3369   -1.2920 H   0  0  0  0  0
    8.7844   -9.1639   -4.3742 H   0  0  0  0  0
   10.5901   -7.5776   -3.7796 H   0  0  0  0  0
    8.1332   -5.9438   -0.6648 H   0  0  0  0  0
    6.3224   -7.5441   -1.2642 H   0  0  0  0  0
    9.7745   -5.0217   -0.1057 H   0  0  0  0  0
   10.1239   -1.6904   -0.8344 H   0  0  0  0  0
   13.7808   -1.3225   -4.1588 H   0  0  0  0  0
   13.7587   -3.2086   -2.5392 H   0  0  0  0  0
   11.2825    1.2834   -4.3203 H   0  0  0  0  0
   14.0345    0.5719   -4.9062 H   0  0  0  0  0
   13.0179    1.8112   -5.7120 H   0  0  0  0  0
   13.1751   -1.1680   -6.2555 H   0  0  0  0  0
   13.4153    0.2039   -7.3960 H   0  0  0  0  0
    9.0520    0.4409   -5.1549 H   0  0  0  0  0
    7.4768   -0.9656   -3.8547 H   0  0  0  0  0
    7.5347   -3.4334   -4.0909 H   0  0  0  0  0
    9.1710   -4.4949   -5.6222 H   0  0  0  0  0
   10.7462   -3.0897   -6.9222 H   0  0  0  0  0
  1  2  4  0  0  0
  1  6  4  0  0  0
  2  3  4  0  0  0
  2  7  1  0  0  0
  3  4  4  0  0  0
  4  5  4  0  0  0
  5  6  4  0  0  0
  5  8  1  0  0  0
  8  9  4  0  0  0
  8 13  4  0  0  0
  9 10  4  0  0  0
 10 11  4  0  0  0
 11 12  4  0  0  0
 11 14  1  0  0  0
 12 13  4  0  0  0
 14 15  2  0  0  0
 14 16  1  0  0  0
 16 17  1  0  0  0
 17 18  1  0  0  0
 17 24  2  0  0  0
 17 25  2  0  0  0
 18 19  4  0  0  0
 18 23  4  0  0  0
 19 20  4  0  0  0
 20 21  4  0  0  0
 20 26  1  0  0  0
 21 22  4  0  0  0
 21 29  1  0  0  0
 22 23  4  0  0  0
 26 27  2  0  0  0
 26 28  2  0  0  0
 29 30  1  0  0  0
 30 31  1  0  0  0
 31 32  1  0  0  0
 32 33  1  0  0  0
 33 34  4  0  0  0
 33 38  4  0  0  0
 34 35  4  0  0  0
 35 36  4  0  0  0
 36 37  4  0  0  0
 37 38  4  0  0  0
  1 39  1  0  0  0
  3 40  1  0  0  0
  4 41  1  0  0  0
  6 42  1  0  0  0
  9 43  1  0  0  0
 10 44  1  0  0  0
 12 45  1  0  0  0
 13 46  1  0  0  0
 16 47  1  0  0  0
 19 48  1  0  0  0
 22 49  1  0  0  0
 23 50  1  0  0  0
 29 51  1  0  0  0
 30 52  1  0  0  0
 30 53  1  0  0  0
 31 54  1  0  0  0
 31 55  1  0  0  0
 34 56  1  0  0  0
 35 57  1  0  0  0
 36 58  1  0  0  0
 37 59  1  0  0  0
 38 60  1  0  0  0
M  END
$$$$
