### 
### Created by X-TOOL on Mon Sep 10 21:13:11 2018
### 

@<TRIPOS>MOLECULE
3vyf_ligand
   78    80     1     0     0
SMALL
GAST_HUCK


@<TRIPOS>ATOM
      1 C1        179.8850  202.0820  100.5240 C.3       1 VYF         0.0869
      2 C2        179.4540  203.5470  100.4220 C.3       1 VYF        -0.0139
      3 N3        179.4900  204.0490   99.0530 N.4       1 VYF         0.2276
      4 C4        178.6080  203.2680   98.1940 C.3       1 VYF        -0.0492
      5 C5        179.0040  201.7930   98.1480 C.3       1 VYF        -0.0521
      6 C6        179.1320  201.1730   99.5450 C.3       1 VYF        -0.0391
      7 N7        178.1850  201.0140   97.2100 N.4       1 VYF         0.4254
      8 C8        177.0670  200.3720   97.8600 C.3       1 VYF        -0.0101
      9 C9        176.0720  199.8370   96.8320 C.2       1 VYF         0.1859
     10 N10       176.6240  199.3500   95.6740 N.am      1 VYF        -0.2222
     11 C11       178.0870  199.3410   95.4370 C.3       1 VYF         0.0426
     12 C12       178.9670  200.0260   96.4880 C.3       1 VYF        -0.0635
     13 O13       174.8700  199.8560   97.0530 O.2       1 VYF        -0.3868
     14 C14       179.5060  198.9670   97.4550 C.3       1 VYF        -0.0762
     15 C15       180.1380  200.7160   95.7870 C.3       1 VYF        -0.0762
     16 C16       175.7860  198.8470   94.6910 C.ar      1 VYF         0.0830
     17 C17       175.4350  197.5080   94.6050 C.ar      1 VYF         0.0596
     18 C18       174.5960  197.0330   93.6150 C.ar      1 VYF        -0.0616
     19 C19       174.1000  197.9240   92.6710 C.ar      1 VYF        -0.0766
     20 C20       174.4440  199.2740   92.7400 C.ar      1 VYF        -0.0753
     21 C21       175.2910  199.7360   93.7460 C.ar      1 VYF        -0.0404
     22 CL1       176.0490  196.3930   95.7740 Cl        1 VYF        -0.0830
     23 C23       179.6900  201.5850  101.9580 C.2       1 VYF         0.1844
     24 O24       178.7440  200.8760  102.2710 O.2       1 VYF        -0.3966
     25 N25       180.6510  202.0050  102.8020 N.am      1 VYF        -0.2835
     26 C26       180.5520  201.5850  104.1890 C.3       1 VYF         0.0425
     27 C27       181.2660  200.2400  104.3790 C.3       1 VYF        -0.0275
     28 C28       181.0680  202.6920  105.1090 C.3       1 VYF        -0.0275
     29 C29       180.3550  204.0290  104.8870 C.3       1 VYF        -0.0446
     30 C30       181.0950  205.2050  105.5240 C.3       1 VYF        -0.0626
     31 C31       178.8760  203.9850  105.2710 C.3       1 VYF        -0.0626
     32 C32       182.7050  200.3670  104.8860 C.3       1 VYF        -0.0446
     33 C33       183.2750  199.0320  105.3630 C.3       1 VYF        -0.0626
     34 C34       183.6260  201.0770  103.8950 C.3       1 VYF        -0.0626
     35 H         180.9395  202.0355  100.2521 H         1 VYF         0.0591
     36 H         180.1475  204.1425  101.0157 H         1 VYF         0.0842
     37 H         178.4266  203.6197  100.7787 H         1 VYF         0.0842
     38 H         180.4441  203.9753   98.6999 H         1 VYF         0.2014
     39 H         179.1781  205.0201   99.0497 H         1 VYF         0.2014
     40 H         178.6772  203.6692   97.1829 H         1 VYF         0.0796
     41 H         177.5970  203.3352   98.5957 H         1 VYF         0.0796
     42 H         180.0110  201.7508   97.7328 H         1 VYF         0.0109
     43 H         178.1270  201.0162   99.9368 H         1 VYF         0.0279
     44 H         179.6928  200.2431   99.4502 H         1 VYF         0.0279
     45 H         176.5607  201.1035   98.4899 H         1 VYF         0.0263
     46 H         177.4393  199.5376   98.4544 H         1 VYF         0.0263
     47 H         178.2418  199.8964   94.5120 H         1 VYF         0.0571
     48 H         178.3822  198.2918   95.4402 H         1 VYF         0.0571
     49 H         180.1387  199.4470   98.2016 H         1 VYF         0.0216
     50 H         178.6714  198.4699   97.9495 H         1 VYF         0.0216
     51 H         180.0901  198.2333   96.8995 H         1 VYF         0.0216
     52 H         179.7544  201.4587   95.0874 H         1 VYF         0.0216
     53 H         180.7671  201.2059   96.5302 H         1 VYF         0.0216
     54 H         180.7242  199.9735   95.2455 H         1 VYF         0.0216
     55 H         174.3278  195.9773   93.5753 H         1 VYF         0.0583
     56 H         173.4428  197.5683   91.8775 H         1 VYF         0.0488
     57 H         174.0479  199.9721   92.0025 H         1 VYF         0.0579
     58 H         175.5636  200.7904   93.7907 H         1 VYF         0.0502
     59 H         181.4184  202.5949  102.4802 H         1 VYF         0.1854
     60 H         179.5099  201.4215  104.4635 H         1 VYF         0.0556
     61 H         181.3078  199.7548  103.4038 H         1 VYF         0.0290
     62 H         180.7069  199.6794  105.1282 H         1 VYF         0.0290
     63 H         182.1264  202.8385  104.8937 H         1 VYF         0.0290
     64 H         180.8849  202.3830  106.1381 H         1 VYF         0.0290
     65 H         180.3785  204.2043  103.8114 H         1 VYF         0.0296
     66 H         181.1750  205.0430  106.5989 H         1 VYF         0.0232
     67 H         182.0926  205.2820  105.0916 H         1 VYF         0.0232
     68 H         180.5432  206.1256  105.3341 H         1 VYF         0.0232
     69 H         178.3676  203.2326  104.6680 H         1 VYF         0.0232
     70 H         178.7835  203.7298  106.3266 H         1 VYF         0.0232
     71 H         178.4260  204.9614  105.0911 H         1 VYF         0.0232
     72 H         182.6578  201.0130  105.7626 H         1 VYF         0.0296
     73 H         182.6629  198.6478  106.1789 H         1 VYF         0.0232
     74 H         183.2702  198.3205  104.5373 H         1 VYF         0.0232
     75 H         184.2972  199.1787  105.7119 H         1 VYF         0.0232
     76 H         183.6517  200.5176  102.9599 H         1 VYF         0.0232
     77 H         183.2500  202.0828  103.7079 H         1 VYF         0.0232
     78 H         184.6311  201.1353  104.3127 H         1 VYF         0.0232
@<TRIPOS>BOND
     1    1    2 1  
     2    1    6 1  
     3    1   23 1  
     4    2    3 1  
     5    3    4 1  
     6    4    5 1  
     7    5    6 1  
     8    5    7 1  
     9    7    8 1  
    10    7   12 1  
    11    8    9 1  
    12    9   10 am 
    13    9   13 2  
    14   10   11 1  
    15   10   16 1  
    16   11   12 1  
    17   12   14 1  
    18   12   15 1  
    19   16   17 ar 
    20   16   21 ar 
    21   17   18 ar 
    22   17   22 1  
    23   18   19 ar 
    24   19   20 ar 
    25   20   21 ar 
    26   23   24 2  
    27   23   25 am 
    28   25   26 1  
    29   26   27 1  
    30   26   28 1  
    31   27   32 1  
    32   28   29 1  
    33   29   30 1  
    34   29   31 1  
    35   32   33 1  
    36   32   34 1  
    37    1   35 1  
    38    2   36 1  
    39    2   37 1  
    40    3   38 1  
    41    3   39 1  
    42    4   40 1  
    43    4   41 1  
    44    5   42 1  
    45    6   43 1  
    46    6   44 1  
    47    8   45 1  
    48    8   46 1  
    49   11   47 1  
    50   11   48 1  
    51   14   49 1  
    52   14   50 1  
    53   14   51 1  
    54   15   52 1  
    55   15   53 1  
    56   15   54 1  
    57   18   55 1  
    58   19   56 1  
    59   20   57 1  
    60   21   58 1  
    61   25   59 1  
    62   26   60 1  
    63   27   61 1  
    64   27   62 1  
    65   28   63 1  
    66   28   64 1  
    67   29   65 1  
    68   30   66 1  
    69   30   67 1  
    70   30   68 1  
    71   31   69 1  
    72   31   70 1  
    73   31   71 1  
    74   32   72 1  
    75   33   73 1  
    76   33   74 1  
    77   33   75 1  
    78   34   76 1  
    79   34   77 1  
    80   34   78 1  
@<TRIPOS>SUBSTRUCTURE
     1 VYF         1

