3vyf_ligand
  -I-interpret- 

 79 81  0  0  0  0  0  0  0  0999 V2000
  179.8850  202.0820  100.5240 C   0  0  0  0  0
  179.4540  203.5470  100.4220 C   0  0  0  0  0
  179.4900  204.0490   99.0530 N   0  3  0  0  0
  178.6080  203.2680   98.1940 C   0  0  0  0  0
  179.0040  201.7930   98.1480 C   0  0  0  0  0
  179.1320  201.1730   99.5450 C   0  0  0  0  0
  178.1850  201.0140   97.2100 N   0  3  0  0  0
  177.0670  200.3720   97.8600 C   0  0  0  0  0
  176.0720  199.8370   96.8320 C   0  0  0  0  0
  176.6240  199.3500   95.6740 N   0  0  0  0  0
  178.0870  199.3410   95.4370 C   0  0  0  0  0
  178.9670  200.0260   96.4880 C   0  0  0  0  0
  174.8700  199.8560   97.0530 O   0  0  0  0  0
  179.5060  198.9670   97.4550 C   0  0  0  0  0
  180.1380  200.7160   95.7870 C   0  0  0  0  0
  175.7860  198.8470   94.6910 C   0  0  0  0  0
  175.4350  197.5080   94.6050 C   0  0  0  0  0
  174.5960  197.0330   93.6150 C   0  0  0  0  0
  174.1000  197.9240   92.6710 C   0  0  0  0  0
  174.4440  199.2740   92.7400 C   0  0  0  0  0
  175.2910  199.7360   93.7460 C   0  0  0  0  0
  176.0490  196.3930   95.7740 Cl  0  0  0  0  0
  179.6900  201.5850  101.9580 C   0  0  0  0  0
  178.7440  200.8760  102.2710 O   0  0  0  0  0
  180.6510  202.0050  102.8020 N   0  0  0  0  0
  180.5520  201.5850  104.1890 C   0  0  0  0  0
  181.2660  200.2400  104.3790 C   0  0  0  0  0
  181.0680  202.6920  105.1090 C   0  0  0  0  0
  180.3550  204.0290  104.8870 C   0  0  0  0  0
  181.0950  205.2050  105.5240 C   0  0  0  0  0
  178.8760  203.9850  105.2710 C   0  0  0  0  0
  182.7050  200.3670  104.8860 C   0  0  0  0  0
  183.2750  199.0320  105.3630 C   0  0  0  0  0
  183.6260  201.0770  103.8950 C   0  0  0  0  0
  180.9395  202.0355  100.2521 H   0  0  0  0  0
  180.1475  204.1425  101.0157 H   0  0  0  0  0
  178.4266  203.6197  100.7787 H   0  0  0  0  0
  180.4441  203.9753   98.6999 H   0  0  0  0  0
  179.1781  205.0201   99.0497 H   0  0  0  0  0
  178.6772  203.6692   97.1829 H   0  0  0  0  0
  177.5970  203.3352   98.5957 H   0  0  0  0  0
  180.0110  201.7508   97.7328 H   0  0  0  0  0
  178.1270  201.0162   99.9368 H   0  0  0  0  0
  179.6928  200.2431   99.4502 H   0  0  0  0  0
  177.8197  201.6891   96.5383 H   0  0  0  0  0
  176.5607  201.1035   98.4899 H   0  0  0  0  0
  177.4393  199.5376   98.4544 H   0  0  0  0  0
  178.2418  199.8964   94.5120 H   0  0  0  0  0
  178.3822  198.2918   95.4402 H   0  0  0  0  0
  180.1387  199.4470   98.2016 H   0  0  0  0  0
  178.6714  198.4699   97.9495 H   0  0  0  0  0
  180.0901  198.2333   96.8995 H   0  0  0  0  0
  179.7544  201.4587   95.0874 H   0  0  0  0  0
  180.7671  201.2059   96.5302 H   0  0  0  0  0
  180.7242  199.9735   95.2455 H   0  0  0  0  0
  174.3278  195.9773   93.5753 H   0  0  0  0  0
  173.4428  197.5683   91.8775 H   0  0  0  0  0
  174.0479  199.9721   92.0025 H   0  0  0  0  0
  175.5636  200.7904   93.7907 H   0  0  0  0  0
  181.4184  202.5949  102.4802 H   0  0  0  0  0
  179.5099  201.4215  104.4635 H   0  0  0  0  0
  181.3078  199.7548  103.4038 H   0  0  0  0  0
  180.7069  199.6794  105.1282 H   0  0  0  0  0
  182.1264  202.8385  104.8937 H   0  0  0  0  0
  180.8849  202.3830  106.1381 H   0  0  0  0  0
  180.3785  204.2043  103.8114 H   0  0  0  0  0
  181.1750  205.0430  106.5989 H   0  0  0  0  0
  182.0926  205.2820  105.0916 H   0  0  0  0  0
  180.5432  206.1256  105.3341 H   0  0  0  0  0
  178.3676  203.2326  104.6680 H   0  0  0  0  0
  178.7835  203.7298  106.3266 H   0  0  0  0  0
  178.4260  204.9614  105.0911 H   0  0  0  0  0
  182.6578  201.0130  105.7626 H   0  0  0  0  0
  182.6629  198.6478  106.1789 H   0  0  0  0  0
  183.2702  198.3205  104.5373 H   0  0  0  0  0
  184.2972  199.1787  105.7119 H   0  0  0  0  0
  183.6517  200.5176  102.9599 H   0  0  0  0  0
  183.2500  202.0828  103.7079 H   0  0  0  0  0
  184.6311  201.1353  104.3127 H   0  0  0  0  0
  1  2  1  0  0  0
  1  6  1  0  0  0
  1 23  1  0  0  0
  2  3  1  0  0  0
  3  4  1  0  0  0
  4  5  1  0  0  0
  5  6  1  0  0  0
  5  7  1  0  0  0
  7  8  1  0  0  0
  7 12  1  0  0  0
  8  9  1  0  0  0
  9 10  1  0  0  0
  9 13  2  0  0  0
 10 11  1  0  0  0
 10 16  1  0  0  0
 11 12  1  0  0  0
 12 14  1  0  0  0
 12 15  1  0  0  0
 16 17  4  0  0  0
 16 21  4  0  0  0
 17 18  4  0  0  0
 17 22  1  0  0  0
 18 19  4  0  0  0
 19 20  4  0  0  0
 20 21  4  0  0  0
 23 24  2  0  0  0
 23 25  1  0  0  0
 25 26  1  0  0  0
 26 27  1  0  0  0
 26 28  1  0  0  0
 27 32  1  0  0  0
 28 29  1  0  0  0
 29 30  1  0  0  0
 29 31  1  0  0  0
 32 33  1  0  0  0
 32 34  1  0  0  0
  1 35  1  0  0  0
  2 36  1  0  0  0
  2 37  1  0  0  0
  3 38  1  0  0  0
  3 39  1  0  0  0
  4 40  1  0  0  0
  4 41  1  0  0  0
  5 42  1  0  0  0
  6 43  1  0  0  0
  6 44  1  0  0  0
  7 45  1  0  0  0
  8 46  1  0  0  0
  8 47  1  0  0  0
 11 48  1  0  0  0
 11 49  1  0  0  0
 14 50  1  0  0  0
 14 51  1  0  0  0
 14 52  1  0  0  0
 15 53  1  0  0  0
 15 54  1  0  0  0
 15 55  1  0  0  0
 18 56  1  0  0  0
 19 57  1  0  0  0
 20 58  1  0  0  0
 21 59  1  0  0  0
 25 60  1  0  0  0
 26 61  1  0  0  0
 27 62  1  0  0  0
 27 63  1  0  0  0
 28 64  1  0  0  0
 28 65  1  0  0  0
 29 66  1  0  0  0
 30 67  1  0  0  0
 30 68  1  0  0  0
 30 69  1  0  0  0
 31 70  1  0  0  0
 31 71  1  0  0  0
 31 72  1  0  0  0
 32 73  1  0  0  0
 33 74  1  0  0  0
 33 75  1  0  0  0
 33 76  1  0  0  0
 34 77  1  0  0  0
 34 78  1  0  0  0
 34 79  1  0  0  0
M  END
$$$$
