5tzy_ligand
  -I-interpret- 

 75 79  0  0  0  0  0  0  0  0999 V2000
  -24.0590   -8.6210   42.8780 O   0  0  0  0  0
  -26.0300   -9.1630   28.9440 C   0  0  0  0  0
  -26.4000   -9.9920   30.2100 C   0  0  0  0  0
  -25.0790   -9.8560   32.3510 C   0  0  0  0  0
  -25.2280  -10.4310   31.0920 C   0  0  0  0  0
  -24.3070  -11.3920   30.6950 C   0  0  0  0  0
  -23.2610  -11.7640   31.5220 C   0  0  0  0  0
  -23.0950  -11.1800   32.7760 C   0  0  0  0  0
  -27.0700   -7.0440   29.2790 O   0  0  0  0  0
  -23.9990   -9.6340   34.4290 O   0  0  0  0  0
  -27.0770   -8.0960   28.5970 C   0  0  0  0  0
  -24.6200   -8.5580   28.9570 C   0  0  0  0  0
  -27.4430  -11.0810   29.8380 C   0  0  0  0  0
  -28.9110  -10.7790   29.8670 C   0  0  0  0  0
  -28.3430  -11.8010   30.7950 C   0  0  0  0  0
  -21.9090  -11.4970   33.6470 C   0  0  0  0  0
  -22.2000  -11.3210   35.1320 C   0  0  0  0  0
  -22.9740  -10.0360   35.3880 C   0  0  0  0  0
  -23.6290   -9.9380   36.7700 C   0  0  0  0  0
  -24.9880  -10.6060   37.0080 C   0  0  0  0  0
  -25.6010  -10.0560   38.3000 C   0  0  0  0  0
  -23.3810   -9.6190   39.2320 C   0  0  0  0  0
  -22.7110  -10.1680   37.9770 C   0  0  0  0  0
  -25.2800  -10.1280   40.8370 C   0  0  0  0  0
  -24.5450  -10.7710   42.0030 C   0  0  0  0  0
  -23.9610  -10.0070   43.0220 C   0  0  0  0  0
  -23.3070  -10.5920   44.0950 C   0  0  0  0  0
  -23.2180  -11.9700   44.1830 C   0  0  0  0  0
  -23.7820  -12.7160   43.1860 C   0  0  0  0  0
  -24.4350  -12.1650   42.1020 C   0  0  0  0  0
  -25.0390   -7.8580   43.3680 C   0  0  0  0  0
  -26.7930  -10.3120   40.8810 C   0  0  0  0  0
  -25.8980   -8.5190   44.1320 F   0  0  0  0  0
  -25.7120   -7.3190   42.3570 F   0  0  0  0  0
  -24.5450   -6.8790   44.1000 F   0  0  0  0  0
  -23.7040  -14.0670   43.2750 F   0  0  0  0  0
  -24.6730  -10.3570   39.4450 N   0  3  0  0  0
  -24.0340  -10.2340   33.1840 C   0  0  0  0  0
  -27.8880   -8.3460   27.6690 O   0  0  0  0  0
  -26.0289   -9.9082   28.1485 H   0  0  0  0  0
  -26.8897   -9.3186   30.9135 H   0  0  0  0  0
  -25.7900   -9.1011   32.6866 H   0  0  0  0  0
  -24.4095  -11.8609   29.7164 H   0  0  0  0  0
  -22.5566  -12.5254   31.1870 H   0  0  0  0  0
  -24.3927   -8.1484   27.9728 H   0  0  0  0  0
  -24.5737   -7.7637   29.7020 H   0  0  0  0  0
  -23.8955   -9.3336   29.2054 H   0  0  0  0  0
  -26.7068  -11.4230   29.1106 H   0  0  0  0  0
  -29.7393  -10.6840   29.1649 H   0  0  0  0  0
  -29.5649   -9.9081   29.9126 H   0  0  0  0  0
  -28.3758  -12.0477   31.8562 H   0  0  0  0  0
  -28.5503  -12.8244   31.1077 H   0  0  0  0  0
  -21.1071  -10.8083   33.3810 H   0  0  0  0  0
  -21.6439  -12.5412   33.4812 H   0  0  0  0  0
  -21.2534  -11.2720   35.6702 H   0  0  0  0  0
  -22.8004  -12.1645   35.4729 H   0  0  0  0  0
  -22.1324   -9.3512   35.2839 H   0  0  0  0  0
  -23.8572   -8.8742   36.7038 H   0  0  0  0  0
  -24.8549  -11.6842   37.0966 H   0  0  0  0  0
  -25.6514  -10.3941   36.1695 H   0  0  0  0  0
  -26.5693  -10.5240   38.4772 H   0  0  0  0  0
  -25.7412   -8.9786   38.2123 H   0  0  0  0  0
  -23.5766   -8.5533   39.1133 H   0  0  0  0  0
  -22.7274   -9.7571   40.0933 H   0  0  0  0  0
  -21.7622   -9.6561   37.8164 H   0  0  0  0  0
  -22.5285  -11.2358   38.0983 H   0  0  0  0  0
  -25.1055   -9.0656   41.0071 H   0  0  0  0  0
  -22.8629   -9.9666   44.8694 H   0  0  0  0  0
  -22.7128  -12.4469   45.0229 H   0  0  0  0  0
  -24.8607  -12.8071   41.3309 H   0  0  0  0  0
  -27.0290  -11.3760   40.8637 H   0  0  0  0  0
  -27.1855   -9.8663   41.7950 H   0  0  0  0  0
  -27.2423   -9.8248   40.0156 H   0  0  0  0  0
  -24.4907  -11.3606   39.4408 H   0  0  0  0  0
  -27.6928   -9.2101   27.2990 H   0  0  0  0  0
 26  1  1  0  0  0
  1 31  1  0  0  0
  3  2  1  0  0  0
  2 11  1  0  0  0
  2 12  1  0  0  0
  5  3  1  0  0  0
  3 13  1  0  0  0
  4  5  4  0  0  0
 38  4  4  0  0  0
  5  6  4  0  0  0
  7  6  4  0  0  0
  8  7  4  0  0  0
 16  8  1  0  0  0
 38  8  4  0  0  0
 11  9  2  0  0  0
 18 10  1  0  0  0
 10 38  1  0  0  0
 11 39  1  0  0  0
 13 14  1  0  0  0
 13 15  1  0  0  0
 15 14  1  0  0  0
 17 16  1  0  0  0
 18 17  1  0  0  0
 19 18  1  0  0  0
 20 19  1  0  0  0
 23 19  1  0  0  0
 21 20  1  0  0  0
 37 21  1  0  0  0
 22 23  1  0  0  0
 37 22  1  0  0  0
 25 24  1  0  0  0
 24 32  1  0  0  0
 24 37  1  0  0  0
 25 26  4  0  0  0
 25 30  4  0  0  0
 26 27  4  0  0  0
 27 28  4  0  0  0
 28 29  4  0  0  0
 29 30  4  0  0  0
 29 36  1  0  0  0
 31 33  1  0  0  0
 31 34  1  0  0  0
 31 35  1  0  0  0
  2 40  1  0  0  0
  3 41  1  0  0  0
  4 42  1  0  0  0
  6 43  1  0  0  0
  7 44  1  0  0  0
 12 45  1  0  0  0
 12 46  1  0  0  0
 12 47  1  0  0  0
 13 48  1  0  0  0
 14 49  1  0  0  0
 14 50  1  0  0  0
 15 51  1  0  0  0
 15 52  1  0  0  0
 16 53  1  0  0  0
 16 54  1  0  0  0
 17 55  1  0  0  0
 17 56  1  0  0  0
 18 57  1  0  0  0
 19 58  1  0  0  0
 20 59  1  0  0  0
 20 60  1  0  0  0
 21 61  1  0  0  0
 21 62  1  0  0  0
 22 63  1  0  0  0
 22 64  1  0  0  0
 23 65  1  0  0  0
 23 66  1  0  0  0
 24 67  1  0  0  0
 27 68  1  0  0  0
 28 69  1  0  0  0
 30 70  1  0  0  0
 32 71  1  0  0  0
 32 72  1  0  0  0
 32 73  1  0  0  0
 37 74  1  0  0  0
 39 75  1  0  0  0
M  END
$$$$
