1jn2_ligand
  -I-interpret- 

 55 57  0  0  0  0  0  0  0  0999 V2000
   26.7480   27.5660   27.2040 C   0  0  0  0  0
   25.9960   27.5080   28.3980 C   0  0  0  0  0
   26.8860   27.4290   29.4890 N   0  0  0  0  0
   24.6030   27.4930   28.4970 C   0  0  0  0  0
   23.8700   27.4580   29.6670 C   0  0  0  0  0
   22.4860   27.4170   29.7550 C   0  0  0  0  0
   22.1440   27.4230   31.0570 C   0  0  0  0  0
   23.3260   27.4580   31.8240 C   0  0  0  0  0
   24.3970   27.4700   30.9590 N   0  0  0  0  0
   23.4050   27.4760   33.2090 C   0  0  0  0  0
   24.6030   27.4460   33.9590 C   0  0  0  0  0
   24.7010   27.4550   35.3610 C   0  0  0  0  0
   25.9070   27.3550   33.4250 N   0  0  0  0  0
   21.0460   28.4630   33.6140 C   0  0  0  0  0
   19.8510   28.4480   34.2740 C   0  0  0  0  0
   19.6210   27.5040   35.2930 C   0  0  0  0  0
   20.5910   26.5480   35.6600 C   0  0  0  0  0
   21.8030   26.5300   35.0020 C   0  0  0  0  0
   22.0530   27.4960   33.9640 C   0  0  0  0  0
   23.9640   26.3540   26.3180 C   0  0  0  0  0
   23.7750   27.4790   27.1880 C   0  0  0  0  0
   22.8410   28.5110   26.8480 C   0  0  0  0  0
   22.1130   28.3970   25.6420 C   0  0  0  0  0
   22.3190   27.2950   24.8070 C   0  0  0  0  0
   23.2370   26.2690   25.1250 C   0  0  0  0  0
   18.0950   27.4980   36.1410 S   0  0  0  0  0
   17.2430   28.5390   35.6510 O   0  0  0  0  0
   18.4080   27.6960   37.5150 O   0  0  0  0  0
   17.4300   26.1250   35.9280 O   0  0  0  0  0
   21.4420   27.1510   23.3080 S   0  0  0  0  0
   22.3500   27.4330   22.2650 O   0  0  0  0  0
   20.3390   28.0710   23.2660 O   0  0  0  0  0
   20.9530   25.7200   23.2290 O   0  0  0  0  0
   26.5125   26.7000   26.5854 H   0  0  0  0  0
   26.4989   28.4790   26.6632 H   0  0  0  0  0
   27.8110   27.5636   27.4451 H   0  0  0  0  0
   26.5227   27.3541   30.4392 H   0  0  0  0  0
   27.8931   27.4467   29.3280 H   0  0  0  0  0
   21.7938   27.3853   28.9136 H   0  0  0  0  0
   21.1277   27.4040   31.4505 H   0  0  0  0  0
   24.2407   28.3631   35.7503 H   0  0  0  0  0
   24.1866   26.5833   35.7655 H   0  0  0  0  0
   25.7514   27.4256   35.6507 H   0  0  0  0  0
   26.0422   27.3043   32.4153 H   0  0  0  0  0
   26.7137   27.3399   34.0490 H   0  0  0  0  0
   21.2351   29.1981   32.8317 H   0  0  0  0  0
   19.0748   29.1670   34.0120 H   0  0  0  0  0
   20.3850   25.8313   36.4550 H   0  0  0  0  0
   22.5624   25.7934   35.2646 H   0  0  0  0  0
   24.6710   25.5685   26.5850 H   0  0  0  0  0
   22.6948   29.3672   27.5065 H   0  0  0  0  0
   21.3928   29.1664   25.3637 H   0  0  0  0  0
   23.3769   25.4238   24.4511 H   0  0  0  0  0
   18.0094   25.4352   36.2598 H   0  0  0  0  0
   20.3382   25.5530   23.9472 H   0  0  0  0  0
  2  1  1  0  0  0
  2  3  1  0  0  0
  4  2  2  0  0  0
  5  4  1  0  0  0
  4 21  1  0  0  0
  5  6  4  0  0  0
  9  5  4  0  0  0
  7  6  4  0  0  0
  8  7  4  0  0  0
  8  9  4  0  0  0
 10  8  1  0  0  0
 10 11  2  0  0  0
 19 10  1  0  0  0
 11 12  1  0  0  0
 11 13  1  0  0  0
 14 15  4  0  0  0
 19 14  4  0  0  0
 15 16  4  0  0  0
 16 17  4  0  0  0
 16 26  1  0  0  0
 17 18  4  0  0  0
 18 19  4  0  0  0
 21 22  4  0  0  0
 22 23  4  0  0  0
 23 24  4  0  0  0
 24 25  4  0  0  0
 24 30  1  0  0  0
 26 27  2  0  0  0
 26 28  2  0  0  0
 26 29  1  0  0  0
 30 31  2  0  0  0
 30 32  2  0  0  0
 30 33  1  0  0  0
 25 20  4  0  0  0
 21 20  4  0  0  0
  1 34  1  0  0  0
  1 35  1  0  0  0
  1 36  1  0  0  0
  3 37  1  0  0  0
  3 38  1  0  0  0
  6 39  1  0  0  0
  7 40  1  0  0  0
 12 41  1  0  0  0
 12 42  1  0  0  0
 12 43  1  0  0  0
 13 44  1  0  0  0
 13 45  1  0  0  0
 14 46  1  0  0  0
 15 47  1  0  0  0
 17 48  1  0  0  0
 18 49  1  0  0  0
 20 50  1  0  0  0
 22 51  1  0  0  0
 23 52  1  0  0  0
 25 53  1  0  0  0
 29 54  1  0  0  0
 33 55  1  0  0  0
M  END
$$$$
