5lav_ligand
  -I-interpret- 

 55 58  0  0  0  0  0  0  0  0999 V2000
   -2.0640   11.3040   -2.9280 C   0  0  0  0  0
   -1.4570   10.2190   -2.3190 C   0  0  0  0  0
   -2.1610    9.4780   -1.3790 C   0  0  0  0  0
   -3.4730    9.8110   -1.0570 C   0  0  0  0  0
   -4.0910   10.9050   -1.6750 C   0  0  0  0  0
   -3.3720   11.6320   -2.6140 C   0  0  0  0  0
   -5.5200   11.3550   -1.4060 C   0  0  0  0  0
   -7.8160   12.9030    1.0860 C   0  0  0  0  0
   -9.0670   13.7060    0.7010 C   0  0  0  0  0
  -10.1870   12.7980    0.1810 C   0  0  0  0  0
   -9.5800   14.4110    1.9490 C   0  0  0  0  0
   -8.7180   14.7830   -0.3300 C   0  0  0  0  0
   -5.0740   13.6120   -0.3600 C   0  0  0  0  0
   -4.4620   15.7930   -1.1850 C   0  0  0  0  0
   -3.5710   15.9750   -0.1330 C   0  0  0  0  0
   -4.1800   13.7870    0.6920 C   0  0  0  0  0
   -1.2300   12.2420   -4.1070 Cl  0  0  0  0  0
   -6.5190   10.1950   -1.1440 C   0  0  0  0  0
   -6.9820    9.5930   -2.3990 N   0  3  0  0  0
   -7.6820   10.9050   -0.4280 C   0  0  0  0  0
   -7.1920   12.2860   -0.1080 N   0  3  0  0  0
   -5.7000   12.2480   -0.1650 C   0  0  0  0  0
   -5.2160   14.6240   -1.2940 C   0  0  0  0  0
   -2.6160   17.4220    0.0370 Cl  0  0  0  0  0
   -3.4340   14.9680    0.8060 C   0  0  0  0  0
   -4.1900   12.6710    1.5130 N   0  0  0  0  0
   -5.0440   11.7230    1.0940 C   0  0  0  0  0
   -5.2210   10.6610    1.6490 O   0  0  0  0  0
   -0.4329    9.9481   -2.5757 H   0  0  0  0  0
   -1.6824    8.6295   -0.8900 H   0  0  0  0  0
   -4.0203    9.2197   -0.3229 H   0  0  0  0  0
   -3.8461   12.4769   -3.1135 H   0  0  0  0  0
   -5.7273   11.8915   -2.3319 H   0  0  0  0  0
   -8.1076   12.1115    1.7763 H   0  0  0  0  0
   -7.0955   13.5784    1.5472 H   0  0  0  0  0
   -9.8381   12.2619   -0.7016 H   0  0  0  0  0
  -10.4630   12.0833    0.9563 H   0  0  0  0  0
  -11.0536   13.4054   -0.0802 H   0  0  0  0  0
   -9.8284   13.6689    2.7077 H   0  0  0  0  0
   -8.8077   15.0786    2.3310 H   0  0  0  0  0
  -10.4699   14.9885    1.6986 H   0  0  0  0  0
   -7.9772   15.4620    0.0923 H   0  0  0  0  0
   -8.3115   14.3102   -1.2240 H   0  0  0  0  0
   -9.6178   15.3408   -0.5896 H   0  0  0  0  0
   -4.5731   16.5753   -1.9358 H   0  0  0  0  0
   -6.0806    9.3778   -0.5713 H   0  0  0  0  0
   -7.6346    8.8370   -2.1916 H   0  0  0  0  0
   -7.4500   10.3026   -2.9628 H   0  0  0  0  0
   -6.1823    9.2223   -2.9122 H   0  0  0  0  0
   -7.9728   10.3707    0.4765 H   0  0  0  0  0
   -8.5709   10.9385   -1.0580 H   0  0  0  0  0
   -7.5095   12.9558   -0.8087 H   0  0  0  0  0
   -5.9198   14.5071   -2.1180 H   0  0  0  0  0
   -2.7422   15.0939    1.6388 H   0  0  0  0  0
   -3.6102   12.5792    2.3472 H   0  0  0  0  0
  1  2  4  0  0  0
  6  1  4  0  0  0
  1 17  1  0  0  0
  3  2  4  0  0  0
  4  3  4  0  0  0
  5  4  4  0  0  0
  5  6  4  0  0  0
  7  5  1  0  0  0
 18  7  1  0  0  0
  7 22  1  0  0  0
  8  9  1  0  0  0
 21  8  1  0  0  0
  9 10  1  0  0  0
  9 11  1  0  0  0
  9 12  1  0  0  0
 13 16  4  0  0  0
 22 13  1  0  0  0
 13 23  4  0  0  0
 14 15  4  0  0  0
 23 14  4  0  0  0
 15 24  1  0  0  0
 25 15  4  0  0  0
 16 25  4  0  0  0
 16 26  1  0  0  0
 18 19  1  0  0  0
 20 18  1  0  0  0
 20 21  1  0  0  0
 21 22  1  0  0  0
 22 27  1  0  0  0
 26 27  1  0  0  0
 27 28  2  0  0  0
  2 29  1  0  0  0
  3 30  1  0  0  0
  4 31  1  0  0  0
  6 32  1  0  0  0
  7 33  1  0  0  0
  8 34  1  0  0  0
  8 35  1  0  0  0
 10 36  1  0  0  0
 10 37  1  0  0  0
 10 38  1  0  0  0
 11 39  1  0  0  0
 11 40  1  0  0  0
 11 41  1  0  0  0
 12 42  1  0  0  0
 12 43  1  0  0  0
 12 44  1  0  0  0
 14 45  1  0  0  0
 18 46  1  0  0  0
 19 47  1  0  0  0
 19 48  1  0  0  0
 19 49  1  0  0  0
 20 50  1  0  0  0
 20 51  1  0  0  0
 21 52  1  0  0  0
 23 53  1  0  0  0
 25 54  1  0  0  0
 26 55  1  0  0  0
M  END
$$$$
