1h2k_ligand
  -I-interpret- 

 15 14  0  0  0  0  0  0  0  0999 V2000
   22.0910   25.1730   27.5940 C   0  0  0  0  0
   21.0660   25.8290   28.2020 C   0  0  0  0  0
   18.7560   25.7140   29.0040 C   0  0  0  0  0
   17.4150   25.2410   28.4950 C   0  0  0  0  0
   21.9090   24.0610   27.0900 O   0  0  0  0  0
   23.2190   25.6580   27.5310 O   0  0  0  0  0
   21.1920   26.9590   28.7110 O   0  0  0  0  0
   16.4160   25.6620   29.0550 O   0  0  0  0  0
   19.8860   25.2030   28.2280 N   0  0  0  0  0
   17.3320   24.4750   27.5370 O   0  0  0  0  0
   18.8670   25.3488   30.0250 H   0  0  0  0  0
   18.7709   26.8013   28.9285 H   0  0  0  0  0
   20.9920   23.8032   27.2091 H   0  0  0  0  0
   19.7696   24.3436   27.6911 H   0  0  0  0  0
   18.2137   24.2523   27.2295 H   0  0  0  0  0
  2  1  1  0  0  0
  1  5  1  0  0  0
  1  6  2  0  0  0
  2  7  2  0  0  0
  9  2  1  0  0  0
  3  4  1  0  0  0
  3  9  1  0  0  0
  4  8  2  0  0  0
  4 10  1  0  0  0
  3 11  1  0  0  0
  3 12  1  0  0  0
  5 13  1  0  0  0
  9 14  1  0  0  0
 10 15  1  0  0  0
M  END
$$$$
