4p0b_ligand
  -I-interpret- 

 65 65  0  0  0  0  0  0  0  0999 V2000
   10.6380  -12.8900   -3.8640 N   0  3  0  0  0
   11.0610  -12.1510   -2.6830 C   0  0  0  0  0
   10.0500  -11.0710   -2.3150 C   0  0  0  0  0
    9.2920  -11.2220   -1.3580 O   0  0  0  0  0
   12.4440  -11.5320   -2.8960 C   0  0  0  0  0
   13.5590  -12.3880   -2.3260 C   0  0  0  0  0
   13.3390  -13.6030   -2.1280 O   0  0  0  0  0
   14.6560  -11.8470   -2.0710 O   0  0  0  0  0
   10.0410   -9.9810   -3.0770 N   0  0  0  0  0
    9.2320   -8.8170   -2.7290 C   0  0  0  0  0
    7.9050   -8.7760   -3.4850 C   0  0  0  0  0
    7.1130   -7.8500   -3.3090 O   0  0  0  0  0
   10.0120   -7.5280   -2.9930 C   0  0  0  0  0
   11.3580   -7.4490   -2.2950 C   0  0  0  0  0
   12.2410   -5.9370   -2.7200 S   0  0  0  0  0
   10.9910   -4.7080   -2.3510 C   0  0  0  0  0
    7.6620   -9.7840   -4.3170 N   0  0  0  0  0
    6.4740   -9.8100   -5.1710 C   0  0  0  0  0
    5.6890  -11.1100   -5.0360 C   0  0  0  0  0
    4.4850  -11.1450   -5.2880 O   0  0  0  0  0
    6.8390   -9.5460   -6.6350 C   0  0  0  0  0
    7.4960   -8.2070   -6.8630 C   0  0  0  0  0
    6.7320   -7.0630   -7.0500 C   0  0  0  0  0
    8.8800   -8.0820   -6.8830 C   0  0  0  0  0
    7.3230   -5.8340   -7.2570 C   0  0  0  0  0
    9.4810   -6.8540   -7.0900 C   0  0  0  0  0
    8.6960   -5.7350   -7.2760 C   0  0  0  0  0
    9.2780   -4.5070   -7.4830 O   0  0  0  0  0
    6.3900  -12.1800   -4.6700 N   0  0  0  0  0
    5.7800  -13.4950   -4.4870 C   0  0  0  0  0
    4.7120  -13.4810   -3.3950 C   0  0  0  0  0
    4.3460  -14.5260   -2.8560 O   0  0  0  0  0
    6.8520  -14.5320   -4.1470 C   0  0  0  0  0
    4.1988  -12.3860   -3.0411 O   0  0  0  0  0
    9.7155  -13.2929   -3.6992 H   0  0  0  0  0
   10.5962  -12.2570   -4.6628 H   0  0  0  0  0
   11.3070  -13.6360   -4.0545 H   0  0  0  0  0
   11.1192  -12.8578   -1.8553 H   0  0  0  0  0
   12.4639  -10.5700   -2.3839 H   0  0  0  0  0
   12.6081  -11.4379   -3.9695 H   0  0  0  0  0
   12.4392  -13.8110   -2.3902 H   0  0  0  0  0
   10.6114   -9.9580   -3.9223 H   0  0  0  0  0
    9.0026   -8.9015   -1.6668 H   0  0  0  0  0
    9.4068   -6.7061   -2.6105 H   0  0  0  0  0
   10.2068   -7.4880   -4.0647 H   0  0  0  0  0
   11.9605   -8.2997   -2.6134 H   0  0  0  0  0
   11.1876   -7.4563   -1.2184 H   0  0  0  0  0
   10.1112   -4.8898   -2.9682 H   0  0  0  0  0
   10.7177   -4.7745   -1.2979 H   0  0  0  0  0
   11.3863   -3.7146   -2.5631 H   0  0  0  0  0
    8.3218  -10.5606   -4.3613 H   0  0  0  0  0
    5.8241   -9.0055   -4.8266 H   0  0  0  0  0
    5.9127   -9.5571   -7.2094 H   0  0  0  0  0
    7.5504  -10.3144   -6.9377 H   0  0  0  0  0
    5.6447   -7.1374   -7.0329 H   0  0  0  0  0
    9.5010   -8.9652   -6.7333 H   0  0  0  0  0
    6.7070   -4.9470   -7.4046 H   0  0  0  0  0
   10.5677   -6.7707   -7.1061 H   0  0  0  0  0
   10.2333   -4.6005   -7.4690 H   0  0  0  0  0
    7.3924  -12.0783   -4.5110 H   0  0  0  0  0
    5.2953  -13.7625   -5.4260 H   0  0  0  0  0
    7.5762  -14.5840   -4.9600 H   0  0  0  0  0
    7.3577  -14.2414   -3.2262 H   0  0  0  0  0
    6.3832  -15.5069   -4.0134 H   0  0  0  0  0
    4.5876  -11.6719   -3.5515 H   0  0  0  0  0
  1  2  1  0  0  0
  2  3  1  0  0  0
  2  5  1  0  0  0
  3  4  2  0  0  0
  3  9  1  0  0  0
  5  6  1  0  0  0
  6  7  1  0  0  0
  6  8  2  0  0  0
  9 10  1  0  0  0
 10 11  1  0  0  0
 10 13  1  0  0  0
 11 12  2  0  0  0
 11 17  1  0  0  0
 13 14  1  0  0  0
 14 15  1  0  0  0
 15 16  1  0  0  0
 17 18  1  0  0  0
 18 19  1  0  0  0
 18 21  1  0  0  0
 19 20  2  0  0  0
 19 29  1  0  0  0
 21 22  1  0  0  0
 22 23  4  0  0  0
 22 24  4  0  0  0
 23 25  4  0  0  0
 24 26  4  0  0  0
 25 27  4  0  0  0
 26 27  4  0  0  0
 27 28  1  0  0  0
 29 30  1  0  0  0
 30 31  1  0  0  0
 30 33  1  0  0  0
 31 32  2  0  0  0
 31 34  1  0  0  0
  1 35  1  0  0  0
  1 36  1  0  0  0
  1 37  1  0  0  0
  2 38  1  0  0  0
  5 39  1  0  0  0
  5 40  1  0  0  0
  7 41  1  0  0  0
  9 42  1  0  0  0
 10 43  1  0  0  0
 13 44  1  0  0  0
 13 45  1  0  0  0
 14 46  1  0  0  0
 14 47  1  0  0  0
 16 48  1  0  0  0
 16 49  1  0  0  0
 16 50  1  0  0  0
 17 51  1  0  0  0
 18 52  1  0  0  0
 21 53  1  0  0  0
 21 54  1  0  0  0
 23 55  1  0  0  0
 24 56  1  0  0  0
 25 57  1  0  0  0
 26 58  1  0  0  0
 28 59  1  0  0  0
 29 60  1  0  0  0
 30 61  1  0  0  0
 33 62  1  0  0  0
 33 63  1  0  0  0
 33 64  1  0  0  0
 34 65  1  0  0  0
M  END
$$$$
