4ikr_ligand
  -I-interpret- 

 44 46  0  0  0  0  0  0  0  0999 V2000
   -4.0660   -3.9660   17.1000 Cl  0  0  0  0  0
   -3.2660   -4.8360   15.7820 C   0  0  0  0  0
   -3.3480   -4.2860   14.5100 C   0  0  0  0  0
   -4.0260   -2.9840   14.1980 C   0  0  0  0  0
   -2.7230   -4.9040   13.5180 N   0  0  0  0  0
   -2.1090   -6.0910   13.7360 C   0  0  0  0  0
   -1.4400   -6.7680   12.6330 C   0  0  0  0  0
   -1.2040   -6.0520   11.5080 N   0  0  0  0  0
   -0.5470   -6.6410   10.4990 C   0  0  0  0  0
   -0.1680   -7.9840   10.5630 C   0  0  0  0  0
   -0.4340   -8.7260   11.6980 C   0  0  0  0  0
   -1.0550   -8.0960   12.7620 C   0  0  0  0  0
   -2.0310   -6.6440   14.9510 N   0  0  0  0  0
   -2.5990   -6.0480   15.9980 C   0  0  0  0  0
   -2.4010   -6.7210   17.2100 N   0  0  0  0  0
   -2.2600   -8.1750   17.1550 C   0  0  0  0  0
   -2.2240   -8.8540   18.5310 C   0  0  0  0  0
   -2.5600   -7.9670   19.6540 N   0  3  0  0  0
   -3.0640   -6.6110   19.4760 C   0  0  0  0  0
   -2.1610   -5.9550   18.4440 C   0  0  0  0  0
   -2.3870   -8.4500   21.0250 C   0  0  0  0  0
   -3.5300   -9.4290   21.2940 C   0  0  0  0  0
   -3.1500  -10.7780   20.9720 O   0  0  0  0  0
   -5.0766   -3.0457   14.4819 H   0  0  0  0  0
   -3.5439   -2.1818   14.7566 H   0  0  0  0  0
   -3.9482   -2.7822   13.1297 H   0  0  0  0  0
   -0.3033   -6.0597    9.6097 H   0  0  0  0  0
    0.3384   -8.4474    9.7163 H   0  0  0  0  0
   -0.1618   -9.7800   11.7537 H   0  0  0  0  0
   -1.2399   -8.6359   13.6907 H   0  0  0  0  0
   -1.3099   -8.3884   16.6653 H   0  0  0  0  0
   -3.1306   -8.5635   16.6265 H   0  0  0  0  0
   -1.2027   -9.1999   18.6907 H   0  0  0  0  0
   -2.9705   -9.6481   18.5158 H   0  0  0  0  0
   -2.5796   -7.9058   18.6360 H   0  0  0  0  0
   -3.0507   -6.0602   20.4165 H   0  0  0  0  0
   -4.1017   -6.6181   19.1424 H   0  0  0  0  0
   -2.3838   -4.8954   18.3187 H   0  0  0  0  0
   -1.1130   -5.9771   18.7430 H   0  0  0  0  0
   -2.4098   -7.6224   21.7339 H   0  0  0  0  0
   -1.4204   -8.9393   21.1451 H   0  0  0  0  0
   -4.3795   -9.1499   20.6707 H   0  0  0  0  0
   -3.7834   -9.3836   22.3532 H   0  0  0  0  0
   -3.8860  -11.3679   21.1508 H   0  0  0  0  0
  1  2  1  0  0  0
  2  3  4  0  0  0
  2 14  4  0  0  0
  3  4  1  0  0  0
  3  5  4  0  0  0
  5  6  4  0  0  0
  6  7  1  0  0  0
  6 13  4  0  0  0
  7  8  4  0  0  0
  7 12  4  0  0  0
  8  9  4  0  0  0
  9 10  4  0  0  0
 10 11  4  0  0  0
 11 12  4  0  0  0
 13 14  4  0  0  0
 14 15  1  0  0  0
 15 16  1  0  0  0
 15 20  1  0  0  0
 16 17  1  0  0  0
 17 18  1  0  0  0
 18 19  1  0  0  0
 18 21  1  0  0  0
 19 20  1  0  0  0
 21 22  1  0  0  0
 22 23  1  0  0  0
  4 24  1  0  0  0
  4 25  1  0  0  0
  4 26  1  0  0  0
  9 27  1  0  0  0
 10 28  1  0  0  0
 11 29  1  0  0  0
 12 30  1  0  0  0
 16 31  1  0  0  0
 16 32  1  0  0  0
 17 33  1  0  0  0
 17 34  1  0  0  0
 18 35  1  0  0  0
 19 36  1  0  0  0
 19 37  1  0  0  0
 20 38  1  0  0  0
 20 39  1  0  0  0
 21 40  1  0  0  0
 21 41  1  0  0  0
 22 42  1  0  0  0
 22 43  1  0  0  0
 23 44  1  0  0  0
M  END
$$$$
