6dh0_ligand
  -I-interpret- 

 75 78  0  0  0  0  0  0  0  0999 V2000
  116.6220   51.9170   12.5800 N   0  0  0  0  0
  117.6000   52.5830   13.4870 C   0  0  0  0  0
  117.4390   53.9170   13.7880 C   0  0  0  0  0
  118.3300   54.5440   14.6200 C   0  0  0  0  0
  119.3890   53.8180   15.1630 C   0  0  0  0  0
  119.5670   52.5010   14.8660 C   0  0  0  0  0
  118.6600   51.8680   14.0210 C   0  0  0  0  0
  120.5660   54.6890   16.2520 S   0  0  0  0  0
  121.1210   53.8150   17.2750 O   0  0  0  0  0
  119.8860   55.7780   16.9970 O   0  0  0  0  0
  121.7980   55.2930   15.2060 N   0  0  0  0  0
  122.5700   54.2790   14.4700 C   0  0  0  0  0
  124.0580   54.6430   14.4130 C   0  0  0  0  0
  124.8190   53.6580   13.4660 C   0  0  0  0  0
  124.6940   54.7030   15.8230 C   0  0  0  0  0
  121.4700   56.6470   14.5360 C   0  0  0  0  0
  122.4180   57.7470   15.1030 C   0  0  0  0  0
  122.2940   58.8930   14.3430 O   0  0  0  0  0
  122.0620   58.0410   16.5690 C   0  0  0  0  0
  123.0440   58.9790   17.0440 N   0  0  0  0  0
  124.0000   58.6550   18.0990 C   0  0  0  0  0
  123.9950   57.5990   18.6560 O   0  0  0  0  0
  124.8950   59.6790   18.3890 O   0  0  0  0  0
  125.6670   59.6570   19.5680 C   0  0  0  0  0
  127.1460   60.2500   19.1160 C   0  0  0  0  0
  126.9240   61.5700   18.9740 O   0  0  0  0  0
  125.8770   61.9150   20.0970 C   0  0  0  0  0
  124.9620   62.6560   19.6500 O   0  0  0  0  0
  123.5590   61.8380   19.7080 C   0  0  0  0  0
  123.7460   60.7820   20.4810 C   0  0  0  0  0
  125.2260   60.5240   20.4950 C   0  0  0  0  0
  120.7100   58.7300   16.7380 C   0  0  0  0  0
  120.2500   58.3010   19.1770 C   0  0  0  0  0
  120.0590   58.7390   20.5020 C   0  0  0  0  0
  120.1220   60.1100   20.8070 C   0  0  0  0  0
  120.3740   61.0250   19.8080 C   0  0  0  0  0
  120.5650   60.5900   18.4890 C   0  0  0  0  0
  120.4990   59.2120   18.1770 C   0  0  0  0  0
  115.8441   52.4490   12.1898 H   0  0  0  0  0
  116.7308   50.9293   12.3497 H   0  0  0  0  0
  116.6033   54.4743   13.3648 H   0  0  0  0  0
  118.2114   55.6017   14.8551 H   0  0  0  0  0
  120.4089   51.9496   15.2846 H   0  0  0  0  0
  118.7833   50.8122   13.7799 H   0  0  0  0  0
  122.1873   54.2245   13.4508 H   0  0  0  0  0
  122.4664   53.3237   14.9846 H   0  0  0  0  0
  124.1468   55.6469   13.9979 H   0  0  0  0  0
  124.7141   52.6404   13.8422 H   0  0  0  0  0
  124.3969   53.7212   12.4630 H   0  0  0  0  0
  125.8745   53.9283   13.4351 H   0  0  0  0  0
  124.1809   55.4570   16.4199 H   0  0  0  0  0
  124.5989   53.7299   16.3048 H   0  0  0  0  0
  125.7485   54.9642   15.7337 H   0  0  0  0  0
  120.4344   56.9155   14.7447 H   0  0  0  0  0
  121.6115   56.5641   13.4584 H   0  0  0  0  0
  123.4493   57.3968   15.0590 H   0  0  0  0  0
  122.8774   59.5712   14.6912 H   0  0  0  0  0
  122.0321   57.0913   17.1032 H   0  0  0  0  0
  123.0736   59.9091   16.6264 H   0  0  0  0  0
  125.6502   58.6492   19.9829 H   0  0  0  0  0
  127.5203   59.7882   18.2024 H   0  0  0  0  0
  127.9248   60.0332   19.8472 H   0  0  0  0  0
  126.3566   62.4313   20.9286 H   0  0  0  0  0
  123.2564   61.5290   18.7075 H   0  0  0  0  0
  122.7664   62.4690   20.1101 H   0  0  0  0  0
  123.2016   59.9175   20.1009 H   0  0  0  0  0
  123.3708   60.9630   21.4883 H   0  0  0  0  0
  125.4793   60.1098   21.4709 H   0  0  0  0  0
  119.9254   58.0131   16.4963 H   0  0  0  0  0
  120.6796   59.5959   16.0767 H   0  0  0  0  0
  120.2004   57.2375   18.9435 H   0  0  0  0  0
  119.8621   58.0141   21.2919 H   0  0  0  0  0
  119.9717   60.4486   21.8321 H   0  0  0  0  0
  120.4249   62.0880   20.0435 H   0  0  0  0  0
  120.7651   61.3162   17.7012 H   0  0  0  0  0
  2  1  1  0  0  0
  3  2  4  0  0  0
  7  2  4  0  0  0
  4  3  4  0  0  0
  5  4  4  0  0  0
  5  6  4  0  0  0
  8  5  1  0  0  0
  6  7  4  0  0  0
  8  9  2  0  0  0
  8 10  2  0  0  0
 11  8  1  0  0  0
 11 12  1  0  0  0
 16 11  1  0  0  0
 12 13  1  0  0  0
 13 14  1  0  0  0
 13 15  1  0  0  0
 17 16  1  0  0  0
 17 18  1  0  0  0
 19 17  1  0  0  0
 19 20  1  0  0  0
 32 19  1  0  0  0
 20 21  1  0  0  0
 21 22  2  0  0  0
 21 23  1  0  0  0
 23 24  1  0  0  0
 24 25  1  0  0  0
 24 31  1  0  0  0
 25 26  1  0  0  0
 27 26  1  0  0  0
 27 28  1  0  0  0
 31 27  1  0  0  0
 29 28  1  0  0  0
 30 29  1  0  0  0
 31 30  1  0  0  0
 38 32  1  0  0  0
 33 34  4  0  0  0
 33 38  4  0  0  0
 34 35  4  0  0  0
 35 36  4  0  0  0
 36 37  4  0  0  0
 37 38  4  0  0  0
  1 39  1  0  0  0
  1 40  1  0  0  0
  3 41  1  0  0  0
  4 42  1  0  0  0
  6 43  1  0  0  0
  7 44  1  0  0  0
 12 45  1  0  0  0
 12 46  1  0  0  0
 13 47  1  0  0  0
 14 48  1  0  0  0
 14 49  1  0  0  0
 14 50  1  0  0  0
 15 51  1  0  0  0
 15 52  1  0  0  0
 15 53  1  0  0  0
 16 54  1  0  0  0
 16 55  1  0  0  0
 17 56  1  0  0  0
 18 57  1  0  0  0
 19 58  1  0  0  0
 20 59  1  0  0  0
 24 60  1  0  0  0
 25 61  1  0  0  0
 25 62  1  0  0  0
 27 63  1  0  0  0
 29 64  1  0  0  0
 29 65  1  0  0  0
 30 66  1  0  0  0
 30 67  1  0  0  0
 31 68  1  0  0  0
 32 69  1  0  0  0
 32 70  1  0  0  0
 33 71  1  0  0  0
 34 72  1  0  0  0
 35 73  1  0  0  0
 36 74  1  0  0  0
 37 75  1  0  0  0
M  END
$$$$
