5jga_ligand
  -I-interpret- 

 58 62  0  0  0  0  0  0  0  0999 V2000
  -11.9620  -48.5810  -15.0970 C   0  0  0  0  0
  -10.7030  -48.5460  -14.5680 C   0  0  0  0  0
   -9.7100  -49.5010  -14.9500 C   0  0  0  0  0
  -11.4540  -50.4170  -16.3640 C   0  0  0  0  0
  -12.3820  -49.5480  -16.0420 N   0  0  0  0  0
  -11.9780  -46.7250  -13.6260 C   0  0  0  0  0
  -12.7190  -47.4880  -14.5180 C   0  0  0  0  0
  -17.0080  -47.0370  -15.8050 C   0  0  0  0  0
  -18.2770  -46.9880  -16.3650 C   0  0  0  0  0
  -18.6700  -47.9190  -17.3300 C   0  0  0  0  0
  -17.7620  -48.9050  -17.7360 C   0  0  0  0  0
  -16.4670  -48.9670  -17.1880 C   0  0  0  0  0
  -15.5580  -50.0340  -17.6620 C   0  0  0  0  0
   -8.5570  -49.5410  -14.5320 O   0  0  0  0  0
  -10.1810  -50.4160  -15.8790 N   0  0  0  0  0
  -10.3770  -47.2970  -13.4470 S   0  0  0  0  0
  -14.1400  -47.1790  -14.8330 C   0  0  0  0  0
  -14.6630  -46.1650  -14.3730 O   0  0  0  0  0
  -14.7740  -48.0750  -15.6430 N   0  0  0  0  0
  -16.0840  -48.0170  -16.2070 C   0  0  0  0  0
  -14.9420  -49.9470  -18.9130 C   0  0  0  0  0
  -14.0890  -50.9590  -19.3590 C   0  0  0  0  0
  -13.8470  -52.0680  -18.5660 C   0  0  0  0  0
  -14.4520  -52.1740  -17.3280 C   0  0  0  0  0
  -15.3020  -51.1640  -16.8740 C   0  0  0  0  0
  -20.0480  -47.8580  -17.9470 C   0  0  0  0  0
  -20.2320  -48.3880  -19.0350 O   0  0  0  0  0
  -21.0380  -47.1980  -17.2870 N   0  0  0  0  0
  -21.7020  -47.8240  -16.1090 C   0  0  0  0  0
  -23.2090  -48.0940  -16.3110 C   0  0  0  0  0
  -23.8850  -46.8860  -16.7780 N   0  3  0  0  0
  -25.3350  -47.0810  -16.8330 C   0  0  0  0  0
  -23.3480  -46.5060  -18.0900 C   0  0  0  0  0
  -21.8340  -46.1490  -17.9820 C   0  0  0  0  0
  -11.7217  -51.1997  -17.0738 H   0  0  0  0  0
  -12.3732  -45.8571  -13.0981 H   0  0  0  0  0
  -16.7250  -46.3080  -15.0457 H   0  0  0  0  0
  -18.9757  -46.2137  -16.0481 H   0  0  0  0  0
  -18.0626  -49.6351  -18.4874 H   0  0  0  0  0
   -9.5369  -51.1300  -16.2191 H   0  0  0  0  0
  -14.2336  -48.9070  -15.8800 H   0  0  0  0  0
  -15.1290  -49.0805  -19.5473 H   0  0  0  0  0
  -13.6118  -50.8754  -20.3354 H   0  0  0  0  0
  -13.1807  -52.8558  -18.9175 H   0  0  0  0  0
  -14.2650  -53.0483  -16.7046 H   0  0  0  0  0
  -15.7721  -51.2555  -15.8949 H   0  0  0  0  0
  -21.6060  -47.1287  -15.2751 H   0  0  0  0  0
  -21.2200  -48.7867  -15.9386 H   0  0  0  0  0
  -23.6454  -48.3998  -15.3601 H   0  0  0  0  0
  -23.3320  -48.8801  -17.0560 H   0  0  0  0  0
  -23.7103  -46.1288  -16.1173 H   0  0  0  0  0
  -25.5649  -47.8968  -17.5183 H   0  0  0  0  0
  -25.7054  -47.3257  -15.8375 H   0  0  0  0  0
  -25.8104  -46.1651  -17.1840 H   0  0  0  0  0
  -23.8910  -45.6339  -18.4544 H   0  0  0  0  0
  -23.4645  -47.3454  -18.7755 H   0  0  0  0  0
  -21.4425  -46.0510  -18.9946 H   0  0  0  0  0
  -21.7498  -45.2295  -17.4027 H   0  0  0  0  0
  1  2  4  0  0  0
  1  5  1  0  0  0
  7  1  4  0  0  0
  2  3  1  0  0  0
 16  2  4  0  0  0
  3 14  2  0  0  0
  3 15  1  0  0  0
  5  4  2  0  0  0
  4 15  1  0  0  0
  7  6  4  0  0  0
  6 16  4  0  0  0
 17  7  1  0  0  0
  8  9  4  0  0  0
 20  8  4  0  0  0
  9 10  4  0  0  0
 11 10  4  0  0  0
 10 26  1  0  0  0
 12 11  4  0  0  0
 12 13  1  0  0  0
 20 12  4  0  0  0
 13 21  4  0  0  0
 13 25  4  0  0  0
 17 18  2  0  0  0
 19 17  1  0  0  0
 19 20  1  0  0  0
 21 22  4  0  0  0
 22 23  4  0  0  0
 23 24  4  0  0  0
 24 25  4  0  0  0
 26 27  2  0  0  0
 26 28  1  0  0  0
 28 29  1  0  0  0
 28 34  1  0  0  0
 29 30  1  0  0  0
 30 31  1  0  0  0
 31 32  1  0  0  0
 31 33  1  0  0  0
 33 34  1  0  0  0
  4 35  1  0  0  0
  6 36  1  0  0  0
  8 37  1  0  0  0
  9 38  1  0  0  0
 11 39  1  0  0  0
 15 40  1  0  0  0
 19 41  1  0  0  0
 21 42  1  0  0  0
 22 43  1  0  0  0
 23 44  1  0  0  0
 24 45  1  0  0  0
 25 46  1  0  0  0
 29 47  1  0  0  0
 29 48  1  0  0  0
 30 49  1  0  0  0
 30 50  1  0  0  0
 31 51  1  0  0  0
 32 52  1  0  0  0
 32 53  1  0  0  0
 32 54  1  0  0  0
 33 55  1  0  0  0
 33 56  1  0  0  0
 34 57  1  0  0  0
 34 58  1  0  0  0
M  END
$$$$
