1mpa_ligand
  -I-interpret- 

188191  0  0  0  0  0  0  0  0999 V2000
  -14.3250   10.1160   48.1960 N   0  0  0  0  0
  -15.0860   10.8480   47.3940 C   0  0  0  0  0
  -14.6370   11.4500   46.4090 O   0  0  0  0  0
  -16.5600   10.9660   47.7840 C   0  0  0  0  0
  -12.9170    9.8920   47.9350 C   0  0  0  0  0
  -12.2730    9.3710   49.2120 C   0  0  0  0  0
  -11.8800   10.4860   50.0130 O   0  0  0  0  0
  -11.0850    8.4780   48.9430 C   0  0  0  0  0
  -12.8190    8.8700   46.8020 C   0  0  0  0  0
  -13.8160    8.1950   46.4850 O   0  0  0  0  0
  -11.6600    8.8170   46.1420 N   0  0  0  0  0
  -11.4280    7.8620   45.0580 C   0  0  0  0  0
  -10.0960    7.1030   45.1960 C   0  0  0  0  0
   -9.1370    7.6310   45.7640 O   0  0  0  0  0
  -11.5130    8.5570   43.6950 C   0  0  0  0  0
  -10.3800    9.5130   43.3680 C   0  0  0  0  0
  -10.5000   10.0370   41.9420 C   0  0  0  0  0
  -11.6050   11.0620   41.8050 C   0  0  0  0  0
  -11.1740   12.4030   42.3150 N   0  3  0  0  0
  -10.0650    5.8570   44.7120 N   0  0  0  0  0
   -8.8750    4.9730   44.7400 C   0  0  0  0  0
   -7.6820    5.5180   43.9690 C   0  0  0  0  0
   -7.8130    6.4920   43.2210 O   0  0  0  0  0
   -9.1720    3.6680   43.9960 C   0  0  0  0  0
  -10.2390    2.8560   44.6270 C   0  0  0  0  0
  -10.5110    3.0290   45.8320 O   0  0  0  0  0
  -10.7900    2.0190   43.8940 O   0  0  0  0  0
   -6.6040    4.7260   43.9720 N   0  0  0  0  0
   -5.4040    5.0360   43.2090 C   0  0  0  0  0
   -5.6980    4.8390   41.7140 C   0  0  0  0  0
   -4.8890    5.2180   40.8760 O   0  0  0  0  0
   -4.2370    4.1460   43.5960 C   0  0  0  0  0
   -3.8430    4.4620   44.9300 O   0  0  0  0  0
   -3.0390    4.3660   42.6730 C   0  0  0  0  0
   -6.8540    4.2630   41.3810 N   0  0  0  0  0
   -7.2250    4.0610   39.9830 C   0  0  0  0  0
   -8.4130    4.9370   39.6390 C   0  0  0  0  0
   -9.0960    4.7070   38.6360 O   0  0  0  0  0
   -7.5570    2.5890   39.6730 C   0  0  0  0  0
   -6.3740    1.6360   39.9200 C   0  0  0  0  0
   -5.2170    1.9400   39.5930 O   0  0  0  0  0
   -6.6650    0.4880   40.5110 N   0  0  0  0  0
   -8.6800    5.9150   40.5010 N   0  0  0  0  0
   -9.7670    6.8750   40.3160 C   0  0  0  0  0
  -11.1680    6.2820   40.3810 C   0  0  0  0  0
  -12.0440    6.6130   39.5850 O   0  0  0  0  0
   -9.5640    7.6290   39.0030 C   0  0  0  0  0
   -8.1700    8.1930   38.8830 C   0  0  0  0  0
   -7.6600    8.8230   39.8220 O   0  0  0  0  0
   -7.5090    7.9110   37.7590 N   0  0  0  0  0
  -11.3810    5.4090   41.3510 N   0  0  0  0  0
  -12.6870    4.7660   41.5140 C   0  0  0  0  0
  -13.3170    5.3380   42.7790 C   0  0  0  0  0
  -12.6180    5.7180   43.7280 O   0  0  0  0  0
  -12.5630    3.2270   41.6740 C   0  0  0  0  0
  -11.8640    2.5130   40.4740 C   0  0  0  0  0
  -12.1950    2.7120   39.2930 O   0  0  0  0  0
  -10.9520    1.6050   40.8090 N   0  0  0  0  0
  -14.6350    5.3610   42.8370 N   0  0  0  0  0
  -15.2510    5.8930   44.0330 C   0  0  0  0  0
  -15.1610    4.9450   45.2350 C   0  0  0  0  0
  -15.5770    3.7880   45.1870 O   0  0  0  0  0
  -16.6630    6.3640   43.7330 C   0  0  0  0  0
  -16.5610    7.8400   43.3400 C   0  0  0  0  0
  -17.7930    8.3030   42.5920 C   0  0  0  0  0
  -16.3290    8.6610   44.6080 C   0  0  0  0  0
   -2.2560    5.8630   52.2040 C   0  0  0  0  0
   -1.6230    6.6990   52.8550 O   0  0  0  0  0
   -1.5640    4.8110   51.6470 C   0  0  0  0  0
   -2.2270    3.8740   50.8670 C   0  0  0  0  0
   -1.3820    2.8270   50.3410 O   0  0  0  0  0
   -2.1300    1.9350   49.5740 C   0  0  0  0  0
   -1.3500    0.9190   49.0810 C   0  0  0  0  0
   -1.9350   -0.0740   48.3160 C   0  0  0  0  0
   -1.2560   -1.0350   47.9190 O   0  0  0  0  0
   -3.2970   -0.0220   48.0400 C   0  0  0  0  0
   -4.0680    1.0100   48.5390 C   0  0  0  0  0
   -3.4970    1.9880   49.3100 C   0  0  0  0  0
   -4.2440    3.0010   49.8710 C   0  0  0  0  0
   -3.6040    3.9800   50.6460 C   0  0  0  0  0
   -4.2990    5.0560   51.2190 C   0  0  0  0  0
   -3.6250    5.9880   51.9900 C   0  0  0  0  0
   -5.6560    2.9980   49.8060 C   0  0  0  0  0
   -6.3710    2.9050   50.9990 C   0  0  0  0  0
   -7.7540    2.9830   51.0020 C   0  0  0  0  0
   -8.4800    3.1400   49.8310 C   0  0  0  0  0
   -7.7840    3.2130   48.6260 C   0  0  0  0  0
   -6.3750    3.1570   48.5710 C   0  0  0  0  0
   -5.7870    3.4240   47.3370 C   0  0  0  0  0
   -4.6350    3.9020   47.2760 O   0  0  0  0  0
   -6.4080    3.2140   46.2610 O   0  0  0  0  0
   -9.8090    3.1790   49.8490 N   0  0  0  0  0
  -10.8860    3.8890   49.5300 C   0  0  0  0  0
  -10.9300    4.9800   48.9670 O   0  0  0  0  0
  -12.1720    3.2280   49.8780 C   0  0  0  0  0
  -12.8470    2.4950   48.4130 S   0  0  0  0  0
  -13.0290    3.9390   47.3940 C   0  0  0  0  0
  -14.3800    4.6180   47.4840 C   0  0  0  0  0
  -14.5520    5.4290   46.3040 N   0  0  0  0  0
  -13.6650    6.4220   48.8860 O   0  0  0  0  0
  -14.4390    5.4710   48.7460 C   0  0  0  0  0
  -15.3270    5.1130   49.6880 N   0  0  0  0  0
  -14.7450    9.6960   49.0253 H   0  0  0  0  0
  -16.7966   12.0091   47.9938 H   0  0  0  0  0
  -17.1815   10.6092   46.9627 H   0  0  0  0  0
  -16.7488   10.3635   48.6725 H   0  0  0  0  0
  -12.4006   10.8050   47.6385 H   0  0  0  0  0
  -13.0073    8.7596   49.7364 H   0  0  0  0  0
  -12.6427   11.0455   50.1769 H   0  0  0  0  0
  -10.3181    9.0449   48.4151 H   0  0  0  0  0
  -10.6835    8.1148   49.8890 H   0  0  0  0  0
  -11.3990    7.6321   48.3314 H   0  0  0  0  0
  -10.9134    9.4618   46.4012 H   0  0  0  0  0
  -12.2199    7.1165   45.1297 H   0  0  0  0  0
  -12.4245    9.1545   43.7108 H   0  0  0  0  0
  -11.4754    7.7675   42.9444 H   0  0  0  0  0
   -9.4342    8.9800   43.4657 H   0  0  0  0  0
  -10.4264   10.3576   44.0554 H   0  0  0  0  0
  -10.7325    9.1961   41.2886 H   0  0  0  0  0
   -9.5574   10.5144   41.6741 H   0  0  0  0  0
  -12.4612   10.7280   42.3910 H   0  0  0  0  0
  -11.8582   11.1585   40.7492 H   0  0  0  0  0
  -11.9398   13.0682   42.2082 H   0  0  0  0  0
  -10.9238   12.3261   43.3008 H   0  0  0  0  0
  -10.3660   12.7245   41.7820 H   0  0  0  0  0
  -10.9197    5.4889   44.2943 H   0  0  0  0  0
   -8.6521    4.8657   45.8016 H   0  0  0  0  0
   -8.2594    3.0720   44.0039 H   0  0  0  0  0
   -9.5112    3.9324   42.9944 H   0  0  0  0  0
   -9.9567    3.7279   46.1869 H   0  0  0  0  0
   -6.6237    3.8725   44.5302 H   0  0  0  0  0
   -5.1291    6.0684   43.4248 H   0  0  0  0  0
   -4.5550    3.1067   43.5127 H   0  0  0  0  0
   -3.1046    3.9041   45.1850 H   0  0  0  0  0
   -3.3254    4.1357   41.6468 H   0  0  0  0  0
   -2.7185    5.4058   42.7374 H   0  0  0  0  0
   -2.2216    3.7129   42.9787 H   0  0  0  0  0
   -7.4911    3.9578   42.1168 H   0  0  0  0  0
   -6.3651    4.3370   39.3726 H   0  0  0  0  0
   -7.8182    2.5246   38.6167 H   0  0  0  0  0
   -8.3685    2.2868   40.3350 H   0  0  0  0  0
   -5.9245   -0.1837   40.7130 H   0  0  0  0  0
   -7.6298    0.2750   40.7644 H   0  0  0  0  0
   -8.0964    5.9992   41.3333 H   0  0  0  0  0
   -9.7132    7.5553   41.1659 H   0  0  0  0  0
  -10.2703    8.4587   38.9744 H   0  0  0  0  0
   -9.7200    6.9298   38.1815 H   0  0  0  0  0
   -6.5425    8.2166   37.6454 H   0  0  0  0  0
   -7.9701    7.3898   37.0132 H   0  0  0  0  0
  -10.6244    5.1798   41.9955 H   0  0  0  0  0
  -13.2901    4.9575   40.6265 H   0  0  0  0  0
  -13.5752    2.8280   41.7404 H   0  0  0  0  0
  -11.9517    3.0437   42.5576 H   0  0  0  0  0
  -10.4999    1.0454   40.0859 H   0  0  0  0  0
  -10.7045    1.4682   41.7890 H   0  0  0  0  0
  -15.2017    5.0146   42.0629 H   0  0  0  0  0
  -14.6760    6.7654   44.3434 H   0  0  0  0  0
  -17.3074    6.2376   44.6030 H   0  0  0  0  0
  -17.1049    5.7775   42.9275 H   0  0  0  0  0
  -15.7221    7.9795   42.6581 H   0  0  0  0  0
  -17.9089    7.7114   41.6839 H   0  0  0  0  0
  -18.6707    8.1745   43.2254 H   0  0  0  0  0
  -17.6834    9.3554   42.3300 H   0  0  0  0  0
  -17.1641    8.5134   45.2928 H   0  0  0  0  0
  -15.4043    8.3365   45.0853 H   0  0  0  0  0
  -16.2537    9.7166   44.3471 H   0  0  0  0  0
   -2.2254    7.3709   53.1825 H   0  0  0  0  0
   -0.4921    4.7138   51.8192 H   0  0  0  0  0
   -0.2805    0.8948   49.2901 H   0  0  0  0  0
   -1.8108   -1.6271   47.4060 H   0  0  0  0  0
   -3.7575   -0.7977   47.4282 H   0  0  0  0  0
   -5.1348    1.0463   48.3184 H   0  0  0  0  0
   -4.2367    3.4040   48.8583 H   0  0  0  0  0
   -5.3720    5.1584   51.0568 H   0  0  0  0  0
   -4.1693    6.8231   52.4311 H   0  0  0  0  0
   -5.8363    2.7695   51.9391 H   0  0  0  0  0
   -8.2863    2.9192   51.9510 H   0  0  0  0  0
   -8.3452    3.3165   47.6973 H   0  0  0  0  0
   -7.2734    2.8484   46.4584 H   0  0  0  0  0
  -10.1325    2.3146   50.2831 H   0  0  0  0  0
  -12.8695    3.9627   50.2801 H   0  0  0  0  0
  -12.0017    2.4597   50.6322 H   0  0  0  0  0
  -12.9082    3.6130   46.3609 H   0  0  0  0  0
  -12.2892    4.6622   47.7372 H   0  0  0  0  0
  -15.1820    3.8819   47.5384 H   0  0  0  0  0
  -14.2000    6.3863   46.2940 H   0  0  0  0  0
  -15.3809    5.6349   50.5627 H   0  0  0  0  0
  -15.9475    4.3193   49.5286 H   0  0  0  0  0
  1  2  1  0  0  0
  5  1  1  0  0  0
  2  3  2  0  0  0
  2  4  1  0  0  0
  5  6  1  0  0  0
  9  5  1  0  0  0
  6  7  1  0  0  0
  6  8  1  0  0  0
  9 10  2  0  0  0
 11  9  1  0  0  0
 12 11  1  0  0  0
 13 12  1  0  0  0
 12 15  1  0  0  0
 13 14  2  0  0  0
 20 13  1  0  0  0
 15 16  1  0  0  0
 16 17  1  0  0  0
 17 18  1  0  0  0
 18 19  1  0  0  0
 21 20  1  0  0  0
 22 21  1  0  0  0
 21 24  1  0  0  0
 22 23  2  0  0  0
 28 22  1  0  0  0
 24 25  1  0  0  0
 25 26  1  0  0  0
 25 27  2  0  0  0
 29 28  1  0  0  0
 30 29  1  0  0  0
 29 32  1  0  0  0
 30 31  2  0  0  0
 35 30  1  0  0  0
 32 33  1  0  0  0
 32 34  1  0  0  0
 36 35  1  0  0  0
 37 36  1  0  0  0
 36 39  1  0  0  0
 37 38  2  0  0  0
 43 37  1  0  0  0
 39 40  1  0  0  0
 40 41  2  0  0  0
 40 42  1  0  0  0
 44 43  1  0  0  0
 45 44  1  0  0  0
 44 47  1  0  0  0
 45 46  2  0  0  0
 51 45  1  0  0  0
 47 48  1  0  0  0
 48 49  2  0  0  0
 48 50  1  0  0  0
 52 51  1  0  0  0
 53 52  1  0  0  0
 52 55  1  0  0  0
 53 54  2  0  0  0
 59 53  1  0  0  0
 55 56  1  0  0  0
 56 57  2  0  0  0
 56 58  1  0  0  0
 60 59  1  0  0  0
 61 60  1  0  0  0
 60 63  1  0  0  0
 61 62  2  0  0  0
 99 61  1  0  0  0
 63 64  1  0  0  0
 64 65  1  0  0  0
 64 66  1  0  0  0
 67 68  1  0  0  0
 69 67  4  0  0  0
 82 67  4  0  0  0
 70 69  4  0  0  0
 70 71  1  0  0  0
 80 70  4  0  0  0
 72 71  1  0  0  0
 72 73  4  0  0  0
 78 72  4  0  0  0
 73 74  4  0  0  0
 74 75  1  0  0  0
 76 74  4  0  0  0
 77 76  4  0  0  0
 78 77  4  0  0  0
 79 78  1  0  0  0
 79 80  1  0  0  0
 83 79  1  0  0  0
 80 81  4  0  0  0
 81 82  4  0  0  0
 84 83  4  0  0  0
 88 83  4  0  0  0
 85 84  4  0  0  0
 86 85  4  0  0  0
 86 87  4  0  0  0
 92 86  1  0  0  0
 87 88  4  0  0  0
 88 89  1  0  0  0
 89 90  2  0  0  0
 89 91  1  0  0  0
 93 92  1  0  0  0
 93 94  2  0  0  0
 95 93  1  0  0  0
 96 95  1  0  0  0
 97 96  1  0  0  0
 98 97  1  0  0  0
 98 99  1  0  0  0
 98101  1  0  0  0
101100  2  0  0  0
101102  1  0  0  0
  1103  1  0  0  0
  4104  1  0  0  0
  4105  1  0  0  0
  4106  1  0  0  0
  5107  1  0  0  0
  6108  1  0  0  0
  7109  1  0  0  0
  8110  1  0  0  0
  8111  1  0  0  0
  8112  1  0  0  0
 11113  1  0  0  0
 12114  1  0  0  0
 15115  1  0  0  0
 15116  1  0  0  0
 16117  1  0  0  0
 16118  1  0  0  0
 17119  1  0  0  0
 17120  1  0  0  0
 18121  1  0  0  0
 18122  1  0  0  0
 19123  1  0  0  0
 19124  1  0  0  0
 19125  1  0  0  0
 20126  1  0  0  0
 21127  1  0  0  0
 24128  1  0  0  0
 24129  1  0  0  0
 26130  1  0  0  0
 28131  1  0  0  0
 29132  1  0  0  0
 32133  1  0  0  0
 33134  1  0  0  0
 34135  1  0  0  0
 34136  1  0  0  0
 34137  1  0  0  0
 35138  1  0  0  0
 36139  1  0  0  0
 39140  1  0  0  0
 39141  1  0  0  0
 42142  1  0  0  0
 42143  1  0  0  0
 43144  1  0  0  0
 44145  1  0  0  0
 47146  1  0  0  0
 47147  1  0  0  0
 50148  1  0  0  0
 50149  1  0  0  0
 51150  1  0  0  0
 52151  1  0  0  0
 55152  1  0  0  0
 55153  1  0  0  0
 58154  1  0  0  0
 58155  1  0  0  0
 59156  1  0  0  0
 60157  1  0  0  0
 63158  1  0  0  0
 63159  1  0  0  0
 64160  1  0  0  0
 65161  1  0  0  0
 65162  1  0  0  0
 65163  1  0  0  0
 66164  1  0  0  0
 66165  1  0  0  0
 66166  1  0  0  0
 68167  1  0  0  0
 69168  1  0  0  0
 73169  1  0  0  0
 75170  1  0  0  0
 76171  1  0  0  0
 77172  1  0  0  0
 79173  1  0  0  0
 81174  1  0  0  0
 82175  1  0  0  0
 84176  1  0  0  0
 85177  1  0  0  0
 87178  1  0  0  0
 91179  1  0  0  0
 92180  1  0  0  0
 95181  1  0  0  0
 95182  1  0  0  0
 97183  1  0  0  0
 97184  1  0  0  0
 98185  1  0  0  0
 99186  1  0  0  0
102187  1  0  0  0
102188  1  0  0  0
M  END
$$$$
