### 
### Created by X-TOOL on Mon Sep 10 21:12:46 2018
### 

@<TRIPOS>MOLECULE
1mpa_ligand
  186   189     1     0     0
SMALL
GAST_HUCK


@<TRIPOS>ATOM
      1 N         -14.3250   10.1160   48.1960 N.am      1 THC        -0.2635
      2 CN        -15.0860   10.8480   47.3940 C.2       1 THC         0.1752
      3 ON        -14.6370   11.4500   46.4090 O.2       1 THC        -0.3972
      4 CM        -16.5600   10.9660   47.7840 C.3       1 THC         0.0258
      5 CA        -12.9170    9.8920   47.9350 C.3       1 THC         0.1564
      6 CB        -12.2730    9.3710   49.2120 C.3       1 THC         0.0924
      7 OG1       -11.8800   10.4860   50.0130 O.3       1 THC        -0.3874
      8 CG2       -11.0850    8.4780   48.9430 C.3       1 THC        -0.0346
      9 C         -12.8190    8.8700   46.8020 C.2       1 THC         0.2065
     10 O         -13.8160    8.1950   46.4850 O.2       1 THC        -0.3943
     11 H1        -14.7367    9.7043   49.0090 H         1 THC         0.1883
     12 H2        -17.0849   11.5930   47.0482 H         1 THC         0.0467
     13 N         -11.6600    8.8170   46.1420 N.am      1 LYS        -0.2637
     14 CA        -11.4280    7.8620   45.0580 C.3       1 LYS         0.1310
     15 C         -10.0960    7.1030   45.1960 C.2       1 LYS         0.2040
     16 O          -9.1370    7.6310   45.7640 O.2       1 LYS        -0.3944
     17 CB        -11.5130    8.5570   43.6950 C.3       1 LYS        -0.0122
     18 CG        -10.3800    9.5130   43.3680 C.3       1 LYS        -0.0440
     19 CD        -10.5000   10.0370   41.9420 C.3       1 LYS        -0.0124
     20 CE        -11.6050   11.0620   41.8050 C.3       1 LYS        -0.0354
     21 NZ        -11.1740   12.4030   42.3150 N.4       1 LYS         0.2185
     22 H3        -16.6401   11.4250   48.7804 H         1 THC         0.0467
     23 H4        -17.0154    9.9649   47.8038 H         1 THC         0.0467
     24 H5        -12.4291   10.8302   47.6323 H         1 THC         0.0826
     25 H6        -13.0225    8.7841   49.7632 H         1 THC         0.0639
     26 N         -10.0650    5.8570   44.7120 N.am      1 ASP        -0.2622
     27 CA         -8.8750    4.9730   44.7400 C.3       1 ASP         0.1423
     28 C          -7.6820    5.5180   43.9690 C.2       1 ASP         0.2057
     29 O          -7.8130    6.4920   43.2210 O.2       1 ASP        -0.3943
     30 CB         -9.1720    3.6680   43.9960 C.3       1 ASP         0.0406
     31 CG        -10.2390    2.8560   44.6270 C.2       1 ASP         0.0393
     32 OD1       -10.5110    3.0290   45.8320 O.co2     1 ASP        -0.5688
     33 OD2       -10.7900    2.0190   43.8940 O.co2     1 ASP        -0.5688
     34 H7        -11.4763   10.1726   50.8138 H         1 THC         0.2101
     35 N          -6.6040    4.7260   43.9720 N.am      1 THR        -0.2612
     36 CA         -5.4040    5.0360   43.2090 C.3       1 THR         0.1565
     37 C          -5.6980    4.8390   41.7140 C.2       1 THR         0.2066
     38 O          -4.8890    5.2180   40.8760 O.2       1 THR        -0.3943
     39 CB         -4.2370    4.1460   43.5960 C.3       1 THR         0.0924
     40 OG1        -3.8430    4.4620   44.9300 O.3       1 THR        -0.3874
     41 CG2        -3.0390    4.3660   42.6730 C.3       1 THR        -0.0346
     42 H8        -10.6621    8.1328   49.8980 H         1 THC         0.0257
     43 H9        -10.3216    9.0411   48.3862 H         1 THC         0.0257
     44 N          -6.8540    4.2630   41.3810 N.am      1 ASN        -0.2615
     45 CA         -7.2250    4.0610   39.9830 C.3       1 ASN         0.1476
     46 C          -8.4130    4.9370   39.6390 C.2       1 ASN         0.2064
     47 O          -9.0960    4.7070   38.6360 O.2       1 ASN        -0.3942
     48 CB         -7.5570    2.5890   39.6730 C.3       1 ASN         0.0773
     49 CG         -6.3740    1.6360   39.9200 C.2       1 ASN         0.1780
     50 OD1        -5.2170    1.9400   39.5930 O.2       1 ASN        -0.3970
     51 ND2        -6.6650    0.4880   40.5110 N.am      1 ASN        -0.3007
     52 H10       -11.4061    7.6096   48.3490 H         1 THC         0.0257
     53 N          -8.6800    5.9150   40.5010 N.am      1 ASN        -0.2615
     54 CA         -9.7670    6.8750   40.3160 C.3       1 ASN         0.1476
     55 C         -11.1680    6.2820   40.3810 C.2       1 ASN         0.2064
     56 O         -12.0440    6.6130   39.5850 O.2       1 ASN        -0.3942
     57 CB         -9.5640    7.6290   39.0030 C.3       1 ASN         0.0773
     58 CG         -8.1700    8.1930   38.8830 C.2       1 ASN         0.1780
     59 OD1        -7.6600    8.8230   39.8220 O.2       1 ASN        -0.3970
     60 ND2        -7.5090    7.9110   37.7590 N.am      1 ASN        -0.3007
     61 H11       -10.9280    9.4492   46.3961 H         1 LYS         0.1883
     62 N         -11.3810    5.4090   41.3510 N.am      1 ASN        -0.2615
     63 CA        -12.6870    4.7660   41.5140 C.3       1 ASN         0.1476
     64 C         -13.3170    5.3380   42.7790 C.2       1 ASN         0.2063
     65 O         -12.6180    5.7180   43.7280 O.2       1 ASN        -0.3942
     66 CB        -12.5630    3.2270   41.6740 C.3       1 ASN         0.0773
     67 CG        -11.8640    2.5130   40.4740 C.2       1 ASN         0.1780
     68 OD1       -12.1950    2.7120   39.2930 O.2       1 ASN        -0.3970
     69 ND2       -10.9520    1.6050   40.8090 N.am      1 ASN        -0.3007
     70 H12       -12.2347    7.1156   45.1038 H         1 LYS         0.0800
     71 N         -14.6350    5.3610   42.8370 N.am      1 LEU        -0.2636
     72 CA        -15.2510    5.8930   44.0330 C.3       1 LEU         0.1312
     73 C         -15.1610    4.9450   45.2350 C.2       1 LEU         0.2039
     74 O         -15.5770    3.7880   45.1870 O.2       1 LEU        -0.3944
     75 CB        -16.6630    6.3640   43.7330 C.3       1 LEU        -0.0101
     76 CG        -16.5610    7.8400   43.3400 C.3       1 LEU        -0.0425
     77 CD1       -17.7930    8.3030   42.5920 C.3       1 LEU        -0.0625
     78 CD2       -16.3290    8.6610   44.6080 C.3       1 LEU        -0.0625
     79 H13       -12.4538    9.1261   43.6646 H         1 LYS         0.0312
     80 C1         -2.2560    5.8630   52.2040 C.ar      1 CYF         0.0731
     81 O1         -1.6230    6.6990   52.8550 O.3       1 CYF        -0.3398
     82 C2         -1.5640    4.8110   51.6470 C.ar      1 CYF        -0.0062
     83 C3         -2.2270    3.8740   50.8670 C.ar      1 CYF         0.1122
     84 O2         -1.3820    2.8270   50.3410 O.3       1 CYF        -0.2684
     85 C4         -2.1300    1.9350   49.5740 C.ar      1 CYF         0.1122
     86 C5         -1.3500    0.9190   49.0810 C.ar      1 CYF        -0.0062
     87 C6         -1.9350   -0.0740   48.3160 C.ar      1 CYF         0.0731
     88 O3         -1.2560   -1.0350   47.9190 O.3       1 CYF        -0.3398
     89 C7         -3.2970   -0.0220   48.0400 C.ar      1 CYF        -0.0502
     90 C8         -4.0680    1.0100   48.5390 C.ar      1 CYF        -0.0726
     91 C9         -3.4970    1.9880   49.3100 C.ar      1 CYF         0.0008
     92 C10        -4.2440    3.0010   49.8710 C.3       1 CYF         0.0424
     93 C11        -3.6040    3.9800   50.6460 C.ar      1 CYF         0.0008
     94 C12        -4.2990    5.0560   51.2190 C.ar      1 CYF        -0.0726
     95 C13        -3.6250    5.9880   51.9900 C.ar      1 CYF        -0.0502
     96 C14        -5.6560    2.9980   49.8060 C.ar      1 CYF        -0.0248
     97 C15        -6.3710    2.9050   50.9990 C.ar      1 CYF        -0.0664
     98 C16        -7.7540    2.9830   51.0020 C.ar      1 CYF        -0.0442
     99 C17        -8.4800    3.1400   49.8310 C.ar      1 CYF         0.0633
    100 C18        -7.7840    3.2130   48.6260 C.ar      1 CYF        -0.0329
    101 C19        -6.3750    3.1570   48.5710 C.ar      1 CYF         0.0017
    102 C20        -5.7870    3.4240   47.3370 C.2       1 CYF         0.0556
    103 O4         -4.6350    3.9020   47.2760 O.co2     1 CYF        -0.5630
    104 O5         -6.4080    3.2140   46.2610 O.co2     1 CYF        -0.5630
    105 NL         -9.8090    3.1790   49.8490 N.am      1 CYF        -0.2365
    106 CL        -10.8860    3.8890   49.5300 C.2       1 CYF         0.2118
    107 OL        -10.9300    4.9800   48.9670 O.2       1 CYF        -0.3849
    108 CAL       -12.1720    3.2280   49.8780 C.3       1 CYF         0.0890
    109 SG        -12.8470    2.4950   48.4130 S.3       1 CYF        -0.1339
    110 CB        -13.0290    3.9390   47.3940 C.3       1 CYF         0.0364
    111 CA        -14.3800    4.6180   47.4840 C.3       1 CYF         0.1397
    112 N         -14.5520    5.4290   46.3040 N.am      1 CYF        -0.2629
    113 O         -13.6650    6.4220   48.8860 O.2       1 CYF        -0.3947
    114 C         -14.4390    5.4710   48.7460 C.2       1 CYF         0.2000
    115 NT        -15.3270    5.1130   49.6880 N.am      1 CYF        -0.2989
    116 H14       -11.5309    7.7773   42.9193 H         1 LYS         0.0312
    117 H15        -9.4213    8.9850   43.4774 H         1 LYS         0.0269
    118 H16       -10.4129   10.3619   44.0668 H         1 LYS         0.0269
    119 H17       -10.7139    9.1926   41.2703 H         1 LYS         0.0317
    120 H18        -9.5461   10.5027   41.6534 H         1 LYS         0.0317
    121 H19       -12.4794   10.7245   42.3807 H         1 LYS         0.0813
    122 H20       -11.8781   11.1539   40.7434 H         1 LYS         0.0813
    123 H21       -11.9301   13.0613   42.2100 H         1 LYS         0.1994
    124 H22       -10.3755   12.7218   41.7889 H         1 LYS         0.1994
    125 H23       -10.9265   12.3283   43.2893 H         1 LYS         0.1994
    126 H24       -10.9029    5.4961   44.3025 H         1 ASP         0.1884
    127 H25        -8.5992    4.7804   45.7873 H         1 ASP         0.0819
    128 H26        -8.2507    3.0679   43.9647 H         1 ASP         0.0478
    129 H27        -9.4836    3.9153   42.9705 H         1 ASP         0.0478
    130 H28        -6.6234    3.8892   44.5192 H         1 THR         0.1884
    131 H29        -5.1277    6.0846   43.3934 H         1 THR         0.0826
    132 H30        -4.5503    3.0931   43.5394 H         1 THR         0.0639
    133 H31        -4.5732    4.3115   45.5188 H         1 THR         0.2101
    134 H32        -2.2134    3.7074   42.9805 H         1 THR         0.0257
    135 H33        -2.7145    5.4151   42.7371 H         1 THR         0.0257
    136 H34        -3.3268    4.1338   41.6370 H         1 THR         0.0257
    137 H35        -7.4786    3.9638   42.1024 H         1 ASN         0.1885
    138 H36        -6.3728    4.3600   39.3550 H         1 ASN         0.0826
    139 H37        -7.8530    2.5123   38.6164 H         1 ASN         0.0551
    140 H38        -8.3962    2.2777   40.3124 H         1 ASN         0.0551
    141 H39        -5.9405   -0.1750   40.6997 H         1 ASN         0.1814
    142 H40        -7.6093    0.2836   40.7688 H         1 ASN         0.1814
    143 H41        -8.1079    5.9975   41.3170 H         1 ASN         0.1885
    144 H42        -9.6936    7.6035   41.1369 H         1 ASN         0.0826
    145 H43       -10.2870    8.4565   38.9536 H         1 ASN         0.0551
    146 H44        -9.7403    6.9376   38.1658 H         1 ASN         0.0551
    147 H45        -6.5810    8.2582   37.6242 H         1 ASN         0.1814
    148 H46        -7.9416    7.3524   37.0513 H         1 ASN         0.1814
    149 H47       -10.6392    5.1843   41.9829 H         1 ASN         0.1885
    150 H48       -13.3179    4.9896   40.6411 H         1 ASN         0.0826
    151 H49       -13.5746    2.8088   41.7824 H         1 ASN         0.0551
    152 H50       -11.9813    3.0206   42.5845 H         1 ASN         0.0551
    153 H51       -10.4600    1.1041   40.0969 H         1 ASN         0.1814
    154 H52       -10.7582    1.4231   41.7730 H         1 ASN         0.1814
    155 H53       -15.1906    5.0214   42.0781 H         1 LEU         0.1883
    156 H54       -14.6754    6.7882   44.3109 H         1 LEU         0.0800
    157 H55       -17.2973    6.2523   44.6247 H         1 LEU         0.0315
    158 H56       -17.0893    5.7798   42.9042 H         1 LEU         0.0315
    159 H57       -15.6932    7.9674   42.6761 H         1 LEU         0.0298
    160 H58       -17.6835    9.3650   42.3271 H         1 LEU         0.0232
    161 H59       -18.6796    8.1738   43.2302 H         1 LEU         0.0232
    162 H60       -17.9111    7.7067   41.6752 H         1 LEU         0.0232
    163 H61       -15.4277    8.2953   45.1218 H         1 LEU         0.0232
    164 H62       -17.1979    8.5592   45.2748 H         1 LEU         0.0232
    165 H63       -16.1943    9.7193   44.3401 H         1 LEU         0.0232
    166 H64        -2.2191    7.3639   53.1791 H         1 CYF         0.2458
    167 H65        -0.4980    4.7144   51.8183 H         1 CYF         0.0454
    168 H66        -0.2864    0.8950   49.2890 H         1 CYF         0.0454
    169 H67        -1.8050   -1.6210   47.4114 H         1 CYF         0.2458
    170 H68        -3.7550   -0.7934   47.4316 H         1 CYF         0.0436
    171 H69        -5.1290    1.0461   48.3196 H         1 CYF         0.0504
    172 H70        -4.1670    3.6100   48.9582 H         1 CYF         0.0671
    173 H71        -5.3661    5.1578   51.0577 H         1 CYF         0.0504
    174 H72        -4.1663    6.8185   52.4287 H         1 CYF         0.0436
    175 H73        -5.8393    2.7703   51.9340 H         1 CYF         0.0531
    176 H74        -8.2834    2.9196   51.9458 H         1 CYF         0.0510
    177 H75        -8.3421    3.3160   47.7024 H         1 CYF         0.0519
    178 H76       -10.1262    2.3315   50.2746 H         1 CYF         0.2235
    179 H77       -12.8756    3.9735   50.2770 H         1 CYF         0.0621
    180 H78       -11.9953    2.4490   50.6342 H         1 CYF         0.0621
    181 H79       -12.8654    3.6415   46.3477 H         1 CYF         0.0426
    182 H80       -12.2604    4.6670   47.6928 H         1 CYF         0.0426
    183 H81       -15.1748    3.8587   47.5249 H         1 CYF         0.0808
    184 H82       -14.2069    6.3675   46.2942 H         1 CYF         0.1884
    185 H83       -15.4010    5.6432   50.5326 H         1 CYF         0.1815
    186 H84       -15.9141    4.3163   49.5447 H         1 CYF         0.1815
@<TRIPOS>BOND
     1    1    2 am 
     2    5    1 1  
     3    1   11 1  
     4    2    3 2  
     5    2    4 1  
     6    5    6 1  
     7    9    5 1  
     8    6    7 1  
     9    6    8 1  
    10    4   12 1  
    11    9   10 2  
    12   13    9 am 
    13   14   13 1  
    14    4   22 1  
    15   15   14 1  
    16   14   17 1  
    17   15   16 2  
    18   26   15 am 
    19   17   18 1  
    20   18   19 1  
    21   19   20 1  
    22   20   21 1  
    23    4   23 1  
    24    5   24 1  
    25    6   25 1  
    26   27   26 1  
    27    7   34 1  
    28   28   27 1  
    29   27   30 1  
    30   28   29 2  
    31   35   28 am 
    32   30   31 1  
    33   31   32 ar 
    34   31   33 ar 
    35   36   35 1  
    36    8   42 1  
    37   37   36 1  
    38   36   39 1  
    39   37   38 2  
    40   44   37 am 
    41   39   40 1  
    42   39   41 1  
    43    8   43 1  
    44   45   44 1  
    45    8   52 1  
    46   46   45 1  
    47   45   48 1  
    48   46   47 2  
    49   53   46 am 
    50   48   49 1  
    51   49   50 2  
    52   49   51 am 
    53   54   53 1  
    54   13   61 1  
    55   55   54 1  
    56   54   57 1  
    57   55   56 2  
    58   62   55 am 
    59   57   58 1  
    60   58   59 2  
    61   58   60 am 
    62   63   62 1  
    63   14   70 1  
    64   64   63 1  
    65   63   66 1  
    66   64   65 2  
    67   71   64 am 
    68   66   67 1  
    69   67   68 2  
    70   67   69 am 
    71   72   71 1  
    72   17   79 1  
    73   73   72 1  
    74   72   75 1  
    75   73   74 2  
    76  112   73 am 
    77   75   76 1  
    78   76   77 1  
    79   76   78 1  
    80   80   81 1  
    81   82   80 ar 
    82   95   80 ar 
    83   83   82 ar 
    84   83   84 1  
    85   93   83 ar 
    86   85   84 1  
    87   85   86 ar 
    88   91   85 ar 
    89   86   87 ar 
    90   87   88 1  
    91   89   87 ar 
    92   90   89 ar 
    93   91   90 ar 
    94   92   91 1  
    95   92   93 1  
    96   96   92 1  
    97   93   94 ar 
    98   94   95 ar 
    99   97   96 ar 
   100  101   96 ar 
   101   98   97 ar 
   102   99   98 ar 
   103   99  100 ar 
   104  105   99 1  
   105  100  101 ar 
   106  101  102 1  
   107  102  103 ar 
   108  102  104 ar 
   109  106  105 am 
   110   17  116 1  
   111  106  107 2  
   112  108  106 1  
   113  109  108 1  
   114  110  109 1  
   115  111  110 1  
   116  111  112 1  
   117  111  114 1  
   118   18  117 1  
   119  114  113 2  
   120  114  115 am 
   121   18  118 1  
   122   19  119 1  
   123   19  120 1  
   124   20  121 1  
   125   20  122 1  
   126   21  123 1  
   127   21  124 1  
   128   21  125 1  
   129   26  126 1  
   130   27  127 1  
   131   30  128 1  
   132   30  129 1  
   133   35  130 1  
   134   36  131 1  
   135   39  132 1  
   136   40  133 1  
   137   41  134 1  
   138   41  135 1  
   139   41  136 1  
   140   44  137 1  
   141   45  138 1  
   142   48  139 1  
   143   48  140 1  
   144   51  141 1  
   145   51  142 1  
   146   53  143 1  
   147   54  144 1  
   148   57  145 1  
   149   57  146 1  
   150   60  147 1  
   151   60  148 1  
   152   62  149 1  
   153   63  150 1  
   154   66  151 1  
   155   66  152 1  
   156   69  153 1  
   157   69  154 1  
   158   71  155 1  
   159   72  156 1  
   160   75  157 1  
   161   75  158 1  
   162   76  159 1  
   163   77  160 1  
   164   77  161 1  
   165   77  162 1  
   166   78  163 1  
   167   78  164 1  
   168   78  165 1  
   169   81  166 1  
   170   82  167 1  
   171   86  168 1  
   172   88  169 1  
   173   89  170 1  
   174   90  171 1  
   175   92  172 1  
   176   94  173 1  
   177   95  174 1  
   178   97  175 1  
   179   98  176 1  
   180  100  177 1  
   181  105  178 1  
   182  108  179 1  
   183  108  180 1  
   184  110  181 1  
   185  110  182 1  
   186  111  183 1  
   187  112  184 1  
   188  115  185 1  
   189  115  186 1  
@<TRIPOS>SUBSTRUCTURE
     1 THC         1

