### 
### Created by X-TOOL on Mon Sep 10 21:13:02 2018
### 

@<TRIPOS>MOLECULE
3ivq_ligand
  102   102     1     0     0
SMALL
GAST_HUCK


@<TRIPOS>ATOM
      1 N          16.7890   20.1870    4.2960 N.4       1 PRO         0.2461
      2 CA         15.5840   20.9790    4.6200 C.3       1 PRO         0.0670
      3 C          14.7410   21.3510    3.3980 C.2       1 PRO         0.2269
      4 O          14.6190   20.5810    2.4440 O.2       1 PRO        -0.3907
      5 CB         16.0630   22.2300    5.3450 C.3       1 PRO         0.0127
      6 CG         17.3510   21.7300    5.9840 C.3       1 PRO        -0.0053
      7 CD         17.9740   20.8040    4.9190 C.3       1 PRO        -0.0313
      8 N          14.1710   22.5510    3.4500 N.am      1 ASP        -0.2595
      9 CA         13.3130   23.0960    2.4050 C.3       1 ASP         0.1424
     10 C          12.2630   22.1780    1.7990 C.2       1 ASP         0.2056
     11 O          12.2380   21.8770    0.5980 O.2       1 ASP        -0.3943
     12 CB         14.1440   23.7780    1.3240 C.3       1 ASP         0.0406
     13 CG         14.5280   25.1890    1.7230 C.2       1 ASP         0.0393
     14 OD1        13.6090   25.9560    2.0920 O.co2     1 ASP        -0.5688
     15 OD2        15.7300   25.5320    1.6820 O.co2     1 ASP        -0.5688
     16 N          11.3920   21.7430    2.6950 N.am      1 VAL        -0.2634
     17 CA         10.2450   20.9300    2.3770 C.3       1 VAL         0.1333
     18 C           9.1640   21.9370    2.7220 C.2       1 VAL         0.2042
     19 O           9.2400   22.5960    3.7550 O.2       1 VAL        -0.3944
     20 CB         10.1100   19.7300    3.3190 C.3       1 VAL        -0.0063
     21 CG1         8.7570   19.0760    3.1160 C.3       1 VAL        -0.0584
     22 CG2        11.2340   18.7410    3.0680 C.3       1 VAL        -0.0584
     23 N           8.1720   22.0840    1.8640 N.am      1 SER        -0.2616
     24 CA          7.1190   23.0410    2.1420 C.3       1 SER         0.1539
     25 C           5.7630   22.4790    1.7390 C.2       1 SER         0.2062
     26 O           5.6820   21.4030    1.1420 O.2       1 SER        -0.3943
     27 CB          7.4040   24.3490    1.3980 C.3       1 SER         0.0843
     28 OG          7.5810   24.1130    0.0110 O.3       1 SER        -0.3903
     29 N           4.7070   23.2120    2.0750 N.am      1 SER        -0.2615
     30 CA          3.3440   22.8050    1.7610 C.3       1 SER         0.1539
     31 C           2.7380   23.7460    0.7180 C.2       1 SER         0.2062
     32 O           3.0600   24.9320    0.6880 O.2       1 SER        -0.3943
     33 CB          2.4940   22.8230    3.0400 C.3       1 SER         0.0843
     34 OG          1.1480   22.4570    2.7830 O.3       1 SER        -0.3903
     35 N           1.8760   23.2200   -0.1460 N.am      1 SER        -0.2615
     36 CA          1.2360   24.0550   -1.1510 C.3       1 SER         0.1539
     37 C          -0.2490   24.1950   -0.8190 C.2       1 SER         0.2063
     38 O          -0.9920   24.8960   -1.5100 O.2       1 SER        -0.3943
     39 CB          1.4020   23.4580   -2.5520 C.3       1 SER         0.0843
     40 OG          0.3660   22.5370   -2.8410 O.3       1 SER        -0.3903
     41 N          -0.6730   23.5080    0.2390 N.am      1 THR        -0.2613
     42 CA         -2.0610   23.5490    0.6930 C.3       1 THR         0.1564
     43 C          -2.1490   24.5480    1.8330 C.2       1 THR         0.2059
     44 O          -3.0160   25.4190    1.8470 O.2       1 THR        -0.3943
     45 CB         -2.5390   22.1690    1.2200 C.3       1 THR         0.0924
     46 OG1        -1.5370   21.6120    2.0800 O.3       1 THR        -0.3874
     47 CG2        -2.8250   21.2180    0.0650 C.3       1 THR        -0.0346
     48 N          -1.2370   24.4010    2.7890 N.am      1 HIS        -0.2697
     49 CA         -1.1700   25.2760    3.9510 C.3       1 HIS         0.0916
     50 C          -0.0700   26.3090    3.7350 C.2       1 HIS         0.0598
     51 O           1.1219   25.9036    3.6826 O.co2     1 HIS        -0.5666
     52 CB         -0.8800   24.4540    5.2090 C.3       1 HIS        -0.0300
     53 O47        -0.3447   27.5326    3.6125 O.co2     1 HIS        -0.5666
     54 H1         16.9127   20.1596    3.2960 H         1 PRO         0.2035
     55 H2         16.6770   19.2486    4.6465 H         1 PRO         0.2035
     56 H3         14.9499   20.3891    5.2981 H         1 PRO         0.1099
     57 H4         15.3378   22.5579    6.1043 H         1 PRO         0.0347
     58 H5         16.2557   23.0538    4.6421 H         1 PRO         0.0347
     59 H6         17.1363   21.1719    6.9073 H         1 PRO         0.0320
     60 H7         18.0242   22.5697    6.2113 H         1 PRO         0.0320
     61 H8         18.5550   21.3796    4.1834 H         1 PRO         0.0814
     62 H9         18.6199   20.0439    5.3827 H         1 PRO         0.0814
     63 H10        14.3417   23.1157    4.2574 H         1 ASP         0.1886
     64 H11        12.7380   23.8934    2.8983 H         1 ASP         0.0819
     65 H12        13.5575   23.8170    0.3942 H         1 ASP         0.0478
     66 H13        15.0601   23.1929    1.1555 H         1 ASP         0.0478
     67 H14        11.5385   21.9938    3.6519 H         1 VAL         0.1883
     68 H15        10.2281   20.6067    1.3257 H         1 VAL         0.0802
     69 H16        10.1790   20.0834    4.3584 H         1 VAL         0.0343
     70 H17         8.6610   18.2143    3.7930 H         1 VAL         0.0234
     71 H18         8.6670   18.7354    2.0740 H         1 VAL         0.0234
     72 H19         7.9615   19.8038    3.3339 H         1 VAL         0.0234
     73 H20        12.2023   19.2397    3.2217 H         1 VAL         0.0234
     74 H21        11.1724   18.3705    2.0341 H         1 VAL         0.0234
     75 H22        11.1418   17.8961    3.7664 H         1 VAL         0.0234
     76 H23         8.1468   21.5381    1.0265 H         1 SER         0.1884
     77 H24         7.1047   23.2458    3.2227 H         1 SER         0.0823
     78 H25         8.3190   24.8035    1.8057 H         1 SER         0.0606
     79 H26         6.5576   25.0368    1.5413 H         1 SER         0.0606
     80 H27         7.7562   24.9364   -0.4294 H         1 SER         0.2097
     81 H28         4.8531   24.0738    2.5608 H         1 SER         0.1884
     82 H29         3.3596   21.7832    1.3540 H         1 SER         0.0823
     83 H30         2.5121   23.8372    3.4654 H         1 SER         0.0606
     84 H31         2.9238   22.1143    3.7632 H         1 SER         0.0606
     85 H32         1.1234   21.5793    2.4202 H         1 SER         0.2097
     86 H33         1.6657   22.2432   -0.1051 H         1 SER         0.1884
     87 H34         1.7032   25.0507   -1.1346 H         1 SER         0.0823
     88 H35         2.3701   22.9387   -2.6086 H         1 SER         0.0606
     89 H36         1.3776   24.2701   -3.2935 H         1 SER         0.0606
     90 H37         0.3850   21.8311   -2.2056 H         1 SER         0.2097
     91 H38        -0.0180   22.9434    0.7413 H         1 THR         0.1884
     92 H39        -2.7080   23.8651   -0.1385 H         1 THR         0.0826
     93 H40        -3.4650   22.3113    1.7964 H         1 THR         0.0639
     94 H41        -0.7286   21.5027    1.5932 H         1 THR         0.2101
     95 H42        -3.1614   20.2491    0.4626 H         1 THR         0.0257
     96 H43        -1.9089   21.0735   -0.5265 H         1 THR         0.0257
     97 H44        -3.6113   21.6446   -0.5751 H         1 THR         0.0257
     98 H45        -0.5705   23.6601    2.7069 H         1 HIS         0.1875
     99 H46        -2.1336   25.7922    4.0730 H         1 HIS         0.0723
    100 H47        -0.8312   25.1229    6.0809 H         1 HIS         0.0270
    101 H48         0.0815   23.9326    5.0927 H         1 HIS         0.0270
    102 H49        -1.6819   23.7158    5.3576 H         1 HIS         0.0270
@<TRIPOS>BOND
     1    1    2 1  
     2    1    7 1  
     3    2    3 1  
     4    2    5 1  
     5    3    4 2  
     6    3    8 am 
     7    5    6 1  
     8    6    7 1  
     9    8    9 1  
    10    9   10 1  
    11    9   12 1  
    12   10   11 2  
    13   10   16 am 
    14   12   13 1  
    15   13   14 ar 
    16   13   15 ar 
    17   16   17 1  
    18   17   18 1  
    19   17   20 1  
    20   18   19 2  
    21   18   23 am 
    22   20   21 1  
    23   20   22 1  
    24   23   24 1  
    25   24   25 1  
    26   24   27 1  
    27   25   26 2  
    28   25   29 am 
    29   27   28 1  
    30   29   30 1  
    31   30   31 1  
    32   30   33 1  
    33   31   32 2  
    34   31   35 am 
    35   33   34 1  
    36   35   36 1  
    37   36   37 1  
    38   36   39 1  
    39   37   38 2  
    40   37   41 am 
    41   39   40 1  
    42   41   42 1  
    43   42   43 1  
    44   42   45 1  
    45   43   44 2  
    46   43   48 am 
    47   45   46 1  
    48   45   47 1  
    49   48   49 1  
    50   49   50 1  
    51   49   52 1  
    52   50   51 ar 
    53   50   53 ar 
    54    1   54 1  
    55    1   55 1  
    56    2   56 1  
    57    5   57 1  
    58    5   58 1  
    59    6   59 1  
    60    6   60 1  
    61    7   61 1  
    62    7   62 1  
    63    8   63 1  
    64    9   64 1  
    65   12   65 1  
    66   12   66 1  
    67   16   67 1  
    68   17   68 1  
    69   20   69 1  
    70   21   70 1  
    71   21   71 1  
    72   21   72 1  
    73   22   73 1  
    74   22   74 1  
    75   22   75 1  
    76   23   76 1  
    77   24   77 1  
    78   27   78 1  
    79   27   79 1  
    80   28   80 1  
    81   29   81 1  
    82   30   82 1  
    83   33   83 1  
    84   33   84 1  
    85   34   85 1  
    86   35   86 1  
    87   36   87 1  
    88   39   88 1  
    89   39   89 1  
    90   40   90 1  
    91   41   91 1  
    92   42   92 1  
    93   45   93 1  
    94   46   94 1  
    95   47   95 1  
    96   47   96 1  
    97   47   97 1  
    98   48   98 1  
    99   49   99 1  
   100   52  100 1  
   101   52  101 1  
   102   52  102 1  
@<TRIPOS>SUBSTRUCTURE
     1 PRO         1

