3ivq_ligand
  -I-interpret- 

104104  0  0  0  0  0  0  0  0999 V2000
   16.7890   20.1870    4.2960 N   0  3  0  0  0
   15.5840   20.9790    4.6200 C   0  0  0  0  0
   14.7410   21.3510    3.3980 C   0  0  0  0  0
   14.6190   20.5810    2.4440 O   0  0  0  0  0
   16.0630   22.2300    5.3450 C   0  0  0  0  0
   17.3510   21.7300    5.9840 C   0  0  0  0  0
   17.9740   20.8040    4.9190 C   0  0  0  0  0
   14.1710   22.5510    3.4500 N   0  0  0  0  0
   13.3130   23.0960    2.4050 C   0  0  0  0  0
   12.2630   22.1780    1.7990 C   0  0  0  0  0
   12.2380   21.8770    0.5980 O   0  0  0  0  0
   14.1440   23.7780    1.3240 C   0  0  0  0  0
   14.5280   25.1890    1.7230 C   0  0  0  0  0
   13.6090   25.9560    2.0920 O   0  0  0  0  0
   15.7300   25.5320    1.6820 O   0  0  0  0  0
   11.3920   21.7430    2.6950 N   0  0  0  0  0
   10.2450   20.9300    2.3770 C   0  0  0  0  0
    9.1640   21.9370    2.7220 C   0  0  0  0  0
    9.2400   22.5960    3.7550 O   0  0  0  0  0
   10.1100   19.7300    3.3190 C   0  0  0  0  0
    8.7570   19.0760    3.1160 C   0  0  0  0  0
   11.2340   18.7410    3.0680 C   0  0  0  0  0
    8.1720   22.0840    1.8640 N   0  0  0  0  0
    7.1190   23.0410    2.1420 C   0  0  0  0  0
    5.7630   22.4790    1.7390 C   0  0  0  0  0
    5.6820   21.4030    1.1420 O   0  0  0  0  0
    7.4040   24.3490    1.3980 C   0  0  0  0  0
    7.5810   24.1130    0.0110 O   0  0  0  0  0
    4.7070   23.2120    2.0750 N   0  0  0  0  0
    3.3440   22.8050    1.7610 C   0  0  0  0  0
    2.7380   23.7460    0.7180 C   0  0  0  0  0
    3.0600   24.9320    0.6880 O   0  0  0  0  0
    2.4940   22.8230    3.0400 C   0  0  0  0  0
    1.1480   22.4570    2.7830 O   0  0  0  0  0
    1.8760   23.2200   -0.1460 N   0  0  0  0  0
    1.2360   24.0550   -1.1510 C   0  0  0  0  0
   -0.2490   24.1950   -0.8190 C   0  0  0  0  0
   -0.9920   24.8960   -1.5100 O   0  0  0  0  0
    1.4020   23.4580   -2.5520 C   0  0  0  0  0
    0.3660   22.5370   -2.8410 O   0  0  0  0  0
   -0.6730   23.5080    0.2390 N   0  0  0  0  0
   -2.0610   23.5490    0.6930 C   0  0  0  0  0
   -2.1490   24.5480    1.8330 C   0  0  0  0  0
   -3.0160   25.4190    1.8470 O   0  0  0  0  0
   -2.5390   22.1690    1.2200 C   0  0  0  0  0
   -1.5370   21.6120    2.0800 O   0  0  0  0  0
   -2.8250   21.2180    0.0650 C   0  0  0  0  0
   -1.2370   24.4010    2.7890 N   0  0  0  0  0
   -1.1700   25.2760    3.9510 C   0  0  0  0  0
   -0.0700   26.3090    3.7350 C   0  0  0  0  0
    1.1219   25.9036    3.6826 O   0  0  0  0  0
   -0.8800   24.4540    5.2090 C   0  0  0  0  0
   -0.3447   27.5326    3.6125 O   0  0  0  0  0
   16.9143   20.1621    3.2840 H   0  0  0  0  0
   16.6754   19.2384    4.6533 H   0  0  0  0  0
   14.9217   20.3745    5.2397 H   0  0  0  0  0
   15.3425   22.6239    6.0618 H   0  0  0  0  0
   16.2040   23.0893    4.6895 H   0  0  0  0  0
   17.1662   21.2078    6.9228 H   0  0  0  0  0
   18.0178   22.5484    6.2553 H   0  0  0  0  0
   18.6015   21.3376    4.2051 H   0  0  0  0  0
   18.6630   20.0724    5.3411 H   0  0  0  0  0
   14.3451   23.1270    4.2736 H   0  0  0  0  0
   12.7045   23.8240    2.9415 H   0  0  0  0  0
   13.5490   23.8277    0.4121 H   0  0  0  0  0
   15.0570   23.2012    1.1761 H   0  0  0  0  0
   12.7695   25.4925    2.0472 H   0  0  0  0  0
   11.5414   21.9988    3.6710 H   0  0  0  0  0
   10.2497   20.5097    1.3713 H   0  0  0  0  0
   10.1820   20.0683    4.3527 H   0  0  0  0  0
    7.9697   19.7982    3.3322 H   0  0  0  0  0
    8.6691   18.7390    2.0831 H   0  0  0  0  0
    8.6631   18.2224    3.7873 H   0  0  0  0  0
   11.1868   18.3936    2.0359 H   0  0  0  0  0
   12.1923   19.2294    3.2448 H   0  0  0  0  0
   11.1272   17.8924    3.7436 H   0  0  0  0  0
    8.1463   21.5272    1.0098 H   0  0  0  0  0
    7.0945   23.2403    3.2134 H   0  0  0  0  0
    8.3175   24.7886    1.7985 H   0  0  0  0  0
    6.5573   25.0218    1.5342 H   0  0  0  0  0
    7.7580   24.9450   -0.4340 H   0  0  0  0  0
    4.8560   24.0910    2.5705 H   0  0  0  0  0
    3.3595   21.7947    1.3523 H   0  0  0  0  0
    2.5027   23.8357    3.4430 H   0  0  0  0  0
    2.9164   22.1043    3.7423 H   0  0  0  0  0
    0.6493   22.4796    3.6030 H   0  0  0  0  0
    1.6615   22.2237   -0.1043 H   0  0  0  0  0
    1.7122   25.0354   -1.1437 H   0  0  0  0  0
    2.3566   22.9337   -2.5964 H   0  0  0  0  0
    1.3630   24.2665   -3.2820 H   0  0  0  0  0
    0.4942   22.1791   -3.7225 H   0  0  0  0  0
   -0.0049   22.9322    0.7513 H   0  0  0  0  0
   -2.6928   23.8290   -0.1499 H   0  0  0  0  0
   -3.4629   22.3090    1.7811 H   0  0  0  0  0
   -1.8340   20.7589    2.4049 H   0  0  0  0  0
   -3.6042   21.6418   -0.5685 H   0  0  0  0  0
   -1.9165   21.0757   -0.5203 H   0  0  0  0  0
   -3.1582   20.2584    0.4602 H   0  0  0  0  0
   -0.5571   23.6452    2.7052 H   0  0  0  0  0
   -2.1254   25.7844    4.0810 H   0  0  0  0  0
    1.1397   24.9503    3.7946 H   0  0  0  0  0
   -1.6752   23.7230    5.3551 H   0  0  0  0  0
    0.0729   23.9378    5.0925 H   0  0  0  0  0
   -0.8319   25.1179    6.0722 H   0  0  0  0  0
  1  2  1  0  0  0
  1  7  1  0  0  0
  2  3  1  0  0  0
  2  5  1  0  0  0
  3  4  2  0  0  0
  3  8  1  0  0  0
  5  6  1  0  0  0
  6  7  1  0  0  0
  8  9  1  0  0  0
  9 10  1  0  0  0
  9 12  1  0  0  0
 10 11  2  0  0  0
 10 16  1  0  0  0
 12 13  1  0  0  0
 13 14  1  0  0  0
 13 15  2  0  0  0
 16 17  1  0  0  0
 17 18  1  0  0  0
 17 20  1  0  0  0
 18 19  2  0  0  0
 18 23  1  0  0  0
 20 21  1  0  0  0
 20 22  1  0  0  0
 23 24  1  0  0  0
 24 25  1  0  0  0
 24 27  1  0  0  0
 25 26  2  0  0  0
 25 29  1  0  0  0
 27 28  1  0  0  0
 29 30  1  0  0  0
 30 31  1  0  0  0
 30 33  1  0  0  0
 31 32  2  0  0  0
 31 35  1  0  0  0
 33 34  1  0  0  0
 35 36  1  0  0  0
 36 37  1  0  0  0
 36 39  1  0  0  0
 37 38  2  0  0  0
 37 41  1  0  0  0
 39 40  1  0  0  0
 41 42  1  0  0  0
 42 43  1  0  0  0
 42 45  1  0  0  0
 43 44  2  0  0  0
 43 48  1  0  0  0
 45 46  1  0  0  0
 45 47  1  0  0  0
 48 49  1  0  0  0
 49 50  1  0  0  0
 49 52  1  0  0  0
 50 51  1  0  0  0
 50 53  2  0  0  0
  1 54  1  0  0  0
  1 55  1  0  0  0
  2 56  1  0  0  0
  5 57  1  0  0  0
  5 58  1  0  0  0
  6 59  1  0  0  0
  6 60  1  0  0  0
  7 61  1  0  0  0
  7 62  1  0  0  0
  8 63  1  0  0  0
  9 64  1  0  0  0
 12 65  1  0  0  0
 12 66  1  0  0  0
 14 67  1  0  0  0
 16 68  1  0  0  0
 17 69  1  0  0  0
 20 70  1  0  0  0
 21 71  1  0  0  0
 21 72  1  0  0  0
 21 73  1  0  0  0
 22 74  1  0  0  0
 22 75  1  0  0  0
 22 76  1  0  0  0
 23 77  1  0  0  0
 24 78  1  0  0  0
 27 79  1  0  0  0
 27 80  1  0  0  0
 28 81  1  0  0  0
 29 82  1  0  0  0
 30 83  1  0  0  0
 33 84  1  0  0  0
 33 85  1  0  0  0
 34 86  1  0  0  0
 35 87  1  0  0  0
 36 88  1  0  0  0
 39 89  1  0  0  0
 39 90  1  0  0  0
 40 91  1  0  0  0
 41 92  1  0  0  0
 42 93  1  0  0  0
 45 94  1  0  0  0
 46 95  1  0  0  0
 47 96  1  0  0  0
 47 97  1  0  0  0
 47 98  1  0  0  0
 48 99  1  0  0  0
 49100  1  0  0  0
 51101  1  0  0  0
 52102  1  0  0  0
 52103  1  0  0  0
 52104  1  0  0  0
M  END
$$$$
