3s5y_ligand
  -I-interpret- 

 25 25  0  0  0  0  0  0  0  0999 V2000
   39.1650   16.0310   31.3510 C   0  0  0  0  0
   39.9530   16.1960   30.0620 C   0  0  0  0  0
   41.0940   17.0270   30.2770 O   0  0  0  0  0
   39.0140   16.7460   28.9920 C   0  0  0  0  0
   39.7440   17.0680   27.7990 O   0  0  0  0  0
   37.9450   15.7000   28.7120 C   0  0  0  0  0
   38.5840   14.5650   28.1190 O   0  0  0  0  0
   37.1990   15.2780   29.9840 C   0  0  0  0  0
   38.1340   15.0600   31.0690 N   0  3  0  0  0
   36.3920   14.0070   29.7670 C   0  0  0  0  0
   35.4890   13.8040   30.8510 O   0  0  0  0  0
   38.7351   16.9792   31.6738 H   0  0  0  0  0
   39.8079   15.6974   32.1655 H   0  0  0  0  0
   40.3384   15.2357   29.7192 H   0  0  0  0  0
   41.6490   16.6371   30.9564 H   0  0  0  0  0
   38.5439   17.6648   29.3425 H   0  0  0  0  0
   40.4107   17.7283   28.0016 H   0  0  0  0  0
   37.2011   16.1274   28.0396 H   0  0  0  0  0
   39.0477   14.8392   27.3244 H   0  0  0  0  0
   36.5145   16.0874   30.2380 H   0  0  0  0  0
   37.5522   15.0596   31.9068 H   0  0  0  0  0
   38.6458   14.2210   30.7959 H   0  0  0  0  0
   37.0734   13.1583   29.7075 H   0  0  0  0  0
   35.8228   14.1001   28.8421 H   0  0  0  0  0
   34.9868   12.9996   30.7013 H   0  0  0  0  0
  1  2  1  0  0  0
  1  9  1  0  0  0
  2  3  1  0  0  0
  2  4  1  0  0  0
  4  5  1  0  0  0
  4  6  1  0  0  0
  6  7  1  0  0  0
  6  8  1  0  0  0
  8  9  1  0  0  0
  8 10  1  0  0  0
 10 11  1  0  0  0
  1 12  1  0  0  0
  1 13  1  0  0  0
  2 14  1  0  0  0
  3 15  1  0  0  0
  4 16  1  0  0  0
  5 17  1  0  0  0
  6 18  1  0  0  0
  7 19  1  0  0  0
  8 20  1  0  0  0
  9 21  1  0  0  0
  9 22  1  0  0  0
 10 23  1  0  0  0
 10 24  1  0  0  0
 11 25  1  0  0  0
M  END
$$$$
