5d45_ligand
  -I-interpret- 

 52 56  0  0  0  0  0  0  0  0999 V2000
  -11.5650   -7.4220  -19.0970 C   0  0  0  0  0
  -15.3260   -5.0060  -18.8050 C   0  0  0  0  0
  -13.9040   -6.8280  -18.0430 C   0  0  0  0  0
  -14.9850   -7.4510  -17.4020 C   0  0  0  0  0
  -16.2600   -6.8970  -17.5340 C   0  0  0  0  0
   -9.3960   -7.8590  -20.7310 C   0  0  0  0  0
  -16.4360   -5.6550  -18.2090 C   0  0  0  0  0
   -9.3590   -8.5950  -16.3320 C   0  0  0  0  0
   -8.5390   -7.2870  -16.2480 C   0  0  0  0  0
  -10.8720   -6.9890  -22.7280 C   0  0  0  0  0
  -10.7190   -8.3910  -23.1660 C   0  0  0  0  0
   -9.8940   -5.1810  -16.2140 O   0  0  0  0  0
   -9.2450   -6.0850  -15.6040 C   0  0  0  0  0
   -9.3780   -6.0800  -14.3200 O   0  0  0  0  0
  -10.4910   -8.1820  -17.2120 N   0  0  0  0  0
  -11.7510   -7.8430  -16.8450 C   0  0  0  0  0
  -12.2910   -7.9800  -15.4690 C   0  0  0  0  0
  -12.3060   -9.3110  -15.0290 C   0  0  0  0  0
  -12.7850   -9.6220  -13.7330 C   0  0  0  0  0
  -13.1900   -8.5670  -12.8920 C   0  0  0  0  0
  -13.2040   -7.2230  -13.3890 C   0  0  0  0  0
  -12.7160   -6.9260  -14.6840 C   0  0  0  0  0
  -12.4960   -7.3390  -17.9800 C   0  0  0  0  0
  -14.0280   -5.5980  -18.7150 C   0  0  0  0  0
  -10.2980   -7.9910  -18.5390 C   0  0  0  0  0
  -11.7070   -7.1600  -20.4350 C   0  0  0  0  0
  -10.6200   -7.3550  -21.2590 C   0  0  0  0  0
   -9.2030   -8.1760  -19.3820 C   0  0  0  0  0
   -9.6740   -7.3780  -23.5980 C   0  0  0  0  0
  -15.4614   -4.0601  -19.3294 H   0  0  0  0  0
  -14.8322   -8.3534  -16.8101 H   0  0  0  0  0
  -17.1236   -7.4168  -17.1191 H   0  0  0  0  0
   -8.5623   -8.0060  -21.4176 H   0  0  0  0  0
  -17.4261   -5.2030  -18.2672 H   0  0  0  0  0
   -9.6776   -8.9729  -15.3605 H   0  0  0  0  0
   -8.7916   -9.4410  -16.7199 H   0  0  0  0  0
   -8.3213   -6.9974  -17.2760 H   0  0  0  0  0
   -7.6774   -7.5076  -15.6179 H   0  0  0  0  0
  -11.5129   -6.1091  -22.7843 H   0  0  0  0  0
  -11.3344   -9.1613  -23.6307 H   0  0  0  0  0
  -10.7409   -9.3828  -22.7144 H   0  0  0  0  0
   -8.8564   -6.7921  -13.9426 H   0  0  0  0  0
  -11.9493  -10.1060  -15.6839 H   0  0  0  0  0
  -12.8392  -10.6563  -13.3933 H   0  0  0  0  0
  -13.4922   -8.7726  -11.8651 H   0  0  0  0  0
  -13.5947   -6.4208  -12.7630 H   0  0  0  0  0
  -12.6769   -5.8999  -15.0495 H   0  0  0  0  0
  -13.1582   -5.1100  -19.1548 H   0  0  0  0  0
  -12.6563   -6.8062  -20.8371 H   0  0  0  0  0
   -8.2481   -8.5475  -19.0102 H   0  0  0  0  0
   -8.5911   -7.2578  -23.6286 H   0  0  0  0  0
   -9.1536   -7.0479  -24.4971 H   0  0  0  0  0
  1 23  4  0  0  0
 25  1  4  0  0  0
  1 26  4  0  0  0
  2  7  4  0  0  0
 24  2  4  0  0  0
  3  4  4  0  0  0
 23  3  1  0  0  0
  3 24  4  0  0  0
  4  5  4  0  0  0
  5  7  4  0  0  0
  6 27  4  0  0  0
 28  6  4  0  0  0
  8  9  1  0  0  0
 15  8  1  0  0  0
  9 13  1  0  0  0
 10 11  1  0  0  0
 27 10  1  0  0  0
 10 29  1  0  0  0
 29 11  1  0  0  0
 13 12  2  0  0  0
 13 14  1  0  0  0
 15 16  4  0  0  0
 25 15  4  0  0  0
 16 17  1  0  0  0
 16 23  4  0  0  0
 17 18  4  0  0  0
 17 22  4  0  0  0
 18 19  4  0  0  0
 19 20  4  0  0  0
 21 20  4  0  0  0
 22 21  4  0  0  0
 25 28  4  0  0  0
 26 27  4  0  0  0
  2 30  1  0  0  0
  4 31  1  0  0  0
  5 32  1  0  0  0
  6 33  1  0  0  0
  7 34  1  0  0  0
  8 35  1  0  0  0
  8 36  1  0  0  0
  9 37  1  0  0  0
  9 38  1  0  0  0
 10 39  1  0  0  0
 11 40  1  0  0  0
 11 41  1  0  0  0
 14 42  1  0  0  0
 18 43  1  0  0  0
 19 44  1  0  0  0
 20 45  1  0  0  0
 21 46  1  0  0  0
 22 47  1  0  0  0
 24 48  1  0  0  0
 26 49  1  0  0  0
 28 50  1  0  0  0
 29 51  1  0  0  0
 29 52  1  0  0  0
M  END
$$$$
