3nii_ligand
  -I-interpret- 

 55 54  0  0  0  0  0  0  0  0999 V2000
   26.2120   12.5890   -9.1830 N   0  3  0  0  0
   26.8690   11.3030   -8.8120 C   0  0  0  0  0
   27.4260   11.3720   -7.3980 C   0  0  0  0  0
   27.5140   12.4510   -6.8160 O   0  0  0  0  0
   27.9890   10.9600   -9.8020 C   0  0  0  0  0
   27.5730   10.9590  -11.2700 C   0  0  0  0  0
   26.7090    9.7570  -11.6270 C   0  0  0  0  0
   26.3760    9.7440  -13.1100 C   0  0  0  0  0
   27.5670    9.4470  -13.9540 N   0  3  0  0  0
   27.7910   10.2140   -6.8520 N   0  0  0  0  0
   28.4030   10.1360   -5.5280 C   0  0  0  0  0
   29.9110    9.9260   -5.6410 C   0  0  0  0  0
   30.3730    9.0360   -6.3610 O   0  0  0  0  0
   27.7360    9.0330   -4.6470 C   0  0  0  0  0
   26.4370    9.5560   -4.0110 C   0  0  0  0  0
   28.6950    8.4920   -3.5740 C   0  0  0  0  0
   26.5810   10.7880   -3.1160 C   0  0  0  0  0
   30.6660   10.7660   -4.9350 N   0  0  0  0  0
   32.1230   10.6680   -4.8930 C   0  0  0  0  0
   32.6000   10.1640   -3.5320 C   0  0  0  0  0
   31.9870    9.2415   -2.9313 O   0  0  0  0  0
   32.7570   12.0140   -5.2180 C   0  0  0  0  0
   33.6212   10.6783   -3.0026 O   0  0  0  0  0
   25.4720   12.7971   -8.5126 H   0  0  0  0  0
   26.9037   13.3386   -9.1713 H   0  0  0  0  0
   25.8125   12.5080  -10.1180 H   0  0  0  0  0
   26.1153   10.5166   -8.8524 H   0  0  0  0  0
   28.3179    9.9477   -9.5671 H   0  0  0  0  0
   28.7533   11.7293   -9.6918 H   0  0  0  0  0
   28.4774   10.9168  -11.8770 H   0  0  0  0  0
   26.9899   11.8609  -11.4561 H   0  0  0  0  0
   25.7792    9.8152  -11.0611 H   0  0  0  0  0
   27.2591    8.8477  -11.3849 H   0  0  0  0  0
   26.0064   10.7326  -13.3824 H   0  0  0  0  0
   25.6353    8.9634  -13.2835 H   0  0  0  0  0
   27.2947    9.4492  -14.9370 H   0  0  0  0  0
   28.2803   10.1588  -13.7959 H   0  0  0  0  0
   27.9387    8.5303  -13.7050 H   0  0  0  0  0
   27.6382    9.3522   -7.3758 H   0  0  0  0  0
   28.2325   11.0887   -5.0265 H   0  0  0  0  0
   27.4883    8.1992   -5.3038 H   0  0  0  0  0
   26.0630    8.7550   -3.3733 H   0  0  0  0  0
   25.7877    9.8497   -4.8358 H   0  0  0  0  0
   29.5709    8.0584   -4.0567 H   0  0  0  0  0
   29.0050    9.3078   -2.9209 H   0  0  0  0  0
   28.1867    7.7275   -2.9864 H   0  0  0  0  0
   27.2538   10.5586   -2.2897 H   0  0  0  0  0
   26.9884   11.6137   -3.6994 H   0  0  0  0  0
   25.6031   11.0666   -2.7234 H   0  0  0  0  0
   30.2091   11.5066   -4.4029 H   0  0  0  0  0
   32.4355    9.9459   -5.6473 H   0  0  0  0  0
   32.4509   12.3268   -6.2163 H   0  0  0  0  0
   32.4298   12.7541   -4.4877 H   0  0  0  0  0
   33.8424   11.9211   -5.1818 H   0  0  0  0  0
   33.9703   11.3610   -3.5802 H   0  0  0  0  0
  1  2  1  0  0  0
  2  3  1  0  0  0
  2  5  1  0  0  0
  3  4  2  0  0  0
  3 10  1  0  0  0
  5  6  1  0  0  0
  6  7  1  0  0  0
  7  8  1  0  0  0
  8  9  1  0  0  0
 10 11  1  0  0  0
 11 12  1  0  0  0
 11 14  1  0  0  0
 12 13  2  0  0  0
 12 18  1  0  0  0
 14 15  1  0  0  0
 14 16  1  0  0  0
 15 17  1  0  0  0
 18 19  1  0  0  0
 19 20  1  0  0  0
 19 22  1  0  0  0
 20 21  2  0  0  0
 20 23  1  0  0  0
  1 24  1  0  0  0
  1 25  1  0  0  0
  1 26  1  0  0  0
  2 27  1  0  0  0
  5 28  1  0  0  0
  5 29  1  0  0  0
  6 30  1  0  0  0
  6 31  1  0  0  0
  7 32  1  0  0  0
  7 33  1  0  0  0
  8 34  1  0  0  0
  8 35  1  0  0  0
  9 36  1  0  0  0
  9 37  1  0  0  0
  9 38  1  0  0  0
 10 39  1  0  0  0
 11 40  1  0  0  0
 14 41  1  0  0  0
 15 42  1  0  0  0
 15 43  1  0  0  0
 16 44  1  0  0  0
 16 45  1  0  0  0
 16 46  1  0  0  0
 17 47  1  0  0  0
 17 48  1  0  0  0
 17 49  1  0  0  0
 18 50  1  0  0  0
 19 51  1  0  0  0
 22 52  1  0  0  0
 22 53  1  0  0  0
 22 54  1  0  0  0
 23 55  1  0  0  0
M  END
$$$$
