2e1w_ligand
  -I-interpret- 

 45 47  0  0  0  0  0  0  0  0999 V2000
   51.5270   54.5190   20.9790 C   0  0  0  0  0
   51.4640   55.5440   22.0340 N   0  0  0  0  0
   51.3380   54.9180   23.2050 C   0  0  0  0  0
   51.4810   53.5840   23.0650 N   0  0  0  0  0
   51.5360   53.3320   21.6090 C   0  0  0  0  0
   51.5700   51.9650   21.0070 C   0  0  0  0  0
   52.0650   51.6940   19.9230 O   0  0  0  0  0
   51.1200   50.9800   21.7510 N   0  0  0  0  0
   51.5520   56.9910   21.8560 C   0  0  0  0  0
   53.0510   57.5330   21.8270 C   0  0  0  0  0
   53.9690   57.2110   22.9310 O   0  0  0  0  0
   50.6710   57.4600   20.6780 C   0  0  0  0  0
   49.1300   57.3580   20.8840 C   0  0  0  0  0
   48.4170   57.8360   19.6260 C   0  0  0  0  0
   48.0220   59.1820   19.5170 C   0  0  0  0  0
   47.5180   59.7000   18.3220 C   0  0  0  0  0
   47.5040   58.9030   17.1760 C   0  0  0  0  0
   47.9030   57.5590   17.2590 C   0  0  0  0  0
   48.3880   57.0270   18.4650 C   0  0  0  0  0
   47.7620   56.7650   16.1080 C   0  0  0  0  0
   48.6780   55.6420   18.5240 C   0  0  0  0  0
   48.0980   55.4130   16.1710 C   0  0  0  0  0
   48.5200   54.8420   17.3770 C   0  0  0  0  0
   53.8140   57.3180   20.4920 C   0  0  0  0  0
   51.5598   54.6888   19.9028 H   0  0  0  0  0
   51.1444   55.4198   24.1531 H   0  0  0  0  0
   51.1887   50.0179   21.4194 H   0  0  0  0  0
   50.7020   51.1775   22.6602 H   0  0  0  0  0
   51.1340   57.4598   22.7468 H   0  0  0  0  0
   52.7877   58.5818   21.9644 H   0  0  0  0  0
   54.8252   57.6103   22.7605 H   0  0  0  0  0
   50.9092   56.8035   19.8411 H   0  0  0  0  0
   50.8889   58.5189   20.5392 H   0  0  0  0  0
   48.8342   57.9809   21.7282 H   0  0  0  0  0
   48.8580   56.3217   21.0843 H   0  0  0  0  0
   48.1114   59.8353   20.3849 H   0  0  0  0  0
   47.1377   60.7208   18.2843 H   0  0  0  0  0
   47.1850   59.3217   16.2215 H   0  0  0  0  0
   47.3949   57.2001   15.1785 H   0  0  0  0  0
   49.0232   55.1961   19.4568 H   0  0  0  0  0
   48.0315   54.7966   15.2745 H   0  0  0  0  0
   48.7272   53.7731   17.4281 H   0  0  0  0  0
   53.8678   56.2515   20.2734 H   0  0  0  0  0
   53.2860   57.8290   19.6869 H   0  0  0  0  0
   54.8219   57.7231   20.5818 H   0  0  0  0  0
  2  1  4  0  0  0
  1  5  4  0  0  0
  2  3  4  0  0  0
  2  9  1  0  0  0
  3  4  4  0  0  0
  4  5  4  0  0  0
  5  6  1  0  0  0
  6  7  2  0  0  0
  6  8  1  0  0  0
  9 10  1  0  0  0
  9 12  1  0  0  0
 10 11  1  0  0  0
 10 24  1  0  0  0
 12 13  1  0  0  0
 13 14  1  0  0  0
 14 15  4  0  0  0
 14 19  4  0  0  0
 15 16  4  0  0  0
 16 17  4  0  0  0
 17 18  4  0  0  0
 19 18  4  0  0  0
 18 20  4  0  0  0
 19 21  4  0  0  0
 20 22  4  0  0  0
 21 23  4  0  0  0
 22 23  4  0  0  0
  1 25  1  0  0  0
  3 26  1  0  0  0
  8 27  1  0  0  0
  8 28  1  0  0  0
  9 29  1  0  0  0
 10 30  1  0  0  0
 11 31  1  0  0  0
 12 32  1  0  0  0
 12 33  1  0  0  0
 13 34  1  0  0  0
 13 35  1  0  0  0
 15 36  1  0  0  0
 16 37  1  0  0  0
 17 38  1  0  0  0
 20 39  1  0  0  0
 21 40  1  0  0  0
 22 41  1  0  0  0
 23 42  1  0  0  0
 24 43  1  0  0  0
 24 44  1  0  0  0
 24 45  1  0  0  0
M  END
$$$$
