5qim_ligand
  -I-interpret- 

 43 46  0  0  0  0  0  0  0  0999 V2000
    7.9780   10.8640    5.6400 C   0  0  0  0  0
    5.7460   10.2600    5.4950 C   0  0  0  0  0
    2.3510    7.7000    3.7190 C   0  0  0  0  0
    7.8630   11.7000    4.5450 C   0  0  0  0  0
    6.6320   11.8160    3.9050 C   0  0  0  0  0
    5.5550   11.0820    4.3790 C   0  0  0  0  0
   -0.1450    6.3920    2.5750 C   0  0  0  0  0
    4.7160    7.9290    3.3860 C   0  0  0  0  0
    4.5620    7.2660    2.1760 C   0  0  0  0  0
   10.2360   12.1760    4.5010 C   0  0  0  0  0
    4.1110    9.8220    7.5000 C   0  0  0  0  0
    2.9240    9.1020    7.6330 C   0  0  0  0  0
    2.1840    9.2050    8.8160 C   0  0  0  0  0
    2.6910   10.0130    9.8350 C   0  0  0  0  0
    3.8990   10.6770    9.6300 C   0  0  0  0  0
    4.6170   10.5970    8.4830 N   0  0  0  0  0
    4.5990    9.5550    6.1140 C   0  0  0  0  0
    3.6920    8.6890    5.5440 C   0  0  0  0  0
    2.6900    8.4070    6.4630 N   0  0  0  0  0
    3.5910    8.1300    4.1840 C   0  0  0  0  0
    3.3830    6.8060    1.7170 N   0  0  0  0  0
    2.2920    7.0120    2.4940 C   0  0  0  0  0
    6.9360   10.1370    6.1140 N   0  0  0  0  0
    1.0920    6.4560    1.9870 N   0  0  0  0  0
   -0.3980    6.8720    3.6770 O   0  0  0  0  0
   -1.2230    5.7310    1.7530 C   0  0  0  0  0
    8.9140   12.3750    3.9670 O   0  0  0  0  0
    8.9427   10.7863    6.1413 H   0  0  0  0  0
    1.4445    7.8927    4.2928 H   0  0  0  0  0
    6.5164   12.4742    3.0439 H   0  0  0  0  0
    4.5814   11.1441    3.8929 H   0  0  0  0  0
    5.6957    8.2847    3.7051 H   0  0  0  0  0
    5.4482    7.1086    1.5612 H   0  0  0  0  0
   10.2528   12.4783    5.5481 H   0  0  0  0  0
   10.5039   11.1224    4.4213 H   0  0  0  0  0
   10.9488   12.7772    3.9365 H   0  0  0  0  0
    1.2415    8.6712    8.9380 H   0  0  0  0  0
    2.1511   10.1228   10.7755 H   0  0  0  0  0
    4.2887   11.2960   10.4381 H   0  0  0  0  0
    1.1571    6.0464    1.0551 H   0  0  0  0  0
   -1.6378    4.8901    2.3089 H   0  0  0  0  0
   -2.0116    6.4533    1.5422 H   0  0  0  0  0
   -0.7959    5.3736    0.8160 H   0  0  0  0  0
  1  4  4  0  0  0
 23  1  4  0  0  0
  2  6  4  0  0  0
 17  2  1  0  0  0
  2 23  4  0  0  0
  3 20  4  0  0  0
 22  3  4  0  0  0
  5  4  4  0  0  0
  4 27  1  0  0  0
  6  5  4  0  0  0
 24  7  1  0  0  0
  7 25  2  0  0  0
  7 26  1  0  0  0
  9  8  4  0  0  0
 20  8  4  0  0  0
 21  9  4  0  0  0
 27 10  1  0  0  0
 12 11  4  0  0  0
 11 16  4  0  0  0
 17 11  4  0  0  0
 12 13  4  0  0  0
 19 12  4  0  0  0
 13 14  4  0  0  0
 14 15  4  0  0  0
 16 15  4  0  0  0
 18 17  4  0  0  0
 18 19  4  0  0  0
 20 18  1  0  0  0
 22 21  4  0  0  0
 22 24  1  0  0  0
  1 28  1  0  0  0
  3 29  1  0  0  0
  5 30  1  0  0  0
  6 31  1  0  0  0
  8 32  1  0  0  0
  9 33  1  0  0  0
 10 34  1  0  0  0
 10 35  1  0  0  0
 10 36  1  0  0  0
 13 37  1  0  0  0
 14 38  1  0  0  0
 15 39  1  0  0  0
 24 40  1  0  0  0
 26 41  1  0  0  0
 26 42  1  0  0  0
 26 43  1  0  0  0
M  END
$$$$
