2xk3_ligand
  -I-interpret- 

 46 48  0  0  0  0  0  0  0  0999 V2000
   28.5480    9.0850  -24.5050 C   0  0  0  0  0
   28.4350    8.7300  -23.0640 C   0  0  0  0  0
   27.8460    9.8000  -22.2150 C   0  0  0  0  0
   28.0870   11.4280  -22.4020 C   0  0  0  0  0
   27.2800   12.1500  -21.4040 C   0  0  0  0  0
   26.4660   10.9920  -20.5000 S   0  0  0  0  0
   26.8590    9.6030  -21.0390 C   0  0  0  0  0
   26.3910    8.4080  -20.5080 C   0  0  0  0  0
   26.3700    7.2100  -21.2440 C   0  0  0  0  0
   25.8530    6.0730  -20.6400 N   0  0  0  0  0
   25.3390    6.1200  -19.3570 C   0  0  0  0  0
   24.7530    4.9670  -18.7640 N   0  0  0  0  0
   25.3340    7.3320  -18.6550 C   0  0  0  0  0
   24.7460    7.4870  -17.2790 C   0  0  0  0  0
   25.4030    8.4510  -16.2790 C   0  0  0  0  0
   25.0880    8.1770  -14.8190 C   0  0  0  0  0
   23.6030    7.9570  -14.5690 C   0  0  0  0  0
   23.1000    8.1160  -13.1840 C   0  0  0  0  0
   23.4520    9.0770  -12.5350 O   0  0  0  0  0
   22.4330    7.0910  -12.5650 O   0  0  0  0  0
   22.9760    6.9080  -15.5020 C   0  0  0  0  0
   23.2660    7.1700  -16.9800 C   0  0  0  0  0
   25.8480    8.4680  -19.2500 N   0  0  0  0  0
   27.5566    9.3002  -24.9037 H   0  0  0  0  0
   29.1830    9.9644  -24.6125 H   0  0  0  0  0
   28.9869    8.2495  -25.0504 H   0  0  0  0  0
   29.4456    8.5495  -22.6977 H   0  0  0  0  0
   27.7732    7.8665  -22.9971 H   0  0  0  0  0
   28.4178    8.9897  -22.6673 H   0  0  0  0  0
   28.7379   11.8903  -23.1441 H   0  0  0  0  0
   27.2220   13.2309  -21.2762 H   0  0  0  0  0
   26.5773    8.5639  -20.8685 H   0  0  0  0  0
   26.7508    7.1755  -22.2647 H   0  0  0  0  0
   24.7083    4.0919  -19.2861 H   0  0  0  0  0
   24.3776    5.0156  -17.8168 H   0  0  0  0  0
   25.1777    6.5095  -17.0643 H   0  0  0  0  0
   25.0174    9.4458  -16.5021 H   0  0  0  0  0
   26.4808    8.3367  -16.3945 H   0  0  0  0  0
   25.3991    9.0470  -14.2408 H   0  0  0  0  0
   25.6143    7.2679  -14.5283 H   0  0  0  0  0
   23.1183    8.8697  -14.9155 H   0  0  0  0  0
   22.2250    6.4107  -13.2096 H   0  0  0  0  0
   21.8954    6.9464  -15.3647 H   0  0  0  0  0
   23.4054    5.9391  -15.2470 H   0  0  0  0  0
   23.0118    6.2618  -17.5265 H   0  0  0  0  0
   22.6813    8.0410  -17.2760 H   0  0  0  0  0
  1  2  1  0  0  0
  2  3  1  0  0  0
  3  4  1  0  0  0
  3  7  1  0  0  0
  4  5  2  0  0  0
  5  6  1  0  0  0
  6  7  1  0  0  0
  7  8  1  0  0  0
  8  9  4  0  0  0
  8 23  4  0  0  0
  9 10  4  0  0  0
 10 11  4  0  0  0
 11 12  1  0  0  0
 11 13  4  0  0  0
 13 14  1  0  0  0
 13 23  4  0  0  0
 14 15  1  0  0  0
 14 22  1  0  0  0
 15 16  1  0  0  0
 16 17  1  0  0  0
 17 18  1  0  0  0
 17 21  1  0  0  0
 18 19  2  0  0  0
 18 20  1  0  0  0
 21 22  1  0  0  0
  1 24  1  0  0  0
  1 25  1  0  0  0
  1 26  1  0  0  0
  2 27  1  0  0  0
  2 28  1  0  0  0
  3 29  1  0  0  0
  4 30  1  0  0  0
  5 31  1  0  0  0
  7 32  1  0  0  0
  9 33  1  0  0  0
 12 34  1  0  0  0
 12 35  1  0  0  0
 14 36  1  0  0  0
 15 37  1  0  0  0
 15 38  1  0  0  0
 16 39  1  0  0  0
 16 40  1  0  0  0
 17 41  1  0  0  0
 20 42  1  0  0  0
 21 43  1  0  0  0
 21 44  1  0  0  0
 22 45  1  0  0  0
 22 46  1  0  0  0
M  END
$$$$
