### 
### Created by X-TOOL on Mon Sep 10 21:13:03 2018
### 

@<TRIPOS>MOLECULE
2xk3_ligand
   44    46     1     0     0
SMALL
GAST_HUCK


@<TRIPOS>ATOM
      1 C01        28.5480    9.0850  -24.5050 C.3       1 XK3        -0.0604
      2 C02        28.4350    8.7300  -23.0640 C.3       1 XK3        -0.0315
      3 C03        27.8460    9.8000  -22.2150 C.3       1 XK3         0.0280
      4 C04        28.0870   11.4280  -22.4020 C.2       1 XK3        -0.0565
      5 C05        27.2800   12.1500  -21.4040 C.2       1 XK3        -0.0063
      6 S06        26.4660   10.9920  -20.5000 S.3       1 XK3        -0.0461
      7 C07        26.8590    9.6030  -21.0390 C.2       1 XK3         0.0469
      8 C08        26.3910    8.4080  -20.5080 C.ar      1 XK3         0.0376
      9 C09        26.3700    7.2100  -21.2440 C.ar      1 XK3         0.0051
     10 N10        25.8530    6.0730  -20.6400 N.ar      1 XK3        -0.2869
     11 C11        25.3390    6.1200  -19.3570 C.ar      1 XK3         0.1230
     12 N12        24.7530    4.9670  -18.7640 N.pl3     1 XK3        -0.3277
     13 C13        25.3340    7.3320  -18.6550 C.ar      1 XK3         0.0497
     14 C14        24.7460    7.4870  -17.2790 C.3       1 XK3         0.0067
     15 C15        25.4030    8.4510  -16.2790 C.3       1 XK3        -0.0372
     16 C16        25.0880    8.1770  -14.8190 C.3       1 XK3        -0.0364
     17 C17        23.6030    7.9570  -14.5690 C.3       1 XK3         0.0121
     18 C18        23.1000    8.1160  -13.1840 C.2       1 XK3         0.0379
     19 O19        23.4520    9.0770  -12.5350 O.co2     1 XK3        -0.5687
     20 O20        22.4330    7.0910  -12.5650 O.co2     1 XK3        -0.5687
     21 C21        22.9760    6.9080  -15.5020 C.3       1 XK3        -0.0364
     22 C22        23.2660    7.1700  -16.9800 C.3       1 XK3        -0.0372
     23 N23        25.8480    8.4680  -19.2500 N.ar      1 XK3        -0.3231
     24 H          27.5566    9.3002  -24.9037 H         1 XK3         0.0234
     25 H          29.1830    9.9644  -24.6125 H         1 XK3         0.0234
     26 H          28.9869    8.2495  -25.0504 H         1 XK3         0.0234
     27 H          29.4456    8.5495  -22.6977 H         1 XK3         0.0323
     28 H          27.7732    7.8665  -22.9971 H         1 XK3         0.0323
     29 H          28.4178    8.9897  -22.6673 H         1 XK3         0.0683
     30 H          28.7379   11.8903  -23.1441 H         1 XK3         0.0564
     31 H          27.2220   13.2309  -21.2762 H         1 XK3         0.0678
     32 H          26.7508    7.1755  -22.2647 H         1 XK3         0.0746
     33 H          24.7083    4.0919  -19.2861 H         1 XK3         0.1736
     34 H          24.3776    5.0156  -17.8168 H         1 XK3         0.1736
     35 H          25.1777    6.5095  -17.0643 H         1 XK3         0.0482
     36 H          25.0174    9.4458  -16.5021 H         1 XK3         0.0293
     37 H          26.4808    8.3367  -16.3945 H         1 XK3         0.0293
     38 H          25.3991    9.0470  -14.2408 H         1 XK3         0.0287
     39 H          25.6143    7.2679  -14.5283 H         1 XK3         0.0287
     40 H          23.1183    8.8697  -14.9155 H         1 XK3         0.0466
     41 H          21.8954    6.9464  -15.3647 H         1 XK3         0.0287
     42 H          23.4054    5.9391  -15.2470 H         1 XK3         0.0287
     43 H          23.0118    6.2618  -17.5265 H         1 XK3         0.0293
     44 H          22.6813    8.0410  -17.2760 H         1 XK3         0.0293
@<TRIPOS>BOND
     1    1    2 1  
     2    2    3 1  
     3    3    4 1  
     4    3    7 1  
     5    4    5 2  
     6    5    6 1  
     7    6    7 1  
     8    7    8 1  
     9    8    9 ar 
    10    8   23 ar 
    11    9   10 ar 
    12   10   11 ar 
    13   11   12 1  
    14   11   13 ar 
    15   13   14 1  
    16   13   23 ar 
    17   14   15 1  
    18   14   22 1  
    19   15   16 1  
    20   16   17 1  
    21   17   18 1  
    22   17   21 1  
    23   18   19 ar 
    24   18   20 ar 
    25   21   22 1  
    26    1   24 1  
    27    1   25 1  
    28    1   26 1  
    29    2   27 1  
    30    2   28 1  
    31    3   29 1  
    32    4   30 1  
    33    5   31 1  
    34    9   32 1  
    35   12   33 1  
    36   12   34 1  
    37   14   35 1  
    38   15   36 1  
    39   15   37 1  
    40   16   38 1  
    41   16   39 1  
    42   17   40 1  
    43   21   41 1  
    44   21   42 1  
    45   22   43 1  
    46   22   44 1  
@<TRIPOS>SUBSTRUCTURE
     1 XK3         1

