### 
### Created by X-TOOL on Mon Sep 10 21:13:04 2018
### 

@<TRIPOS>MOLECULE
3koo_ligand
   43    45     1     0     0
SMALL
GAST_HUCK


@<TRIPOS>ATOM
      1 CL1        75.8010   -8.4220   71.5040 Cl        1 24D        -0.0770
      2 C2         75.1260   -8.8050   69.9350 C.ar      1 24D         0.0335
      3 C3         75.2180   -7.8830   68.8990 C.ar      1 24D        -0.0544
      4 C4         74.6840   -8.1720   67.6470 C.ar      1 24D        -0.0572
      5 C5         74.0480   -9.3790   67.4100 C.ar      1 24D        -0.0069
      6 C6         73.4590   -9.7490   66.0710 C.3       1 24D         0.0656
      7 N7         73.5580   -8.6370   65.1250 N.am      1 24D        -0.2615
      8 C8         74.6880   -8.5020   64.4160 C.2       1 24D         0.2618
      9 O9         75.5840   -9.2840   64.5770 O.2       1 24D        -0.4005
     10 N10        74.8410   -7.5270   63.5200 N.am      1 24D        -0.2592
     11 C11        76.1050   -7.4060   62.7770 C.3       1 24D         0.0370
     12 C12        75.7920   -7.1070   61.3060 C.3       1 24D        -0.0008
     13 C13        74.8260   -5.9140   61.1870 C.3       1 24D         0.0934
     14 C14        74.3760   -5.3700   62.5470 C.3       1 24D        -0.0008
     15 C15        73.7690   -6.5550   63.3010 C.3       1 24D         0.0370
     16 O16        75.4260   -4.8660   60.4150 O.3       1 24D        -0.2735
     17 C17        76.4870   -4.1480   60.8600 C.ar      1 24D         0.2508
     18 N18        77.2350   -4.5940   61.8570 N.ar      1 24D        -0.2406
     19 C19        78.2700   -3.8970   62.2820 C.ar      1 24D         0.0183
     20 C20        78.5540   -2.6950   61.6530 C.ar      1 24D        -0.0203
     21 C21        77.7570   -2.2560   60.6060 C.ar      1 24D         0.0183
     22 N22        76.7400   -3.0090   60.2370 N.ar      1 24D        -0.2406
     23 C23        73.9560  -10.2930   68.4290 C.ar      1 24D         0.0437
     24 CL24       73.1470  -11.7790   68.0410 Cl        1 24D        -0.0771
     25 C25        74.4900  -10.0200   69.6910 C.ar      1 24D        -0.0406
     26 H          75.7122   -6.9264   69.0686 H         1 24D         0.0607
     27 H          74.7673   -7.4400   66.8437 H         1 24D         0.0558
     28 H          72.4064   -9.9956   66.2097 H         1 24D         0.0683
     29 H          74.0124  -10.5980   65.6697 H         1 24D         0.0683
     30 H          72.7862   -7.9805   65.0078 H         1 24D         0.1872
     31 H          76.6661   -8.3375   62.8517 H         1 24D         0.0520
     32 H          76.7029   -6.5974   63.1975 H         1 24D         0.0520
     33 H          75.3247   -7.9848   60.8596 H         1 24D         0.0314
     34 H          76.7207   -6.8613   60.7910 H         1 24D         0.0314
     35 H          73.9337   -6.2833   60.6815 H         1 24D         0.0664
     36 H          73.6495   -4.5662   62.4279 H         1 24D         0.0314
     37 H          75.2148   -4.9427   63.0964 H         1 24D         0.0314
     38 H          73.3480   -6.2286   64.2520 H         1 24D         0.0520
     39 H          72.9592   -7.0016   62.7241 H         1 24D         0.0520
     40 H          78.8861   -4.2564   63.1062 H         1 24D         0.0907
     41 H          79.4030   -2.0951   61.9808 H         1 24D         0.0684
     42 H          77.9663   -1.3127   60.1015 H         1 24D         0.0907
     43 H          74.4086  -10.7601   70.4871 H         1 24D         0.0612
@<TRIPOS>BOND
     1    1    2 1  
     2    2    3 ar 
     3    2   25 ar 
     4    3    4 ar 
     5    4    5 ar 
     6    5    6 1  
     7    5   23 ar 
     8    6    7 1  
     9    7    8 am 
    10    8    9 2  
    11    8   10 am 
    12   10   11 1  
    13   10   15 1  
    14   11   12 1  
    15   12   13 1  
    16   13   14 1  
    17   13   16 1  
    18   14   15 1  
    19   16   17 1  
    20   17   18 ar 
    21   17   22 ar 
    22   18   19 ar 
    23   19   20 ar 
    24   20   21 ar 
    25   21   22 ar 
    26   23   24 1  
    27   23   25 ar 
    28    3   26 1  
    29    4   27 1  
    30    6   28 1  
    31    6   29 1  
    32    7   30 1  
    33   11   31 1  
    34   11   32 1  
    35   12   33 1  
    36   12   34 1  
    37   13   35 1  
    38   14   36 1  
    39   14   37 1  
    40   15   38 1  
    41   15   39 1  
    42   19   40 1  
    43   20   41 1  
    44   21   42 1  
    45   25   43 1  
@<TRIPOS>SUBSTRUCTURE
     1 24D         1

