### 
### Created by X-TOOL on Mon Sep 10 21:13:20 2018
### 

@<TRIPOS>MOLECULE
4o44_ligand
   67    70     1     0     0
SMALL
GAST_HUCK


@<TRIPOS>ATOM
      1 CAQ        45.1010  -22.9110   13.1270 C.3       1 2RS        -0.0078
      2 CAN        45.4080  -21.6110   12.3310 C.3       1 2RS         0.0878
      3 OAX        44.3710  -20.6500   12.5340 O.3       1 2RS        -0.3693
      4 CAO        44.3930  -20.1760   13.8810 C.3       1 2RS         0.0878
      5 CAR        44.0670  -21.3210   14.8740 C.3       1 2RS        -0.0078
      6 NBI        44.2480  -22.6960   14.3290 N.4       1 2RS         0.2385
      7 CAP        44.0540  -23.8200   15.2810 C.3       1 2RS        -0.0291
      8 CAL        45.2950  -24.3500   16.0510 C.3       1 2RS         0.0168
      9 CAM        45.0060  -25.0720   17.3850 C.3       1 2RS         0.0859
     10 OAY        46.1870  -25.3850   18.1280 O.3       1 2RS        -0.2752
     11 NAV        44.2010  -28.1040   21.5490 N.pl3     1 2RS        -0.2353
     12 CBD        44.5850  -29.2890   22.2090 C.ar      1 2RS         0.0779
     13 CAH        44.5960  -30.6140   21.6660 C.ar      1 2RS        -0.0255
     14 CAF        45.0520  -31.7090   22.4500 C.ar      1 2RS        -0.0359
     15 CBA        45.5090  -31.4870   23.7660 C.ar      1 2RS         0.0834
     16 CAE        45.9850  -32.5610   24.6080 C.1       1 2RS         0.0882
     17 NAD        46.4040  -33.4280   25.2420 N.1       1 2RS        -0.3379
     18 CAG        45.5150  -30.1850   24.3060 C.ar      1 2RS        -0.0359
     19 CAI        45.0650  -29.1110   23.5320 C.ar      1 2RS        -0.0255
     20 NAS        45.9870  -26.5750   21.9970 N.ar      1 2RS        -0.2263
     21 CBF        46.8690  -25.6620   21.5640 C.ar      1 2RS         0.1916
     22 CBG        46.0600  -25.8520   19.4290 C.ar      1 2RS         0.2301
     23 NAU        46.9290  -25.2810   20.2790 N.ar      1 2RS        -0.2202
     24 NAT        45.1400  -26.7840   19.8220 N.ar      1 2RS        -0.2190
     25 CBE        45.1200  -27.1230   21.1320 C.ar      1 2RS         0.1978
     26 NAW        47.7690  -25.0510   22.4300 N.pl3     1 2RS        -0.2507
     27 CBH        47.8220  -25.1660   23.8280 C.ar      1 2RS         0.0652
     28 CBB        47.0790  -24.2790   24.6840 C.ar      1 2RS        -0.0331
     29 CAB        46.1490  -23.1910   24.1560 C.3       1 2RS        -0.0363
     30 CAJ        47.1840  -24.4060   26.0940 C.ar      1 2RS        -0.0744
     31 CAZ        48.0210  -25.3860   26.6730 C.ar      1 2RS        -0.0697
     32 CAA        48.1490  -25.5400   28.1720 C.3       1 2RS        -0.0391
     33 CAK        48.7590  -26.2410   25.8370 C.ar      1 2RS        -0.0744
     34 CBC        48.6720  -26.1420   24.4290 C.ar      1 2RS        -0.0331
     35 CAC        49.5150  -27.1110   23.6110 C.3       1 2RS        -0.0363
     36 H          46.0550  -23.3505   13.4536 H         1 2RS         0.0837
     37 H          44.5840  -23.6135   12.4568 H         1 2RS         0.0837
     38 H          45.4774  -21.8493   11.2594 H         1 2RS         0.0613
     39 H          46.3644  -21.1913   12.6760 H         1 2RS         0.0613
     40 H          43.6455  -19.3770   13.9942 H         1 2RS         0.0613
     41 H          45.3930  -19.7772   14.1065 H         1 2RS         0.0613
     42 H          43.0181  -21.2132   15.1872 H         1 2RS         0.0837
     43 H          44.7241  -21.2114   15.7493 H         1 2RS         0.0837
     44 H          43.3586  -22.7660   13.8598 H         1 2RS         0.2035
     45 H          43.6393  -24.6637   14.7099 H         1 2RS         0.0815
     46 H          43.3208  -23.4895   16.0314 H         1 2RS         0.0815
     47 H          45.9486  -23.4921   16.2673 H         1 2RS         0.0344
     48 H          45.8228  -25.0564   15.3934 H         1 2RS         0.0344
     49 H          44.4730  -26.0090   17.1662 H         1 2RS         0.0633
     50 H          44.3677  -24.4225   18.0020 H         1 2RS         0.0633
     51 H          43.1999  -27.9487   21.3630 H         1 2RS         0.2242
     52 H          44.2546  -30.7832   20.6512 H         1 2RS         0.0568
     53 H          45.0485  -32.7115   22.0377 H         1 2RS         0.0690
     54 H          45.8671  -30.0170   25.3174 H         1 2RS         0.0690
     55 H          45.0835  -28.1132   23.9553 H         1 2RS         0.0568
     56 H          48.4787  -24.4440   21.9956 H         1 2RS         0.2155
     57 H          45.6999  -22.6502   25.0021 H         1 2RS         0.0367
     58 H          45.3536  -23.6504   23.5507 H         1 2RS         0.0367
     59 H          46.7229  -22.4878   23.5346 H         1 2RS         0.0367
     60 H          46.6146  -23.7425   26.7348 H         1 2RS         0.0413
     61 H          48.8485  -26.3583   28.3981 H         1 2RS         0.0369
     62 H          47.1634  -25.7708   28.6024 H         1 2RS         0.0369
     63 H          48.5283  -24.6030   28.6058 H         1 2RS         0.0369
     64 H          49.4064  -26.9896   26.2792 H         1 2RS         0.0413
     65 H          49.3519  -26.9243   22.5393 H         1 2RS         0.0367
     66 H          49.2236  -28.1440   23.8517 H         1 2RS         0.0367
     67 H          50.5785  -26.9646   23.8509 H         1 2RS         0.0367
@<TRIPOS>BOND
     1    1    2 1  
     2    6    1 1  
     3    2    3 1  
     4    4    3 1  
     5    5    4 1  
     6    6    5 1  
     7    7    6 1  
     8    8    7 1  
     9    9    8 1  
    10   10    9 1  
    11   22   10 1  
    12   11   12 1  
    13   25   11 1  
    14   12   13 ar 
    15   12   19 ar 
    16   13   14 ar 
    17   14   15 ar 
    18   15   16 1  
    19   18   15 ar 
    20   16   17 3  
    21   19   18 ar 
    22   21   20 ar 
    23   20   25 ar 
    24   23   21 ar 
    25   21   26 1  
    26   22   23 ar 
    27   22   24 ar 
    28   24   25 ar 
    29   26   27 1  
    30   27   28 ar 
    31   27   34 ar 
    32   28   29 1  
    33   28   30 ar 
    34   30   31 ar 
    35   31   32 1  
    36   31   33 ar 
    37   33   34 ar 
    38   34   35 1  
    39    1   36 1  
    40    1   37 1  
    41    2   38 1  
    42    2   39 1  
    43    4   40 1  
    44    4   41 1  
    45    5   42 1  
    46    5   43 1  
    47    6   44 1  
    48    7   45 1  
    49    7   46 1  
    50    8   47 1  
    51    8   48 1  
    52    9   49 1  
    53    9   50 1  
    54   11   51 1  
    55   13   52 1  
    56   14   53 1  
    57   18   54 1  
    58   19   55 1  
    59   26   56 1  
    60   29   57 1  
    61   29   58 1  
    62   29   59 1  
    63   30   60 1  
    64   32   61 1  
    65   32   62 1  
    66   32   63 1  
    67   33   64 1  
    68   35   65 1  
    69   35   66 1  
    70   35   67 1  
@<TRIPOS>SUBSTRUCTURE
     1 2RS         1

