4o44_ligand
  -I-interpret- 

 67 70  0  0  0  0  0  0  0  0999 V2000
   45.1010  -22.9110   13.1270 C   0  0  0  0  0
   45.4080  -21.6110   12.3310 C   0  0  0  0  0
   44.3710  -20.6500   12.5340 O   0  0  0  0  0
   44.3930  -20.1760   13.8810 C   0  0  0  0  0
   44.0670  -21.3210   14.8740 C   0  0  0  0  0
   44.2480  -22.6960   14.3290 N   0  3  0  0  0
   44.0540  -23.8200   15.2810 C   0  0  0  0  0
   45.2950  -24.3500   16.0510 C   0  0  0  0  0
   45.0060  -25.0720   17.3850 C   0  0  0  0  0
   46.1870  -25.3850   18.1280 O   0  0  0  0  0
   44.2010  -28.1040   21.5490 N   0  0  0  0  0
   44.5850  -29.2890   22.2090 C   0  0  0  0  0
   44.5960  -30.6140   21.6660 C   0  0  0  0  0
   45.0520  -31.7090   22.4500 C   0  0  0  0  0
   45.5090  -31.4870   23.7660 C   0  0  0  0  0
   45.9850  -32.5610   24.6080 C   0  0  0  0  0
   46.4040  -33.4280   25.2420 N   0  0  0  0  0
   45.5150  -30.1850   24.3060 C   0  0  0  0  0
   45.0650  -29.1110   23.5320 C   0  0  0  0  0
   45.9870  -26.5750   21.9970 N   0  0  0  0  0
   46.8690  -25.6620   21.5640 C   0  0  0  0  0
   46.0600  -25.8520   19.4290 C   0  0  0  0  0
   46.9290  -25.2810   20.2790 N   0  0  0  0  0
   45.1400  -26.7840   19.8220 N   0  0  0  0  0
   45.1200  -27.1230   21.1320 C   0  0  0  0  0
   47.7690  -25.0510   22.4300 N   0  0  0  0  0
   47.8220  -25.1660   23.8280 C   0  0  0  0  0
   47.0790  -24.2790   24.6840 C   0  0  0  0  0
   46.1490  -23.1910   24.1560 C   0  0  0  0  0
   47.1840  -24.4060   26.0940 C   0  0  0  0  0
   48.0210  -25.3860   26.6730 C   0  0  0  0  0
   48.1490  -25.5400   28.1720 C   0  0  0  0  0
   48.7590  -26.2410   25.8370 C   0  0  0  0  0
   48.6720  -26.1420   24.4290 C   0  0  0  0  0
   49.5150  -27.1110   23.6110 C   0  0  0  0  0
   46.0538  -23.3115   13.4733 H   0  0  0  0  0
   44.5572  -23.5791   12.4591 H   0  0  0  0  0
   45.4696  -21.8496   11.2692 H   0  0  0  0  0
   46.3529  -21.1945   12.6799 H   0  0  0  0  0
   43.6429  -19.3927   13.9899 H   0  0  0  0  0
   45.3891  -19.7925   14.1020 H   0  0  0  0  0
   43.0134  -21.2215   15.1348 H   0  0  0  0  0
   44.7590  -21.2197   15.7100 H   0  0  0  0  0
   43.3835  -22.7550   13.7910 H   0  0  0  0  0
   43.7133  -24.6576   14.6723 H   0  0  0  0  0
   43.3818  -23.4352   16.0479 H   0  0  0  0  0
   45.8971  -23.4761   16.3000 H   0  0  0  0  0
   45.7676  -25.0860   15.4006 H   0  0  0  0  0
   44.5073  -26.0120   17.1488 H   0  0  0  0  0
   44.4004  -24.4031   17.9965 H   0  0  0  0  0
   43.2096  -27.9502   21.3648 H   0  0  0  0  0
   44.2527  -30.7841   20.6455 H   0  0  0  0  0
   45.0485  -32.7171   22.0354 H   0  0  0  0  0
   45.8690  -30.0161   25.3230 H   0  0  0  0  0
   45.0836  -28.1077   23.9576 H   0  0  0  0  0
   48.4718  -24.4498   21.9998 H   0  0  0  0  0
   46.7188  -22.4950   23.5404 H   0  0  0  0  0
   45.3614  -23.6475   23.5564 H   0  0  0  0  0
   45.7046  -22.6559   24.9952 H   0  0  0  0  0
   46.6115  -23.7388   26.7383 H   0  0  0  0  0
   48.5248  -24.6110   28.6006 H   0  0  0  0  0
   47.1718  -25.7686   28.5972 H   0  0  0  0  0
   48.8423  -26.3510   28.3947 H   0  0  0  0  0
   49.4100  -26.9938   26.2816 H   0  0  0  0  0
   48.8624  -27.7179   22.9833 H   0  0  0  0  0
   50.2055  -26.5486   22.9825 H   0  0  0  0  0
   50.0784  -27.7577   24.2837 H   0  0  0  0  0
  1  2  1  0  0  0
  6  1  1  0  0  0
  2  3  1  0  0  0
  4  3  1  0  0  0
  5  4  1  0  0  0
  6  5  1  0  0  0
  7  6  1  0  0  0
  8  7  1  0  0  0
  9  8  1  0  0  0
 10  9  1  0  0  0
 22 10  1  0  0  0
 11 12  1  0  0  0
 25 11  1  0  0  0
 12 13  4  0  0  0
 12 19  4  0  0  0
 13 14  4  0  0  0
 14 15  4  0  0  0
 15 16  1  0  0  0
 18 15  4  0  0  0
 16 17  3  0  0  0
 19 18  4  0  0  0
 21 20  4  0  0  0
 20 25  4  0  0  0
 23 21  4  0  0  0
 21 26  1  0  0  0
 22 23  4  0  0  0
 22 24  4  0  0  0
 24 25  4  0  0  0
 26 27  1  0  0  0
 27 28  4  0  0  0
 27 34  4  0  0  0
 28 29  1  0  0  0
 28 30  4  0  0  0
 30 31  4  0  0  0
 31 32  1  0  0  0
 31 33  4  0  0  0
 33 34  4  0  0  0
 34 35  1  0  0  0
  1 36  1  0  0  0
  1 37  1  0  0  0
  2 38  1  0  0  0
  2 39  1  0  0  0
  4 40  1  0  0  0
  4 41  1  0  0  0
  5 42  1  0  0  0
  5 43  1  0  0  0
  6 44  1  0  0  0
  7 45  1  0  0  0
  7 46  1  0  0  0
  8 47  1  0  0  0
  8 48  1  0  0  0
  9 49  1  0  0  0
  9 50  1  0  0  0
 11 51  1  0  0  0
 13 52  1  0  0  0
 14 53  1  0  0  0
 18 54  1  0  0  0
 19 55  1  0  0  0
 26 56  1  0  0  0
 29 57  1  0  0  0
 29 58  1  0  0  0
 29 59  1  0  0  0
 30 60  1  0  0  0
 32 61  1  0  0  0
 32 62  1  0  0  0
 32 63  1  0  0  0
 33 64  1  0  0  0
 35 65  1  0  0  0
 35 66  1  0  0  0
 35 67  1  0  0  0
M  END
$$$$
