5fah_ligand
  -I-interpret- 

 61 64  0  0  0  0  0  0  0  0999 V2000
   14.5200   14.0510   40.6290 C   0  0  0  0  0
   15.8750   13.1030   38.8180 C   0  0  0  0  0
   15.8010   12.6300   33.4560 C   0  0  0  0  0
   15.7030   14.0550   32.8790 C   0  0  0  0  0
   15.5500   16.6570   31.7910 C   0  0  0  0  0
   16.0690   16.4600   33.0720 C   0  0  0  0  0
   16.1630   15.1560   33.6140 C   0  0  0  0  0
   15.1190   15.5510   31.0250 C   0  0  0  0  0
   15.1860   14.2380   31.5820 C   0  0  0  0  0
   14.7030   13.1820   30.7900 C   0  0  0  0  0
   14.1470   13.3950   29.5230 C   0  0  0  0  0
   14.0950   14.6900   29.0040 C   0  0  0  0  0
   14.5420   15.7690   29.7620 C   0  0  0  0  0
   15.5340   14.6930   41.6000 C   0  0  0  0  0
   14.9170   15.9630   42.1950 C   0  0  0  0  0
   15.1370   17.2130   41.6070 C   0  0  0  0  0
   13.7110   18.2570   43.2960 C   0  0  0  0  0
   13.4870   17.0050   43.8800 C   0  0  0  0  0
   14.5360   18.3660   42.1600 C   0  0  0  0  0
   14.0910   15.8680   43.3170 C   0  0  0  0  0
   15.1300   12.9370   39.8940 N   0  0  0  0  0
   16.4750   11.8500   38.2270 C   0  0  0  0  0
   16.9790   12.0730   36.8880 N   0  0  0  0  0
   17.7430   11.4080   39.0030 C   0  0  0  0  0
   18.3900   11.7310   36.7290 C   0  0  0  0  0
   18.6440   10.7940   37.9330 C   0  0  0  0  0
   16.0750   14.2280   38.3170 O   0  0  0  0  0
   16.0930   12.2820   35.8710 C   0  0  0  0  0
   14.8720   12.2330   36.0600 O   0  0  0  0  0
   16.6160   12.5040   34.6500 N   0  0  0  0  0
   13.1000   19.4030   43.8600 O   0  0  0  0  0
   12.3880   19.4210   45.1120 C   0  0  0  0  0
   14.1944   14.8059   39.9134 H   0  0  0  0  0
   13.6766   13.6702   41.2050 H   0  0  0  0  0
   16.2697   12.0127   32.6896 H   0  0  0  0  0
   14.7895   12.3337   33.7338 H   0  0  0  0  0
   15.4773   17.6646   31.3817 H   0  0  0  0  0
   16.4039   17.3157   33.6583 H   0  0  0  0  0
   16.5937   15.0079   34.6043 H   0  0  0  0  0
   14.7633   12.1640   31.1749 H   0  0  0  0  0
   13.7576   12.5561   28.9461 H   0  0  0  0  0
   13.7027   14.8571   28.0009 H   0  0  0  0  0
   14.4444   16.7836   29.3757 H   0  0  0  0  0
   16.4489   14.9446   41.0636 H   0  0  0  0  0
   15.7740   13.9912   42.3987 H   0  0  0  0  0
   15.7707   17.2974   40.7241 H   0  0  0  0  0
   12.8517   16.9130   44.7609 H   0  0  0  0  0
   14.7113   19.3416   41.7065 H   0  0  0  0  0
   13.9110   14.8910   43.7656 H   0  0  0  0  0
   14.9702   11.9878   40.2316 H   0  0  0  0  0
   15.6692   11.1168   38.2615 H   0  0  0  0  0
   17.5114   10.7013   39.7999 H   0  0  0  0  0
   18.2229   12.2421   39.5149 H   0  0  0  0  0
   19.0431   12.6037   36.7213 H   0  0  0  0  0
   18.6110   11.2635   35.7695 H   0  0  0  0  0
   18.4177    9.7485   37.7237 H   0  0  0  0  0
   19.6922   10.7411   38.2273 H   0  0  0  0  0
   17.6287   12.5872   34.5606 H   0  0  0  0  0
   11.5461   18.7307   45.0597 H   0  0  0  0  0
   13.0596   19.1168   45.9148 H   0  0  0  0  0
   12.0215   20.4291   45.3056 H   0  0  0  0  0
  1 14  1  0  0  0
 21  1  1  0  0  0
  2 21  1  0  0  0
 22  2  1  0  0  0
  2 27  2  0  0  0
  3  4  1  0  0  0
 30  3  1  0  0  0
  4  7  4  0  0  0
  4  9  4  0  0  0
  6  5  4  0  0  0
  8  5  4  0  0  0
  7  6  4  0  0  0
  9  8  4  0  0  0
  8 13  4  0  0  0
  9 10  4  0  0  0
 10 11  4  0  0  0
 11 12  4  0  0  0
 13 12  4  0  0  0
 14 15  1  0  0  0
 15 16  4  0  0  0
 15 20  4  0  0  0
 16 19  4  0  0  0
 18 17  4  0  0  0
 19 17  4  0  0  0
 17 31  1  0  0  0
 20 18  4  0  0  0
 23 22  1  0  0  0
 22 24  1  0  0  0
 23 25  1  0  0  0
 28 23  1  0  0  0
 26 24  1  0  0  0
 25 26  1  0  0  0
 28 29  2  0  0  0
 28 30  1  0  0  0
 31 32  1  0  0  0
  1 33  1  0  0  0
  1 34  1  0  0  0
  3 35  1  0  0  0
  3 36  1  0  0  0
  5 37  1  0  0  0
  6 38  1  0  0  0
  7 39  1  0  0  0
 10 40  1  0  0  0
 11 41  1  0  0  0
 12 42  1  0  0  0
 13 43  1  0  0  0
 14 44  1  0  0  0
 14 45  1  0  0  0
 16 46  1  0  0  0
 18 47  1  0  0  0
 19 48  1  0  0  0
 20 49  1  0  0  0
 21 50  1  0  0  0
 22 51  1  0  0  0
 24 52  1  0  0  0
 24 53  1  0  0  0
 25 54  1  0  0  0
 25 55  1  0  0  0
 26 56  1  0  0  0
 26 57  1  0  0  0
 30 58  1  0  0  0
 32 59  1  0  0  0
 32 60  1  0  0  0
 32 61  1  0  0  0
M  END
$$$$
