1bwn_ligand
  -I-interpret- 

 44 44  0  0  0  0  0  0  0  0999 V2000
   -2.0570    4.4570   38.9080 C   0  0  0  0  0
   -3.3750    4.7570   39.5510 O   0  0  0  0  0
   -0.9220    5.3440   39.3220 C   0  0  0  0  0
   -1.2400    6.7360   39.0570 O   0  0  0  0  0
    0.2860    4.8550   38.6020 C   0  0  0  0  0
    1.4160    5.4540   39.1340 O   0  0  0  0  0
    0.1400    4.9860   37.0440 C   0  0  0  0  0
    1.3480    4.4490   36.4640 O   0  0  0  0  0
   -1.0180    4.1230   36.6270 C   0  0  0  0  0
   -1.2860    4.4020   35.1940 O   0  0  0  0  0
   -2.2840    4.5460   37.4010 C   0  0  0  0  0
   -3.4050    3.7320   37.0590 O   0  0  0  0  0
   -3.8660    3.9650   40.9260 P   0  0  0  0  0
   -5.0750    4.5840   41.3290 O   0  0  0  0  0
   -2.7500    4.1010   41.8920 O   0  0  0  0  0
   -3.9510    2.6150   40.4580 O   0  0  0  0  0
    2.5960    4.6970   39.7910 P   0  0  0  0  0
    3.5360    5.7300   40.1190 O   0  0  0  0  0
    1.7720    4.1390   40.8380 O   0  0  0  0  0
    3.0770    3.7150   38.8170 O   0  0  0  0  0
    2.4700    5.2610   35.7560 P   0  0  0  0  0
    2.0540    6.6810   35.9260 O   0  0  0  0  0
    3.7070    4.9050   36.4370 O   0  0  0  0  0
    2.4410    4.8040   34.3950 O   0  0  0  0  0
   -0.7620    3.5510   33.9580 P   0  0  0  0  0
    0.2910    4.3430   33.4030 O   0  0  0  0  0
   -0.2390    2.4120   34.6060 O   0  0  0  0  0
   -2.0180    3.5070   33.2300 O   0  0  0  0  0
   -1.7404    3.4668   39.2356 H   0  0  0  0  0
   -0.7343    5.3004   40.3948 H   0  0  0  0  0
   -2.0254    6.9832   39.5506 H   0  0  0  0  0
    0.3985    3.7824   38.7602 H   0  0  0  0  0
   -0.0197    6.0176   36.7304 H   0  0  0  0  0
   -0.7847    3.0751   36.8155 H   0  0  0  0  0
   -2.4939    5.5780   37.1200 H   0  0  0  0  0
   -4.1730    4.0215   37.5569 H   0  0  0  0  0
   -1.9726    3.6569   41.5457 H   0  0  0  0  0
   -3.0751    2.3058   40.2156 H   0  0  0  0  0
    1.1986    3.4643   40.4671 H   0  0  0  0  0
    2.3906    3.0636   38.6553 H   0  0  0  0  0
    2.0973    6.9169   36.8556 H   0  0  0  0  0
    3.6792    5.2306   37.3397 H   0  0  0  0  0
   -0.0840    5.1118   32.9672 H   0  0  0  0  0
   -2.2038    4.3740   32.8620 H   0  0  0  0  0
  1  2  1  0  0  0
  1  3  1  0  0  0
  1 11  1  0  0  0
  2 13  1  0  0  0
  3  4  1  0  0  0
  3  5  1  0  0  0
  5  6  1  0  0  0
  5  7  1  0  0  0
  6 17  1  0  0  0
  7  8  1  0  0  0
  7  9  1  0  0  0
  8 21  1  0  0  0
  9 10  1  0  0  0
  9 11  1  0  0  0
 10 25  1  0  0  0
 11 12  1  0  0  0
 13 14  2  0  0  0
 13 15  1  0  0  0
 13 16  1  0  0  0
 17 18  2  0  0  0
 17 19  1  0  0  0
 17 20  1  0  0  0
 21 22  1  0  0  0
 21 23  1  0  0  0
 21 24  2  0  0  0
 25 26  1  0  0  0
 25 27  2  0  0  0
 25 28  1  0  0  0
  1 29  1  0  0  0
  3 30  1  0  0  0
  4 31  1  0  0  0
  5 32  1  0  0  0
  7 33  1  0  0  0
  9 34  1  0  0  0
 11 35  1  0  0  0
 12 36  1  0  0  0
 15 37  1  0  0  0
 16 38  1  0  0  0
 19 39  1  0  0  0
 20 40  1  0  0  0
 22 41  1  0  0  0
 23 42  1  0  0  0
 26 43  1  0  0  0
 28 44  1  0  0  0
M  END
$$$$
