### 
### Created by X-TOOL on Mon Sep 10 21:12:47 2018
### 

@<TRIPOS>MOLECULE
1bwn_ligand
   36    36     1     0     0
SMALL
GAST_HUCK


@<TRIPOS>ATOM
      1 C1         -2.0570    4.4570   38.9080 C.3       1 4IP         0.1463
      2 O1         -3.3750    4.7570   39.5510 O.3       1 4IP        -0.2675
      3 C2         -0.9220    5.3440   39.3220 C.3       1 4IP         0.1215
      4 O2         -1.2400    6.7360   39.0570 O.3       1 4IP        -0.3858
      5 C3          0.2860    4.8550   38.6020 C.3       1 4IP         0.1509
      6 O3          1.4160    5.4540   39.1340 O.3       1 4IP        -0.2672
      7 C4          0.1400    4.9860   37.0440 C.3       1 4IP         0.1550
      8 O4          1.3480    4.4490   36.4640 O.3       1 4IP        -0.2669
      9 C5         -1.0180    4.1230   36.6270 C.3       1 4IP         0.1509
     10 O5         -1.2860    4.4020   35.1940 O.3       1 4IP        -0.2672
     11 C6         -2.2840    4.5460   37.4010 C.3       1 4IP         0.1215
     12 O6         -3.4050    3.7320   37.0590 O.3       1 4IP        -0.3858
     13 P1         -3.8660    3.9650   40.9260 P.3       1 4IP         0.2013
     14 O1P        -5.0750    4.5840   41.3290 O.co2     1 4IP        -0.5537
     15 O2P        -2.7500    4.1010   41.8920 O.co2     1 4IP        -0.5537
     16 O3P        -3.9510    2.6150   40.4580 O.co2     1 4IP        -0.5537
     17 P3          2.5960    4.6970   39.7910 P.3       1 4IP         0.2013
     18 O4P         3.5360    5.7300   40.1190 O.co2     1 4IP        -0.5537
     19 O5P         1.7720    4.1390   40.8380 O.co2     1 4IP        -0.5537
     20 O6P         3.0770    3.7150   38.8170 O.co2     1 4IP        -0.5537
     21 P4          2.4700    5.2610   35.7560 P.3       1 4IP         0.2013
     22 O7P         2.0540    6.6810   35.9260 O.co2     1 4IP        -0.5537
     23 O8P         3.7070    4.9050   36.4370 O.co2     1 4IP        -0.5537
     24 O9P         2.4410    4.8040   34.3950 O.co2     1 4IP        -0.5537
     25 P5         -0.7620    3.5510   33.9580 P.3       1 4IP         0.2013
     26 O26         0.2910    4.3430   33.4030 O.co2     1 4IP        -0.5537
     27 O27        -0.2390    2.4120   34.6060 O.co2     1 4IP        -0.5537
     28 O28        -2.0180    3.5070   33.2300 O.co2     1 4IP        -0.5537
     29 H1         -1.7771    3.4257   39.1688 H         1 4IP         0.0703
     30 H2         -0.7532    5.2367   40.4037 H         1 4IP         0.0654
     31 H3         -0.5109    7.2828   39.3250 H         1 4IP         0.2100
     32 H4          0.3737    3.7785   38.8102 H         1 4IP         0.0706
     33 H5         -0.0163    6.0318   36.7409 H         1 4IP         0.0710
     34 H6         -0.7921    3.0594   36.7936 H         1 4IP         0.0706
     35 H7         -2.5142    5.5892   37.1388 H         1 4IP         0.0654
     36 H8         -3.5808    3.8118   36.1288 H         1 4IP         0.2100
@<TRIPOS>BOND
     1    1    2 1  
     2    1    3 1  
     3    1   11 1  
     4    2   13 1  
     5    3    4 1  
     6    3    5 1  
     7    5    6 1  
     8    5    7 1  
     9    6   17 1  
    10    7    8 1  
    11    7    9 1  
    12    8   21 1  
    13    9   10 1  
    14    9   11 1  
    15   10   25 1  
    16   11   12 1  
    17   13   14 ar 
    18   13   15 ar 
    19   13   16 ar 
    20   17   18 ar 
    21   17   19 ar 
    22   17   20 ar 
    23   21   22 ar 
    24   21   23 ar 
    25   21   24 ar 
    26   25   26 ar 
    27   25   27 ar 
    28   25   28 ar 
    29    1   29 1  
    30    3   30 1  
    31    4   31 1  
    32    5   32 1  
    33    7   33 1  
    34    9   34 1  
    35   11   35 1  
    36   12   36 1  
@<TRIPOS>SUBSTRUCTURE
     1 4IP         1

