4ie5_ligand
  -I-interpret- 

 22 22  0  0  0  0  0  0  0  0999 V2000
   33.9430   -7.3290  -21.1750 C   0  0  0  0  0
   32.1530   -7.2140  -22.8350 N   0  0  0  0  0
   34.1240   -8.5670  -21.5990 O   0  0  0  0  0
   32.9310   -6.4560  -21.8710 C   0  0  0  0  0
   29.3250   -6.5040  -24.9400 N   0  0  0  0  0
   34.6190   -6.8990  -20.2440 O   0  0  0  0  0
   31.3560   -6.5540  -23.6380 C   0  0  0  0  0
   31.3330   -5.3350  -23.6750 O   0  0  0  0  0
   30.3330   -7.2710  -24.4800 C   0  0  0  0  0
   31.3670   -9.4120  -24.3130 O   0  0  0  0  0
   28.3460   -6.9960  -25.7140 C   0  0  0  0  0
   28.3550   -8.3500  -26.0400 C   0  0  0  0  0
   29.3700   -9.1870  -25.5750 C   0  0  0  0  0
   30.3730   -8.6230  -24.7680 C   0  0  0  0  0
   32.2251   -8.2302  -22.8852 H   0  0  0  0  0
   33.5229   -8.7462  -22.3258 H   0  0  0  0  0
   33.4616   -5.6641  -22.3997 H   0  0  0  0  0
   32.2523   -6.0475  -21.1223 H   0  0  0  0  0
   31.2230  -10.3121  -24.6143 H   0  0  0  0  0
   27.5538   -6.3446  -26.0830 H   0  0  0  0  0
   27.5613   -8.7599  -26.6646 H   0  0  0  0  0
   29.3846  -10.2466  -25.8300 H   0  0  0  0  0
  1  3  1  0  0  0
  4  1  1  0  0  0
  1  6  2  0  0  0
  2  4  1  0  0  0
  7  2  1  0  0  0
  9  5  4  0  0  0
  5 11  4  0  0  0
  7  8  2  0  0  0
  7  9  1  0  0  0
  9 14  4  0  0  0
 14 10  1  0  0  0
 11 12  4  0  0  0
 12 13  4  0  0  0
 13 14  4  0  0  0
  2 15  1  0  0  0
  3 16  1  0  0  0
  4 17  1  0  0  0
  4 18  1  0  0  0
 10 19  1  0  0  0
 11 20  1  0  0  0
 12 21  1  0  0  0
 13 22  1  0  0  0
M  END
$$$$
