5vdw_ligand
  -I-interpret- 

 27 29  0  0  0  0  0  0  0  0999 V2000
  -30.9620   16.4800  -25.3140 N   0  0  0  0  0
  -30.0040   19.6220  -22.3450 C   0  0  0  0  0
  -30.1770   18.4220  -23.0350 N   0  0  0  0  0
  -30.7530   18.7570  -24.2440 C   0  0  0  0  0
  -30.4720   21.9410  -22.7830 C   0  0  0  0  0
  -28.4750   17.0320  -21.8650 C   0  0  0  0  0
  -29.8320   17.1020  -22.5240 C   0  0  0  0  0
  -29.9580   22.2420  -21.5300 C   0  0  0  0  0
  -29.4720   21.2410  -20.6950 C   0  0  0  0  0
  -29.4880   19.9110  -21.0920 C   0  0  0  0  0
  -30.4930   20.6100  -23.1910 C   0  0  0  0  0
  -30.9590   20.0510  -24.3800 N   0  0  0  0  0
  -28.3200   16.5720  -20.7510 O   0  0  0  0  0
  -27.5010   17.5130  -22.5940 O   0  0  0  0  0
  -31.1430   17.8570  -25.3400 C   0  0  0  0  0
  -31.7120   18.3280  -26.4800 C   0  0  0  0  0
  -32.0500   17.0710  -27.5780 S   0  0  0  0  0
  -31.3950   15.9660  -26.4220 C   0  0  0  0  0
  -30.8510   22.7291  -23.4336 H   0  0  0  0  0
  -29.8129   16.4213  -23.3751 H   0  0  0  0  0
  -30.5724   16.8456  -21.7662 H   0  0  0  0  0
  -29.9346   23.2788  -21.1946 H   0  0  0  0  0
  -29.0731   21.5048  -19.7155 H   0  0  0  0  0
  -29.1085   19.1228  -20.4418 H   0  0  0  0  0
  -27.8523   17.8202  -23.4329 H   0  0  0  0  0
  -31.9257   19.3801  -26.6686 H   0  0  0  0  0
  -31.3486   14.8941  -26.6145 H   0  0  0  0  0
 15  1  4  0  0  0
  1 18  4  0  0  0
  2  3  4  0  0  0
  2 10  4  0  0  0
 11  2  4  0  0  0
  3  4  4  0  0  0
  3  7  1  0  0  0
  4 12  4  0  0  0
  4 15  1  0  0  0
  5  8  4  0  0  0
  5 11  4  0  0  0
  7  6  1  0  0  0
  6 13  2  0  0  0
  6 14  1  0  0  0
  8  9  4  0  0  0
  9 10  4  0  0  0
 11 12  4  0  0  0
 15 16  4  0  0  0
 16 17  4  0  0  0
 17 18  4  0  0  0
  5 19  1  0  0  0
  7 20  1  0  0  0
  7 21  1  0  0  0
  8 22  1  0  0  0
  9 23  1  0  0  0
 10 24  1  0  0  0
 14 25  1  0  0  0
 16 26  1  0  0  0
 18 27  1  0  0  0
M  END
$$$$
