4otf_ligand
  -I-interpret- 

 80 85  0  0  0  0  0  0  0  0999 V2000
  -38.0710   27.6490   -6.9500 C   0  0  0  0  0
  -39.0470   27.7390   -8.1150 C   0  0  0  0  0
  -38.5930   27.9920   -9.4330 C   0  0  0  0  0
  -39.5310   28.0750  -10.4670 C   0  0  0  0  0
  -40.8890   27.8930  -10.2090 C   0  0  0  0  0
  -41.3330   27.6380   -8.9200 C   0  0  0  0  0
  -40.4180   27.5750   -7.8700 C   0  0  0  0  0
  -40.7930   27.2790   -6.5470 N   0  0  0  0  0
  -40.9360   28.2000   -5.5720 C   0  0  0  0  0
  -40.7690   29.3790   -5.8020 O   0  0  0  0  0
  -41.2090   27.8130   -4.1910 C   0  0  0  0  0
  -41.0330   26.5940   -3.5870 C   0  0  0  0  0
  -41.3300   26.6070   -2.2150 C   0  0  0  0  0
  -41.7170   27.8170   -1.7390 C   0  0  0  0  0
  -41.6900   28.9810   -2.9850 S   0  0  0  0  0
  -42.0950   28.1250   -0.2880 C   0  0  0  0  0
  -42.2830   26.8220    0.4980 C   0  0  0  0  0
  -41.1320   25.8550    0.1600 C   0  0  0  0  0
  -41.2620   25.3860   -1.2970 C   0  0  0  0  0
  -37.1590   28.1990   -9.7950 C   0  0  0  0  0
  -36.2940   28.8770   -8.9750 C   0  0  0  0  0
  -34.9860   29.0660   -9.3240 N   0  0  0  0  0
  -34.5280   28.6080  -10.5120 C   0  0  0  0  0
  -33.3630   28.7550  -10.8950 O   0  0  0  0  0
  -35.4660   27.8850  -11.3630 C   0  0  0  0  0
  -36.7140   27.7060  -10.9720 N   0  0  0  0  0
  -34.9550   27.4120  -12.5510 N   0  0  0  0  0
  -35.6630   26.9530  -13.6680 C   0  0  0  0  0
  -37.0420   26.7700  -13.7010 C   0  0  0  0  0
  -37.6400   26.2970  -14.8730 C   0  0  0  0  0
  -36.8630   26.0130  -15.9910 C   0  0  0  0  0
  -35.4930   26.1900  -15.9590 C   0  0  0  0  0
  -34.8960   26.6650  -14.7990 C   0  0  0  0  0
  -37.4780   25.5030  -17.2730 C   0  0  0  0  0
  -38.5420   26.4780  -17.7000 C   0  0  0  0  0
  -38.1800   27.5950  -18.0160 O   0  0  0  0  0
  -39.8490   26.1520  -17.7110 N   0  0  0  0  0
  -40.3040   24.8120  -17.3350 C   0  0  0  0  0
  -39.2260   23.7920  -17.7190 C   0  0  0  0  0
  -37.9810   24.1430  -17.0020 N   0  3  0  0  0
  -36.9140   23.1410  -17.1520 C   0  0  0  0  0
  -40.8610   27.1380  -18.1260 C   0  0  0  0  0
  -34.0870   29.7850   -8.4060 C   0  0  0  0  0
  -37.3625   26.8411   -7.1328 H   0  0  0  0  0
  -37.5324   28.5919   -6.8553 H   0  0  0  0  0
  -38.6218   27.4498   -6.0308 H   0  0  0  0  0
  -39.1975   28.2838  -11.4835 H   0  0  0  0  0
  -41.6074   27.9516  -11.0267 H   0  0  0  0  0
  -42.3953   27.4871   -8.7283 H   0  0  0  0  0
  -40.9685   26.3028   -6.3091 H   0  0  0  0  0
  -40.6962   25.7043   -4.1191 H   0  0  0  0  0
  -43.0283   28.6879   -0.2742 H   0  0  0  0  0
  -41.2972   28.7077    0.1726 H   0  0  0  0  0
  -43.2352   26.3658    0.2271 H   0  0  0  0  0
  -42.2787   27.0360    1.5668 H   0  0  0  0  0
  -41.1786   24.9914    0.8234 H   0  0  0  0  0
  -40.1789   26.3673    0.2913 H   0  0  0  0  0
  -40.3985   24.7763   -1.5631 H   0  0  0  0  0
  -42.1692   24.7925   -1.4104 H   0  0  0  0  0
  -36.6565   29.2730   -8.0264 H   0  0  0  0  0
  -33.9379   27.3939  -12.6262 H   0  0  0  0  0
  -37.6489   26.9928  -12.8234 H   0  0  0  0  0
  -38.7194   26.1503  -14.9106 H   0  0  0  0  0
  -34.8873   25.9591  -16.8353 H   0  0  0  0  0
  -33.8167   26.8148  -14.7707 H   0  0  0  0  0
  -36.7707   25.4329  -18.0994 H   0  0  0  0  0
  -41.2323   24.5794  -17.8569 H   0  0  0  0  0
  -40.4810   24.7723  -16.2602 H   0  0  0  0  0
  -39.0569   23.8130  -18.7956 H   0  0  0  0  0
  -39.5461   22.7871  -17.4439 H   0  0  0  0  0
  -38.2662   24.1384  -16.0227 H   0  0  0  0  0
  -36.5280   23.1729  -18.1709 H   0  0  0  0  0
  -36.1095   23.3610  -16.4502 H   0  0  0  0  0
  -37.3169   22.1494  -16.9456 H   0  0  0  0  0
  -40.8151   28.0039  -17.4655 H   0  0  0  0  0
  -40.6629   27.4506  -19.1513 H   0  0  0  0  0
  -41.8515   26.6868  -18.0673 H   0  0  0  0  0
  -34.4693   30.7921   -8.2397 H   0  0  0  0  0
  -34.0378   29.2523   -7.4563 H   0  0  0  0  0
  -33.0908   29.8410   -8.8447 H   0  0  0  0  0
  1  2  1  0  0  0
  2  3  4  0  0  0
  2  7  4  0  0  0
  3  4  4  0  0  0
  3 20  1  0  0  0
  4  5  4  0  0  0
  5  6  4  0  0  0
  6  7  4  0  0  0
  7  8  1  0  0  0
  8  9  1  0  0  0
  9 10  2  0  0  0
  9 11  1  0  0  0
 11 12  4  0  0  0
 11 15  4  0  0  0
 12 13  4  0  0  0
 13 14  4  0  0  0
 13 19  1  0  0  0
 14 15  4  0  0  0
 14 16  1  0  0  0
 16 17  1  0  0  0
 17 18  1  0  0  0
 18 19  1  0  0  0
 20 21  2  0  0  0
 20 26  1  0  0  0
 21 22  1  0  0  0
 22 23  1  0  0  0
 22 43  1  0  0  0
 23 24  2  0  0  0
 23 25  1  0  0  0
 25 26  2  0  0  0
 25 27  1  0  0  0
 27 28  1  0  0  0
 28 29  4  0  0  0
 28 33  4  0  0  0
 29 30  4  0  0  0
 30 31  4  0  0  0
 31 32  4  0  0  0
 31 34  1  0  0  0
 32 33  4  0  0  0
 34 35  1  0  0  0
 34 40  1  0  0  0
 35 36  2  0  0  0
 35 37  1  0  0  0
 37 38  1  0  0  0
 37 42  1  0  0  0
 38 39  1  0  0  0
 39 40  1  0  0  0
 40 41  1  0  0  0
  1 44  1  0  0  0
  1 45  1  0  0  0
  1 46  1  0  0  0
  4 47  1  0  0  0
  5 48  1  0  0  0
  6 49  1  0  0  0
  8 50  1  0  0  0
 12 51  1  0  0  0
 16 52  1  0  0  0
 16 53  1  0  0  0
 17 54  1  0  0  0
 17 55  1  0  0  0
 18 56  1  0  0  0
 18 57  1  0  0  0
 19 58  1  0  0  0
 19 59  1  0  0  0
 21 60  1  0  0  0
 27 61  1  0  0  0
 29 62  1  0  0  0
 30 63  1  0  0  0
 32 64  1  0  0  0
 33 65  1  0  0  0
 34 66  1  0  0  0
 38 67  1  0  0  0
 38 68  1  0  0  0
 39 69  1  0  0  0
 39 70  1  0  0  0
 40 71  1  0  0  0
 41 72  1  0  0  0
 41 73  1  0  0  0
 41 74  1  0  0  0
 42 75  1  0  0  0
 42 76  1  0  0  0
 42 77  1  0  0  0
 43 78  1  0  0  0
 43 79  1  0  0  0
 43 80  1  0  0  0
M  END
$$$$
