5hpm_ligand
  -I-interpret- 

200200  0  0  0  0  0  0  0  0999 V2000
  -15.1670   33.9130   28.4670 C   0  0  0  0  0
  -14.7030   31.5320   28.0300 C   0  0  0  0  0
  -18.0910   32.1980   29.0090 C   0  0  0  0  0
  -15.6680   32.4940   28.7210 C   0  0  0  0  0
  -17.0260   32.3210   28.1920 N   0  0  0  0  0
  -15.4200   34.4530   27.3680 O   0  0  0  0  0
  -18.0310   32.2800   30.2370 O   0  0  0  0  0
  -19.4270   31.9440   28.3140 C   0  0  0  0  0
  -14.9790   29.7780   28.4680 S   0  0  0  0  0
  -14.4750   34.4970   29.4400 N   0  0  0  0  0
  -13.8520   35.7990   29.2480 C   0  0  0  0  0
  -12.3440   35.7300   29.4570 C   0  0  0  0  0
  -11.8560   35.0030   30.3280 O   0  0  0  0  0
  -14.4540   36.8420   30.1880 C   0  0  0  0  0
  -15.6840   37.5280   29.6290 C   0  0  0  0  0
  -15.8330   38.9500   30.1300 C   0  0  0  0  0
  -16.5100   39.7730   29.5070 O   0  0  0  0  0
  -15.1930   39.2520   31.2580 N   0  0  0  0  0
  -11.6170   36.4890   28.6430 N   0  0  0  0  0
  -10.1670   36.5470   28.7540 C   0  0  0  0  0
   -9.7560   37.2650   30.0340 C   0  0  0  0  0
  -10.3630   38.2670   30.4250 O   0  0  0  0  0
   -9.5860   37.2550   27.5340 C   0  0  0  0  0
   -8.0910   37.3830   27.5560 C   0  0  0  0  0
   -7.2860   36.2870   27.3120 C   0  0  0  0  0
   -7.4900   38.6070   27.7990 C   0  0  0  0  0
   -5.9140   36.4050   27.3210 C   0  0  0  0  0
   -6.1140   38.7290   27.8090 C   0  0  0  0  0
   -5.3270   37.6260   27.5690 C   0  0  0  0  0
   -8.7170   36.7460   30.6870 N   0  0  0  0  0
   -8.2390   37.2660   31.9620 C   0  0  0  0  0
   -6.8900   37.9380   31.7430 C   0  0  0  0  0
   -5.9270   37.2800   31.3360 O   0  0  0  0  0
   -8.1350   36.1440   32.9960 C   0  0  0  0  0
   -7.7320   36.6410   34.3690 C   0  0  0  0  0
   -7.7360   37.8680   34.5860 O   0  0  0  0  0
   -7.4260   35.7980   35.2380 O   0  0  0  0  0
   -6.8200   39.2430   32.0310 N   0  0  0  0  0
   -5.5860   39.9940   31.8090 C   0  0  0  0  0
   -4.4750   39.5530   32.7530 C   0  0  0  0  0
   -3.2890   39.7010   32.4300 O   0  0  0  0  0
   -5.8450   41.4900   31.9750 C   0  0  0  0  0
   -6.8440   42.1080   31.0020 C   0  0  0  0  0
   -7.2050   43.5130   31.4460 C   0  0  0  0  0
   -6.2660   42.1320   29.6050 C   0  0  0  0  0
   -4.8330   38.9960   33.9110 N   0  0  0  0  0
   -3.8200   38.5960   34.8830 C   0  0  0  0  0
   -3.0920   37.3210   34.4630 C   0  0  0  0  0
   -1.8610   37.2380   34.5680 O   0  0  0  0  0
   -4.4620   38.4090   36.2580 C   0  0  0  0  0
   -5.0360   39.6180   36.7230 O   0  0  0  0  0
   -3.8280   36.3220   33.9770 N   0  0  0  0  0
   -3.2500   35.0350   33.6070 C   0  0  0  0  0
   -3.0880   34.8470   32.1040 C   0  0  0  0  0
   -2.4900   33.8490   31.6840 O   0  0  0  0  0
   -4.1130   33.8920   34.1520 C   0  0  0  0  0
   -5.3970   33.9270   33.5160 O   0  0  0  0  0
   -4.2930   34.0370   35.6580 C   0  0  0  0  0
   -3.6060   35.7670   31.2930 N   0  0  0  0  0
   -3.6310   35.6250   29.8360 C   0  0  0  0  0
   -4.3290   34.3390   29.4000 C   0  0  0  0  0
   -4.0550   33.8060   28.3230 O   0  0  0  0  0
   -2.2230   35.7000   29.2370 C   0  0  0  0  0
   -1.5010   37.0100   29.5220 C   0  0  0  0  0
   -0.3180   37.2280   28.5850 C   0  0  0  0  0
    0.4000   38.4600   28.9030 N   0  0  0  0  0
    1.3910   38.9610   28.1710 C   0  0  0  0  0
    1.7820   38.3350   27.0700 N   0  0  0  0  0
    1.9870   40.0920   28.5370 N   0  0  0  0  0
   -5.2400   33.8370   30.2260 N   0  0  0  0  0
   -5.9960   32.6340   29.9290 C   0  0  0  0  0
   -7.4820   32.9510   29.9580 C   0  0  0  0  0
   -7.9160   33.9580   30.5270 O   0  0  0  0  0
   -5.6850   31.5150   30.9300 C   0  0  0  0  0
   -4.2710   30.9780   30.8480 C   0  0  0  0  0
   -4.0410   30.2280   29.5490 C   0  0  0  0  0
   -5.0670   29.2180   29.3340 N   0  0  0  0  0
   -5.0900   28.0410   29.9450 C   0  0  0  0  0
   -4.1400   27.7230   30.8170 N   0  0  0  0  0
   -6.0660   27.1840   29.6850 N   0  0  0  0  0
   -8.2630   32.0790   29.3320 N   0  0  0  0  0
   -9.7100   32.2310   29.3290 C   0  0  0  0  0
  -10.2770   31.7580   30.6590 C   0  0  0  0  0
   -9.8900   30.7070   31.1740 O   0  0  0  0  0
  -10.3360   31.4520   28.1730 C   0  0  0  0  0
  -10.1610   32.0680   26.7830 C   0  0  0  0  0
  -10.5810   31.0870   25.7010 C   0  0  0  0  0
  -10.9650   33.3440   26.6830 C   0  0  0  0  0
  -11.1820   32.5420   31.2190 N   0  0  0  0  0
  -11.8220   32.2060   32.4820 C   0  0  0  0  0
  -13.3040   31.9830   32.2640 C   0  0  0  0  0
  -14.0040   32.8580   31.7570 O   0  0  0  0  0
  -11.5940   33.3170   33.5140 C   0  0  0  0  0
  -11.4880   32.8210   34.9440 C   0  0  0  0  0
  -11.3330   33.9860   35.9150 C   0  0  0  0  0
  -10.5830   33.5480   37.1680 C   0  0  0  0  0
   -9.1630   33.2050   36.8590 N   0  3  0  0  0
  -13.8350   30.9230   32.5900 O   0  0  0  0  0
  -13.6947   31.7942   28.3505 H   0  0  0  0  0
  -14.8583   31.6289   26.9555 H   0  0  0  0  0
  -15.7059   32.2947   29.7919 H   0  0  0  0  0
  -17.1672   32.2932   27.1822 H   0  0  0  0  0
  -19.8394   30.9954   28.6578 H   0  0  0  0  0
  -20.1193   32.7509   28.5542 H   0  0  0  0  0
  -19.2725   31.9050   27.2357 H   0  0  0  0  0
  -14.0983   29.0178   27.8234 H   0  0  0  0  0
  -14.3785   34.0240   30.3385 H   0  0  0  0  0
  -14.0472   36.0980   28.2181 H   0  0  0  0  0
  -13.6977   37.6100   30.3499 H   0  0  0  0  0
  -14.7550   36.3246   31.0989 H   0  0  0  0  0
  -16.5594   36.9643   29.9515 H   0  0  0  0  0
  -15.5862   37.5621   28.5439 H   0  0  0  0  0
  -15.2511   40.1958   31.6403 H   0  0  0  0  0
  -14.6446   38.5395   31.7397 H   0  0  0  0  0
  -12.0853   37.0424   27.9255 H   0  0  0  0  0
   -9.7746   35.5309   28.7950 H   0  0  0  0  0
   -9.9965   38.2647   27.5205 H   0  0  0  0  0
   -9.8463   36.6582   26.6598 H   0  0  0  0  0
   -7.7421   35.3178   27.1101 H   0  0  0  0  0
   -8.1099   39.4841   27.9845 H   0  0  0  0  0
   -5.2915   35.5305   27.1315 H   0  0  0  0  0
   -5.6528   39.6967   28.0065 H   0  0  0  0  0
   -4.2409   37.7185   27.5752 H   0  0  0  0  0
   -8.2336   35.9476   30.2755 H   0  0  0  0  0
   -8.9462   37.9996   32.3490 H   0  0  0  0  0
   -7.3676   35.4486   32.6558 H   0  0  0  0  0
   -9.1182   35.6820   33.0852 H   0  0  0  0  0
   -7.4884   34.9165   34.8630 H   0  0  0  0  0
   -7.6382   39.7196   32.4102 H   0  0  0  0  0
   -5.2567   39.7902   30.7901 H   0  0  0  0  0
   -4.8925   41.9875   31.7927 H   0  0  0  0  0
   -6.2685   41.6185   32.9711 H   0  0  0  0  0
   -7.7488   41.5002   30.9945 H   0  0  0  0  0
   -7.6502   43.4754   32.4402 H   0  0  0  0  0
   -6.3047   44.1269   31.4726 H   0  0  0  0  0
   -7.9186   43.9427   30.7430 H   0  0  0  0  0
   -5.3510   42.7243   29.6019 H   0  0  0  0  0
   -6.0421   41.1134   29.2883 H   0  0  0  0  0
   -6.9898   42.5756   28.9213 H   0  0  0  0  0
   -5.8207   38.8487   34.1186 H   0  0  0  0  0
   -3.0774   39.3924   34.9315 H   0  0  0  0  0
   -3.6915   38.0957   36.9625 H   0  0  0  0  0
   -5.2486   37.6589   36.1760 H   0  0  0  0  0
   -5.4309   39.4723   37.5858 H   0  0  0  0  0
   -4.8314   36.4624   33.8596 H   0  0  0  0  0
   -2.2532   35.0197   34.0478 H   0  0  0  0  0
   -3.6187   32.9429   33.9447 H   0  0  0  0  0
   -5.9405   33.2120   33.8552 H   0  0  0  0  0
   -3.3175   34.0098   36.1435 H   0  0  0  0  0
   -4.7816   34.9870   35.8744 H   0  0  0  0  0
   -4.9082   33.2176   36.0297 H   0  0  0  0  0
   -4.0041   36.6104   31.7061 H   0  0  0  0  0
   -4.2090   36.4653   29.4516 H   0  0  0  0  0
   -2.3257   35.6149   28.1552 H   0  0  0  0  0
   -1.6353   34.9008   29.6886 H   0  0  0  0  0
   -1.1235   36.9750   30.5440 H   0  0  0  0  0
   -2.2073   37.8269   29.3739 H   0  0  0  0  0
   -0.6956   37.3029   27.5652 H   0  0  0  0  0
    0.3696   36.3898   28.6977 H   0  0  0  0  0
    0.1229   38.9697   29.7420 H   0  0  0  0  0
    1.3230   37.4699   26.7849 H   0  0  0  0  0
    2.7435   40.4762   27.9709 H   0  0  0  0  0
    1.6877   40.5753   29.3839 H   0  0  0  0  0
   -5.4161   34.3181   31.1080 H   0  0  0  0  0
   -5.7084   32.2859   28.9369 H   0  0  0  0  0
   -6.3557   30.6865   30.7024 H   0  0  0  0  0
   -5.8107   31.9344   31.9282 H   0  0  0  0  0
   -4.1121   30.2904   31.6787 H   0  0  0  0  0
   -3.5776   31.8179   30.8914 H   0  0  0  0  0
   -3.0714   29.7327   29.6008 H   0  0  0  0  0
   -4.0771   30.9408   28.7252 H   0  0  0  0  0
   -5.8144   29.4284   28.6726 H   0  0  0  0  0
   -4.1615   26.8181   31.2872 H   0  0  0  0  0
   -3.3889   28.3837   31.0165 H   0  0  0  0  0
   -6.7964   27.4302   29.0169 H   0  0  0  0  0
   -7.8413   31.2885   28.8445 H   0  0  0  0  0
   -9.9517   33.2851   29.1924 H   0  0  0  0  0
  -11.4086   31.4250   28.3650 H   0  0  0  0  0
   -9.8346   30.4846   28.1464 H   0  0  0  0  0
   -9.1066   32.3009   26.6343 H   0  0  0  0  0
   -9.9665   30.1892   25.7680 H   0  0  0  0  0
  -11.6293   30.8225   25.8393 H   0  0  0  0  0
  -10.4473   31.5482   24.7225 H   0  0  0  0  0
  -12.0191   33.1217   26.8491 H   0  0  0  0  0
  -10.6181   34.0505   27.4371 H   0  0  0  0  0
  -10.8355   33.7767   25.6910 H   0  0  0  0  0
  -11.4401   33.4106   30.7507 H   0  0  0  0  0
  -11.3787   31.2877   32.8670 H   0  0  0  0  0
  -13.4610   33.6235   31.5549 H   0  0  0  0  0
  -12.4553   33.9833   33.4665 H   0  0  0  0  0
  -10.6467   33.7968   33.2678 H   0  0  0  0  0
  -10.6125   32.1770   35.0272 H   0  0  0  0  0
  -12.3981   32.2757   35.1938 H   0  0  0  0  0
  -12.3234   34.3387   36.2027 H   0  0  0  0  0
  -10.7680   34.7794   35.4257 H   0  0  0  0  0
  -11.0731   32.6630   37.5739 H   0  0  0  0  0
  -10.5933   34.3702   37.8835 H   0  0  0  0  0
   -8.6900   32.9167   37.7155 H   0  0  0  0  0
   -9.1382   32.4422   36.1823 H   0  0  0  0  0
   -8.6942   34.0226   36.4689 H   0  0  0  0  0
  4  1  1  0  0  0
  1  6  2  0  0  0
  1 10  1  0  0  0
  4  2  1  0  0  0
  2  9  1  0  0  0
  5  3  1  0  0  0
  3  7  2  0  0  0
  3  8  1  0  0  0
  4  5  1  0  0  0
 10 11  1  0  0  0
 11 12  1  0  0  0
 11 14  1  0  0  0
 12 13  2  0  0  0
 12 19  1  0  0  0
 14 15  1  0  0  0
 15 16  1  0  0  0
 16 17  2  0  0  0
 16 18  1  0  0  0
 19 20  1  0  0  0
 20 21  1  0  0  0
 20 23  1  0  0  0
 21 22  2  0  0  0
 21 30  1  0  0  0
 23 24  1  0  0  0
 24 25  4  0  0  0
 24 26  4  0  0  0
 25 27  4  0  0  0
 26 28  4  0  0  0
 27 29  4  0  0  0
 28 29  4  0  0  0
 30 31  1  0  0  0
 31 32  1  0  0  0
 31 34  1  0  0  0
 32 33  2  0  0  0
 32 38  1  0  0  0
 34 35  1  0  0  0
 35 36  2  0  0  0
 35 37  1  0  0  0
 38 39  1  0  0  0
 39 40  1  0  0  0
 39 42  1  0  0  0
 40 41  2  0  0  0
 40 46  1  0  0  0
 42 43  1  0  0  0
 43 44  1  0  0  0
 43 45  1  0  0  0
 46 47  1  0  0  0
 47 48  1  0  0  0
 47 50  1  0  0  0
 48 49  2  0  0  0
 48 52  1  0  0  0
 50 51  1  0  0  0
 52 53  1  0  0  0
 53 54  1  0  0  0
 53 56  1  0  0  0
 54 55  2  0  0  0
 54 59  1  0  0  0
 56 57  1  0  0  0
 56 58  1  0  0  0
 59 60  1  0  0  0
 60 61  1  0  0  0
 60 63  1  0  0  0
 61 62  2  0  0  0
 61 70  1  0  0  0
 63 64  1  0  0  0
 64 65  1  0  0  0
 65 66  1  0  0  0
 66 67  1  0  0  0
 67 68  2  0  0  0
 67 69  1  0  0  0
 70 71  1  0  0  0
 71 72  1  0  0  0
 71 74  1  0  0  0
 72 73  2  0  0  0
 72 81  1  0  0  0
 74 75  1  0  0  0
 75 76  1  0  0  0
 76 77  1  0  0  0
 77 78  1  0  0  0
 78 79  1  0  0  0
 78 80  2  0  0  0
 81 82  1  0  0  0
 82 83  1  0  0  0
 82 85  1  0  0  0
 83 84  2  0  0  0
 83 89  1  0  0  0
 85 86  1  0  0  0
 86 87  1  0  0  0
 86 88  1  0  0  0
 89 90  1  0  0  0
 90 91  1  0  0  0
 90 93  1  0  0  0
 91 92  1  0  0  0
 91 98  2  0  0  0
 93 94  1  0  0  0
 94 95  1  0  0  0
 95 96  1  0  0  0
 96 97  1  0  0  0
  2 99  1  0  0  0
  2100  1  0  0  0
  4101  1  0  0  0
  5102  1  0  0  0
  8103  1  0  0  0
  8104  1  0  0  0
  8105  1  0  0  0
  9106  1  0  0  0
 10107  1  0  0  0
 11108  1  0  0  0
 14109  1  0  0  0
 14110  1  0  0  0
 15111  1  0  0  0
 15112  1  0  0  0
 18113  1  0  0  0
 18114  1  0  0  0
 19115  1  0  0  0
 20116  1  0  0  0
 23117  1  0  0  0
 23118  1  0  0  0
 25119  1  0  0  0
 26120  1  0  0  0
 27121  1  0  0  0
 28122  1  0  0  0
 29123  1  0  0  0
 30124  1  0  0  0
 31125  1  0  0  0
 34126  1  0  0  0
 34127  1  0  0  0
 37128  1  0  0  0
 38129  1  0  0  0
 39130  1  0  0  0
 42131  1  0  0  0
 42132  1  0  0  0
 43133  1  0  0  0
 44134  1  0  0  0
 44135  1  0  0  0
 44136  1  0  0  0
 45137  1  0  0  0
 45138  1  0  0  0
 45139  1  0  0  0
 46140  1  0  0  0
 47141  1  0  0  0
 50142  1  0  0  0
 50143  1  0  0  0
 51144  1  0  0  0
 52145  1  0  0  0
 53146  1  0  0  0
 56147  1  0  0  0
 57148  1  0  0  0
 58149  1  0  0  0
 58150  1  0  0  0
 58151  1  0  0  0
 59152  1  0  0  0
 60153  1  0  0  0
 63154  1  0  0  0
 63155  1  0  0  0
 64156  1  0  0  0
 64157  1  0  0  0
 65158  1  0  0  0
 65159  1  0  0  0
 66160  1  0  0  0
 68161  1  0  0  0
 69162  1  0  0  0
 69163  1  0  0  0
 70164  1  0  0  0
 71165  1  0  0  0
 74166  1  0  0  0
 74167  1  0  0  0
 75168  1  0  0  0
 75169  1  0  0  0
 76170  1  0  0  0
 76171  1  0  0  0
 77172  1  0  0  0
 79173  1  0  0  0
 79174  1  0  0  0
 80175  1  0  0  0
 81176  1  0  0  0
 82177  1  0  0  0
 85178  1  0  0  0
 85179  1  0  0  0
 86180  1  0  0  0
 87181  1  0  0  0
 87182  1  0  0  0
 87183  1  0  0  0
 88184  1  0  0  0
 88185  1  0  0  0
 88186  1  0  0  0
 89187  1  0  0  0
 90188  1  0  0  0
 92189  1  0  0  0
 93190  1  0  0  0
 93191  1  0  0  0
 94192  1  0  0  0
 94193  1  0  0  0
 95194  1  0  0  0
 95195  1  0  0  0
 96196  1  0  0  0
 96197  1  0  0  0
 97198  1  0  0  0
 97199  1  0  0  0
 97200  1  0  0  0
M  END
$$$$
