### 
### Created by X-TOOL on Mon Sep 10 21:13:28 2018
### 

@<TRIPOS>MOLECULE
5hpm_ligand
  200   200     1     0     0
SMALL
GAST_HUCK


@<TRIPOS>ATOM
      1 C         -15.1670   33.9130   28.4670 C.2       1 SC2         0.2047
      2 CB        -14.7030   31.5320   28.0300 C.3       1 SC2         0.0311
      3 CT        -18.0910   32.1980   29.0090 C.2       1 SC2         0.1751
      4 CA        -15.6680   32.4940   28.7210 C.3       1 SC2         0.1395
      5 N         -17.0260   32.3210   28.1920 N.am      1 SC2        -0.2650
      6 O         -15.4200   34.4530   27.3680 O.2       1 SC2        -0.3944
      7 OT        -18.0310   32.2800   30.2370 O.2       1 SC2        -0.3972
      8 CM        -19.4270   31.9440   28.3140 C.3       1 SC2         0.0258
      9 SG        -14.9790   29.7780   28.4680 S.3       1 SC2        -0.1735
     10 N         -14.4750   34.4970   29.4400 N.am      1 GLN        -0.2636
     11 CA        -13.8520   35.7990   29.2480 C.3       1 GLN         0.1330
     12 C         -12.3440   35.7300   29.4570 C.2       1 GLN         0.2042
     13 O         -11.8560   35.0030   30.3280 O.2       1 GLN        -0.3944
     14 CB        -14.4540   36.8420   30.1880 C.3       1 GLN         0.0045
     15 CG        -15.6840   37.5280   29.6290 C.3       1 GLN         0.0412
     16 CD        -15.8330   38.9500   30.1300 C.2       1 GLN         0.1737
     17 OE1       -16.5100   39.7730   29.5070 O.2       1 GLN        -0.3973
     18 NE2       -15.1930   39.2520   31.2580 N.am      1 GLN        -0.3009
     19 N         -11.6170   36.4890   28.6430 N.am      1 PHE        -0.2619
     20 CA        -10.1670   36.5470   28.7540 C.3       1 PHE         0.1404
     21 C          -9.7560   37.2650   30.0340 C.2       1 PHE         0.2060
     22 O         -10.3630   38.2670   30.4250 O.2       1 PHE        -0.3942
     23 CB         -9.5860   37.2550   27.5340 C.3       1 PHE         0.0214
     24 CG         -8.0910   37.3830   27.5560 C.ar      1 PHE        -0.0386
     25 CD1        -7.2860   36.2870   27.3120 C.ar      1 PHE        -0.0601
     26 CD2        -7.4900   38.6070   27.7990 C.ar      1 PHE        -0.0601
     27 CE1        -5.9140   36.4050   27.3210 C.ar      1 PHE        -0.0686
     28 CE2        -6.1140   38.7290   27.8090 C.ar      1 PHE        -0.0686
     29 CZ         -5.3270   37.6260   27.5690 C.ar      1 PHE        -0.0687
     30 N          -8.7170   36.7460   30.6870 N.am      1 ASP        -0.2620
     31 CA         -8.2390   37.2660   31.9620 C.3       1 ASP         0.1423
     32 C          -6.8900   37.9380   31.7430 C.2       1 ASP         0.2056
     33 O          -5.9270   37.2800   31.3360 O.2       1 ASP        -0.3943
     34 CB         -8.1350   36.1440   32.9960 C.3       1 ASP         0.0406
     35 CG         -7.7320   36.6410   34.3690 C.2       1 ASP         0.0393
     36 OD1        -7.7360   37.8680   34.5860 O.co2     1 ASP        -0.5688
     37 OD2        -7.4260   35.7980   35.2380 O.co2     1 ASP        -0.5688
     38 N          -6.8200   39.2430   32.0310 N.am      1 LEU        -0.2636
     39 CA         -5.5860   39.9940   31.8090 C.3       1 LEU         0.1312
     40 C          -4.4750   39.5530   32.7530 C.2       1 LEU         0.2040
     41 O          -3.2890   39.7010   32.4300 O.2       1 LEU        -0.3944
     42 CB         -5.8450   41.4900   31.9750 C.3       1 LEU        -0.0101
     43 CG         -6.8440   42.1080   31.0020 C.3       1 LEU        -0.0425
     44 CD1        -7.2050   43.5130   31.4460 C.3       1 LEU        -0.0625
     45 CD2        -6.2660   42.1320   29.6050 C.3       1 LEU        -0.0625
     46 N          -4.8330   38.9960   33.9110 N.am      1 SER        -0.2616
     47 CA         -3.8200   38.5960   34.8830 C.3       1 SER         0.1539
     48 C          -3.0920   37.3210   34.4630 C.2       1 SER         0.2063
     49 O          -1.8610   37.2380   34.5680 O.2       1 SER        -0.3943
     50 CB         -4.4620   38.4090   36.2580 C.3       1 SER         0.0843
     51 OG         -5.0360   39.6180   36.7230 O.3       1 SER        -0.3903
     52 N          -3.8280   36.3220   33.9770 N.am      1 THR        -0.2613
     53 CA         -3.2500   35.0350   33.6070 C.3       1 THR         0.1565
     54 C          -3.0880   34.8470   32.1040 C.2       1 THR         0.2065
     55 O          -2.4900   33.8490   31.6840 O.2       1 THR        -0.3943
     56 CB         -4.1130   33.8920   34.1520 C.3       1 THR         0.0924
     57 OG1        -5.3970   33.9270   33.5160 O.3       1 THR        -0.3874
     58 CG2        -4.2930   34.0370   35.6580 C.3       1 THR        -0.0346
     59 N          -3.6060   35.7670   31.2930 N.am      1 ARG        -0.2636
     60 CA         -3.6310   35.6250   29.8360 C.3       1 ARG         0.1311
     61 C          -4.3290   34.3390   29.4000 C.2       1 ARG         0.2039
     62 O          -4.0550   33.8060   28.3230 O.2       1 ARG        -0.3944
     63 CB         -2.2230   35.7000   29.2370 C.3       1 ARG        -0.0092
     64 CG         -1.5010   37.0100   29.5220 C.3       1 ARG        -0.0156
     65 CD         -0.3180   37.2280   28.5850 C.3       1 ARG         0.0627
     66 NE          0.4000   38.4600   28.9030 N.pl3     1 ARG        -0.2723
     67 CZ          1.3910   38.9610   28.1710 C.cat     1 ARG         0.2882
     68 NH1         1.7820   38.3350   27.0700 N.pl3     1 ARG        -0.2849
     69 NH2         1.9870   40.0920   28.5370 N.pl3     1 ARG        -0.2849
     70 N          -5.2400   33.8370   30.2260 N.am      1 ARG        -0.2637
     71 CA         -5.9960   32.6340   29.9290 C.3       1 ARG         0.1311
     72 C          -7.4820   32.9510   29.9580 C.2       1 ARG         0.2039
     73 O          -7.9160   33.9580   30.5270 O.2       1 ARG        -0.3944
     74 CB         -5.6850   31.5150   30.9300 C.3       1 ARG        -0.0092
     75 CG         -4.2710   30.9780   30.8480 C.3       1 ARG        -0.0156
     76 CD         -4.0410   30.2280   29.5490 C.3       1 ARG         0.0627
     77 NE         -5.0670   29.2180   29.3340 N.pl3     1 ARG        -0.2723
     78 CZ         -5.0900   28.0410   29.9450 C.cat     1 ARG         0.2882
     79 NH1        -4.1400   27.7230   30.8170 N.pl3     1 ARG        -0.2849
     80 NH2        -6.0660   27.1840   29.6850 N.pl3     1 ARG        -0.2849
     81 N          -8.2630   32.0790   29.3320 N.am      1 LEU        -0.2637
     82 CA         -9.7100   32.2310   29.3290 C.3       1 LEU         0.1312
     83 C         -10.2770   31.7580   30.6590 C.2       1 LEU         0.2033
     84 O          -9.8900   30.7070   31.1740 O.2       1 LEU        -0.3944
     85 CB        -10.3360   31.4520   28.1730 C.3       1 LEU        -0.0101
     86 CG        -10.1610   32.0680   26.7830 C.3       1 LEU        -0.0425
     87 CD1       -10.5810   31.0870   25.7010 C.3       1 LEU        -0.0625
     88 CD2       -10.9650   33.3440   26.6830 C.3       1 LEU        -0.0625
     89 N         -11.1820   32.5420   31.2190 N.am      1 LYS        -0.2695
     90 CA        -11.8220   32.2060   32.4820 C.3       1 LYS         0.0944
     91 C         -13.3040   31.9830   32.2640 C.2       1 LYS         0.0601
     92 O         -14.0040   32.8580   31.7570 O.co2     1 LYS        -0.5666
     93 CB        -11.5940   33.3170   33.5140 C.3       1 LYS        -0.0177
     94 CG        -11.4880   32.8210   34.9440 C.3       1 LYS        -0.0446
     95 CD        -11.3330   33.9860   35.9150 C.3       1 LYS        -0.0125
     96 CE        -10.5830   33.5480   37.1680 C.3       1 LYS        -0.0354
     97 NZ         -9.1630   33.2050   36.8590 N.4       1 LYS         0.2185
     98 OXT       -13.8350   30.9230   32.5900 O.co2     1 LYS        -0.5666
     99 H1        -13.6763   31.8043   28.3157 H         1 SC2         0.0422
    100 H2        -14.8222   31.6416   26.9420 H         1 SC2         0.0422
    101 H3        -15.6768   32.2949   29.8028 H         1 SC2         0.0808
    102 H4        -17.1645   32.2937   27.2020 H         1 SC2         0.1883
    103 H5        -20.2229   31.8604   29.0687 H         1 SC2         0.0467
    104 H6        -19.3686   31.0089   27.7377 H         1 SC2         0.0467
    105 H7        -19.6519   32.7797   27.6351 H         1 SC2         0.0467
    106 H8        -14.3115   29.2019   27.9795 H         1 SC2         0.1019
    107 H9        -14.3804   34.0333   30.3209 H         1 GLN         0.1883
    108 H10       -14.0422   36.1167   28.2122 H         1 GLN         0.0801
    109 H11       -13.6912   37.6081   30.3909 H         1 GLN         0.0337
    110 H12       -14.7318   36.3431   31.1281 H         1 GLN         0.0337
    111 H13       -16.5740   36.9541   29.9266 H         1 GLN         0.0504
    112 H14       -15.6096   37.5466   28.5317 H         1 GLN         0.0504
    113 H15       -15.2551   40.1756   31.6362 H         1 GLN         0.1814
    114 H16       -14.6503   38.5551   31.7269 H         1 GLN         0.1814
    115 H17       -12.0761   37.0316   27.9395 H         1 PHE         0.1885
    116 H18        -9.7740   35.5201   28.7869 H         1 PHE         0.0823
    117 H19       -10.0187   38.2650   27.4817 H         1 PHE         0.0474
    118 H20        -9.8711   36.6870   26.6362 H         1 PHE         0.0474
    119 H21        -7.7396   35.3232   27.1112 H         1 PHE         0.0557
    120 H22        -8.1065   39.4793   27.9835 H         1 PHE         0.0557
    121 H23        -5.2949   35.5354   27.1326 H         1 PHE         0.0599
    122 H24        -5.6553   39.6913   28.0054 H         1 PHE         0.0599
    123 H25        -4.2469   37.7179   27.5751 H         1 PHE         0.0559
    124 H26        -8.2431   35.9633   30.2836 H         1 ASP         0.1884
    125 H27        -8.9534   38.0160   32.3322 H         1 ASP         0.0819
    126 H28        -7.3838   35.4181   32.6514 H         1 ASP         0.0478
    127 H29        -9.1140   35.6488   33.0758 H         1 ASP         0.0478
    128 H30        -7.6222   39.7102   32.4028 H         1 LEU         0.1883
    129 H31        -5.2533   39.8090   30.7770 H         1 LEU         0.0800
    130 H32        -4.8857   42.0135   31.8500 H         1 LEU         0.0315
    131 H33        -6.2226   41.6550   32.9949 H         1 LEU         0.0315
    132 H34        -7.7569   41.4943   30.9956 H         1 LEU         0.0298
    133 H35        -7.9252   43.9478   30.7373 H         1 LEU         0.0232
    134 H36        -6.2972   44.1336   31.4732 H         1 LEU         0.0232
    135 H37        -7.6544   43.4764   32.4493 H         1 LEU         0.0232
    136 H38        -6.0093   41.1077   29.2968 H         1 LEU         0.0232
    137 H39        -5.3603   42.7562   29.5935 H         1 LEU         0.0232
    138 H40        -7.0079   42.5494   28.9083 H         1 LEU         0.0232
    139 H41        -5.8014   38.8516   34.1145 H         1 SER         0.1884
    140 H42        -3.0771   39.4041   34.9532 H         1 SER         0.0823
    141 H43        -3.6926   38.0792   36.9716 H         1 SER         0.0606
    142 H44        -5.2480   37.6428   36.1860 H         1 SER         0.0606
    143 H45        -4.3604   40.2825   36.7908 H         1 SER         0.2097
    144 H46        -4.8118   36.4597   33.8619 H         1 THR         0.1884
    145 H47        -2.2524   34.9728   34.0662 H         1 THR         0.0826
    146 H48        -3.6225   32.9314   33.9360 H         1 THR         0.0639
    147 H49        -5.8169   34.7594   33.6984 H         1 THR         0.2101
    148 H50        -4.9137   33.2105   36.0343 H         1 THR         0.0257
    149 H51        -4.7861   34.9954   35.8778 H         1 THR         0.0257
    150 H52        -3.3092   34.0097   36.1492 H         1 THR         0.0257
    151 H53        -3.9963   36.5938   31.6980 H         1 ARG         0.1883
    152 H54        -4.2096   36.4697   29.4340 H         1 ARG         0.0800
    153 H55        -2.3034   35.5788   28.1467 H         1 ARG         0.0313
    154 H56        -1.6246   34.8767   29.6543 H         1 ARG         0.0313
    155 H57        -1.1341   36.9946   30.5589 H         1 ARG         0.0301
    156 H58        -2.2108   37.8409   29.3964 H         1 ARG         0.0301
    157 H59        -0.6879   37.2873   27.5508 H         1 ARG         0.0689
    158 H60         0.3733   36.3776   28.6790 H         1 ARG         0.0689
    159 H61         0.1202   38.9747   29.7502 H         1 ARG         0.2642
    160 H62         2.5494   38.7221   26.5024 H         1 ARG         0.2615
    161 H63         1.3185   37.4614   26.7821 H         1 ARG         0.2615
    162 H64         1.6847   40.5801   29.3922 H         1 ARG         0.2615
    163 H65         2.7509   40.4800   27.9653 H         1 ARG         0.2615
    164 H66        -5.4127   34.3087   31.0907 H         1 ARG         0.1883
    165 H67        -5.7238   32.2877   28.9210 H         1 ARG         0.0800
    166 H68        -6.3803   30.6833   30.7434 H         1 ARG         0.0313
    167 H69        -5.8459   31.9068   31.9452 H         1 ARG         0.0313
    168 H70        -4.0977   30.2943   31.6921 H         1 ARG         0.0301
    169 H71        -3.5643   31.8189   30.9062 H         1 ARG         0.0301
    170 H72        -3.0573   29.7372   29.5876 H         1 ARG         0.0689
    171 H73        -4.0614   30.9432   28.7135 H         1 ARG         0.0689
    172 H74        -5.8218   29.4305   28.6661 H         1 ARG         0.2642
    173 H75        -4.1604   26.8083   31.2900 H         1 ARG         0.2615
    174 H76        -3.3829   28.3911   31.0202 H         1 ARG         0.2615
    175 H77        -6.8022   27.4317   29.0086 H         1 ARG         0.2615
    176 H78        -6.0887   26.2700   30.1593 H         1 ARG         0.2615
    177 H79        -7.8495   31.3040   28.8541 H         1 LEU         0.1883
    178 H80        -9.9511   33.2967   29.2019 H         1 LEU         0.0800
    179 H81       -11.4147   31.3644   28.3699 H         1 LEU         0.0315
    180 H82        -9.8835   30.4495   28.1573 H         1 LEU         0.0315
    181 H83        -9.0978   32.3106   26.6387 H         1 LEU         0.0298
    182 H84       -10.4465   31.5513   24.7129 H         1 LEU         0.0232
    183 H85       -11.6389   30.8192   25.8394 H         1 LEU         0.0232
    184 H86        -9.9616   30.1804   25.7674 H         1 LEU         0.0232
    185 H87       -10.6473   34.0404   27.4730 H         1 LEU         0.0232
    186 H88       -12.0339   33.1144   26.8048 H         1 LEU         0.0232
    187 H89       -10.7990   33.8058   25.6986 H         1 LEU         0.0232
    188 H90       -11.4350   33.3936   30.7599 H         1 LYS         0.1875
    189 H91       -11.3779   31.2756   32.8654 H         1 LYS         0.0726
    190 H92       -12.4361   34.0222   33.4544 H         1 LYS         0.0305
    191 H93       -10.6599   33.8390   33.2592 H         1 LYS         0.0305
    192 H94       -10.6129   32.1604   35.0319 H         1 LYS         0.0269
    193 H95       -12.3987   32.2591   35.1985 H         1 LYS         0.0269
    194 H96       -12.3299   34.3528   36.2008 H         1 LYS         0.0317
    195 H97       -10.7722   34.7941   35.4227 H         1 LYS         0.0317
    196 H98       -11.0808   32.6638   37.5927 H         1 LYS         0.0813
    197 H99       -10.6020   34.3673   37.9017 H         1 LYS         0.0813
    198 H100       -8.6945   32.9200   37.7048 H         1 LYS         0.1994
    199 H101       -8.6986   34.0123   36.4734 H         1 LYS         0.1994
    200 H102       -9.1373   32.4512   36.1903 H         1 LYS         0.1994
@<TRIPOS>BOND
     1    4    1 1  
     2    1    6 2  
     3    1   10 am 
     4    4    2 1  
     5    2    9 1  
     6    5    3 am 
     7    3    7 2  
     8    3    8 1  
     9    4    5 1  
    10   10   11 1  
    11   11   12 1  
    12   11   14 1  
    13   12   13 2  
    14   12   19 am 
    15   14   15 1  
    16   15   16 1  
    17   16   17 2  
    18   16   18 am 
    19   19   20 1  
    20   20   21 1  
    21   20   23 1  
    22   21   22 2  
    23   21   30 am 
    24   23   24 1  
    25   24   25 ar 
    26   24   26 ar 
    27   25   27 ar 
    28   26   28 ar 
    29   27   29 ar 
    30   28   29 ar 
    31   30   31 1  
    32   31   32 1  
    33   31   34 1  
    34   32   33 2  
    35   32   38 am 
    36   34   35 1  
    37   35   36 ar 
    38   35   37 ar 
    39   38   39 1  
    40   39   40 1  
    41   39   42 1  
    42   40   41 2  
    43   40   46 am 
    44   42   43 1  
    45   43   44 1  
    46   43   45 1  
    47   46   47 1  
    48   47   48 1  
    49   47   50 1  
    50   48   49 2  
    51   48   52 am 
    52   50   51 1  
    53   52   53 1  
    54   53   54 1  
    55   53   56 1  
    56   54   55 2  
    57   54   59 am 
    58   56   57 1  
    59   56   58 1  
    60   59   60 1  
    61   60   61 1  
    62   60   63 1  
    63   61   62 2  
    64   61   70 am 
    65   63   64 1  
    66   64   65 1  
    67   65   66 1  
    68   66   67 ar 
    69   67   68 ar 
    70   67   69 ar 
    71   70   71 1  
    72   71   72 1  
    73   71   74 1  
    74   72   73 2  
    75   72   81 am 
    76   74   75 1  
    77   75   76 1  
    78   76   77 1  
    79   77   78 ar 
    80   78   79 ar 
    81   78   80 ar 
    82   81   82 1  
    83   82   83 1  
    84   82   85 1  
    85   83   84 2  
    86   83   89 am 
    87   85   86 1  
    88   86   87 1  
    89   86   88 1  
    90   89   90 1  
    91   90   91 1  
    92   90   93 1  
    93   91   92 ar 
    94   91   98 ar 
    95   93   94 1  
    96   94   95 1  
    97   95   96 1  
    98   96   97 1  
    99    2   99 1  
   100    2  100 1  
   101    4  101 1  
   102    5  102 1  
   103    8  103 1  
   104    8  104 1  
   105    8  105 1  
   106    9  106 1  
   107   10  107 1  
   108   11  108 1  
   109   14  109 1  
   110   14  110 1  
   111   15  111 1  
   112   15  112 1  
   113   18  113 1  
   114   18  114 1  
   115   19  115 1  
   116   20  116 1  
   117   23  117 1  
   118   23  118 1  
   119   25  119 1  
   120   26  120 1  
   121   27  121 1  
   122   28  122 1  
   123   29  123 1  
   124   30  124 1  
   125   31  125 1  
   126   34  126 1  
   127   34  127 1  
   128   38  128 1  
   129   39  129 1  
   130   42  130 1  
   131   42  131 1  
   132   43  132 1  
   133   44  133 1  
   134   44  134 1  
   135   44  135 1  
   136   45  136 1  
   137   45  137 1  
   138   45  138 1  
   139   46  139 1  
   140   47  140 1  
   141   50  141 1  
   142   50  142 1  
   143   51  143 1  
   144   52  144 1  
   145   53  145 1  
   146   56  146 1  
   147   57  147 1  
   148   58  148 1  
   149   58  149 1  
   150   58  150 1  
   151   59  151 1  
   152   60  152 1  
   153   63  153 1  
   154   63  154 1  
   155   64  155 1  
   156   64  156 1  
   157   65  157 1  
   158   65  158 1  
   159   66  159 1  
   160   68  160 1  
   161   68  161 1  
   162   69  162 1  
   163   69  163 1  
   164   70  164 1  
   165   71  165 1  
   166   74  166 1  
   167   74  167 1  
   168   75  168 1  
   169   75  169 1  
   170   76  170 1  
   171   76  171 1  
   172   77  172 1  
   173   79  173 1  
   174   79  174 1  
   175   80  175 1  
   176   80  176 1  
   177   81  177 1  
   178   82  178 1  
   179   85  179 1  
   180   85  180 1  
   181   86  181 1  
   182   87  182 1  
   183   87  183 1  
   184   87  184 1  
   185   88  185 1  
   186   88  186 1  
   187   88  187 1  
   188   89  188 1  
   189   90  189 1  
   190   93  190 1  
   191   93  191 1  
   192   94  192 1  
   193   94  193 1  
   194   95  194 1  
   195   95  195 1  
   196   96  196 1  
   197   96  197 1  
   198   97  198 1  
   199   97  199 1  
   200   97  200 1  
@<TRIPOS>SUBSTRUCTURE
     1 SC2         1

