5lso_ligand
  -I-interpret- 

108110  0  0  0  0  0  0  0  0999 V2000
  -17.1450   -9.1390  -21.9140 N   0  3  0  0  0
  -16.6040  -10.4420  -21.3990 C   0  0  0  0  0
  -15.3840  -10.1390  -20.5190 C   0  0  0  0  0
  -14.4390  -10.9560  -20.4730 O   0  0  0  0  0
  -16.2600  -11.4130  -22.5600 C   0  0  0  0  0
  -17.4420  -12.1800  -23.1820 C   0  0  0  0  0
  -18.2370  -13.0200  -22.1630 C   0  0  0  0  0
  -19.6060  -12.4650  -21.6970 C   0  0  0  0  0
  -20.1140  -11.1390  -22.1120 N   0  0  0  0  0
  -15.4910   -9.1180  -19.6430 N   0  0  0  0  0
  -16.4960   -9.1040  -18.5160 C   0  0  0  0  0
  -17.6920   -9.9620  -18.6220 C   0  0  0  0  0
  -18.6810   -9.6610  -19.3000 O   0  0  0  0  0
  -16.9540   -7.7630  -17.9930 C   0  0  0  0  0
  -17.5130   -8.0160  -16.6940 O   0  0  0  0  0
  -17.5820  -11.0280  -17.8710 N   0  0  0  0  0
  -18.5870  -12.0200  -17.8030 C   0  0  0  0  0
  -19.7850  -11.6790  -16.9110 C   0  0  0  0  0
  -20.7200  -12.4390  -16.8770 O   0  0  0  0  0
  -17.9130  -13.3280  -17.4100 C   0  0  0  0  0
  -17.1020  -13.8500  -18.5850 C   0  0  0  0  0
  -16.2240  -15.0010  -18.1740 C   0  0  0  0  0
  -15.0260  -14.5560  -17.4840 N   0  0  0  0  0
  -14.2360  -15.3630  -16.7960 C   0  0  0  0  0
  -14.5130  -16.6720  -16.6720 N   0  0  0  0  0
  -13.1510  -14.8510  -16.2290 N   0  0  0  0  0
  -19.7620  -10.5450  -16.2200 N   0  0  0  0  0
  -20.9000  -10.0870  -15.4040 C   0  0  0  0  0
  -22.1040   -9.8310  -16.2920 C   0  0  0  0  0
  -21.9860   -9.1520  -17.3270 O   0  0  0  0  0
  -20.5500   -8.8170  -14.5840 C   0  0  0  0  0
  -19.6430   -9.1460  -13.4810 C   0  0  0  0  0
  -18.3230   -8.8180  -13.3590 C   0  0  0  0  0
  -19.9680   -9.9480  -12.3450 C   0  0  0  0  0
  -17.7940   -9.3840  -12.1970 N   0  0  0  0  0
  -18.7950  -10.0630  -11.5530 C   0  0  0  0  0
  -21.1410  -10.5920  -11.9190 C   0  0  0  0  0
  -18.7760  -10.7820  -10.3320 C   0  0  0  0  0
  -21.1260  -11.2900  -10.7160 C   0  0  0  0  0
  -19.9550  -11.3760   -9.9340 C   0  0  0  0  0
  -23.2280  -10.4590  -15.9090 N   0  0  0  0  0
  -24.4900  -10.3280  -16.5920 C   0  0  0  0  0
  -24.5220  -10.9890  -17.9660 C   0  0  0  0  0
  -25.4590  -10.7870  -18.7220 O   0  0  0  0  0
  -24.8880   -8.8240  -16.6690 C   0  0  0  0  0
  -24.9900   -8.2190  -15.3280 C   0  0  0  0  0
  -25.3600   -8.9710  -14.4290 O   0  0  0  0  0
  -24.7290   -7.0210  -15.1340 O   0  0  0  0  0
  -23.5380  -11.8170  -18.2740 N   0  0  0  0  0
  -23.5590  -12.5580  -19.5130 C   0  0  0  0  0
  -23.7050  -14.0670  -19.2740 C   0  0  0  0  0
  -24.0120  -14.5980  -18.1760 O   0  0  0  0  0
  -22.2850  -12.2680  -20.3130 C   0  0  0  0  0
  -22.0070  -10.7930  -20.4530 C   0  0  0  0  0
  -21.1480  -10.4040  -21.6240 C   0  0  0  0  0
  -21.4110   -9.3180  -22.1090 O   0  0  0  0  0
  -23.4890  -14.7920  -20.2600 O   0  0  0  0  0
  -17.3598   -8.5266  -21.1271 H   0  0  0  0  0
  -16.4475   -8.6950  -22.5113 H   0  0  0  0  0
  -17.9937   -9.3136  -22.4521 H   0  0  0  0  0
  -17.3617  -10.9492  -20.8018 H   0  0  0  0  0
  -15.5971  -12.1681  -22.1375 H   0  0  0  0  0
  -15.8448  -10.7970  -23.3576 H   0  0  0  0  0
  -17.0325  -12.8666  -23.9230 H   0  0  0  0  0
  -18.1258  -11.4422  -23.6018 H   0  0  0  0  0
  -17.6162  -13.0624  -21.2680 H   0  0  0  0  0
  -18.4566  -13.9621  -22.6653 H   0  0  0  0  0
  -19.4798  -12.3590  -20.6195 H   0  0  0  0  0
  -20.3213  -13.1575  -22.1408 H   0  0  0  0  0
  -19.6087  -10.7085  -22.8864 H   0  0  0  0  0
  -14.8647   -8.3197  -19.7469 H   0  0  0  0  0
  -15.8132   -9.5567  -17.7970 H   0  0  0  0  0
  -17.6889   -7.3094  -18.6580 H   0  0  0  0  0
  -16.1255   -7.0570  -17.9361 H   0  0  0  0  0
  -17.8220   -7.1905  -16.3135 H   0  0  0  0  0
  -16.7372  -11.1480  -17.3122 H   0  0  0  0  0
  -19.0485  -12.1013  -18.7871 H   0  0  0  0  0
  -18.6719  -14.0612  -17.1368 H   0  0  0  0  0
  -17.2532  -13.1567  -16.5594 H   0  0  0  0  0
  -16.4678  -13.0442  -18.9546 H   0  0  0  0  0
  -17.7906  -14.1964  -19.3557 H   0  0  0  0  0
  -15.9191  -15.5342  -19.0745 H   0  0  0  0  0
  -16.7920  -15.6355  -17.4937 H   0  0  0  0  0
  -14.7806  -13.5672  -17.5327 H   0  0  0  0  0
  -13.8879  -17.2774  -16.1399 H   0  0  0  0  0
  -15.3484  -17.0602  -17.1099 H   0  0  0  0  0
  -12.9436  -13.8574  -16.3295 H   0  0  0  0  0
  -18.9220   -9.9675  -16.2557 H   0  0  0  0  0
  -21.1390  -10.8764  -14.6914 H   0  0  0  0  0
  -21.4687   -8.3994  -14.1720 H   0  0  0  0  0
  -20.0601   -8.0978  -15.2404 H   0  0  0  0  0
  -17.7640   -8.2042  -14.0653 H   0  0  0  0  0
  -22.0483  -10.5456  -12.5212 H   0  0  0  0  0
  -17.8686  -10.8620   -9.7333 H   0  0  0  0  0
  -22.0365  -11.7799  -10.3709 H   0  0  0  0  0
  -19.9829  -11.9251   -8.9928 H   0  0  0  0  0
  -23.1857  -11.0629  -15.0881 H   0  0  0  0  0
  -25.2293  -10.8722  -16.0044 H   0  0  0  0  0
  -25.8610   -8.7501  -17.1546 H   0  0  0  0  0
  -24.1181   -8.2926  -17.2284 H   0  0  0  0  0
  -24.4602   -6.6152  -15.9614 H   0  0  0  0  0
  -22.7560  -11.9334  -17.6295 H   0  0  0  0  0
  -24.4294  -12.2327  -20.0828 H   0  0  0  0  0
  -24.1464  -13.9129  -17.5170 H   0  0  0  0  0
  -22.4180  -12.6793  -21.3136 H   0  0  0  0  0
  -21.4466  -12.7169  -19.7803 H   0  0  0  0  0
  -21.4639  -10.4933  -19.5568 H   0  0  0  0  0
  -22.9719  -10.3082  -20.6015 H   0  0  0  0  0
  1  2  1  0  0  0
  2  3  1  0  0  0
  2  5  1  0  0  0
  3  4  2  0  0  0
  3 10  1  0  0  0
  5  6  1  0  0  0
  6  7  1  0  0  0
  7  8  1  0  0  0
  8  9  1  0  0  0
  9 55  1  0  0  0
 10 11  1  0  0  0
 11 12  1  0  0  0
 11 14  1  0  0  0
 12 13  2  0  0  0
 12 16  1  0  0  0
 14 15  1  0  0  0
 16 17  1  0  0  0
 17 18  1  0  0  0
 17 20  1  0  0  0
 18 19  2  0  0  0
 18 27  1  0  0  0
 20 21  1  0  0  0
 21 22  1  0  0  0
 22 23  1  0  0  0
 23 24  1  0  0  0
 24 25  1  0  0  0
 24 26  2  0  0  0
 27 28  1  0  0  0
 28 29  1  0  0  0
 28 31  1  0  0  0
 29 30  2  0  0  0
 29 41  1  0  0  0
 31 32  1  0  0  0
 32 33  4  0  0  0
 32 34  4  0  0  0
 33 35  4  0  0  0
 34 36  4  0  0  0
 34 37  4  0  0  0
 35 36  4  0  0  0
 36 38  4  0  0  0
 37 39  4  0  0  0
 38 40  4  0  0  0
 39 40  4  0  0  0
 41 42  1  0  0  0
 42 43  1  0  0  0
 42 45  1  0  0  0
 43 44  2  0  0  0
 43 49  1  0  0  0
 45 46  1  0  0  0
 46 47  2  0  0  0
 46 48  1  0  0  0
 49 50  1  0  0  0
 50 51  1  0  0  0
 50 53  1  0  0  0
 51 52  1  0  0  0
 51 57  2  0  0  0
 53 54  1  0  0  0
 54 55  1  0  0  0
 55 56  2  0  0  0
  1 58  1  0  0  0
  1 59  1  0  0  0
  1 60  1  0  0  0
  2 61  1  0  0  0
  5 62  1  0  0  0
  5 63  1  0  0  0
  6 64  1  0  0  0
  6 65  1  0  0  0
  7 66  1  0  0  0
  7 67  1  0  0  0
  8 68  1  0  0  0
  8 69  1  0  0  0
  9 70  1  0  0  0
 10 71  1  0  0  0
 11 72  1  0  0  0
 14 73  1  0  0  0
 14 74  1  0  0  0
 15 75  1  0  0  0
 16 76  1  0  0  0
 17 77  1  0  0  0
 20 78  1  0  0  0
 20 79  1  0  0  0
 21 80  1  0  0  0
 21 81  1  0  0  0
 22 82  1  0  0  0
 22 83  1  0  0  0
 23 84  1  0  0  0
 25 85  1  0  0  0
 25 86  1  0  0  0
 26 87  1  0  0  0
 27 88  1  0  0  0
 28 89  1  0  0  0
 31 90  1  0  0  0
 31 91  1  0  0  0
 33 92  1  0  0  0
 37 93  1  0  0  0
 38 94  1  0  0  0
 39 95  1  0  0  0
 40 96  1  0  0  0
 41 97  1  0  0  0
 42 98  1  0  0  0
 45 99  1  0  0  0
 45100  1  0  0  0
 48101  1  0  0  0
 49102  1  0  0  0
 50103  1  0  0  0
 52104  1  0  0  0
 53105  1  0  0  0
 53106  1  0  0  0
 54107  1  0  0  0
 54108  1  0  0  0
M  END
$$$$
