5nvy_ligand
  -I-interpret- 

 56 58  0  0  0  0  0  0  0  0999 V2000
   10.4910   54.2020   95.5530 C   0  0  0  0  0
   11.5060   54.2830   94.4160 C   0  0  0  0  0
   11.8610   55.3770   93.9790 O   0  0  0  0  0
   11.9450   53.0920   93.9630 N   0  0  0  0  0
   12.9210   52.9870   92.8630 C   0  0  0  0  0
   13.5240   51.5790   92.8400 C   0  0  0  0  0
   12.2260   53.2010   91.5000 C   0  0  0  0  0
   11.0720   52.8020   91.3530 O   0  0  0  0  0
   12.9500   53.7530   90.4940 N   0  0  0  0  0
   14.3520   54.2660   90.5900 C   0  0  0  0  0
   14.5920   55.0910   89.3530 C   0  0  0  0  0
   14.2560   56.4680   89.5940 O   0  0  0  0  0
   13.6550   54.5360   88.3150 C   0  0  0  0  0
   12.4490   53.9960   89.0680 C   0  0  0  0  0
   12.0430   52.8190   88.4020 C   0  0  0  0  0
   12.5290   51.7330   88.7220 O   0  0  0  0  0
   11.1620   52.9600   87.3790 N   0  0  0  0  0
   10.7120   51.7970   86.6030 C   0  0  0  0  0
   11.4970   51.6530   85.4320 C   0  0  0  0  0
   12.3110   52.6660   84.9010 C   0  0  0  0  0
   13.0630   52.4460   83.7450 C   0  0  0  0  0
   11.4690   50.4230   84.7610 C   0  0  0  0  0
   12.2220   50.2050   83.6030 C   0  0  0  0  0
   13.0230   51.2240   83.0700 C   0  0  0  0  0
   13.7640   51.0480   81.9590 C   0  0  0  0  0
   15.3530   51.5120   81.8100 S   0  0  0  0  0
   15.5420   50.9870   80.2520 C   0  0  0  0  0
   14.3750   50.4640   79.8550 N   0  0  0  0  0
   13.4000   50.4970   80.7820 C   0  0  0  0  0
   12.0130   49.9270   80.4440 C   0  0  0  0  0
   10.8859   54.7179   96.4283 H   0  0  0  0  0
    9.5594   54.6741   95.2410 H   0  0  0  0  0
   10.3055   53.1564   95.7989 H   0  0  0  0  0
   11.5915   52.2378   94.3940 H   0  0  0  0  0
   13.6880   53.7445   93.0244 H   0  0  0  0  0
   12.7297   50.8473   92.6922 H   0  0  0  0  0
   14.2430   51.5064   92.0240 H   0  0  0  0  0
   14.0268   51.3850   93.7874 H   0  0  0  0  0
   15.0646   53.4437   90.6546 H   0  0  0  0  0
   14.4873   54.8650   91.4905 H   0  0  0  0  0
   15.6369   55.0487   89.0455 H   0  0  0  0  0
   14.4145   56.9791   88.7970 H   0  0  0  0  0
   14.1370   53.7497   87.7341 H   0  0  0  0  0
   13.3584   55.3073   87.6042 H   0  0  0  0  0
   11.5839   54.6581   89.1047 H   0  0  0  0  0
   10.8072   53.8874   87.1457 H   0  0  0  0  0
    9.6701   51.9416   86.3172 H   0  0  0  0  0
   10.8161   50.9001   87.2136 H   0  0  0  0  0
   12.3566   53.6356   85.3968 H   0  0  0  0  0
   13.6956   53.2462   83.3608 H   0  0  0  0  0
   10.8461   49.6179   85.1506 H   0  0  0  0  0
   12.1856   49.2334   83.1103 H   0  0  0  0  0
   16.4523   51.0547   79.6564 H   0  0  0  0  0
   11.7784   49.1140   81.1311 H   0  0  0  0  0
   11.2648   50.7137   80.5410 H   0  0  0  0  0
   12.0157   49.5506   79.4211 H   0  0  0  0  0
  1  2  1  0  0  0
  2  3  2  0  0  0
  2  4  1  0  0  0
  4  5  1  0  0  0
  5  6  1  0  0  0
  5  7  1  0  0  0
  7  8  2  0  0  0
  7  9  1  0  0  0
  9 10  1  0  0  0
  9 14  1  0  0  0
 10 11  1  0  0  0
 11 12  1  0  0  0
 11 13  1  0  0  0
 13 14  1  0  0  0
 14 15  1  0  0  0
 15 16  2  0  0  0
 15 17  1  0  0  0
 17 18  1  0  0  0
 18 19  1  0  0  0
 19 20  4  0  0  0
 19 22  4  0  0  0
 20 21  4  0  0  0
 21 24  4  0  0  0
 22 23  4  0  0  0
 23 24  4  0  0  0
 24 25  1  0  0  0
 25 26  4  0  0  0
 25 29  4  0  0  0
 26 27  4  0  0  0
 27 28  4  0  0  0
 28 29  4  0  0  0
 29 30  1  0  0  0
  1 31  1  0  0  0
  1 32  1  0  0  0
  1 33  1  0  0  0
  4 34  1  0  0  0
  5 35  1  0  0  0
  6 36  1  0  0  0
  6 37  1  0  0  0
  6 38  1  0  0  0
 10 39  1  0  0  0
 10 40  1  0  0  0
 11 41  1  0  0  0
 12 42  1  0  0  0
 13 43  1  0  0  0
 13 44  1  0  0  0
 14 45  1  0  0  0
 17 46  1  0  0  0
 18 47  1  0  0  0
 18 48  1  0  0  0
 20 49  1  0  0  0
 21 50  1  0  0  0
 22 51  1  0  0  0
 23 52  1  0  0  0
 27 53  1  0  0  0
 30 54  1  0  0  0
 30 55  1  0  0  0
 30 56  1  0  0  0
M  END
$$$$
