3m54_ligand
  -I-interpret- 

153153  0  0  0  0  0  0  0  0999 V2000
  -49.0860    4.1540  -19.4620 C   0  0  0  0  0
  -49.7000    3.7380  -18.4670 O   0  0  0  0  0
  -49.2460    3.5480  -20.8260 C   0  0  0  0  0
  -48.3430    5.2630  -19.4530 N   0  0  0  0  0
  -47.5920    5.6870  -18.2670 C   0  0  0  0  0
  -48.4920    6.5030  -17.3650 C   0  0  0  0  0
  -49.0900    7.4900  -17.7950 O   0  0  0  0  0
  -46.3850    6.5200  -18.6880 C   0  0  0  0  0
  -45.5110    5.7630  -19.5220 O   0  0  0  0  0
  -48.5990    6.1080  -16.1030 N   0  0  0  0  0
  -49.4780    6.8150  -15.1950 C   0  0  0  0  0
  -48.6980    7.8780  -14.4120 C   0  0  0  0  0
  -48.7340    7.9150  -13.1750 O   0  0  0  0  0
  -50.1650    5.8480  -14.2280 C   0  0  0  0  0
  -51.0120    4.7710  -14.9300 C   0  0  0  0  0
  -51.8530    4.0180  -13.9100 C   0  0  0  0  0
  -52.6820    2.8870  -14.5480 C   0  0  0  0  0
  -53.5810    2.3270  -13.5080 N   0  3  0  0  0
  -47.9890    8.7220  -15.1560 N   0  0  0  0  0
  -47.1800    9.7820  -14.5470 C   0  0  0  0  0
  -47.1340   11.0040  -15.4700 C   0  0  0  0  0
  -47.3360   10.8760  -16.6860 O   0  0  0  0  0
  -45.7830    9.2570  -14.3090 C   0  0  0  0  0
  -45.1850    8.8150  -15.5110 O   0  0  0  0  0
  -46.8780   12.1760  -14.8870 N   0  0  0  0  0
  -46.7620   13.4150  -15.6620 C   0  0  0  0  0
  -45.5250   13.4150  -16.5740 C   0  0  0  0  0
  -44.4670   12.8640  -16.2530 O   0  0  0  0  0
  -46.6980   14.6110  -14.7150 C   0  0  0  0  0
  -47.8300   14.7420  -13.7240 C   0  0  0  0  0
  -47.5530   15.7650  -12.6520 C   0  0  0  0  0
  -48.6840   15.8830  -11.6720 C   0  0  0  0  0
  -48.4130   16.5900  -10.3880 N   0  3  0  0  0
  -45.6760   14.0190  -17.7570 N   0  0  0  0  0
  -44.5230   14.3820  -18.5800 C   0  0  0  0  0
  -43.6670   13.2150  -19.0620 C   0  0  0  0  0
  -42.4520   13.3510  -19.1620 O   0  0  0  0  0
  -43.6360   15.3760  -17.7990 C   0  0  0  0  0
  -42.8250   16.2940  -18.7040 C   0  0  0  0  0
  -43.4120   16.8580  -19.6590 O   0  0  0  0  0
  -41.6030   16.4690  -18.4700 O   0  0  0  0  0
  -44.2700   12.0730  -19.3850 N   0  0  0  0  0
  -43.4840   10.9950  -20.0070 C   0  0  0  0  0
  -43.2060   11.3210  -21.4780 C   0  0  0  0  0
  -44.0360   11.9330  -22.1460 O   0  0  0  0  0
  -44.2090    9.6480  -19.9000 C   0  0  0  0  0
  -43.5210    8.5070  -20.6810 C   0  0  0  0  0
  -42.7320    7.5530  -19.7860 C   0  0  0  0  0
  -42.0160    6.5390  -20.5710 N   0  0  0  0  0
  -40.6870    6.4400  -20.6480 C   0  0  0  0  0
  -39.9140    7.2740  -19.9680 N   0  0  0  0  0
  -40.1220    5.4980  -21.3920 N   0  0  0  0  0
  -42.0440   10.9280  -21.9860 N   0  0  0  0  0
  -41.7420   11.1110  -23.4230 C   0  0  0  0  0
  -42.2040    9.9030  -24.2430 C   0  0  0  0  0
  -41.7500    8.7770  -24.0150 O   0  0  0  0  0
  -40.2460   11.3600  -23.6540 C   0  0  0  0  0
  -39.7110   12.5570  -22.8710 C   0  0  0  0  0
  -40.7680   13.6630  -22.7940 C   0  0  0  0  0
  -40.1870   14.9530  -22.2230 C   0  0  0  0  0
  -41.1180   16.1120  -22.4170 N   0  3  0  0  0
  -43.1190   10.1450  -25.1790 N   0  0  0  0  0
  -43.5870    9.1130  -26.0990 C   0  0  0  0  0
  -43.0310    9.4090  -27.4960 C   0  0  0  0  0
  -42.8726    8.4922  -28.3458 O   0  0  0  0  0
  -45.1220    9.0670  -26.1510 C   0  0  0  0  0
  -45.8350    9.0520  -24.8020 C   0  0  0  0  0
  -45.8520    7.9030  -24.0060 C   0  0  0  0  0
  -46.5230   10.1830  -24.3410 C   0  0  0  0  0
  -46.5210    7.8860  -22.7740 C   0  0  0  0  0
  -47.1870   10.1790  -23.1180 C   0  0  0  0  0
  -47.1810    9.0330  -22.3360 C   0  0  0  0  0
  -47.8370    9.0340  -21.1220 O   0  0  0  0  0
  -42.7261   10.5929  -27.8010 O   0  0  0  0  0
  -48.9572    2.4975  -20.7916 H   0  0  0  0  0
  -50.2870    3.6299  -21.1387 H   0  0  0  0  0
  -48.6096    4.0781  -21.5346 H   0  0  0  0  0
  -48.2962    5.8332  -20.2974 H   0  0  0  0  0
  -47.2428    4.8070  -17.7269 H   0  0  0  0  0
  -45.8403    6.8248  -17.7944 H   0  0  0  0  0
  -46.7356    7.3890  -19.2447 H   0  0  0  0  0
  -44.7606    6.3063  -19.7738 H   0  0  0  0  0
  -48.0621    5.3063  -15.7723 H   0  0  0  0  0
  -50.2473    7.3075  -15.7897 H   0  0  0  0  0
  -50.8369    6.4349  -13.6017 H   0  0  0  0  0
  -49.3828    5.3349  -13.6686 H   0  0  0  0  0
  -50.3492    4.0683  -15.4350 H   0  0  0  0  0
  -51.6720    5.2506  -15.6528 H   0  0  0  0  0
  -52.5451    4.7270  -13.4558 H   0  0  0  0  0
  -51.1769    3.5697  -13.1820 H   0  0  0  0  0
  -52.0218    2.1088  -14.9309 H   0  0  0  0  0
  -53.2686    3.2762  -15.3802 H   0  0  0  0  0
  -54.1394    1.5751  -13.9120 H   0  0  0  0  0
  -53.0214    1.9605  -12.7380 H   0  0  0  0  0
  -54.1978    3.0619  -13.1619 H   0  0  0  0  0
  -48.0085    8.6299  -16.1716 H   0  0  0  0  0
  -47.6240   10.0830  -13.5981 H   0  0  0  0  0
  -45.8434    8.4128  -13.6222 H   0  0  0  0  0
  -45.1762   10.0634  -13.8972 H   0  0  0  0  0
  -44.3013    8.4886  -15.3263 H   0  0  0  0  0
  -46.7597   12.2112  -13.8745 H   0  0  0  0  0
  -47.6432   13.4860  -16.2996 H   0  0  0  0  0
  -46.7421   15.4994  -15.3450 H   0  0  0  0  0
  -45.7911   14.4819  -14.1242 H   0  0  0  0  0
  -47.9608   13.7756  -13.2372 H   0  0  0  0  0
  -48.7166   15.0633  -14.2707 H   0  0  0  0  0
  -47.4209   16.7334  -13.1345 H   0  0  0  0  0
  -46.6636   15.4506  -12.1060 H   0  0  0  0  0
  -48.9393   14.8602  -11.3949 H   0  0  0  0  0
  -49.4481   16.4745  -12.1764 H   0  0  0  0  0
  -49.2603   16.5979   -9.8202 H   0  0  0  0  0
  -47.6696   16.1056   -9.8849 H   0  0  0  0  0
  -48.1243   17.5486  -10.5834 H   0  0  0  0  0
  -46.6155   14.2312  -18.0928 H   0  0  0  0  0
  -44.9399   14.8260  -19.4840 H   0  0  0  0  0
  -42.9330   14.7941  -17.2029 H   0  0  0  0  0
  -44.2933   16.0025  -17.1961 H   0  0  0  0  0
  -41.3482   15.9524  -17.7020 H   0  0  0  0  0
  -45.2657   11.9464  -19.2035 H   0  0  0  0  0
  -42.5381   10.9185  -19.4709 H   0  0  0  0  0
  -45.2040    9.7794  -20.3252 H   0  0  0  0  0
  -44.2149    9.3644  -18.8476 H   0  0  0  0  0
  -42.8177    8.9622  -21.3784 H   0  0  0  0  0
  -44.3017    7.9272  -21.1735 H   0  0  0  0  0
  -43.4330    7.0436  -19.1248 H   0  0  0  0  0
  -41.9994    8.1342  -19.2260 H   0  0  0  0  0
  -42.5731    5.8633  -21.0938 H   0  0  0  0  0
  -40.3339    7.9958  -19.3823 H   0  0  0  0  0
  -39.1057    5.4232  -21.4349 H   0  0  0  0  0
  -40.7040    4.8486  -21.9212 H   0  0  0  0  0
  -41.3500   10.4940  -21.3774 H   0  0  0  0  0
  -42.2923   11.9905  -23.7572 H   0  0  0  0  0
  -40.1043   11.5675  -24.7146 H   0  0  0  0  0
  -39.7066   10.4751  -23.3164 H   0  0  0  0  0
  -38.8278   12.9457  -23.3778 H   0  0  0  0  0
  -39.4602   12.2356  -21.8601 H   0  0  0  0  0
  -41.5721   13.3271  -22.1393 H   0  0  0  0  0
  -41.1311   13.8643  -23.8018 H   0  0  0  0  0
  -39.2542   15.1701  -22.7434 H   0  0  0  0  0
  -40.0278   14.8148  -21.1536 H   0  0  0  0  0
  -40.6972   16.9540  -22.0241 H   0  0  0  0  0
  -41.2866   16.2480  -23.4137 H   0  0  0  0  0
  -42.0014   15.9197  -21.9447 H   0  0  0  0  0
  -43.5069   11.0852  -25.2561 H   0  0  0  0  0
  -43.2353    8.1429  -25.7477 H   0  0  0  0  0
  -43.1478    7.6545  -27.9662 H   0  0  0  0  0
  -45.3843    8.1325  -26.6470 H   0  0  0  0  0
  -45.4393    9.9796  -26.6555 H   0  0  0  0  0
  -45.3368    7.0057  -24.3487 H   0  0  0  0  0
  -46.5382   11.0846  -24.9534 H   0  0  0  0  0
  -46.5250    6.9830  -22.1635 H   0  0  0  0  0
  -47.7095   11.0723  -22.7759 H   0  0  0  0  0
  -48.2344    9.8954  -20.9750 H   0  0  0  0  0
  1  2  2  0  0  0
  1  3  1  0  0  0
  1  4  1  0  0  0
  4  5  1  0  0  0
  5  6  1  0  0  0
  5  8  1  0  0  0
  6  7  2  0  0  0
  6 10  1  0  0  0
  8  9  1  0  0  0
 10 11  1  0  0  0
 11 12  1  0  0  0
 11 14  1  0  0  0
 12 13  2  0  0  0
 12 19  1  0  0  0
 14 15  1  0  0  0
 15 16  1  0  0  0
 16 17  1  0  0  0
 17 18  1  0  0  0
 19 20  1  0  0  0
 20 21  1  0  0  0
 20 23  1  0  0  0
 21 22  2  0  0  0
 21 25  1  0  0  0
 23 24  1  0  0  0
 25 26  1  0  0  0
 26 27  1  0  0  0
 26 29  1  0  0  0
 27 28  2  0  0  0
 27 34  1  0  0  0
 29 30  1  0  0  0
 30 31  1  0  0  0
 31 32  1  0  0  0
 32 33  1  0  0  0
 34 35  1  0  0  0
 35 36  1  0  0  0
 35 38  1  0  0  0
 36 37  2  0  0  0
 36 42  1  0  0  0
 38 39  1  0  0  0
 39 40  2  0  0  0
 39 41  1  0  0  0
 42 43  1  0  0  0
 43 44  1  0  0  0
 43 46  1  0  0  0
 44 45  2  0  0  0
 44 53  1  0  0  0
 46 47  1  0  0  0
 47 48  1  0  0  0
 48 49  1  0  0  0
 49 50  1  0  0  0
 50 51  2  0  0  0
 50 52  1  0  0  0
 53 54  1  0  0  0
 54 55  1  0  0  0
 54 57  1  0  0  0
 55 56  2  0  0  0
 55 62  1  0  0  0
 57 58  1  0  0  0
 58 59  1  0  0  0
 59 60  1  0  0  0
 60 61  1  0  0  0
 62 63  1  0  0  0
 63 64  1  0  0  0
 63 66  1  0  0  0
 64 65  1  0  0  0
 66 67  1  0  0  0
 67 68  4  0  0  0
 67 69  4  0  0  0
 68 70  4  0  0  0
 69 71  4  0  0  0
 70 72  4  0  0  0
 71 72  4  0  0  0
 72 73  1  0  0  0
 64 74  2  0  0  0
  3 75  1  0  0  0
  3 76  1  0  0  0
  3 77  1  0  0  0
  4 78  1  0  0  0
  5 79  1  0  0  0
  8 80  1  0  0  0
  8 81  1  0  0  0
  9 82  1  0  0  0
 10 83  1  0  0  0
 11 84  1  0  0  0
 14 85  1  0  0  0
 14 86  1  0  0  0
 15 87  1  0  0  0
 15 88  1  0  0  0
 16 89  1  0  0  0
 16 90  1  0  0  0
 17 91  1  0  0  0
 17 92  1  0  0  0
 18 93  1  0  0  0
 18 94  1  0  0  0
 18 95  1  0  0  0
 19 96  1  0  0  0
 20 97  1  0  0  0
 23 98  1  0  0  0
 23 99  1  0  0  0
 24100  1  0  0  0
 25101  1  0  0  0
 26102  1  0  0  0
 29103  1  0  0  0
 29104  1  0  0  0
 30105  1  0  0  0
 30106  1  0  0  0
 31107  1  0  0  0
 31108  1  0  0  0
 32109  1  0  0  0
 32110  1  0  0  0
 33111  1  0  0  0
 33112  1  0  0  0
 33113  1  0  0  0
 34114  1  0  0  0
 35115  1  0  0  0
 38116  1  0  0  0
 38117  1  0  0  0
 41118  1  0  0  0
 42119  1  0  0  0
 43120  1  0  0  0
 46121  1  0  0  0
 46122  1  0  0  0
 47123  1  0  0  0
 47124  1  0  0  0
 48125  1  0  0  0
 48126  1  0  0  0
 49127  1  0  0  0
 51128  1  0  0  0
 52129  1  0  0  0
 52130  1  0  0  0
 53131  1  0  0  0
 54132  1  0  0  0
 57133  1  0  0  0
 57134  1  0  0  0
 58135  1  0  0  0
 58136  1  0  0  0
 59137  1  0  0  0
 59138  1  0  0  0
 60139  1  0  0  0
 60140  1  0  0  0
 61141  1  0  0  0
 61142  1  0  0  0
 61143  1  0  0  0
 62144  1  0  0  0
 63145  1  0  0  0
 65146  1  0  0  0
 66147  1  0  0  0
 66148  1  0  0  0
 68149  1  0  0  0
 69150  1  0  0  0
 70151  1  0  0  0
 71152  1  0  0  0
 73153  1  0  0  0
M  END
$$$$
