### 
### Created by X-TOOL on Mon Sep 10 21:13:03 2018
### 

@<TRIPOS>MOLECULE
3m54_ligand
  152   152     1     0     0
SMALL
GAST_HUCK


@<TRIPOS>ATOM
      1 C         -49.0860    4.1540  -19.4620 C.2       1 ACE         0.1752
      2 O         -49.7000    3.7380  -18.4670 O.2       1 ACE        -0.3972
      3 CH3       -49.2460    3.5480  -20.8260 C.3       1 ACE         0.0258
      4 N         -48.3430    5.2630  -19.4530 N.am      1 SER        -0.2637
      5 CA        -47.5920    5.6870  -18.2670 C.3       1 SER         0.1538
      6 C         -48.4920    6.5030  -17.3650 C.2       1 SER         0.2062
      7 O         -49.0900    7.4900  -17.7950 O.2       1 SER        -0.3943
      8 CB        -46.3850    6.5200  -18.6880 C.3       1 SER         0.0843
      9 OG        -45.5110    5.7630  -19.5220 O.3       1 SER        -0.3903
     10 N         -48.5990    6.1080  -16.1030 N.am      1 LYS        -0.2637
     11 CA        -49.4780    6.8150  -15.1950 C.3       1 LYS         0.1310
     12 C         -48.6980    7.8780  -14.4120 C.2       1 LYS         0.2040
     13 O         -48.7340    7.9150  -13.1750 O.2       1 LYS        -0.3944
     14 CB        -50.1650    5.8480  -14.2280 C.3       1 LYS        -0.0122
     15 CG        -51.0120    4.7710  -14.9300 C.3       1 LYS        -0.0440
     16 CD        -51.8530    4.0180  -13.9100 C.3       1 LYS        -0.0124
     17 CE        -52.6820    2.8870  -14.5480 C.3       1 LYS        -0.0354
     18 NZ        -53.5810    2.3270  -13.5080 N.4       1 LYS         0.2185
     19 N         -47.9890    8.7220  -15.1560 N.am      1 SER        -0.2616
     20 CA        -47.1800    9.7820  -14.5470 C.3       1 SER         0.1539
     21 C         -47.1340   11.0040  -15.4700 C.2       1 SER         0.2062
     22 O         -47.3360   10.8760  -16.6860 O.2       1 SER        -0.3943
     23 CB        -45.7830    9.2570  -14.3090 C.3       1 SER         0.0843
     24 OG        -45.1850    8.8150  -15.5110 O.3       1 SER        -0.3903
     25 N         -46.8780   12.1760  -14.8870 N.am      1 LYS        -0.2637
     26 CA        -46.7620   13.4150  -15.6620 C.3       1 LYS         0.1310
     27 C         -45.5250   13.4150  -16.5740 C.2       1 LYS         0.2040
     28 O         -44.4670   12.8640  -16.2530 O.2       1 LYS        -0.3944
     29 CB        -46.6980   14.6110  -14.7150 C.3       1 LYS        -0.0122
     30 CG        -47.8300   14.7420  -13.7240 C.3       1 LYS        -0.0440
     31 CD        -47.5530   15.7650  -12.6520 C.3       1 LYS        -0.0124
     32 CE        -48.6840   15.8830  -11.6720 C.3       1 LYS        -0.0354
     33 NZ        -48.4130   16.5900  -10.3880 N.4       1 LYS         0.2185
     34 N         -45.6760   14.0190  -17.7570 N.am      1 ASP        -0.2622
     35 CA        -44.5230   14.3820  -18.5800 C.3       1 ASP         0.1423
     36 C         -43.6670   13.2150  -19.0620 C.2       1 ASP         0.2056
     37 O         -42.4520   13.3510  -19.1620 O.2       1 ASP        -0.3943
     38 CB        -43.6360   15.3760  -17.7990 C.3       1 ASP         0.0406
     39 CG        -42.8250   16.2940  -18.7040 C.2       1 ASP         0.0393
     40 OD1       -43.4120   16.8580  -19.6590 O.co2     1 ASP        -0.5688
     41 OD2       -41.6030   16.4690  -18.4700 O.co2     1 ASP        -0.5688
     42 N         -44.2700   12.0730  -19.3850 N.am      1 ARG        -0.2636
     43 CA        -43.4840   10.9950  -20.0070 C.3       1 ARG         0.1311
     44 C         -43.2060   11.3210  -21.4780 C.2       1 ARG         0.2039
     45 O         -44.0360   11.9330  -22.1460 O.2       1 ARG        -0.3944
     46 CB        -44.2090    9.6480  -19.9000 C.3       1 ARG        -0.0092
     47 CG        -43.5210    8.5070  -20.6810 C.3       1 ARG        -0.0156
     48 CD        -42.7320    7.5530  -19.7860 C.3       1 ARG         0.0627
     49 NE        -42.0160    6.5390  -20.5710 N.pl3     1 ARG        -0.2723
     50 CZ        -40.6870    6.4400  -20.6480 C.cat     1 ARG         0.2882
     51 NH1       -39.9140    7.2740  -19.9680 N.pl3     1 ARG        -0.2849
     52 NH2       -40.1220    5.4980  -21.3920 N.pl3     1 ARG        -0.2849
     53 N         -42.0440   10.9280  -21.9860 N.am      1 LYS        -0.2637
     54 CA        -41.7420   11.1110  -23.4230 C.3       1 LYS         0.1309
     55 C         -42.2040    9.9030  -24.2430 C.2       1 LYS         0.2035
     56 O         -41.7500    8.7770  -24.0150 O.2       1 LYS        -0.3944
     57 CB        -40.2460   11.3600  -23.6540 C.3       1 LYS        -0.0122
     58 CG        -39.7110   12.5570  -22.8710 C.3       1 LYS        -0.0440
     59 CD        -40.7680   13.6630  -22.7940 C.3       1 LYS        -0.0124
     60 CE        -40.1870   14.9530  -22.2230 C.3       1 LYS        -0.0354
     61 NZ        -41.1180   16.1120  -22.4170 N.4       1 LYS         0.2185
     62 N         -43.1190   10.1450  -25.1790 N.am      1 TYR        -0.2679
     63 CA        -43.5870    9.1130  -26.0990 C.3       1 TYR         0.1025
     64 C         -43.0310    9.4090  -27.4960 C.2       1 TYR         0.0619
     65 O         -42.8726    8.4922  -28.3458 O.co2     1 TYR        -0.5665
     66 CB        -45.1220    9.0670  -26.1510 C.3       1 TYR         0.0108
     67 CG        -45.8350    9.0520  -24.8020 C.ar      1 TYR        -0.0499
     68 CD1       -45.8520    7.9030  -24.0060 C.ar      1 TYR        -0.0686
     69 CD2       -46.5230   10.1830  -24.3410 C.ar      1 TYR        -0.0686
     70 CE1       -46.5210    7.8860  -22.7740 C.ar      1 TYR        -0.0398
     71 CE2       -47.1870   10.1790  -23.1180 C.ar      1 TYR        -0.0398
     72 CZ        -47.1810    9.0330  -22.3360 C.ar      1 TYR         0.0805
     73 OH        -47.8370    9.0340  -21.1220 O.3       1 TYR        -0.3376
     74 H         -48.9572    2.4975  -20.7916 H         1 ACE         0.0467
     75 H         -50.2870    3.6299  -21.1387 H         1 ACE         0.0467
     76 H         -48.6096    4.0781  -21.5346 H         1 ACE         0.0467
     77 H         -48.2962    5.8332  -20.2974 H         1 SER         0.1883
     78 H         -47.2428    4.8070  -17.7269 H         1 SER         0.0823
     79 H         -45.8403    6.8248  -17.7944 H         1 SER         0.0606
     80 H         -46.7356    7.3890  -19.2447 H         1 SER         0.0606
     81 H         -45.2019    4.9909  -19.0424 H         1 SER         0.2097
     82 H         -48.0621    5.3063  -15.7723 H         1 LYS         0.1883
     83 H         -50.2473    7.3075  -15.7897 H         1 LYS         0.0800
     84 H         -50.8369    6.4349  -13.6017 H         1 LYS         0.0312
     85 H         -49.3828    5.3349  -13.6686 H         1 LYS         0.0312
     86 H         -50.3492    4.0683  -15.4350 H         1 LYS         0.0269
     87 H         -51.6720    5.2506  -15.6528 H         1 LYS         0.0269
     88 H         -52.5451    4.7270  -13.4558 H         1 LYS         0.0317
     89 H         -51.1769    3.5697  -13.1820 H         1 LYS         0.0317
     90 H         -52.0218    2.1088  -14.9309 H         1 LYS         0.0813
     91 H         -53.2686    3.2762  -15.3802 H         1 LYS         0.0813
     92 H         -54.1394    1.5751  -13.9120 H         1 LYS         0.1994
     93 H         -53.0214    1.9605  -12.7380 H         1 LYS         0.1994
     94 H         -54.1978    3.0619  -13.1619 H         1 LYS         0.1994
     95 H         -48.0085    8.6299  -16.1716 H         1 SER         0.1884
     96 H         -47.6240   10.0830  -13.5981 H         1 SER         0.0823
     97 H         -45.8434    8.4128  -13.6222 H         1 SER         0.0606
     98 H         -45.1762   10.0634  -13.8972 H         1 SER         0.0606
     99 H         -45.7149    8.1101  -15.8904 H         1 SER         0.2097
    100 H         -46.7597   12.2112  -13.8745 H         1 LYS         0.1883
    101 H         -47.6432   13.4860  -16.2996 H         1 LYS         0.0800
    102 H         -46.7421   15.4994  -15.3450 H         1 LYS         0.0312
    103 H         -45.7911   14.4819  -14.1242 H         1 LYS         0.0312
    104 H         -47.9608   13.7756  -13.2372 H         1 LYS         0.0269
    105 H         -48.7166   15.0633  -14.2707 H         1 LYS         0.0269
    106 H         -47.4209   16.7334  -13.1345 H         1 LYS         0.0317
    107 H         -46.6636   15.4506  -12.1060 H         1 LYS         0.0317
    108 H         -48.9393   14.8602  -11.3949 H         1 LYS         0.0813
    109 H         -49.4481   16.4745  -12.1764 H         1 LYS         0.0813
    110 H         -49.2603   16.5979   -9.8202 H         1 LYS         0.1994
    111 H         -47.6696   16.1056   -9.8849 H         1 LYS         0.1994
    112 H         -48.1243   17.5486  -10.5834 H         1 LYS         0.1994
    113 H         -46.6155   14.2312  -18.0928 H         1 ASP         0.1884
    114 H         -44.9399   14.8260  -19.4840 H         1 ASP         0.0819
    115 H         -42.9330   14.7941  -17.2029 H         1 ASP         0.0478
    116 H         -44.2933   16.0025  -17.1961 H         1 ASP         0.0478
    117 H         -45.2657   11.9464  -19.2035 H         1 ARG         0.1883
    118 H         -42.5381   10.9185  -19.4709 H         1 ARG         0.0800
    119 H         -45.2040    9.7794  -20.3252 H         1 ARG         0.0313
    120 H         -44.2149    9.3644  -18.8476 H         1 ARG         0.0313
    121 H         -42.8177    8.9622  -21.3784 H         1 ARG         0.0301
    122 H         -44.3017    7.9272  -21.1735 H         1 ARG         0.0301
    123 H         -43.4330    7.0436  -19.1248 H         1 ARG         0.0689
    124 H         -41.9994    8.1342  -19.2260 H         1 ARG         0.0689
    125 H         -42.5731    5.8633  -21.0938 H         1 ARG         0.2642
    126 H         -40.3339    7.9958  -19.3823 H         1 ARG         0.2615
    127 H         -38.8990    7.1942  -20.0302 H         1 ARG         0.2615
    128 H         -40.7040    4.8411  -21.9117 H         1 ARG         0.2615
    129 H         -39.1056    5.4307  -21.4443 H         1 ARG         0.2615
    130 H         -41.3500   10.4940  -21.3774 H         1 LYS         0.1883
    131 H         -42.2923   11.9905  -23.7572 H         1 LYS         0.0800
    132 H         -40.1043   11.5675  -24.7146 H         1 LYS         0.0312
    133 H         -39.7066   10.4751  -23.3164 H         1 LYS         0.0312
    134 H         -38.8278   12.9457  -23.3778 H         1 LYS         0.0269
    135 H         -39.4602   12.2356  -21.8601 H         1 LYS         0.0269
    136 H         -41.5721   13.3271  -22.1393 H         1 LYS         0.0317
    137 H         -41.1311   13.8643  -23.8018 H         1 LYS         0.0317
    138 H         -39.2542   15.1701  -22.7434 H         1 LYS         0.0813
    139 H         -40.0278   14.8148  -21.1536 H         1 LYS         0.0813
    140 H         -40.6972   16.9540  -22.0241 H         1 LYS         0.1994
    141 H         -41.2866   16.2480  -23.4137 H         1 LYS         0.1994
    142 H         -42.0014   15.9197  -21.9447 H         1 LYS         0.1994
    143 H         -43.5069   11.0852  -25.2561 H         1 TYR         0.1877
    144 H         -43.2353    8.1429  -25.7477 H         1 TYR         0.0747
    145 O         -42.7261   10.5929  -27.8010 O.co2     1 TYR        -0.5665
    146 H         -45.3843    8.1325  -26.6470 H         1 TYR         0.0446
    147 H         -45.4393    9.9796  -26.6555 H         1 TYR         0.0446
    148 H         -45.3368    7.0057  -24.3487 H         1 TYR         0.0530
    149 H         -46.5382   11.0846  -24.9534 H         1 TYR         0.0530
    150 H         -46.5250    6.9830  -22.1635 H         1 TYR         0.0525
    151 H         -47.7095   11.0723  -22.7759 H         1 TYR         0.0525
    152 H         -47.4574    9.7093  -20.5550 H         1 TYR         0.2458
@<TRIPOS>BOND
     1    1    2 2  
     2    1    3 1  
     3    1    4 am 
     4    4    5 1  
     5    5    6 1  
     6    5    8 1  
     7    6    7 2  
     8    6   10 am 
     9    8    9 1  
    10   10   11 1  
    11   11   12 1  
    12   11   14 1  
    13   12   13 2  
    14   12   19 am 
    15   14   15 1  
    16   15   16 1  
    17   16   17 1  
    18   17   18 1  
    19   19   20 1  
    20   20   21 1  
    21   20   23 1  
    22   21   22 2  
    23   21   25 am 
    24   23   24 1  
    25   25   26 1  
    26   26   27 1  
    27   26   29 1  
    28   27   28 2  
    29   27   34 am 
    30   29   30 1  
    31   30   31 1  
    32   31   32 1  
    33   32   33 1  
    34   34   35 1  
    35   35   36 1  
    36   35   38 1  
    37   36   37 2  
    38   36   42 am 
    39   38   39 1  
    40   39   40 ar 
    41   39   41 ar 
    42   42   43 1  
    43   43   44 1  
    44   43   46 1  
    45   44   45 2  
    46   44   53 am 
    47   46   47 1  
    48   47   48 1  
    49   48   49 1  
    50   49   50 ar 
    51   50   51 ar 
    52   50   52 ar 
    53   53   54 1  
    54   54   55 1  
    55   54   57 1  
    56   55   56 2  
    57   55   62 am 
    58   57   58 1  
    59   58   59 1  
    60   59   60 1  
    61   60   61 1  
    62   62   63 1  
    63   63   64 1  
    64   63   66 1  
    65   64   65 ar 
    66   66   67 1  
    67   67   68 ar 
    68   67   69 ar 
    69   68   70 ar 
    70   69   71 ar 
    71   70   72 ar 
    72   71   72 ar 
    73   72   73 1  
    74    3   74 1  
    75    3   75 1  
    76    3   76 1  
    77    4   77 1  
    78    5   78 1  
    79    8   79 1  
    80    8   80 1  
    81    9   81 1  
    82   10   82 1  
    83   11   83 1  
    84   14   84 1  
    85   14   85 1  
    86   15   86 1  
    87   15   87 1  
    88   16   88 1  
    89   16   89 1  
    90   17   90 1  
    91   17   91 1  
    92   18   92 1  
    93   18   93 1  
    94   18   94 1  
    95   19   95 1  
    96   20   96 1  
    97   23   97 1  
    98   23   98 1  
    99   24   99 1  
   100   25  100 1  
   101   26  101 1  
   102   29  102 1  
   103   29  103 1  
   104   30  104 1  
   105   30  105 1  
   106   31  106 1  
   107   31  107 1  
   108   32  108 1  
   109   32  109 1  
   110   33  110 1  
   111   33  111 1  
   112   33  112 1  
   113   34  113 1  
   114   35  114 1  
   115   38  115 1  
   116   38  116 1  
   117   42  117 1  
   118   43  118 1  
   119   46  119 1  
   120   46  120 1  
   121   47  121 1  
   122   47  122 1  
   123   48  123 1  
   124   48  124 1  
   125   49  125 1  
   126   51  126 1  
   127   51  127 1  
   128   52  128 1  
   129   52  129 1  
   130   53  130 1  
   131   54  131 1  
   132   57  132 1  
   133   57  133 1  
   134   58  134 1  
   135   58  135 1  
   136   59  136 1  
   137   59  137 1  
   138   60  138 1  
   139   60  139 1  
   140   61  140 1  
   141   61  141 1  
   142   61  142 1  
   143   62  143 1  
   144   63  144 1  
   145   64  145 ar 
   146   66  146 1  
   147   66  147 1  
   148   68  148 1  
   149   69  149 1  
   150   70  150 1  
   151   71  151 1  
   152   73  152 1  
@<TRIPOS>SUBSTRUCTURE
     1 ACE         1

