4qq5_ligand
  -I-interpret- 

 85 90  0  0  0  0  0  0  0  0999 V2000
  -64.5250  146.1090    2.6180 C   0  0  0  0  0
  -64.3210  147.4300    2.6760 N   0  0  0  0  0
  -63.1610  147.9970    2.3730 C   0  0  0  0  0
  -62.1140  147.2520    1.9490 N   0  0  0  0  0
  -62.2290  145.9010    1.8460 C   0  0  0  0  0
  -63.4610  145.2870    2.1880 C   0  0  0  0  0
  -61.1420  145.0790    1.3850 N   0  0  0  0  0
  -61.1190  143.7220    1.7680 C   0  0  0  0  0
  -62.2980  143.1980    2.3560 N   0  0  0  0  0
  -63.5270  143.8650    2.0490 C   0  0  0  0  0
  -63.0850  149.4280    2.5000 N   0  0  0  0  0
  -61.9140  150.2460    2.3940 C   0  0  0  0  0
  -62.1540  151.7100    2.0990 C   0  0  0  0  0
  -61.1110  152.5570    1.9920 C   0  0  0  0  0
  -59.6770  152.0460    2.1750 C   0  0  0  0  0
  -59.4460  150.7370    2.4480 C   0  0  0  0  0
  -60.6300  149.7780    2.5760 C   0  0  0  0  0
  -58.6350  153.0150    2.0440 N   0  0  0  0  0
  -57.4480  152.9570    2.8210 C   0  0  0  0  0
  -56.4920  153.9270    2.6530 C   0  0  0  0  0
  -56.6890  154.9820    1.7220 N   0  0  0  0  0
  -57.8870  155.0380    0.9450 C   0  0  0  0  0
  -58.8330  154.0730    1.1120 C   0  0  0  0  0
  -55.6710  156.0140    1.5470 C   0  0  0  0  0
  -62.4010  141.7980    2.7270 C   0  0  0  0  0
  -62.1080  140.7970    1.7970 C   0  0  0  0  0
  -62.2250  139.4580    2.1780 C   0  0  0  0  0
  -62.6380  139.1330    3.5010 C   0  0  0  0  0
  -62.9320  140.1600    4.4190 C   0  0  0  0  0
  -62.8180  141.4960    4.0220 C   0  0  0  0  0
  -63.3700  139.9030    5.7640 O   0  0  0  0  0
  -61.9130  138.4590    1.2160 O   0  0  0  0  0
  -63.7330  138.5350    6.0730 C   0  0  0  0  0
  -62.2750  137.1460    1.5740 C   0  0  0  0  0
  -59.9670  142.9510    1.5790 O   0  0  0  0  0
  -60.0050  145.7210    0.7090 C   0  0  0  0  0
  -58.6940  145.8350    1.4740 C   0  0  0  0  0
  -57.5930  145.1800    1.0030 C   0  0  0  0  0
  -56.3830  145.2960    1.6780 C   0  0  0  0  0
  -56.3080  146.0820    2.8230 C   0  0  0  0  0
  -57.4180  146.7470    3.2690 C   0  0  0  0  0
  -58.6220  146.6330    2.6030 C   0  0  0  0  0
  -55.0960  146.2770    3.5640 N   0  0  0  0  0
  -53.8060  146.4410    2.9420 C   0  0  0  0  0
  -52.5870  146.6990    3.8370 C   0  0  0  0  0
  -51.4290  145.7240    3.5870 C   0  0  0  0  0
  -53.6630  146.3660    1.7380 O   0  0  0  0  0
  -65.4873  145.6789    2.8954 H   0  0  0  0  0
  -60.5750  142.7945    1.5892 H   0  0  0  0  0
  -63.7622  143.6504    1.0065 H   0  0  0  0  0
  -64.2778  143.5037    2.7518 H   0  0  0  0  0
  -63.9623  149.9139    2.6862 H   0  0  0  0  0
  -63.1714  152.0804    1.9728 H   0  0  0  0  0
  -61.2878  153.6103    1.7743 H   0  0  0  0  0
  -58.4265  150.3728    2.5748 H   0  0  0  0  0
  -60.4594  148.7273    2.8105 H   0  0  0  0  0
  -57.2981  152.1527    3.5413 H   0  0  0  0  0
  -55.5736  153.8878    3.2388 H   0  0  0  0  0
  -58.0417  155.8436    0.2272 H   0  0  0  0  0
  -59.7514  154.1109    0.5261 H   0  0  0  0  0
  -55.5117  156.5297    2.4940 H   0  0  0  0  0
  -54.7389  155.5517    1.2222 H   0  0  0  0  0
  -56.0052  156.7283    0.7946 H   0  0  0  0  0
  -61.7921  141.0577    0.7869 H   0  0  0  0  0
  -62.7267  138.0896    3.8035 H   0  0  0  0  0
  -63.0542  142.2974    4.7221 H   0  0  0  0  0
  -64.5531  138.2231    5.4263 H   0  0  0  0  0
  -62.8725  137.8863    5.9092 H   0  0  0  0  0
  -64.0455  138.4699    7.1152 H   0  0  0  0  0
  -61.7581  136.8654    2.4917 H   0  0  0  0  0
  -63.3523  137.0981    1.7331 H   0  0  0  0  0
  -61.9938  136.4619    0.7734 H   0  0  0  0  0
  -59.2865  143.4897    1.1686 H   0  0  0  0  0
  -60.3211  146.7470    0.5206 H   0  0  0  0  0
  -59.7848  145.0893   -0.1516 H   0  0  0  0  0
  -57.6620  144.5694    0.1027 H   0  0  0  0  0
  -55.4987  144.7742    1.3121 H   0  0  0  0  0
  -57.3508  147.3729    4.1589 H   0  0  0  0  0
  -59.5039  147.1641    2.9612 H   0  0  0  0  0
  -55.1493  146.3009    4.5823 H   0  0  0  0  0
  -52.9063  146.5711    4.8713 H   0  0  0  0  0
  -52.2243  147.7029    3.6162 H   0  0  0  0  0
  -51.7659  144.7051    3.7780 H   0  0  0  0  0
  -51.0996  145.8110    2.5516 H   0  0  0  0  0
  -50.6018  145.9656    4.2544 H   0  0  0  0  0
  1  2  4  0  0  0
  1  6  4  0  0  0
  2  3  4  0  0  0
  3  4  4  0  0  0
  3 11  1  0  0  0
  4  5  4  0  0  0
  5  6  4  0  0  0
  5  7  1  0  0  0
  6 10  1  0  0  0
  7  8  1  0  0  0
  7 36  1  0  0  0
  8  9  1  0  0  0
  8 35  1  0  0  0
  9 10  1  0  0  0
  9 25  1  0  0  0
 11 12  1  0  0  0
 12 13  4  0  0  0
 12 17  4  0  0  0
 13 14  4  0  0  0
 14 15  4  0  0  0
 15 16  4  0  0  0
 15 18  1  0  0  0
 16 17  4  0  0  0
 18 19  1  0  0  0
 18 23  1  0  0  0
 19 20  2  0  0  0
 20 21  1  0  0  0
 21 22  1  0  0  0
 21 24  1  0  0  0
 22 23  2  0  0  0
 25 26  4  0  0  0
 25 30  4  0  0  0
 26 27  4  0  0  0
 27 28  4  0  0  0
 27 32  1  0  0  0
 28 29  4  0  0  0
 29 30  4  0  0  0
 29 31  1  0  0  0
 31 33  1  0  0  0
 32 34  1  0  0  0
 36 37  1  0  0  0
 37 38  4  0  0  0
 37 42  4  0  0  0
 38 39  4  0  0  0
 39 40  4  0  0  0
 40 41  4  0  0  0
 40 43  1  0  0  0
 41 42  4  0  0  0
 43 44  1  0  0  0
 44 45  1  0  0  0
 44 47  2  0  0  0
 45 46  1  0  0  0
  1 48  1  0  0  0
  8 49  1  0  0  0
 10 50  1  0  0  0
 10 51  1  0  0  0
 11 52  1  0  0  0
 13 53  1  0  0  0
 14 54  1  0  0  0
 16 55  1  0  0  0
 17 56  1  0  0  0
 19 57  1  0  0  0
 20 58  1  0  0  0
 22 59  1  0  0  0
 23 60  1  0  0  0
 24 61  1  0  0  0
 24 62  1  0  0  0
 24 63  1  0  0  0
 26 64  1  0  0  0
 28 65  1  0  0  0
 30 66  1  0  0  0
 33 67  1  0  0  0
 33 68  1  0  0  0
 33 69  1  0  0  0
 34 70  1  0  0  0
 34 71  1  0  0  0
 34 72  1  0  0  0
 35 73  1  0  0  0
 36 74  1  0  0  0
 36 75  1  0  0  0
 38 76  1  0  0  0
 39 77  1  0  0  0
 41 78  1  0  0  0
 42 79  1  0  0  0
 43 80  1  0  0  0
 45 81  1  0  0  0
 45 82  1  0  0  0
 46 83  1  0  0  0
 46 84  1  0  0  0
 46 85  1  0  0  0
M  END
$$$$
