3eqb_ligand
  -I-interpret- 

 40 42  0  0  0  0  0  0  0  0999 V2000
   35.9040  -15.7180    3.6950 F   0  0  0  0  0
   37.0020  -14.9950    4.0150 C   0  0  0  0  0
   37.8700  -15.2550    5.1160 C   0  0  0  0  0
   37.7010  -16.2700    5.9800 F   0  0  0  0  0
   37.2280  -13.9380    3.1530 C   0  0  0  0  0
   38.3200  -13.1370    3.4060 C   0  0  0  0  0
   39.1640  -13.4240    4.4680 C   0  0  0  0  0
   40.2750  -12.5090    4.7050 C   0  0  0  0  0
   40.9080  -12.3960    5.8920 N   0  0  0  0  0
   41.8620  -11.3920    5.7590 N   0  0  0  0  0
   41.7080  -10.9520    4.4940 C   0  0  0  0  0
   42.5090   -9.8560    3.9330 N   0  0  0  0  0
   42.3050   -8.6260    4.7260 C   0  0  0  0  0
   41.7730   -7.5550    3.7970 C   0  0  0  0  0
   42.3730   -6.2500    4.2050 N   0  3  0  0  0
   40.7360  -11.5990    3.8010 O   0  0  0  0  0
   38.9820  -14.4640    5.3440 C   0  0  0  0  0
   39.9180  -14.5990    6.4290 N   0  0  0  0  0
   40.6290  -15.8040    6.7030 C   0  0  0  0  0
   40.3640  -16.9960    6.0420 C   0  0  0  0  0
   41.0840  -18.1490    6.3640 C   0  0  0  0  0
   42.0760  -18.1540    7.3560 C   0  0  0  0  0
   43.1540  -19.9140    7.8320 I   0  0  0  0  0
   42.3430  -16.9680    8.0190 C   0  0  0  0  0
   41.6230  -15.8120    7.6990 C   0  0  0  0  0
   41.9210  -14.6850    8.3860 F   0  0  0  0  0
   36.5684  -13.7460    2.3068 H   0  0  0  0  0
   38.5210  -12.2753    2.7695 H   0  0  0  0  0
   43.1161   -9.9326    3.1169 H   0  0  0  0  0
   43.2461   -8.3046    5.1723 H   0  0  0  0  0
   41.5964   -8.8110    5.5333 H   0  0  0  0  0
   40.6860   -7.5063    3.8621 H   0  0  0  0  0
   42.0390   -7.7855    2.7654 H   0  0  0  0  0
   42.0280   -5.5119    3.5914 H   0  0  0  0  0
   42.1106   -6.0430    5.1687 H   0  0  0  0  0
   43.3888   -6.3068    4.1326 H   0  0  0  0  0
   40.0807  -13.7925    7.0319 H   0  0  0  0  0
   39.5938  -17.0321    5.2715 H   0  0  0  0  0
   40.8684  -19.0733    5.8280 H   0  0  0  0  0
   43.1134  -16.9351    8.7894 H   0  0  0  0  0
  1  2  1  0  0  0
  2  3  4  0  0  0
  2  5  4  0  0  0
  3  4  1  0  0  0
  3 17  4  0  0  0
  5  6  4  0  0  0
  6  7  4  0  0  0
  7  8  1  0  0  0
  7 17  4  0  0  0
  8  9  4  0  0  0
  8 16  4  0  0  0
  9 10  4  0  0  0
 10 11  4  0  0  0
 11 12  1  0  0  0
 11 16  4  0  0  0
 12 13  1  0  0  0
 13 14  1  0  0  0
 14 15  1  0  0  0
 17 18  1  0  0  0
 18 19  1  0  0  0
 19 20  4  0  0  0
 19 25  4  0  0  0
 20 21  4  0  0  0
 21 22  4  0  0  0
 22 23  1  0  0  0
 22 24  4  0  0  0
 24 25  4  0  0  0
 25 26  1  0  0  0
  5 27  1  0  0  0
  6 28  1  0  0  0
 12 29  1  0  0  0
 13 30  1  0  0  0
 13 31  1  0  0  0
 14 32  1  0  0  0
 14 33  1  0  0  0
 15 34  1  0  0  0
 15 35  1  0  0  0
 15 36  1  0  0  0
 18 37  1  0  0  0
 20 38  1  0  0  0
 21 39  1  0  0  0
 24 40  1  0  0  0
M  END
$$$$
