6iup_ligand
  -I-interpret- 

 53 57  0  0  0  0  0  0  0  0999 V2000
   33.5200    2.0160  144.5130 C   0  0  0  0  0
   36.0750    1.2440  143.7690 C   0  0  0  0  0
   34.7740   -0.5420  142.2700 C   0  0  0  0  0
   35.8440   -1.2580  141.6690 C   0  0  0  0  0
   38.7710   -3.4440  141.8960 C   0  0  0  0  0
   39.3470   -3.5420  139.5280 C   0  0  0  0  0
   38.2720   -2.7210  139.2220 C   0  0  0  0  0
   29.5420   -7.6140  137.5730 C   0  0  0  0  0
   29.7100   -6.2940  137.5310 C   0  0  0  0  0
   30.6750   -5.6090  138.4550 C   0  0  0  0  0
   31.2480   -3.3620  139.7790 C   0  0  0  0  0
   32.2330   -3.8940  140.6400 C   0  0  0  0  0
   32.9870   -3.0620  141.4360 C   0  0  0  0  0
   32.7670   -1.6780  141.3720 C   0  0  0  0  0
   33.6900    0.9500  143.5980 C   0  0  0  0  0
   34.9300    0.5420  143.2160 C   0  0  0  0  0
   37.6830   -2.5910  141.5910 C   0  0  0  0  0
   39.6100   -3.9060  140.8510 C   0  0  0  0  0
   40.2350   -4.0520  138.4690 C   0  0  0  0  0
   37.4150   -2.2260  140.3010 C   0  0  0  0  0
   36.2270   -1.3730  140.3330 C   0  0  0  0  0
   35.5750   -0.7460  139.1360 C   0  0  0  0  0
   31.7880   -1.1460  140.5300 C   0  0  0  0  0
   31.0470   -1.9770  139.7350 C   0  0  0  0  0
   30.3990   -4.1990  138.8800 N   0  0  0  0  0
   33.4450   -0.7610  142.1500 N   0  0  0  0  0
   32.7740    0.1310  142.9350 N   0  0  0  0  0
   34.6290    2.6530  145.0170 N   0  0  0  0  0
   35.8920    2.2490  144.6280 N   0  0  0  0  0
   37.4030    0.8490  143.3730 N   0  0  0  0  0
   31.6300   -6.2020  138.8510 O   0  0  0  0  0
   32.3940    2.3790  144.8430 O   0  0  0  0  0
   36.7170   -2.0010  142.4080 O   0  0  0  0  0
   38.9621   -3.7432  142.9266 H   0  0  0  0  0
   38.0669   -2.4466  138.1872 H   0  0  0  0  0
   30.1092   -8.2132  138.2853 H   0  0  0  0  0
   28.8373   -8.0955  136.8951 H   0  0  0  0  0
   29.1389   -5.7022  136.8157 H   0  0  0  0  0
   32.3972   -4.9710  140.6744 H   0  0  0  0  0
   33.7431   -3.4720  142.1055 H   0  0  0  0  0
   40.4618   -4.5464  141.0800 H   0  0  0  0  0
   39.6534   -4.6454  137.7635 H   0  0  0  0  0
   40.6952   -3.2129  137.9472 H   0  0  0  0  0
   41.0111   -4.6736  138.9155 H   0  0  0  0  0
   34.5432   -1.0899  139.0641 H   0  0  0  0  0
   35.5912    0.3388  139.2415 H   0  0  0  0  0
   36.1186   -1.0329  138.2358 H   0  0  0  0  0
   31.6145   -0.0702  140.5063 H   0  0  0  0  0
   30.2965   -1.5589  139.0641 H   0  0  0  0  0
   29.5473   -3.7685  138.5198 H   0  0  0  0  0
   34.5198    3.4228  145.6772 H   0  0  0  0  0
   36.7063    2.7319  145.0076 H   0  0  0  0  0
   37.5314    0.0837  142.7110 H   0  0  0  0  0
 15  1  1  0  0  0
  1 28  1  0  0  0
  1 32  2  0  0  0
 16  2  1  0  0  0
  2 29  1  0  0  0
  2 30  2  0  0  0
  4  3  1  0  0  0
  3 16  4  0  0  0
  3 26  4  0  0  0
  4 21  4  0  0  0
 33  4  4  0  0  0
 17  5  4  0  0  0
  5 18  4  0  0  0
  7  6  4  0  0  0
 18  6  4  0  0  0
  6 19  1  0  0  0
 20  7  4  0  0  0
  9  8  2  0  0  0
 10  9  1  0  0  0
 25 10  1  0  0  0
 10 31  2  0  0  0
 12 11  4  0  0  0
 11 24  4  0  0  0
 11 25  1  0  0  0
 13 12  4  0  0  0
 14 13  4  0  0  0
 14 23  4  0  0  0
 26 14  1  0  0  0
 16 15  4  0  0  0
 15 27  4  0  0  0
 17 20  4  0  0  0
 17 33  4  0  0  0
 20 21  4  0  0  0
 21 22  1  0  0  0
 23 24  4  0  0  0
 26 27  4  0  0  0
 28 29  1  0  0  0
  5 34  1  0  0  0
  7 35  1  0  0  0
  8 36  1  0  0  0
  8 37  1  0  0  0
  9 38  1  0  0  0
 12 39  1  0  0  0
 13 40  1  0  0  0
 18 41  1  0  0  0
 19 42  1  0  0  0
 19 43  1  0  0  0
 19 44  1  0  0  0
 22 45  1  0  0  0
 22 46  1  0  0  0
 22 47  1  0  0  0
 23 48  1  0  0  0
 24 49  1  0  0  0
 25 50  1  0  0  0
 28 51  1  0  0  0
 29 52  1  0  0  0
 30 53  1  0  0  0
M  END
$$$$
