4mcc_ligand
  -I-interpret- 

 37 39  0  0  0  0  0  0  0  0999 V2000
   26.0490   44.0170   -2.6800 C   0  0  0  0  0
   24.8010   42.6790   -4.2150 C   0  0  0  0  0
   24.8810   44.6340   -2.2740 C   0  0  0  0  0
   23.6310   43.3060   -3.8180 C   0  0  0  0  0
   20.6260   43.0660    1.6230 C   0  0  0  0  0
   20.0600   41.8340   -0.2450 C   0  0  0  0  0
   20.7440   42.9860    0.2550 C   0  0  0  0  0
   26.0120   43.0410   -3.6560 C   0  0  0  0  0
   23.6710   44.2850   -2.8480 C   0  0  0  0  0
   19.4490   41.1130    0.7680 C   0  0  0  0  0
   18.6370   39.5260   -0.5500 C   0  0  0  0  0
   19.9160   41.3310   -1.5970 C   0  0  0  0  0
   21.4930   44.0430   -0.3810 C   0  0  0  0  0
   27.2850   42.3670   -4.0650 C   0  0  0  0  0
   22.4190   44.9510   -2.3860 C   0  0  0  0  0
   18.7300   39.9730    0.6640 N   0  0  0  0  0
   19.2020   40.1520   -1.6550 N   0  0  0  0  0
   27.5210   42.3620   -5.5030 N   0  3  0  0  0
   21.5760   43.9930   -1.7090 N   0  0  0  0  0
   20.3850   41.8650   -2.5920 O   0  0  0  0  0
   21.9910   44.9340    0.3080 O   0  0  0  0  0
   19.7270   41.7960    2.3240 S   0  0  0  0  0
   27.0000   44.3010   -2.2295 H   0  0  0  0  0
   24.7662   41.8959   -4.9724 H   0  0  0  0  0
   24.9129   45.3990   -1.4982 H   0  0  0  0  0
   22.6804   43.0257   -4.2718 H   0  0  0  0  0
   21.0687   43.8714    2.2091 H   0  0  0  0  0
   18.0816   38.6026   -0.7138 H   0  0  0  0  0
   27.2158   41.3270   -3.7462 H   0  0  0  0  0
   28.1044   42.9201   -3.6059 H   0  0  0  0  0
   21.8864   45.3542   -3.2473 H   0  0  0  0  0
   22.6727   45.7574   -1.6979 H   0  0  0  0  0
   19.0810   39.7115   -2.5670 H   0  0  0  0  0
   28.4023   41.8878   -5.7001 H   0  0  0  0  0
   26.7580   41.8718   -5.9699 H   0  0  0  0  0
   27.5673   43.3229   -5.8421 H   0  0  0  0  0
   21.0552   43.2929   -2.2372 H   0  0  0  0  0
  3  1  4  0  0  0
  1  8  4  0  0  0
  4  2  4  0  0  0
  2  8  4  0  0  0
  9  3  4  0  0  0
  9  4  4  0  0  0
  7  5  4  0  0  0
  5 22  4  0  0  0
  7  6  4  0  0  0
  6 10  4  0  0  0
  6 12  1  0  0  0
 13  7  1  0  0  0
  8 14  1  0  0  0
 15  9  1  0  0  0
 10 16  1  0  0  0
 10 22  4  0  0  0
 16 11  2  0  0  0
 17 11  1  0  0  0
 12 17  1  0  0  0
 12 20  2  0  0  0
 19 13  1  0  0  0
 13 21  2  0  0  0
 14 18  1  0  0  0
 15 19  1  0  0  0
  1 23  1  0  0  0
  2 24  1  0  0  0
  3 25  1  0  0  0
  4 26  1  0  0  0
  5 27  1  0  0  0
 11 28  1  0  0  0
 14 29  1  0  0  0
 14 30  1  0  0  0
 15 31  1  0  0  0
 15 32  1  0  0  0
 17 33  1  0  0  0
 18 34  1  0  0  0
 18 35  1  0  0  0
 18 36  1  0  0  0
 19 37  1  0  0  0
M  END
$$$$
