3g2l_ligand
  -I-interpret- 

 45 48  0  0  0  0  0  0  0  0999 V2000
   36.6650   26.6870   29.7240 C   0  0  0  0  0
   36.2660   26.8680   28.3820 C   0  0  0  0  0
   36.8380   27.8690   27.6020 C   0  0  0  0  0
   37.8180   28.7030   28.1550 C   0  0  0  0  0
   38.2140   28.5330   29.4870 C   0  0  0  0  0
   37.6490   27.5240   30.2730 C   0  0  0  0  0
   38.0570   27.3520   31.6030 C   0  0  0  0  0
   37.4850   26.3430   32.3930 C   0  0  0  0  0
   36.5040   25.5040   31.8480 C   0  0  0  0  0
   36.1130   25.6550   30.5120 C   0  0  0  0  0
   35.1040   24.8600   29.9690 C   0  0  0  0  0
   35.0550   24.2120   28.8100 C   0  0  0  0  0
   33.9190   24.6910   30.5380 N   0  0  0  0  0
   33.2200   23.9890   29.8100 N   0  0  0  0  0
   33.8360   23.6800   28.7890 N   0  0  0  0  0
   33.1580   22.8470   27.7720 C   0  0  0  0  0
   33.2050   21.4420   28.0700 O   0  0  0  0  0
   32.1860   20.7470   27.3050 C   0  0  0  0  0
   32.2250   19.2860   27.7560 C   0  0  0  0  0
   33.3910   18.6200   27.2360 O   0  0  0  0  0
   32.3840   20.9300   25.7740 C   0  0  0  0  0
   31.2290   20.4800   25.0810 O   0  0  0  0  0
   32.6370   22.4020   25.3860 C   0  0  0  0  0
   33.0990   22.4970   24.0380 O   0  0  0  0  0
   33.6480   23.0390   26.3300 C   0  0  0  0  0
   33.8170   24.4340   26.0240 O   0  0  0  0  0
   35.5033   26.2182   27.9528 H   0  0  0  0  0
   36.5250   28.0031   26.5666 H   0  0  0  0  0
   38.2729   29.4854   27.5475 H   0  0  0  0  0
   38.9690   29.1926   29.9149 H   0  0  0  0  0
   38.8214   28.0044   32.0252 H   0  0  0  0  0
   37.8029   26.2124   33.4274 H   0  0  0  0  0
   36.0443   24.7322   32.4653 H   0  0  0  0  0
   35.8339   24.1343   28.0515 H   0  0  0  0  0
   32.1329   23.2132   27.8282 H   0  0  0  0  0
   31.1960   21.1623   27.4936 H   0  0  0  0  0
   31.3353   18.7793   27.3820 H   0  0  0  0  0
   32.2598   19.2556   28.8450 H   0  0  0  0  0
   33.3946   17.7065   27.5311 H   0  0  0  0  0
   33.2604   20.3441   25.4971 H   0  0  0  0  0
   31.3583   20.5959   24.1368 H   0  0  0  0  0
   31.6927   22.9399   25.4692 H   0  0  0  0  0
   33.2501   23.4189   23.8169 H   0  0  0  0  0
   34.6198   22.5600   26.2102 H   0  0  0  0  0
   34.1232   24.5271   25.1189 H   0  0  0  0  0
  1  2  4  0  0  0
  1  6  4  0  0  0
  1 10  4  0  0  0
  2  3  4  0  0  0
  3  4  4  0  0  0
  4  5  4  0  0  0
  5  6  4  0  0  0
  6  7  4  0  0  0
  7  8  4  0  0  0
  8  9  4  0  0  0
  9 10  4  0  0  0
 10 11  1  0  0  0
 11 12  4  0  0  0
 11 13  4  0  0  0
 12 15  4  0  0  0
 13 14  4  0  0  0
 14 15  4  0  0  0
 15 16  1  0  0  0
 16 17  1  0  0  0
 16 25  1  0  0  0
 17 18  1  0  0  0
 18 19  1  0  0  0
 18 21  1  0  0  0
 19 20  1  0  0  0
 21 22  1  0  0  0
 21 23  1  0  0  0
 23 24  1  0  0  0
 23 25  1  0  0  0
 25 26  1  0  0  0
  2 27  1  0  0  0
  3 28  1  0  0  0
  4 29  1  0  0  0
  5 30  1  0  0  0
  7 31  1  0  0  0
  8 32  1  0  0  0
  9 33  1  0  0  0
 12 34  1  0  0  0
 16 35  1  0  0  0
 18 36  1  0  0  0
 19 37  1  0  0  0
 19 38  1  0  0  0
 20 39  1  0  0  0
 21 40  1  0  0  0
 22 41  1  0  0  0
 23 42  1  0  0  0
 24 43  1  0  0  0
 25 44  1  0  0  0
 26 45  1  0  0  0
M  END
$$$$
