2wd1_ligand
  -I-interpret- 

 34 36  0  0  0  0  0  0  0  0999 V2000
  109.2120   22.4340  138.4440 O   0  0  0  0  0
  108.0960   22.0440  138.5350 C   0  0  0  0  0
  107.7190   20.8440  138.0740 N   0  0  0  0  0
  106.9970   22.7670  139.1420 C   0  0  0  0  0
  105.7740   22.1660  139.1630 C   0  0  0  0  0
  104.6940   22.8280  139.7140 C   0  0  0  0  0
  107.1250   24.0230  139.6800 C   0  0  0  0  0
  106.0450   24.6580  140.2190 N   0  0  0  0  0
  104.8560   24.0690  140.2350 C   0  0  0  0  0
  103.6920   24.4950  140.7250 C   0  0  0  0  0
  102.8660   23.4660  140.4380 C   0  0  0  0  0
  103.4600   22.4490  139.8410 N   0  0  0  0  0
  102.7300   21.0450  139.3980 S   0  0  0  0  0
  101.5550   21.1610  138.9570 O   0  0  0  0  0
  103.4040   20.4500  138.4420 O   0  0  0  0  0
  102.6220   19.8910  140.7150 C   0  0  0  0  0
  101.6420   19.8220  141.7710 C   0  0  0  0  0
  100.5270   20.7380  142.0060 N   0  0  0  0  0
  100.6730   21.9680  141.8580 O   0  0  0  0  0
   99.4380   20.4100  142.3330 O   0  0  0  0  0
  103.6150   18.9320  140.7270 C   0  0  0  0  0
  103.6750   17.9770  141.7120 C   0  0  0  0  0
  102.7430   17.9460  142.7130 C   0  0  0  0  0
  101.6920   18.7860  142.6980 C   0  0  0  0  0
  108.4016   20.2320  137.6268 H   0  0  0  0  0
  106.7494   20.5423  138.1702 H   0  0  0  0  0
  105.6485   21.1666  138.7465 H   0  0  0  0  0
  108.0968   24.5167  139.6765 H   0  0  0  0  0
  103.4648   25.4344  141.2289 H   0  0  0  0  0
  101.8028   23.4742  140.6780 H   0  0  0  0  0
  104.3672   18.9329  139.9381 H   0  0  0  0  0
  104.4739   17.2356  141.6961 H   0  0  0  0  0
  102.8529   17.2338  143.5308 H   0  0  0  0  0
  100.8794   18.6547  143.4125 H   0  0  0  0  0
  1  2  2  0  0  0
  2  3  1  0  0  0
  2  4  1  0  0  0
  4  5  4  0  0  0
  4  7  4  0  0  0
  5  6  4  0  0  0
  6  9  4  0  0  0
  6 12  4  0  0  0
  7  8  4  0  0  0
  8  9  4  0  0  0
  9 10  4  0  0  0
 10 11  4  0  0  0
 11 12  4  0  0  0
 12 13  1  0  0  0
 13 14  2  0  0  0
 13 15  2  0  0  0
 13 16  1  0  0  0
 16 17  4  0  0  0
 16 21  4  0  0  0
 17 18  1  0  0  0
 17 24  4  0  0  0
 18 19  2  0  0  0
 18 20  2  0  0  0
 21 22  4  0  0  0
 22 23  4  0  0  0
 23 24  4  0  0  0
  3 25  1  0  0  0
  3 26  1  0  0  0
  5 27  1  0  0  0
  7 28  1  0  0  0
 10 29  1  0  0  0
 11 30  1  0  0  0
 21 31  1  0  0  0
 22 32  1  0  0  0
 23 33  1  0  0  0
 24 34  1  0  0  0
M  END
$$$$
