1v0k_ligand
  -I-interpret- 

 38 39  0  0  0  0  0  0  0  0999 V2000
    6.9510   14.3080   16.2390 C   0  0  0  0  0
    6.6490   12.8540   16.5340 C   0  0  0  0  0
    5.1640   12.5920   16.4250 C   0  0  0  0  0
    4.3650   13.6260   17.2050 C   0  0  0  0  0
    4.8510   15.0410   16.8710 C   0  0  0  0  0
    7.3670   12.0160   15.6490 O   0  0  0  0  0
    4.8660   11.2850   16.9300 O   0  0  0  0  0
    2.9790   13.5040   16.9300 O   0  0  0  0  0
    6.2350   15.1230   17.1020 O   0  0  0  0  0
   10.5050   17.8500   15.1270 C   0  0  0  0  0
   10.4270   17.5610   16.6600 C   0  0  0  0  0
   11.6490   17.8820   17.2970 O   0  0  0  0  0
   10.0360   16.0930   16.9450 C   0  0  0  0  0
    9.7700   15.9130   18.3270 O   0  0  0  0  0
    8.7650   15.8020   16.1520 C   0  0  0  0  0
    8.3330   14.4750   16.4650 O   0  0  0  0  0
    9.0620   15.9670   14.6640 C   0  0  0  0  0
    9.3080   17.3940   14.3990 N   0  3  0  0  0
    6.6754   14.5732   15.2183 H   0  0  0  0  0
    6.9634   12.6316   17.5537 H   0  0  0  0  0
    4.8844   12.6589   15.3736 H   0  0  0  0  0
    4.5205   13.4447   18.2685 H   0  0  0  0  0
    4.3323   15.7634   17.5012 H   0  0  0  0  0
    4.6420   15.2611   15.8241 H   0  0  0  0  0
    8.3064   12.1956   15.7314 H   0  0  0  0  0
    5.3691   10.6311   16.4392 H   0  0  0  0  0
    2.6887   12.6142   17.1435 H   0  0  0  0  0
   11.3641   17.3102   14.7286 H   0  0  0  0  0
   10.5859   18.9288   14.9942 H   0  0  0  0  0
    9.6441   18.1984   17.0711 H   0  0  0  0  0
   11.5774   17.6966   18.2362 H   0  0  0  0  0
   10.8479   15.4241   16.6593 H   0  0  0  0  0
    9.5289   14.9980   18.4888 H   0  0  0  0  0
    7.9654   16.4954   16.4126 H   0  0  0  0  0
    8.2164   15.6165   14.0722 H   0  0  0  0  0
    9.9376   15.3787   14.3894 H   0  0  0  0  0
    9.4561   17.5263   13.3985 H   0  0  0  0  0
    8.5017   17.9347   14.7119 H   0  0  0  0  0
  1  2  1  0  0  0
  1  9  1  0  0  0
 16  1  1  0  0  0
  2  3  1  0  0  0
  2  6  1  0  0  0
  3  4  1  0  0  0
  3  7  1  0  0  0
  5  4  1  0  0  0
  4  8  1  0  0  0
  9  5  1  0  0  0
 11 10  1  0  0  0
 10 18  1  0  0  0
 11 12  1  0  0  0
 13 11  1  0  0  0
 13 14  1  0  0  0
 15 13  1  0  0  0
 15 16  1  0  0  0
 15 17  1  0  0  0
 17 18  1  0  0  0
  1 19  1  0  0  0
  2 20  1  0  0  0
  3 21  1  0  0  0
  4 22  1  0  0  0
  5 23  1  0  0  0
  5 24  1  0  0  0
  6 25  1  0  0  0
  7 26  1  0  0  0
  8 27  1  0  0  0
 10 28  1  0  0  0
 10 29  1  0  0  0
 11 30  1  0  0  0
 12 31  1  0  0  0
 13 32  1  0  0  0
 14 33  1  0  0  0
 15 34  1  0  0  0
 17 35  1  0  0  0
 17 36  1  0  0  0
 18 37  1  0  0  0
 18 38  1  0  0  0
M  END
$$$$
