1x38_ligand
  -I-interpret- 

 36 38  0  0  0  0  0  0  0  0999 V2000
   27.0890   29.0720   35.9570 C   0  0  0  0  0
   27.7210   29.3130   37.1930 C   0  0  0  0  0
   28.4370   30.5010   37.4110 C   0  0  0  0  0
   28.5150   31.4520   36.3900 C   0  0  0  0  0
   27.8770   31.2250   35.1650 C   0  0  0  0  0
   27.1540   30.0460   34.9400 C   0  0  0  0  0
   25.2160   26.0070   36.3480 C   0  0  0  0  0
   24.5150   24.9610   37.1050 C   0  0  0  0  0
   23.9770   23.8700   36.1840 C   0  0  0  0  0
   23.4810   24.4570   34.8340 C   0  0  0  0  0
   24.6550   25.1200   34.0780 C   0  0  0  0  0
   24.2230   25.7140   32.7260 C   0  0  0  0  0
   25.3560   24.4450   38.1490 O   0  0  0  0  0
   22.8980   23.2080   36.8500 O   0  0  0  0  0
   22.9120   23.4070   34.0740 O   0  0  0  0  0
   25.2550   26.1150   35.0080 N   0  0  0  0  0
   23.3330   26.7800   32.9360 O   0  0  0  0  0
   25.8650   27.0380   36.8640 N   0  0  0  0  0
   26.3190   27.8060   35.8170 C   0  0  0  0  0
   25.9600   27.2630   34.6280 C   0  0  0  0  0
   27.6534   28.5700   37.9877 H   0  0  0  0  0
   28.9275   30.6798   38.3678 H   0  0  0  0  0
   29.0747   32.3739   36.5482 H   0  0  0  0  0
   27.9434   31.9746   34.3764 H   0  0  0  0  0
   26.6472   29.8837   33.9887 H   0  0  0  0  0
   23.6438   25.4056   37.5861 H   0  0  0  0  0
   24.7804   23.1679   35.9610 H   0  0  0  0  0
   22.7280   25.2255   35.0086 H   0  0  0  0  0
   25.4070   24.3814   33.8003 H   0  0  0  0  0
   23.7281   24.9428   32.1357 H   0  0  0  0  0
   25.1026   26.0787   32.1955 H   0  0  0  0  0
   24.8827   23.7639   38.6324 H   0  0  0  0  0
   22.5483   22.5175   36.2820 H   0  0  0  0  0
   22.5999   23.7536   33.2349 H   0  0  0  0  0
   23.0678   27.1456   32.0889 H   0  0  0  0  0
   26.1689   27.6300   33.6231 H   0  0  0  0  0
  1  2  4  0  0  0
  1  6  4  0  0  0
 19  1  1  0  0  0
  2  3  4  0  0  0
  3  4  4  0  0  0
  5  4  4  0  0  0
  6  5  4  0  0  0
  7  8  1  0  0  0
  7 16  4  0  0  0
 18  7  4  0  0  0
  8  9  1  0  0  0
  8 13  1  0  0  0
  9 10  1  0  0  0
  9 14  1  0  0  0
 11 10  1  0  0  0
 10 15  1  0  0  0
 11 12  1  0  0  0
 16 11  1  0  0  0
 12 17  1  0  0  0
 16 20  4  0  0  0
 18 19  4  0  0  0
 19 20  4  0  0  0
  2 21  1  0  0  0
  3 22  1  0  0  0
  4 23  1  0  0  0
  5 24  1  0  0  0
  6 25  1  0  0  0
  8 26  1  0  0  0
  9 27  1  0  0  0
 10 28  1  0  0  0
 11 29  1  0  0  0
 12 30  1  0  0  0
 12 31  1  0  0  0
 13 32  1  0  0  0
 14 33  1  0  0  0
 15 34  1  0  0  0
 17 35  1  0  0  0
 20 36  1  0  0  0
M  END
$$$$
