2jj3_ligand
  -I-interpret- 

 46 49  0  0  0  0  0  0  0  0999 V2000
   79.9690   42.6170   68.0430 C   0  0  0  0  0
   80.0090   42.6960   69.4310 C   0  0  0  0  0
   79.1100   41.9430   70.1820 C   0  0  0  0  0
   78.1650   41.1120   69.5730 C   0  0  0  0  0
   77.3310   40.4200   70.4030 O   0  0  0  0  0
   76.9060   39.1920   69.8100 C   0  0  0  0  0
   76.1480   39.4660   68.4900 C   0  0  0  0  0
   75.0360   40.5320   68.7030 C   0  0  0  0  0
   74.8590   41.1840   67.3090 C   0  0  0  0  0
   76.1980   41.0060   66.5620 C   0  0  0  0  0
   77.1220   40.1290   67.4700 C   0  0  0  0  0
   78.1260   41.0270   68.1880 C   0  0  0  0  0
   79.0280   41.7850   67.4170 C   0  0  0  0  0
   76.0200   38.4410   70.7970 C   0  0  0  0  0
   75.9830   38.8250   72.1370 C   0  0  0  0  0
   75.1690   38.1400   73.0420 C   0  0  0  0  0
   74.3910   37.0640   72.5980 C   0  0  0  0  0
   73.5840   36.3860   73.4700 O   0  0  0  0  0
   74.4280   36.6770   71.2590 C   0  0  0  0  0
   75.2410   37.3630   70.3600 C   0  0  0  0  0
   79.1470   42.0170   71.6670 C   0  0  0  0  0
   79.6730   40.7730   72.1350 O   0  0  0  0  0
   80.4590   41.0690   73.2630 C   0  0  0  0  0
   80.8480   43.3580   67.3100 O   0  0  0  0  0
   80.7360   43.3402   69.9255 H   0  0  0  0  0
   77.7766   38.5798   69.5746 H   0  0  0  0  0
   75.7405   38.5147   68.1478 H   0  0  0  0  0
   75.3077   41.2616   69.4658 H   0  0  0  0  0
   74.1095   40.0908   69.0703 H   0  0  0  0  0
   74.6048   42.2397   67.4037 H   0  0  0  0  0
   74.0431   40.7128   66.7609 H   0  0  0  0  0
   76.6596   41.9738   66.3661 H   0  0  0  0  0
   76.0382   40.5235   65.5977 H   0  0  0  0  0
   77.6938   39.3875   66.9120 H   0  0  0  0  0
   78.9953   41.7253   66.3291 H   0  0  0  0  0
   76.5912   39.6623   72.4792 H   0  0  0  0  0
   75.1396   38.4417   74.0890 H   0  0  0  0  0
   73.1261   35.6845   73.0011 H   0  0  0  0  0
   73.8215   35.8387   70.9163 H   0  0  0  0  0
   75.2708   37.0598   69.3135 H   0  0  0  0  0
   78.1487   42.1892   72.0693 H   0  0  0  0  0
   79.7713   42.8477   71.9961 H   0  0  0  0  0
   81.2619   41.7483   72.9767 H   0  0  0  0  0
   79.8370   41.5399   74.0242 H   0  0  0  0  0
   80.8851   40.1473   73.6593 H   0  0  0  0  0
   80.6982   43.1979   66.3754 H   0  0  0  0  0
  1  2  4  0  0  0
  1 13  4  0  0  0
  1 24  1  0  0  0
  2  3  4  0  0  0
  3  4  4  0  0  0
  3 21  1  0  0  0
  4  5  1  0  0  0
  4 12  4  0  0  0
  5  6  1  0  0  0
  6  7  1  0  0  0
  6 14  1  0  0  0
  7  8  1  0  0  0
  7 11  1  0  0  0
  8  9  1  0  0  0
  9 10  1  0  0  0
 10 11  1  0  0  0
 11 12  1  0  0  0
 12 13  4  0  0  0
 14 15  4  0  0  0
 14 20  4  0  0  0
 15 16  4  0  0  0
 16 17  4  0  0  0
 17 18  1  0  0  0
 17 19  4  0  0  0
 19 20  4  0  0  0
 21 22  1  0  0  0
 22 23  1  0  0  0
  2 25  1  0  0  0
  6 26  1  0  0  0
  7 27  1  0  0  0
  8 28  1  0  0  0
  8 29  1  0  0  0
  9 30  1  0  0  0
  9 31  1  0  0  0
 10 32  1  0  0  0
 10 33  1  0  0  0
 11 34  1  0  0  0
 13 35  1  0  0  0
 15 36  1  0  0  0
 16 37  1  0  0  0
 18 38  1  0  0  0
 19 39  1  0  0  0
 20 40  1  0  0  0
 21 41  1  0  0  0
 21 42  1  0  0  0
 23 43  1  0  0  0
 23 44  1  0  0  0
 23 45  1  0  0  0
 24 46  1  0  0  0
M  END
$$$$
