1ycm_ligand
  -I-interpret- 

 39 39  0  0  0  0  0  0  0  0999 V2000
    7.8980   -3.9230   -5.4320 C   0  0  0  0  0
    7.5570   -3.7510   -4.0960 C   0  0  0  0  0
    6.6090   -4.6000   -3.5250 C   0  0  0  0  0
    6.0070   -5.6080   -4.2910 C   0  0  0  0  0
    6.3670   -5.7530   -5.6170 C   0  0  0  0  0
    7.3140   -4.9200   -6.2070 C   0  0  0  0  0
    6.1890   -4.5710   -2.2100 O   0  0  0  0  0
    7.0180   -3.9180   -1.2830 C   0  0  0  0  0
    7.7690   -5.1730   -7.9240 S   0  0  0  0  0
    9.2510   -5.2270   -7.9960 O   0  0  0  0  0
    7.0610   -6.3650   -8.4390 O   0  0  0  0  0
    7.1650   -3.6930   -8.6770 N   0  0  0  0  0
    7.9750   -2.8610   -9.6070 C   0  0  0  0  0
    5.8480   -3.1140   -8.2430 C   0  0  0  0  0
    6.0170   -2.0150   -7.2360 C   0  0  0  0  0
    5.0120   -1.4590   -6.5700 N   0  0  0  0  0
    5.0660   -0.4410   -5.7650 O   0  0  0  0  0
    7.1990   -1.5390   -7.0930 O   0  0  0  0  0
    8.4070   -3.6060  -10.8780 C   0  0  0  0  0
    9.8510   -4.0690  -10.7930 C   0  0  0  0  0
    8.2360   -2.6630  -12.0600 C   0  0  0  0  0
    8.6390   -3.2626   -5.8825 H   0  0  0  0  0
    8.0234   -2.9643   -3.5030 H   0  0  0  0  0
    5.2638   -6.2695   -3.8458 H   0  0  0  0  0
    5.8997   -6.5362   -6.2140 H   0  0  0  0  0
    7.9941   -4.4028   -1.2658 H   0  0  0  0  0
    7.1345   -2.8740   -1.5740 H   0  0  0  0  0
    6.5664   -3.9722   -0.2924 H   0  0  0  0  0
    8.8805   -2.5651   -9.0773 H   0  0  0  0  0
    7.3563   -2.0184   -9.9158 H   0  0  0  0  0
    5.2630   -3.9097   -7.7819 H   0  0  0  0  0
    5.3549   -2.6968   -9.1210 H   0  0  0  0  0
    7.7880   -4.4952  -10.9970 H   0  0  0  0  0
   10.5015   -3.2041  -10.6632 H   0  0  0  0  0
    9.9659   -4.7424   -9.9436 H   0  0  0  0  0
   10.1183   -4.5917  -11.7114 H   0  0  0  0  0
    7.1906   -2.3639  -12.1363 H   0  0  0  0  0
    8.8579   -1.7802  -11.9118 H   0  0  0  0  0
    8.5374   -3.1718  -12.9756 H   0  0  0  0  0
  1  2  4  0  0  0
  1  6  4  0  0  0
  2  3  4  0  0  0
  3  4  4  0  0  0
  3  7  1  0  0  0
  4  5  4  0  0  0
  5  6  4  0  0  0
  6  9  1  0  0  0
  7  8  1  0  0  0
  9 10  2  0  0  0
  9 11  2  0  0  0
  9 12  1  0  0  0
 12 13  1  0  0  0
 12 14  1  0  0  0
 13 19  1  0  0  0
 14 15  1  0  0  0
 15 16  1  0  0  0
 15 18  2  0  0  0
 16 17  2  0  0  0
 19 20  1  0  0  0
 19 21  1  0  0  0
  1 22  1  0  0  0
  2 23  1  0  0  0
  4 24  1  0  0  0
  5 25  1  0  0  0
  8 26  1  0  0  0
  8 27  1  0  0  0
  8 28  1  0  0  0
 13 29  1  0  0  0
 13 30  1  0  0  0
 14 31  1  0  0  0
 14 32  1  0  0  0
 19 33  1  0  0  0
 20 34  1  0  0  0
 20 35  1  0  0  0
 20 36  1  0  0  0
 21 37  1  0  0  0
 21 38  1  0  0  0
 21 39  1  0  0  0
M  END
$$$$
