2i4d_ligand
  -I-interpret- 

 86 89  0  0  0  0  0  0  0  0999 V2000
   11.8880   18.1870   18.3200 C   0  0  0  0  0
   10.7650   18.5040   20.4450 O   0  0  0  0  0
   12.7890   19.0500   19.2100 C   0  0  0  0  0
   12.7450   20.4310   18.8200 O   0  0  0  0  0
   13.8170   20.9230   18.1820 C   0  0  0  0  0
   13.5720   22.2150   17.8840 N   0  0  0  0  0
   14.5400   23.0230   17.1870 C   0  0  0  0  0
   14.8430   24.2050   18.1340 C   0  0  0  0  0
   16.0080   25.0840   17.6070 C   0  0  0  0  0
   17.2520   24.2810   17.5830 N   0  0  0  0  0
   18.2170   24.9380   18.4890 C   0  0  0  0  0
   18.2920   24.2540   19.8790 C   0  0  0  0  0
   17.3970   23.0000   19.9170 C   0  0  0  0  0
   19.7320   23.7940   20.1280 C   0  0  0  0  0
   17.8980   24.1240   16.0130 S   0  0  0  0  0
   18.7970   25.5560   15.5710 C   0  0  0  0  0
   18.1530   26.6210   14.9190 C   0  0  0  0  0
   18.8750   27.7800   14.5790 C   0  0  0  0  0
   20.2390   27.8860   14.8860 C   0  0  0  0  0
   20.9390   29.0520   14.5460 O   0  0  0  0  0
   22.3110   29.1180   14.9730 C   0  0  0  0  0
   20.8840   26.8120   15.5340 C   0  0  0  0  0
   20.1640   25.6510   15.8760 C   0  0  0  0  0
   16.7850   23.9020   15.0420 O   0  0  0  0  0
   18.8160   22.9420   15.9990 O   0  0  0  0  0
   13.6600   24.9760   18.2350 O   0  0  0  0  0
   13.9410   23.5430   15.8580 C   0  0  0  0  0
   13.3360   22.4110   15.0340 C   0  0  0  0  0
   14.1720   21.5410   14.3040 C   0  0  0  0  0
   13.6060   20.4980   13.5440 C   0  0  0  0  0
   12.2020   20.3270   13.5130 C   0  0  0  0  0
   11.6400   19.2980   12.7640 O   0  0  0  0  0
   11.9150   18.0090   13.2920 C   0  0  0  0  0
   11.0470   16.7420   12.3170 P   0  0  0  0  0
    9.4740   17.0070   12.3670 O   0  0  0  0  0
   11.3580   15.4140   12.8920 O   0  0  0  0  0
   11.5320   16.8010   10.7980 O   0  0  0  0  0
   11.3700   21.1990   14.2470 C   0  0  0  0  0
   11.9370   22.2400   15.0050 C   0  0  0  0  0
   14.8380   20.3070   17.9020 O   0  0  0  0  0
   12.1230   18.9920   20.6050 C   0  0  0  0  0
   10.5480   18.2190   19.0560 C   0  0  0  0  0
    9.7560   19.2330   18.4350 O   0  0  0  0  0
   10.0700   19.2190   17.0400 C   0  0  0  0  0
   11.5620   18.8440   16.9610 C   0  0  0  0  0
   12.3652   17.2226   18.1461 H   0  0  0  0  0
   13.8186   18.6954   19.1615 H   0  0  0  0  0
   12.6813   22.6296   18.1582 H   0  0  0  0  0
   15.4394   22.4596   16.9387 H   0  0  0  0  0
   15.1531   23.8233   19.1067 H   0  0  0  0  0
   16.1413   25.9453   18.2616 H   0  0  0  0  0
   15.7774   25.4313   16.5998 H   0  0  0  0  0
   17.8892   25.9667   18.6389 H   0  0  0  0  0
   19.2039   24.8746   18.0305 H   0  0  0  0  0
   17.9617   24.9691   20.6324 H   0  0  0  0  0
   16.3640   23.2863   19.7195 H   0  0  0  0  0
   17.7312   22.2935   19.1572 H   0  0  0  0  0
   17.4650   22.5363   20.9011 H   0  0  0  0  0
   20.0255   23.0869   19.3521 H   0  0  0  0  0
   20.3970   24.6573   20.1049 H   0  0  0  0  0
   19.7944   23.3117   21.1035 H   0  0  0  0  0
   17.0928   26.5494   14.6762 H   0  0  0  0  0
   18.3696   28.6024   14.0727 H   0  0  0  0  0
   22.3558   29.0463   16.0597 H   0  0  0  0  0
   22.8682   28.2926   14.5299 H   0  0  0  0  0
   22.7450   30.0649   14.6518 H   0  0  0  0  0
   21.9456   26.8810   15.7714 H   0  0  0  0  0
   20.6686   24.8254   16.3780 H   0  0  0  0  0
   13.8145   25.7221   18.8190 H   0  0  0  0  0
   14.7401   24.0031   15.2767 H   0  0  0  0  0
   13.1524   24.2581   16.0921 H   0  0  0  0  0
   15.2535   21.6750   14.3276 H   0  0  0  0  0
   14.2499   19.8231   12.9801 H   0  0  0  0  0
   11.5729   17.9637   14.3259 H   0  0  0  0  0
   12.9883   17.8239   13.2476 H   0  0  0  0  0
    9.2839   17.8701   11.9920 H   0  0  0  0  0
   11.3275   17.6643   10.4313 H   0  0  0  0  0
   10.2883   21.0661   14.2267 H   0  0  0  0  0
   11.2940   22.9147   15.5702 H   0  0  0  0  0
   12.6844   18.3245   21.2587 H   0  0  0  0  0
   12.1118   19.9850   21.0544 H   0  0  0  0  0
   10.0359   17.2585   18.9994 H   0  0  0  0  0
    9.8749   20.1857   16.5758 H   0  0  0  0  0
    9.4487   18.5070   16.4967 H   0  0  0  0  0
   11.7629   18.1683   16.1296 H   0  0  0  0  0
   12.1867   19.7181   16.7772 H   0  0  0  0  0
  1  3  1  0  0  0
 42  1  1  0  0  0
  1 45  1  0  0  0
  2 41  1  0  0  0
  2 42  1  0  0  0
  3  4  1  0  0  0
  3 41  1  0  0  0
  4  5  1  0  0  0
  5  6  1  0  0  0
  5 40  2  0  0  0
  6  7  1  0  0  0
  7  8  1  0  0  0
  7 27  1  0  0  0
  8  9  1  0  0  0
  8 26  1  0  0  0
  9 10  1  0  0  0
 10 11  1  0  0  0
 10 15  1  0  0  0
 11 12  1  0  0  0
 12 13  1  0  0  0
 12 14  1  0  0  0
 15 16  1  0  0  0
 15 24  2  0  0  0
 15 25  2  0  0  0
 16 17  4  0  0  0
 16 23  4  0  0  0
 17 18  4  0  0  0
 18 19  4  0  0  0
 19 20  1  0  0  0
 19 22  4  0  0  0
 20 21  1  0  0  0
 22 23  4  0  0  0
 27 28  1  0  0  0
 28 29  4  0  0  0
 28 39  4  0  0  0
 29 30  4  0  0  0
 30 31  4  0  0  0
 31 32  1  0  0  0
 31 38  4  0  0  0
 32 33  1  0  0  0
 33 34  1  0  0  0
 34 35  1  0  0  0
 34 36  2  0  0  0
 34 37  1  0  0  0
 38 39  4  0  0  0
 42 43  1  0  0  0
 43 44  1  0  0  0
 44 45  1  0  0  0
  1 46  1  0  0  0
  3 47  1  0  0  0
  6 48  1  0  0  0
  7 49  1  0  0  0
  8 50  1  0  0  0
  9 51  1  0  0  0
  9 52  1  0  0  0
 11 53  1  0  0  0
 11 54  1  0  0  0
 12 55  1  0  0  0
 13 56  1  0  0  0
 13 57  1  0  0  0
 13 58  1  0  0  0
 14 59  1  0  0  0
 14 60  1  0  0  0
 14 61  1  0  0  0
 17 62  1  0  0  0
 18 63  1  0  0  0
 21 64  1  0  0  0
 21 65  1  0  0  0
 21 66  1  0  0  0
 22 67  1  0  0  0
 23 68  1  0  0  0
 26 69  1  0  0  0
 27 70  1  0  0  0
 27 71  1  0  0  0
 29 72  1  0  0  0
 30 73  1  0  0  0
 33 74  1  0  0  0
 33 75  1  0  0  0
 35 76  1  0  0  0
 37 77  1  0  0  0
 38 78  1  0  0  0
 39 79  1  0  0  0
 41 80  1  0  0  0
 41 81  1  0  0  0
 42 82  1  0  0  0
 44 83  1  0  0  0
 44 84  1  0  0  0
 45 85  1  0  0  0
 45 86  1  0  0  0
M  END
$$$$
