5zyh_ligand
  -I-interpret- 

 60 63  0  0  0  0  0  0  0  0999 V2000
  -33.9170    3.7140   -7.5070 C   0  0  0  0  0
  -35.2280    3.2310   -7.6970 C   0  0  0  0  0
  -36.0540    2.9500   -6.5720 C   0  0  0  0  0
  -33.3520    3.8870   -6.2100 C   0  0  0  0  0
  -31.5920    5.4770   -6.9240 C   0  0  0  0  0
  -31.9820    4.3950   -6.0730 C   0  0  0  0  0
  -34.1790    3.5860   -5.0580 C   0  0  0  0  0
  -29.7620    4.3420   -5.0160 C   0  0  0  0  0
  -30.2770    6.0050   -6.8360 C   0  0  0  0  0
  -27.6040    5.9440   -4.2280 O   0  0  0  0  0
  -27.7420    6.1580   -5.7410 S   0  0  0  0  0
  -27.8810    7.5900   -6.3720 O   0  0  0  0  0
  -26.3950    5.1860   -6.5610 C   0  0  0  0  0
  -26.3940    5.3520   -8.0890 C   0  0  0  0  0
  -27.5800    4.7390   -8.5770 O   0  0  0  0  0
  -29.3910    5.4160   -5.8890 C   0  0  0  0  0
  -31.0570    3.8250   -5.1500 C   0  0  0  0  0
  -35.5390    3.1140   -5.2410 C   0  0  0  0  0
  -36.4060    2.7930   -4.0040 C   0  0  0  0  0
  -36.8550    4.0640   -3.2250 C   0  0  0  0  0
  -37.6540    1.9380   -4.3710 C   0  0  0  0  0
  -35.4810    1.9310   -3.1520 C   0  0  0  0  0
  -35.6720    3.1250   -9.1030 C   0  0  0  0  0
  -36.9910    3.8430   -9.2640 C   0  0  0  0  0
  -36.8080    2.4400   -9.8200 C   0  0  0  0  0
  -37.7240    1.2700   -9.5020 C   0  0  0  0  0
  -37.1880    0.1960   -8.8980 N   0  0  0  0  0
  -38.0200   -0.8410   -8.6390 C   0  0  0  0  0
  -39.3840   -0.9020   -8.9850 C   0  0  0  0  0
  -39.9370    0.1990   -9.6370 C   0  0  0  0  0
  -39.0830    1.2850   -9.8910 C   0  0  0  0  0
  -33.3156    3.9634   -8.3812 H   0  0  0  0  0
  -37.0788    2.6099   -6.7208 H   0  0  0  0  0
  -32.3022    5.8946   -7.6376 H   0  0  0  0  0
  -33.7785    3.7145   -4.0524 H   0  0  0  0  0
  -29.0654    3.9438   -4.2782 H   0  0  0  0  0
  -29.9569    6.8315   -7.4704 H   0  0  0  0  0
  -26.5582    4.1316   -6.3379 H   0  0  0  0  0
  -25.4399    5.5507   -6.1830 H   0  0  0  0  0
  -25.5116    4.8847   -8.5261 H   0  0  0  0  0
  -26.3663    6.4071   -8.3613 H   0  0  0  0  0
  -27.6129    4.8240   -9.5327 H   0  0  0  0  0
  -31.3618    2.9748   -4.5399 H   0  0  0  0  0
  -35.9750    4.6068   -2.8799 H   0  0  0  0  0
  -37.4428    4.7035   -3.8835 H   0  0  0  0  0
  -37.4604    3.7684   -2.3681 H   0  0  0  0  0
  -38.2695    2.4841   -5.0858 H   0  0  0  0  0
  -37.3301    0.9960   -4.8136 H   0  0  0  0  0
  -38.2332    1.7373   -3.4697 H   0  0  0  0  0
  -35.2010    1.0383   -3.7113 H   0  0  0  0  0
  -34.5857    2.4997   -2.9008 H   0  0  0  0  0
  -35.9974    1.6409   -2.2370 H   0  0  0  0  0
  -34.6243    3.0517   -9.3945 H   0  0  0  0  0
  -37.3615    4.8138   -9.5932 H   0  0  0  0  0
  -37.7036    4.3963   -8.6523 H   0  0  0  0  0
  -36.8351    1.8947  -10.7634 H   0  0  0  0  0
  -37.5983   -1.7010   -8.1188 H   0  0  0  0  0
  -39.9863   -1.7798   -8.7510 H   0  0  0  0  0
  -40.9850    0.2164   -9.9363 H   0  0  0  0  0
  -39.4788    2.1628  -10.4017 H   0  0  0  0  0
  1  2  4  0  0  0
  4  1  4  0  0  0
  2  3  4  0  0  0
  2 23  1  0  0  0
 18  3  4  0  0  0
  6  4  1  0  0  0
  4  7  4  0  0  0
  5  6  4  0  0  0
  9  5  4  0  0  0
 17  6  4  0  0  0
  7 18  4  0  0  0
 16  8  4  0  0  0
  8 17  4  0  0  0
 16  9  4  0  0  0
 11 10  2  0  0  0
 11 12  2  0  0  0
 11 13  1  0  0  0
 11 16  1  0  0  0
 13 14  1  0  0  0
 14 15  1  0  0  0
 18 19  1  0  0  0
 19 20  1  0  0  0
 19 21  1  0  0  0
 19 22  1  0  0  0
 23 24  1  0  0  0
 23 25  1  0  0  0
 24 25  1  0  0  0
 25 26  1  0  0  0
 26 27  4  0  0  0
 26 31  4  0  0  0
 27 28  4  0  0  0
 28 29  4  0  0  0
 29 30  4  0  0  0
 30 31  4  0  0  0
  1 32  1  0  0  0
  3 33  1  0  0  0
  5 34  1  0  0  0
  7 35  1  0  0  0
  8 36  1  0  0  0
  9 37  1  0  0  0
 13 38  1  0  0  0
 13 39  1  0  0  0
 14 40  1  0  0  0
 14 41  1  0  0  0
 15 42  1  0  0  0
 17 43  1  0  0  0
 20 44  1  0  0  0
 20 45  1  0  0  0
 20 46  1  0  0  0
 21 47  1  0  0  0
 21 48  1  0  0  0
 21 49  1  0  0  0
 22 50  1  0  0  0
 22 51  1  0  0  0
 22 52  1  0  0  0
 23 53  1  0  0  0
 24 54  1  0  0  0
 24 55  1  0  0  0
 25 56  1  0  0  0
 28 57  1  0  0  0
 29 58  1  0  0  0
 30 59  1  0  0  0
 31 60  1  0  0  0
M  END
$$$$
