1gfw_ligand
  -I-interpret- 

 50 53  0  0  0  0  0  0  0  0999 V2000
   37.8320   31.9580   27.6090 S   0  0  0  0  0
   34.8990   36.0180   31.0490 N   0  0  0  0  0
   39.5730   32.0690   27.8470 N   0  0  0  0  0
   41.0500   32.5810   25.0020 O   0  0  0  0  0
   33.6150   35.3330   32.8950 O   0  0  0  0  0
   34.1410   32.7110   31.6750 O   0  0  0  0  0
   37.4530   30.6450   28.0400 O   0  0  0  0  0
   37.7590   32.3160   26.2430 O   0  0  0  0  0
   34.4470   35.1090   32.0080 C   0  0  0  0  0
   35.1120   33.7590   31.8460 C   0  0  0  0  0
   36.5000   32.9310   29.9060 C   0  0  0  0  0
   36.9700   33.2280   28.5810 C   0  0  0  0  0
   36.7770   34.5390   28.0230 C   0  0  0  0  0
   36.1200   35.5620   28.7630 C   0  0  0  0  0
   35.6390   35.2460   30.0630 C   0  0  0  0  0
   35.8110   33.9710   30.6060 C   0  0  0  0  0
   40.2580   33.3410   27.4860 C   0  0  0  0  0
   40.9650   33.9310   28.7030 C   0  0  0  0  0
   40.6350   32.9930   29.8420 C   0  0  0  0  0
   40.0610   31.7480   29.1930 C   0  0  0  0  0
   41.2910   33.2390   26.2930 C   0  0  0  0  0
   39.8930   32.8910   24.2330 C   0  0  0  0  0
   39.5470   34.2470   23.9090 C   0  0  0  0  0
   38.4070   34.5440   23.1000 C   0  0  0  0  0
   37.6050   33.4880   22.6070 C   0  0  0  0  0
   37.9400   32.1280   22.9190 C   0  0  0  0  0
   39.0770   31.8330   23.7280 C   0  0  0  0  0
   34.7320   37.4700   31.0830 C   0  0  0  0  0
   34.5935   31.8702   31.5753 H   0  0  0  0  0
   35.7236   33.4565   32.6960 H   0  0  0  0  0
   36.6619   31.9530   30.3593 H   0  0  0  0  0
   37.1395   34.7528   27.0175 H   0  0  0  0  0
   35.9893   36.5600   28.3446 H   0  0  0  0  0
   39.4557   33.9912   27.1372 H   0  0  0  0  0
   40.6323   34.9484   28.9089 H   0  0  0  0  0
   42.0405   34.0112   28.5452 H   0  0  0  0  0
   39.9253   33.4435   30.5359 H   0  0  0  0  0
   41.5193   32.7609   30.4356 H   0  0  0  0  0
   40.8384   30.9873   29.1225 H   0  0  0  0  0
   39.2336   31.3756   29.7970 H   0  0  0  0  0
   41.4000   34.2827   25.9982 H   0  0  0  0  0
   42.0728   32.6133   26.7235 H   0  0  0  0  0
   40.1639   35.0626   24.2863 H   0  0  0  0  0
   38.1568   35.5783   22.8641 H   0  0  0  0  0
   36.7332   33.7073   21.9906 H   0  0  0  0  0
   37.3222   31.3160   22.5356 H   0  0  0  0  0
   39.3239   30.7973   23.9615 H   0  0  0  0  0
   33.6693   37.7119   31.1010 H   0  0  0  0  0
   35.2119   37.8688   31.9767 H   0  0  0  0  0
   35.1907   37.9081   30.1966 H   0  0  0  0  0
  3  1  1  0  0  0
  1  7  2  0  0  0
  1  8  2  0  0  0
  1 12  1  0  0  0
  2  9  1  0  0  0
 15  2  1  0  0  0
  2 28  1  0  0  0
 17  3  1  0  0  0
  3 20  1  0  0  0
 21  4  1  0  0  0
  4 22  1  0  0  0
  9  5  2  0  0  0
 10  6  1  0  0  0
 10  9  1  0  0  0
 16 10  1  0  0  0
 12 11  4  0  0  0
 11 16  4  0  0  0
 12 13  4  0  0  0
 13 14  4  0  0  0
 14 15  4  0  0  0
 16 15  4  0  0  0
 17 18  1  0  0  0
 17 21  1  0  0  0
 18 19  1  0  0  0
 19 20  1  0  0  0
 22 23  4  0  0  0
 22 27  4  0  0  0
 23 24  4  0  0  0
 24 25  4  0  0  0
 25 26  4  0  0  0
 26 27  4  0  0  0
  6 29  1  0  0  0
 10 30  1  0  0  0
 11 31  1  0  0  0
 13 32  1  0  0  0
 14 33  1  0  0  0
 17 34  1  0  0  0
 18 35  1  0  0  0
 18 36  1  0  0  0
 19 37  1  0  0  0
 19 38  1  0  0  0
 20 39  1  0  0  0
 20 40  1  0  0  0
 21 41  1  0  0  0
 21 42  1  0  0  0
 23 43  1  0  0  0
 24 44  1  0  0  0
 25 45  1  0  0  0
 26 46  1  0  0  0
 27 47  1  0  0  0
 28 48  1  0  0  0
 28 49  1  0  0  0
 28 50  1  0  0  0
M  END
$$$$
