### 
### Created by X-TOOL on Mon Sep 10 21:13:16 2018
### 

@<TRIPOS>MOLECULE
4dx9_ligand
  150   150     1     0     0
SMALL
GAST_HUCK


@<TRIPOS>ATOM
      1 N          18.0480   71.1390  -76.0850 N.4       1 LYS         0.2379
      2 CA         18.4770   72.0870  -77.1530 C.3       1 LYS         0.0650
      3 C          18.6790   73.5070  -76.6270 C.2       1 LYS         0.2268
      4 O          18.2480   73.8390  -75.5210 O.2       1 LYS        -0.3907
      5 CB         17.4870   72.0700  -78.3190 C.3       1 LYS         0.0080
      6 CG         17.6340   70.8640  -79.2380 C.3       1 LYS        -0.0410
      7 CD         16.5140   70.7880  -80.2670 C.3       1 LYS        -0.0123
      8 CE         15.1800   70.4300  -79.6220 C.3       1 LYS        -0.0354
      9 NZ         14.1350   70.1110  -80.6310 N.4       1 LYS         0.2185
     10 N          19.3290   74.3320  -77.4490 N.am      1 SER        -0.2589
     11 CA         19.8490   75.6500  -77.0640 C.3       1 SER         0.1540
     12 C          18.7960   76.7080  -76.7220 C.2       1 SER         0.2062
     13 O          17.6120   76.5470  -77.0250 O.2       1 SER        -0.3943
     14 CB         20.7570   76.1790  -78.1780 C.3       1 SER         0.0843
     15 OG         20.0490   76.2760  -79.4040 O.3       1 SER        -0.3903
     16 N          19.2530   77.7890  -76.0900 N.am      1 ALA        -0.2639
     17 CA         18.4200   78.9510  -75.7810 C.3       1 ALA         0.1282
     18 C          19.2140   80.2560  -75.9010 C.2       1 ALA         0.2036
     19 O          18.6920   81.2590  -76.3920 O.2       1 ALA        -0.3944
     20 CB         17.8110   78.8220  -74.3920 C.3       1 ALA        -0.0244
     21 N          20.4680   80.2310  -75.4470 N.am      1 VAL        -0.2635
     22 CA         21.3780   81.3800  -75.5300 C.3       1 VAL         0.1333
     23 C          22.7440   80.9390  -76.0770 C.2       1 VAL         0.2042
     24 O          23.4210   80.1080  -75.4680 O.2       1 VAL        -0.3944
     25 CB         21.5670   82.0530  -74.1500 C.3       1 VAL        -0.0063
     26 CG1        22.5130   83.2430  -74.2450 C.3       1 VAL        -0.0584
     27 CG2        20.2300   82.4840  -73.5660 C.3       1 VAL        -0.0584
     28 N          23.1470   81.4970  -77.2180 N.am      1 THR        -0.2613
     29 CA         24.4100   81.1060  -77.8680 C.3       1 THR         0.1565
     30 C          25.4690   82.2140  -77.8690 C.2       1 THR         0.2065
     31 O          25.1410   83.4050  -77.8890 O.2       1 THR        -0.3943
     32 CB         24.1950   80.6270  -79.3210 C.3       1 THR         0.0924
     33 OG1        23.6960   81.7080  -80.1150 O.3       1 THR        -0.3874
     34 CG2        23.2170   79.4620  -79.3750 C.3       1 THR        -0.0346
     35 N          26.7380   81.8010  -77.8650 N.am      1 THR        -0.2613
     36 CA         27.8760   82.7270  -77.8230 C.3       1 THR         0.1565
     37 C          29.0980   82.2210  -78.5990 C.2       1 THR         0.2065
     38 O          29.1970   81.0320  -78.9150 O.2       1 THR        -0.3943
     39 CB         28.2860   83.0630  -76.3680 C.3       1 THR         0.0924
     40 OG1        29.3730   83.9990  -76.3750 O.3       1 THR        -0.3874
     41 CG2        28.7070   81.8080  -75.6040 C.3       1 THR        -0.0346
     42 N          30.0140   83.1430  -78.9020 N.am      1 VAL        -0.2634
     43 CA         31.3030   82.8290  -79.5300 C.3       1 VAL         0.1333
     44 C          32.4080   83.6710  -78.8790 C.2       1 VAL         0.2042
     45 O          32.3160   84.9030  -78.8370 O.2       1 VAL        -0.3944
     46 CB         31.2810   83.0750  -81.0610 C.3       1 VAL        -0.0063
     47 CG1        32.6850   83.0010  -81.6480 C.3       1 VAL        -0.0584
     48 CG2        30.3680   82.0800  -81.7640 C.3       1 VAL        -0.0584
     49 N          33.4460   83.0030  -78.3760 N.am      1 VAL        -0.2635
     50 CA         34.5670   83.6840  -77.7140 C.3       1 VAL         0.1333
     51 C          35.7910   83.8690  -78.6150 C.2       1 VAL         0.2043
     52 O          36.1060   83.0090  -79.4440 O.2       1 VAL        -0.3944
     53 CB         34.9920   82.9790  -76.4030 C.3       1 VAL        -0.0063
     54 CG1        33.9520   83.2040  -75.3190 C.3       1 VAL        -0.0584
     55 CG2        35.2360   81.4890  -76.6240 C.3       1 VAL        -0.0584
     56 N          36.4730   85.0000  -78.4360 N.am      1 ASN        -0.2616
     57 CA         37.6670   85.3320  -79.2110 C.3       1 ASN         0.1477
     58 C          38.8980   84.5900  -78.6950 C.2       1 ASN         0.2082
     59 O          39.2150   84.6650  -77.5060 O.2       1 ASN        -0.3940
     60 CB         37.9110   86.8490  -79.2100 C.3       1 ASN         0.0773
     61 CG         38.8950   87.2920  -80.2840 C.2       1 ASN         0.1780
     62 OD1        38.5050   87.8880  -81.2860 O.2       1 ASN        -0.3970
     63 ND2        40.1770   87.0060  -80.0770 N.am      1 ASN        -0.3007
     64 N          39.5950   83.8680  -79.5910 N.am      1 PRO        -0.2554
     65 CA         40.8240   83.1820  -79.2210 C.3       1 PRO         0.0972
     66 C          42.0530   84.0650  -79.4320 C.2       1 PRO         0.0603
     67 O          42.0581   85.2488  -79.0006 O.co2     1 PRO        -0.5666
     68 CB         40.8520   81.9830  -80.1740 C.3       1 PRO        -0.0159
     69 CG         40.0170   82.3860  -81.3510 C.3       1 PRO        -0.0288
     70 CD         39.2440   83.6290  -81.0020 C.3       1 PRO         0.0362
     71 O          43.0603   83.6098  -80.0368 O.co2     1 PRO        -0.5666
     72 H1         17.9285   70.2194  -76.4802 H         1 LYS         0.2015
     73 H2         17.1748   71.4509  -75.6898 H         1 LYS         0.2015
     74 H3         18.7507   71.1057  -75.3631 H         1 LYS         0.2015
     75 H4         19.4479   71.7369  -77.5334 H         1 LYS         0.1098
     76 H5         17.6401   72.9809  -78.9163 H         1 LYS         0.0346
     77 H6         16.4671   72.0688  -77.9070 H         1 LYS         0.0346
     78 H7         17.6176   69.9489  -78.6278 H         1 LYS         0.0270
     79 H8         18.5964   70.9355  -79.7659 H         1 LYS         0.0270
     80 H9         16.7667   70.0203  -81.0131 H         1 LYS         0.0317
     81 H10        16.4191   71.7649  -80.7637 H         1 LYS         0.0317
     82 H11        14.8391   71.2829  -79.0167 H         1 LYS         0.0813
     83 H12        15.3244   69.5539  -78.9727 H         1 LYS         0.0813
     84 H13        13.2733   69.8811  -80.1611 H         1 LYS         0.1994
     85 H14        14.4340   69.3257  -81.1877 H         1 LYS         0.1994
     86 H15        13.9893   70.9100  -81.2280 H         1 LYS         0.1994
     87 H16        19.4720   74.0323  -78.3923 H         1 SER         0.1885
     88 H17        20.4606   75.5029  -76.1616 H         1 SER         0.0823
     89 H18        21.6071   75.4929  -78.3062 H         1 SER         0.0606
     90 H19        21.1290   77.1753  -77.8970 H         1 SER         0.0606
     91 H20        20.6306   76.6055  -80.0790 H         1 SER         0.2097
     92 H21        20.2138   77.8064  -75.8132 H         1 ALA         0.1883
     93 H22        17.5993   78.9842  -76.5127 H         1 ALA         0.0797
     94 H23        17.1897   79.7048  -74.1807 H         1 ALA         0.0277
     95 H24        18.6147   78.7518  -73.6443 H         1 ALA         0.0277
     96 H25        17.1884   77.9163  -74.3473 H         1 ALA         0.0277
     97 H26        20.8051   79.3873  -75.0292 H         1 VAL         0.1883
     98 H27        20.9424   82.1171  -76.2206 H         1 VAL         0.0802
     99 H28        22.0150   81.3136  -73.4700 H         1 VAL         0.0343
    100 H29        22.6279   83.7003  -73.2512 H         1 VAL         0.0234
    101 H30        22.1000   83.9848  -74.9444 H         1 VAL         0.0234
    102 H31        23.4943   82.9033  -74.6079 H         1 VAL         0.0234
    103 H32        19.5594   81.6142  -73.5042 H         1 VAL         0.0234
    104 H33        19.7776   83.2506  -74.2123 H         1 VAL         0.0234
    105 H34        20.3862   82.8987  -72.5592 H         1 VAL         0.0234
    106 H35        22.5772   82.1996  -77.6443 H         1 THR         0.1884
    107 H36        24.8158   80.2611  -77.2923 H         1 THR         0.0826
    108 H37        25.1610   80.2969  -79.7307 H         1 THR         0.0639
    109 H38        22.8693   82.0080  -79.7557 H         1 THR         0.2101
    110 H39        23.0839   79.1431  -80.4193 H         1 THR         0.0257
    111 H40        22.2477   79.7775  -78.9617 H         1 THR         0.0257
    112 H41        23.6126   78.6234  -78.7832 H         1 THR         0.0257
    113 H42        26.9215   80.8183  -77.8918 H         1 THR         0.1884
    114 H43        27.5473   83.6613  -78.3015 H         1 THR         0.0826
    115 H44        27.4246   83.5163  -75.8556 H         1 THR         0.0639
    116 H45        29.1016   84.7945  -76.8177 H         1 THR         0.2101
    117 H46        28.9911   82.0819  -74.5772 H         1 THR         0.0257
    118 H47        29.5652   81.3414  -76.1097 H         1 THR         0.0257
    119 H48        27.8678   81.0975  -75.5751 H         1 THR         0.0257
    120 H49        29.8114   84.0990  -78.6898 H         1 VAL         0.1883
    121 H50        31.5216   81.7650  -79.3563 H         1 VAL         0.0802
    122 H51        30.8872   84.0868  -81.2373 H         1 VAL         0.0343
    123 H52        32.6388   83.1789  -82.7325 H         1 VAL         0.0234
    124 H53        33.1099   82.0044  -81.4577 H         1 VAL         0.0234
    125 H54        33.3199   83.7663  -81.1777 H         1 VAL         0.0234
    126 H55        29.3578   82.1415  -81.3331 H         1 VAL         0.0234
    127 H56        30.7625   81.0620  -81.6297 H         1 VAL         0.0234
    128 H57        30.3239   82.3176  -82.8371 H         1 VAL         0.0234
    129 H58        33.4623   82.0060  -78.4517 H         1 VAL         0.1883
    130 H59        34.2086   84.6886  -77.4450 H         1 VAL         0.0802
    131 H60        35.9377   83.4293  -76.0670 H         1 VAL         0.0343
    132 H61        34.2692   82.6971  -74.3957 H         1 VAL         0.0234
    133 H62        32.9851   82.7954  -75.6480 H         1 VAL         0.0234
    134 H63        33.8486   84.2824  -75.1282 H         1 VAL         0.0234
    135 H64        35.9915   81.3541  -77.4121 H         1 VAL         0.0234
    136 H65        34.2967   81.0050  -76.9298 H         1 VAL         0.0234
    137 H66        35.5958   81.0338  -75.6895 H         1 VAL         0.0234
    138 H67        36.1550   85.6476  -77.7435 H         1 ASN         0.1885
    139 H68        37.4931   85.0155  -80.2500 H         1 ASN         0.0826
    140 H69        38.3102   87.1396  -78.2271 H         1 ASN         0.0551
    141 H70        36.9515   87.3589  -79.3814 H         1 ASN         0.0551
    142 H71        40.8645   87.2748  -80.7516 H         1 ASN         0.1814
    143 H72        40.4536   86.5221  -79.2467 H         1 ASN         0.1814
    144 H73        40.7875   82.8528  -78.1721 H         1 PRO         0.0728
    145 H74        40.4249   81.0944  -79.6862 H         1 PRO         0.0306
    146 H75        41.8833   81.7676  -80.4903 H         1 PRO         0.0306
    147 H76        39.3173   81.5751  -81.6015 H         1 PRO         0.0286
    148 H77        40.6689   82.5875  -82.2138 H         1 PRO         0.0286
    149 H78        39.5542   84.4749  -81.6330 H         1 PRO         0.0524
    150 H79        38.1624   83.4641  -81.1156 H         1 PRO         0.0524
@<TRIPOS>BOND
     1    1    2 1  
     2    2    3 1  
     3    2    5 1  
     4    3    4 2  
     5    3   10 am 
     6    5    6 1  
     7    6    7 1  
     8    7    8 1  
     9    8    9 1  
    10   10   11 1  
    11   11   12 1  
    12   11   14 1  
    13   12   13 2  
    14   12   16 am 
    15   14   15 1  
    16   16   17 1  
    17   17   18 1  
    18   17   20 1  
    19   18   19 2  
    20   18   21 am 
    21   21   22 1  
    22   22   23 1  
    23   22   25 1  
    24   23   24 2  
    25   23   28 am 
    26   25   26 1  
    27   25   27 1  
    28   28   29 1  
    29   29   30 1  
    30   29   32 1  
    31   30   31 2  
    32   30   35 am 
    33   32   33 1  
    34   32   34 1  
    35   35   36 1  
    36   36   37 1  
    37   36   39 1  
    38   37   38 2  
    39   37   42 am 
    40   39   40 1  
    41   39   41 1  
    42   42   43 1  
    43   43   44 1  
    44   43   46 1  
    45   44   45 2  
    46   44   49 am 
    47   46   47 1  
    48   46   48 1  
    49   49   50 1  
    50   50   51 1  
    51   50   53 1  
    52   51   52 2  
    53   51   56 am 
    54   53   54 1  
    55   53   55 1  
    56   56   57 1  
    57   57   58 1  
    58   57   60 1  
    59   58   59 2  
    60   58   64 am 
    61   60   61 1  
    62   61   62 2  
    63   61   63 am 
    64   64   65 1  
    65   64   70 1  
    66   65   66 1  
    67   65   68 1  
    68   66   67 ar 
    69   68   69 1  
    70   69   70 1  
    71   66   71 ar 
    72    1   72 1  
    73    1   73 1  
    74    1   74 1  
    75    2   75 1  
    76    5   76 1  
    77    5   77 1  
    78    6   78 1  
    79    6   79 1  
    80    7   80 1  
    81    7   81 1  
    82    8   82 1  
    83    8   83 1  
    84    9   84 1  
    85    9   85 1  
    86    9   86 1  
    87   10   87 1  
    88   11   88 1  
    89   14   89 1  
    90   14   90 1  
    91   15   91 1  
    92   16   92 1  
    93   17   93 1  
    94   20   94 1  
    95   20   95 1  
    96   20   96 1  
    97   21   97 1  
    98   22   98 1  
    99   25   99 1  
   100   26  100 1  
   101   26  101 1  
   102   26  102 1  
   103   27  103 1  
   104   27  104 1  
   105   27  105 1  
   106   28  106 1  
   107   29  107 1  
   108   32  108 1  
   109   33  109 1  
   110   34  110 1  
   111   34  111 1  
   112   34  112 1  
   113   35  113 1  
   114   36  114 1  
   115   39  115 1  
   116   40  116 1  
   117   41  117 1  
   118   41  118 1  
   119   41  119 1  
   120   42  120 1  
   121   43  121 1  
   122   46  122 1  
   123   47  123 1  
   124   47  124 1  
   125   47  125 1  
   126   48  126 1  
   127   48  127 1  
   128   48  128 1  
   129   49  129 1  
   130   50  130 1  
   131   53  131 1  
   132   54  132 1  
   133   54  133 1  
   134   54  134 1  
   135   55  135 1  
   136   55  136 1  
   137   55  137 1  
   138   56  138 1  
   139   57  139 1  
   140   60  140 1  
   141   60  141 1  
   142   63  142 1  
   143   63  143 1  
   144   65  144 1  
   145   68  145 1  
   146   68  146 1  
   147   69  147 1  
   148   69  148 1  
   149   70  149 1  
   150   70  150 1  
@<TRIPOS>SUBSTRUCTURE
     1 LYS         1

