4dx9_ligand
  -I-interpret- 

151151  0  0  0  0  0  0  0  0999 V2000
   18.0480   71.1390  -76.0850 N   0  3  0  0  0
   18.4770   72.0870  -77.1530 C   0  0  0  0  0
   18.6790   73.5070  -76.6270 C   0  0  0  0  0
   18.2480   73.8390  -75.5210 O   0  0  0  0  0
   17.4870   72.0700  -78.3190 C   0  0  0  0  0
   17.6340   70.8640  -79.2380 C   0  0  0  0  0
   16.5140   70.7880  -80.2670 C   0  0  0  0  0
   15.1800   70.4300  -79.6220 C   0  0  0  0  0
   14.1350   70.1110  -80.6310 N   0  3  0  0  0
   19.3290   74.3320  -77.4490 N   0  0  0  0  0
   19.8490   75.6500  -77.0640 C   0  0  0  0  0
   18.7960   76.7080  -76.7220 C   0  0  0  0  0
   17.6120   76.5470  -77.0250 O   0  0  0  0  0
   20.7570   76.1790  -78.1780 C   0  0  0  0  0
   20.0490   76.2760  -79.4040 O   0  0  0  0  0
   19.2530   77.7890  -76.0900 N   0  0  0  0  0
   18.4200   78.9510  -75.7810 C   0  0  0  0  0
   19.2140   80.2560  -75.9010 C   0  0  0  0  0
   18.6920   81.2590  -76.3920 O   0  0  0  0  0
   17.8110   78.8220  -74.3920 C   0  0  0  0  0
   20.4680   80.2310  -75.4470 N   0  0  0  0  0
   21.3780   81.3800  -75.5300 C   0  0  0  0  0
   22.7440   80.9390  -76.0770 C   0  0  0  0  0
   23.4210   80.1080  -75.4680 O   0  0  0  0  0
   21.5670   82.0530  -74.1500 C   0  0  0  0  0
   22.5130   83.2430  -74.2450 C   0  0  0  0  0
   20.2300   82.4840  -73.5660 C   0  0  0  0  0
   23.1470   81.4970  -77.2180 N   0  0  0  0  0
   24.4100   81.1060  -77.8680 C   0  0  0  0  0
   25.4690   82.2140  -77.8690 C   0  0  0  0  0
   25.1410   83.4050  -77.8890 O   0  0  0  0  0
   24.1950   80.6270  -79.3210 C   0  0  0  0  0
   23.6960   81.7080  -80.1150 O   0  0  0  0  0
   23.2170   79.4620  -79.3750 C   0  0  0  0  0
   26.7380   81.8010  -77.8650 N   0  0  0  0  0
   27.8760   82.7270  -77.8230 C   0  0  0  0  0
   29.0980   82.2210  -78.5990 C   0  0  0  0  0
   29.1970   81.0320  -78.9150 O   0  0  0  0  0
   28.2860   83.0630  -76.3680 C   0  0  0  0  0
   29.3730   83.9990  -76.3750 O   0  0  0  0  0
   28.7070   81.8080  -75.6040 C   0  0  0  0  0
   30.0140   83.1430  -78.9020 N   0  0  0  0  0
   31.3030   82.8290  -79.5300 C   0  0  0  0  0
   32.4080   83.6710  -78.8790 C   0  0  0  0  0
   32.3160   84.9030  -78.8370 O   0  0  0  0  0
   31.2810   83.0750  -81.0610 C   0  0  0  0  0
   32.6850   83.0010  -81.6480 C   0  0  0  0  0
   30.3680   82.0800  -81.7640 C   0  0  0  0  0
   33.4460   83.0030  -78.3760 N   0  0  0  0  0
   34.5670   83.6840  -77.7140 C   0  0  0  0  0
   35.7910   83.8690  -78.6150 C   0  0  0  0  0
   36.1060   83.0090  -79.4440 O   0  0  0  0  0
   34.9920   82.9790  -76.4030 C   0  0  0  0  0
   33.9520   83.2040  -75.3190 C   0  0  0  0  0
   35.2360   81.4890  -76.6240 C   0  0  0  0  0
   36.4730   85.0000  -78.4360 N   0  0  0  0  0
   37.6670   85.3320  -79.2110 C   0  0  0  0  0
   38.8980   84.5900  -78.6950 C   0  0  0  0  0
   39.2150   84.6650  -77.5060 O   0  0  0  0  0
   37.9110   86.8490  -79.2100 C   0  0  0  0  0
   38.8950   87.2920  -80.2840 C   0  0  0  0  0
   38.5050   87.8880  -81.2860 O   0  0  0  0  0
   40.1770   87.0060  -80.0770 N   0  0  0  0  0
   39.5950   83.8680  -79.5910 N   0  0  0  0  0
   40.8240   83.1820  -79.2210 C   0  0  0  0  0
   42.0530   84.0650  -79.4320 C   0  0  0  0  0
   42.0581   85.2488  -79.0006 O   0  0  0  0  0
   40.8520   81.9830  -80.1740 C   0  0  0  0  0
   40.0170   82.3860  -81.3510 C   0  0  0  0  0
   39.2440   83.6290  -81.0020 C   0  0  0  0  0
   43.0603   83.6098  -80.0368 O   0  0  0  0  0
   18.7203   71.1656  -75.3184 H   0  0  0  0  0
   17.1271   71.4106  -75.7408 H   0  0  0  0  0
   18.0042   70.1946  -76.4678 H   0  0  0  0  0
   19.4472   71.7454  -77.5136 H   0  0  0  0  0
   17.6786   72.9595  -78.9192 H   0  0  0  0  0
   16.4848   72.0313  -77.8921 H   0  0  0  0  0
   17.5948   69.9631  -78.6256 H   0  0  0  0  0
   18.5801   70.9563  -79.7714 H   0  0  0  0  0
   16.7646   70.0128  -80.9911 H   0  0  0  0  0
   16.4156   71.7648  -80.7406 H   0  0  0  0  0
   14.8416   71.2898  -79.0438 H   0  0  0  0  0
   15.3305   69.5480  -78.9995 H   0  0  0  0  0
   13.2636   69.8786  -80.1544 H   0  0  0  0  0
   13.9885   70.9202  -81.2345 H   0  0  0  0  0
   14.4387   69.3163  -81.1936 H   0  0  0  0  0
   19.4749   74.0263  -78.4111 H   0  0  0  0  0
   20.3933   75.4819  -76.1347 H   0  0  0  0  0
   21.5910   75.4893  -78.3081 H   0  0  0  0  0
   21.1131   77.1707  -77.8991 H   0  0  0  0  0
   20.6367   76.6089  -80.0862 H   0  0  0  0  0
   20.2330   77.8068  -75.8076 H   0  0  0  0  0
   17.6126   78.9833  -76.5126 H   0  0  0  0  0
   17.1944   77.9242  -74.3490 H   0  0  0  0  0
   18.6084   78.7525  -73.6521 H   0  0  0  0  0
   17.1956   79.6973  -74.1838 H   0  0  0  0  0
   20.8119   79.3705  -75.0208 H   0  0  0  0  0
   20.9299   82.1063  -76.2081 H   0  0  0  0  0
   22.0120   81.3157  -73.4818 H   0  0  0  0  0
   23.4849   82.9051  -74.6047 H   0  0  0  0  0
   22.1027   83.9772  -74.9383 H   0  0  0  0  0
   22.6260   83.6952  -73.2597 H   0  0  0  0  0
   19.7529   83.1954  -74.2401 H   0  0  0  0  0
   19.5894   81.6105  -73.4448 H   0  0  0  0  0
   20.3932   82.9539  -72.5961 H   0  0  0  0  0
   22.5658   82.2136  -77.6528 H   0  0  0  0  0
   24.7815   80.2811  -77.2600 H   0  0  0  0  0
   25.1536   80.2895  -79.7150 H   0  0  0  0  0
   23.5637   81.4067  -81.0168 H   0  0  0  0  0
   23.6101   78.6318  -78.7882 H   0  0  0  0  0
   22.2570   79.7759  -78.9651 H   0  0  0  0  0
   23.0860   79.1469  -80.4102 H   0  0  0  0  0
   26.9251   80.7987  -77.8923 H   0  0  0  0  0
   27.5269   83.6339  -78.3167 H   0  0  0  0  0
   27.4206   83.4972  -75.8673 H   0  0  0  0  0
   29.6232   84.2039  -75.4711 H   0  0  0  0  0
   27.8746   81.1048  -75.5761 H   0  0  0  0  0
   29.5574   81.3467  -76.1061 H   0  0  0  0  0
   28.9882   82.0806  -74.5868 H   0  0  0  0  0
   29.8073   84.1181  -78.6856 H   0  0  0  0  0
   31.5011   81.7685  -79.3745 H   0  0  0  0  0
   30.8891   84.0789  -81.2245 H   0  0  0  0  0
   33.3131   83.7597  -81.1811 H   0  0  0  0  0
   33.1049   82.0131  -81.4588 H   0  0  0  0  0
   32.6379   83.1774  -82.7226 H   0  0  0  0  0
   30.7253   81.0671  -81.5785 H   0  0  0  0  0
   29.3536   82.1849  -81.3792 H   0  0  0  0  0
   30.3737   82.2781  -82.8358 H   0  0  0  0  0
   33.4626   81.9861  -78.4532 H   0  0  0  0  0
   34.1808   84.6750  -77.4754 H   0  0  0  0  0
   35.9341   83.4185  -76.0753 H   0  0  0  0  0
   33.8504   84.2728  -75.1310 H   0  0  0  0  0
   32.9945   82.7987  -75.6462 H   0  0  0  0  0
   34.2674   82.7013  -74.4047 H   0  0  0  0  0
   34.3203   81.0221  -76.9867 H   0  0  0  0  0
   36.0288   81.3573  -77.3603 H   0  0  0  0  0
   35.5325   81.0271  -75.6823 H   0  0  0  0  0
   36.1486   85.6605  -77.7297 H   0  0  0  0  0
   37.4922   85.0081  -80.2370 H   0  0  0  0  0
   38.3325   87.1176  -78.2413 H   0  0  0  0  0
   36.9581   87.3394  -79.4090 H   0  0  0  0  0
   40.8786   87.2830  -80.7636 H   0  0  0  0  0
   40.4587   86.5096  -79.2317 H   0  0  0  0  0
   40.8467   82.9050  -78.1670 H   0  0  0  0  0
   40.4611   81.0846  -79.6964 H   0  0  0  0  0
   41.8703   81.7351  -80.4735 H   0  0  0  0  0
   39.3254   81.5821  -81.6030 H   0  0  0  0  0
   40.6611   82.5827  -82.2080 H   0  0  0  0  0
   39.4975   84.4725  -81.6441 H   0  0  0  0  0
   38.1709   83.5090  -81.1509 H   0  0  0  0  0
   42.8925   82.7010  -80.2967 H   0  0  0  0  0
  1  2  1  0  0  0
  2  3  1  0  0  0
  2  5  1  0  0  0
  3  4  2  0  0  0
  3 10  1  0  0  0
  5  6  1  0  0  0
  6  7  1  0  0  0
  7  8  1  0  0  0
  8  9  1  0  0  0
 10 11  1  0  0  0
 11 12  1  0  0  0
 11 14  1  0  0  0
 12 13  2  0  0  0
 12 16  1  0  0  0
 14 15  1  0  0  0
 16 17  1  0  0  0
 17 18  1  0  0  0
 17 20  1  0  0  0
 18 19  2  0  0  0
 18 21  1  0  0  0
 21 22  1  0  0  0
 22 23  1  0  0  0
 22 25  1  0  0  0
 23 24  2  0  0  0
 23 28  1  0  0  0
 25 26  1  0  0  0
 25 27  1  0  0  0
 28 29  1  0  0  0
 29 30  1  0  0  0
 29 32  1  0  0  0
 30 31  2  0  0  0
 30 35  1  0  0  0
 32 33  1  0  0  0
 32 34  1  0  0  0
 35 36  1  0  0  0
 36 37  1  0  0  0
 36 39  1  0  0  0
 37 38  2  0  0  0
 37 42  1  0  0  0
 39 40  1  0  0  0
 39 41  1  0  0  0
 42 43  1  0  0  0
 43 44  1  0  0  0
 43 46  1  0  0  0
 44 45  2  0  0  0
 44 49  1  0  0  0
 46 47  1  0  0  0
 46 48  1  0  0  0
 49 50  1  0  0  0
 50 51  1  0  0  0
 50 53  1  0  0  0
 51 52  2  0  0  0
 51 56  1  0  0  0
 53 54  1  0  0  0
 53 55  1  0  0  0
 56 57  1  0  0  0
 57 58  1  0  0  0
 57 60  1  0  0  0
 58 59  2  0  0  0
 58 64  1  0  0  0
 60 61  1  0  0  0
 61 62  2  0  0  0
 61 63  1  0  0  0
 64 65  1  0  0  0
 64 70  1  0  0  0
 65 66  1  0  0  0
 65 68  1  0  0  0
 66 67  2  0  0  0
 68 69  1  0  0  0
 69 70  1  0  0  0
 66 71  1  0  0  0
  1 72  1  0  0  0
  1 73  1  0  0  0
  1 74  1  0  0  0
  2 75  1  0  0  0
  5 76  1  0  0  0
  5 77  1  0  0  0
  6 78  1  0  0  0
  6 79  1  0  0  0
  7 80  1  0  0  0
  7 81  1  0  0  0
  8 82  1  0  0  0
  8 83  1  0  0  0
  9 84  1  0  0  0
  9 85  1  0  0  0
  9 86  1  0  0  0
 10 87  1  0  0  0
 11 88  1  0  0  0
 14 89  1  0  0  0
 14 90  1  0  0  0
 15 91  1  0  0  0
 16 92  1  0  0  0
 17 93  1  0  0  0
 20 94  1  0  0  0
 20 95  1  0  0  0
 20 96  1  0  0  0
 21 97  1  0  0  0
 22 98  1  0  0  0
 25 99  1  0  0  0
 26100  1  0  0  0
 26101  1  0  0  0
 26102  1  0  0  0
 27103  1  0  0  0
 27104  1  0  0  0
 27105  1  0  0  0
 28106  1  0  0  0
 29107  1  0  0  0
 32108  1  0  0  0
 33109  1  0  0  0
 34110  1  0  0  0
 34111  1  0  0  0
 34112  1  0  0  0
 35113  1  0  0  0
 36114  1  0  0  0
 39115  1  0  0  0
 40116  1  0  0  0
 41117  1  0  0  0
 41118  1  0  0  0
 41119  1  0  0  0
 42120  1  0  0  0
 43121  1  0  0  0
 46122  1  0  0  0
 47123  1  0  0  0
 47124  1  0  0  0
 47125  1  0  0  0
 48126  1  0  0  0
 48127  1  0  0  0
 48128  1  0  0  0
 49129  1  0  0  0
 50130  1  0  0  0
 53131  1  0  0  0
 54132  1  0  0  0
 54133  1  0  0  0
 54134  1  0  0  0
 55135  1  0  0  0
 55136  1  0  0  0
 55137  1  0  0  0
 56138  1  0  0  0
 57139  1  0  0  0
 60140  1  0  0  0
 60141  1  0  0  0
 63142  1  0  0  0
 63143  1  0  0  0
 65144  1  0  0  0
 68145  1  0  0  0
 68146  1  0  0  0
 69147  1  0  0  0
 69148  1  0  0  0
 70149  1  0  0  0
 70150  1  0  0  0
 71151  1  0  0  0
M  END
$$$$
