5u2j_ligand
  -I-interpret- 

254254  0  0  0  0  0  0  0  0999 V2000
   54.8760   -4.7170   -1.8390 N   0  3  0  0  0
   55.4740   -5.4580   -0.7340 C   0  0  0  0  0
   55.4370   -6.9550   -1.0040 C   0  0  0  0  0
   54.5820   -7.4440   -1.7460 O   0  0  0  0  0
   54.7620   -5.1400    0.5710 C   0  0  0  0  0
   56.3680   -7.6860   -0.4000 N   0  0  0  0  0
   56.3900   -9.1360   -0.5220 C   0  0  0  0  0
   55.5050   -9.7500    0.5530 C   0  0  0  0  0
   55.6030   -9.3940    1.7310 O   0  0  0  0  0
   57.8200   -9.6700   -0.4220 C   0  0  0  0  0
   58.7200   -9.1540   -1.5360 C   0  0  0  0  0
   60.0390   -9.9110   -1.6060 C   0  0  0  0  0
   60.7750   -9.8370   -0.3490 N   0  0  0  0  0
   60.9980  -10.8740    0.4510 C   0  0  0  0  0
   60.5480  -12.0790    0.1250 N   0  0  0  0  0
   61.6750  -10.7070    1.5770 N   0  0  0  0  0
   54.6220  -10.6510    0.1360 N   0  0  0  0  0
   53.7030  -11.3410    1.0250 C   0  0  0  0  0
   53.8430  -12.8380    0.7950 C   0  0  0  0  0
   54.5770  -13.2860   -0.0910 O   0  0  0  0  0
   52.2520  -10.9020    0.7890 C   0  0  0  0  0
   51.8070  -11.3960   -0.4810 O   0  0  0  0  0
   52.1420   -9.3840    0.7940 C   0  0  0  0  0
   53.1250  -13.6190    1.6020 N   0  0  0  0  0
   53.1140  -15.0600    1.3860 C   0  0  0  0  0
   52.5780  -15.3980    0.0010 C   0  0  0  0  0
   53.0810  -16.3140   -0.6580 O   0  0  0  0  0
   52.3020  -15.7500    2.4810 C   0  0  0  0  0
   52.9960  -15.7190    3.8380 C   0  0  0  0  0
   52.3180  -16.6160    4.8560 C   0  0  0  0  0
   53.0910  -16.6190    6.1680 C   0  0  0  0  0
   52.6930  -17.7470    7.0530 N   0  3  0  0  0
   51.5850  -14.6410   -0.4760 N   0  0  0  0  0
   51.0550  -14.8780   -1.8160 C   0  0  0  0  0
   52.1010  -14.5830   -2.8870 C   0  0  0  0  0
   52.3340  -15.4040   -3.7810 O   0  0  0  0  0
   49.7960  -14.0420   -2.0520 C   0  0  0  0  0
   49.3660  -14.0100   -3.5150 C   0  0  0  0  0
   47.8800  -13.7690   -3.6960 C   0  0  0  0  0
   47.1790  -13.3930   -2.7570 O   0  0  0  0  0
   47.3910  -13.9870   -4.9110 N   0  0  0  0  0
   52.7460  -13.4130   -2.8150 N   0  0  0  0  0
   53.7140  -13.0630   -3.8510 C   0  0  0  0  0
   54.9480  -13.9540   -3.7770 C   0  0  0  0  0
   55.5030  -14.3400   -4.8130 O   0  0  0  0  0
   54.1150  -11.5870   -3.7520 C   0  0  0  0  0
   54.8820  -11.3650   -2.5630 O   0  0  0  0  0
   52.8830  -10.6890   -3.7390 C   0  0  0  0  0
   55.3850  -14.3040   -2.5650 N   0  0  0  0  0
   56.5740  -15.1380   -2.4230 C   0  0  0  0  0
   56.3540  -16.5230   -3.0190 C   0  0  0  0  0
   57.2280  -17.0510   -3.7180 O   0  0  0  0  0
   56.9730  -15.2440   -0.9520 C   0  0  0  0  0
   55.1900  -17.1270   -2.7610 N   0  0  0  0  0
   54.9230  -18.4590   -3.2910 C   0  0  0  0  0
   54.7860  -18.4480   -4.8080 C   0  0  0  0  0
   55.1670  -19.4210   -5.4680 O   0  0  0  0  0
   53.6650  -19.0450   -2.6510 C   0  0  0  0  0
   53.8040  -19.3700   -1.1710 C   0  0  0  0  0
   52.6800  -20.2920   -0.7190 C   0  0  0  0  0
   52.6880  -20.5230    0.7220 N   0  0  0  0  0
   51.8380  -19.9580    1.5740 C   0  0  0  0  0
   50.9010  -19.1310    1.1310 N   0  0  0  0  0
   51.9180  -20.2280    2.8700 N   0  0  0  0  0
   54.2430  -17.3720   -5.3800 N   0  0  0  0  0
   54.1880  -17.2790   -6.8350 C   0  0  0  0  0
   55.5840  -17.1150   -7.4210 C   0  0  0  0  0
   55.8880  -17.6590   -8.4890 O   0  0  0  0  0
   53.2880  -16.1180   -7.2600 C   0  0  0  0  0
   53.4500  -15.7350   -8.7270 C   0  0  0  0  0
   52.5450  -14.5870   -9.1450 C   0  0  0  0  0
   51.2960  -14.5050   -8.2820 C   0  0  0  0  0
   50.4170  -13.3870   -8.7200 N   0  3  0  0  0
   56.4510  -16.3800   -6.7230 N   0  0  0  0  0
   57.7960  -16.1420   -7.2300 C   0  0  0  0  0
   58.6480  -17.4060   -7.1540 C   0  0  0  0  0
   59.3710  -17.7290   -8.1040 O   0  0  0  0  0
   58.4380  -14.9920   -6.4540 C   0  0  0  0  0
   59.8300  -14.9290   -6.6820 O   0  0  0  0  0
   58.5690  -18.1420   -6.0420 N   0  0  0  0  0
   59.3280  -19.3800   -5.9120 C   0  0  0  0  0
   58.6660  -20.5550   -6.6150 C   0  0  0  0  0
   59.3610  -21.5100   -6.9810 O   0  0  0  0  0
   59.5220  -19.7550   -4.4410 C   0  0  0  0  0
   58.2520  -20.0710   -3.8510 O   0  0  0  0  0
   60.1890  -18.6240   -3.6700 C   0  0  0  0  0
   57.3520  -20.5110   -6.8080 N   0  0  0  0  0
   56.6230  -21.6810   -7.2480 C   0  0  0  0  0
   56.4170  -22.6520   -6.1020 C   0  0  0  0  0
   56.7980  -22.4120   -4.9550 O   0  0  0  0  0
   55.8010  -23.7800   -6.4280 N   0  0  0  0  0
   55.5110  -24.7860   -5.4250 C   0  0  0  0  0
   56.7450  -25.5070   -4.9190 C   0  0  0  0  0
   57.7690  -25.5610   -5.6010 O   0  0  0  0  0
   57.6100  -28.2290   -3.9790 C   0  0  0  0  0
   56.6530  -26.0440   -3.7080 N   0  0  0  0  0
   56.5520  -28.7310   -4.3720 O   0  0  0  0  0
   57.6710  -26.9230   -3.2030 C   0  0  0  0  0
   57.5240  -27.2660   -1.7130 C   0  0  0  0  0
   57.0710  -26.2900    0.5230 C   0  0  0  0  0
   57.3100  -25.0810    1.4330 C   0  0  0  0  0
   57.7220  -26.0590   -0.8240 C   0  0  0  0  0
   58.6340  -25.0180    1.9830 N   0  0  0  0  0
   63.1340  -23.2190    2.6660 C   0  0  0  0  0
   59.0000  -22.7930    1.5390 O   0  0  0  0  0
   61.7660  -23.0130    2.0720 C   0  0  0  0  0
   60.7840  -24.0180    2.6340 C   0  0  0  0  0
   59.4110  -23.8740    2.0050 C   0  0  0  0  0
   58.7820  -28.8010   -4.2220 N   0  0  0  0  0
   58.8530  -30.0520   -4.9660 C   0  0  0  0  0
   58.2910  -31.2010   -4.1400 C   0  0  0  0  0
   58.7200  -31.4280   -3.0100 O   0  0  0  0  0
   60.2810  -30.3430   -5.3820 C   0  0  0  0  0
   57.3130  -31.9250   -4.7030 N   0  0  0  0  0
   56.7120  -33.0900   -4.0480 C   0  0  0  0  0
   57.6240  -34.3120   -4.0860 C   0  0  0  0  0
   58.0330  -34.7860   -3.0270 O   0  0  0  0  0
   55.4450  -33.3310   -4.8680 C   0  0  0  0  0
   55.7910  -32.8220   -6.2250 C   0  0  0  0  0
   56.6700  -31.6260   -5.9950 C   0  0  0  0  0
   57.9300  -34.7960   -5.1750 O   0  0  0  0  0
   55.3669   -4.9437   -2.7039 H   0  0  0  0  0
   53.8930   -4.9746   -1.9270 H   0  0  0  0  0
   54.9515   -3.7164   -1.6561 H   0  0  0  0  0
   56.5159   -5.1502   -0.6456 H   0  0  0  0  0
   53.7236   -5.4650    0.5054 H   0  0  0  0  0
   55.2566   -5.6624    1.3899 H   0  0  0  0  0
   54.7971   -4.0654    0.7500 H   0  0  0  0  0
   57.0820   -7.2211    0.1608 H   0  0  0  0  0
   56.0027   -9.4152   -1.5019 H   0  0  0  0  0
   57.7777  -10.7562   -0.5024 H   0  0  0  0  0
   58.2368   -9.3338    0.5274 H   0  0  0  0  0
   58.9407   -8.1055   -1.3358 H   0  0  0  0  0
   58.1994   -9.2910   -2.4838 H   0  0  0  0  0
   60.6508   -9.4606   -2.3876 H   0  0  0  0  0
   59.8215  -10.9587   -1.8139 H   0  0  0  0  0
   61.1429   -8.9289   -0.0653 H   0  0  0  0  0
   60.7239  -12.8729    0.7408 H   0  0  0  0  0
   60.0262  -12.2114   -0.7414 H   0  0  0  0  0
   62.0248   -9.7827    1.8295 H   0  0  0  0  0
   54.5875  -10.8696   -0.8597 H   0  0  0  0  0
   53.9518  -11.0900    2.0561 H   0  0  0  0  0
   51.6329  -11.3051    1.5904 H   0  0  0  0  0
   50.8991  -11.1217   -0.6295 H   0  0  0  0  0
   52.4746   -9.0001    1.7584 H   0  0  0  0  0
   52.7684   -8.9730    0.0023 H   0  0  0  0  0
   51.1045   -9.0956    0.6249 H   0  0  0  0  0
   52.5866  -13.2105    2.3660 H   0  0  0  0  0
   54.1384  -15.4289    1.4380 H   0  0  0  0  0
   52.1743  -16.7940    2.1947 H   0  0  0  0  0
   51.3542  -15.2205    2.5782 H   0  0  0  0  0
   52.9583  -14.6960    4.2124 H   0  0  0  0  0
   54.0172  -16.0752    3.7023 H   0  0  0  0  0
   52.2845  -17.6325    4.4638 H   0  0  0  0  0
   51.3110  -16.2420    5.0406 H   0  0  0  0  0
   52.8762  -15.6866    6.6900 H   0  0  0  0  0
   54.1507  -16.7273    5.9368 H   0  0  0  0  0
   53.2351  -17.7080    7.9162 H   0  0  0  0  0
   51.6992  -17.6726    7.2705 H   0  0  0  0  0
   52.8728  -18.6309    6.5769 H   0  0  0  0  0
   51.1954  -13.8939    0.0989 H   0  0  0  0  0
   50.7914  -15.9332   -1.8878 H   0  0  0  0  0
   50.0159  -13.0185   -1.7485 H   0  0  0  0  0
   48.9863  -14.4927   -1.4781 H   0  0  0  0  0
   49.5980  -14.9827   -3.9487 H   0  0  0  0  0
   49.8950  -13.1877   -3.9967 H   0  0  0  0  0
   46.3980  -13.8431   -5.0945 H   0  0  0  0  0
   48.0083  -14.2983   -5.6609 H   0  0  0  0  0
   52.5633  -12.7713   -2.0435 H   0  0  0  0  0
   53.2345  -13.2257   -4.8163 H   0  0  0  0  0
   54.7179  -11.3398   -4.6258 H   0  0  0  0  0
   55.1279  -10.4385   -2.5105 H   0  0  0  0  0
   52.3165  -10.8382   -4.6582 H   0  0  0  0  0
   52.2596  -10.9420   -2.8814 H   0  0  0  0  0
   53.1952   -9.6471   -3.6682 H   0  0  0  0  0
   54.8853  -13.9869   -1.7342 H   0  0  0  0  0
   57.3861  -14.6647   -2.9749 H   0  0  0  0  0
   57.1864  -14.2487   -0.5621 H   0  0  0  0  0
   56.1548  -15.6895   -0.3861 H   0  0  0  0  0
   57.8614  -15.8691   -0.8620 H   0  0  0  0  0
   54.4869  -16.6553   -2.1922 H   0  0  0  0  0
   55.7775  -19.0878   -3.0409 H   0  0  0  0  0
   53.4520  -19.9822   -3.1651 H   0  0  0  0  0
   52.8811  -18.2929   -2.7406 H   0  0  0  0  0
   53.7534  -18.4435   -0.5990 H   0  0  0  0  0
   54.7589  -19.8691   -1.0065 H   0  0  0  0  0
   52.8161  -21.2538   -1.2134 H   0  0  0  0  0
   51.7331  -19.8178   -0.9772 H   0  0  0  0  0
   53.3907  -21.1586    1.0997 H   0  0  0  0  0
   50.8309  -18.9268    0.1341 H   0  0  0  0  0
   51.2603  -19.8000    3.5217 H   0  0  0  0  0
   52.6372  -20.8636    3.2151 H   0  0  0  0  0
   53.8684  -16.6186   -4.8034 H   0  0  0  0  0
   53.7655  -18.2065   -7.2213 H   0  0  0  0  0
   53.5643  -15.2505   -6.6606 H   0  0  0  0  0
   52.2544  -16.4317   -7.1136 H   0  0  0  0  0
   53.1831  -16.6040   -9.3284 H   0  0  0  0  0
   54.4815  -15.4152   -8.8746 H   0  0  0  0  0
   52.2365  -14.7539  -10.1770 H   0  0  0  0  0
   53.1002  -13.6559   -9.0314 H   0  0  0  0  0
   51.5959  -14.3296   -7.2489 H   0  0  0  0  0
   50.7445  -15.4405   -8.3756 H   0  0  0  0  0
   49.5885  -13.3546   -8.1259 H   0  0  0  0  0
   50.9259  -12.5063   -8.6442 H   0  0  0  0  0
   50.1362  -13.5365   -9.6891 H   0  0  0  0  0
   56.1701  -15.9814   -5.8271 H   0  0  0  0  0
   57.7320  -15.8640   -8.2820 H   0  0  0  0  0
   58.2691  -15.1562   -5.3898 H   0  0  0  0  0
   57.9901  -14.0564   -6.7889 H   0  0  0  0  0
   60.2023  -14.1988   -6.1822 H   0  0  0  0  0
   57.9709  -17.8344   -5.2752 H   0  0  0  0  0
   60.2893  -19.1847   -6.3872 H   0  0  0  0  0
   60.1736  -20.6274   -4.3912 H   0  0  0  0  0
   58.3784  -20.3055   -2.9287 H   0  0  0  0  0
   61.1645  -18.4132   -4.1081 H   0  0  0  0  0
   59.5648  -17.7320   -3.7235 H   0  0  0  0  0
   60.3134  -18.9200   -2.6284 H   0  0  0  0  0
   56.8494  -19.6388   -6.6434 H   0  0  0  0  0
   57.1968  -22.1782   -8.0301 H   0  0  0  0  0
   55.6482  -21.3671   -7.6212 H   0  0  0  0  0
   55.5275  -23.9421   -7.3972 H   0  0  0  0  0
   54.8616  -25.5306   -5.8854 H   0  0  0  0  0
   55.0552  -24.2793   -4.5744 H   0  0  0  0  0
   55.8441  -25.8283   -3.1252 H   0  0  0  0  0
   58.6173  -26.3958   -3.3242 H   0  0  0  0  0
   58.2866  -28.0021   -1.4586 H   0  0  0  0  0
   56.5144  -27.6434   -1.5509 H   0  0  0  0  0
   55.9988  -26.4289    0.3846 H   0  0  0  0  0
   57.5044  -27.1776    0.9838 H   0  0  0  0  0
   56.6158  -25.1632    2.2693 H   0  0  0  0  0
   57.1687  -24.1865    0.8264 H   0  0  0  0  0
   57.2658  -25.1890   -1.2964 H   0  0  0  0  0
   58.7896  -25.8926   -0.6806 H   0  0  0  0  0
   59.0266  -25.8703    2.3827 H   0  0  0  0  0
   63.0814  -23.0952    3.7477 H   0  0  0  0  0
   63.4833  -24.2243    2.4306 H   0  0  0  0  0
   63.8242  -22.4861    2.2482 H   0  0  0  0  0
   61.8267  -23.1448    0.9917 H   0  0  0  0  0
   61.4222  -22.0082    2.3175 H   0  0  0  0  0
   60.6904  -23.8439    3.7059 H   0  0  0  0  0
   61.1568  -25.0194    2.4188 H   0  0  0  0  0
   59.6392  -28.3622   -3.8858 H   0  0  0  0  0
   58.2467  -29.9501   -5.8661 H   0  0  0  0  0
   60.6460  -29.5336   -6.0142 H   0  0  0  0  0
   60.9077  -30.4229   -4.4938 H   0  0  0  0  0
   60.3127  -31.2811   -5.9362 H   0  0  0  0  0
   56.5239  -32.9178   -2.9883 H   0  0  0  0  0
   54.5772  -32.8243   -4.4458 H   0  0  0  0  0
   55.1561  -34.3819   -4.8824 H   0  0  0  0  0
   54.8980  -32.5575   -6.7913 H   0  0  0  0  0
   56.2992  -33.5821   -6.8183 H   0  0  0  0  0
   57.3908  -31.4729   -6.7982 H   0  0  0  0  0
   56.1116  -30.6900   -5.9804 H   0  0  0  0  0
   57.5150  -34.2895   -5.8770 H   0  0  0  0  0
  2  1  1  0  0  0
  3  2  1  0  0  0
  2  5  1  0  0  0
  3  4  2  0  0  0
  6  3  1  0  0  0
  7  6  1  0  0  0
  8  7  1  0  0  0
  7 10  1  0  0  0
  8  9  2  0  0  0
 17  8  1  0  0  0
 10 11  1  0  0  0
 11 12  1  0  0  0
 12 13  1  0  0  0
 13 14  1  0  0  0
 14 15  1  0  0  0
 14 16  2  0  0  0
 18 17  1  0  0  0
 19 18  1  0  0  0
 18 21  1  0  0  0
 19 20  2  0  0  0
 24 19  1  0  0  0
 21 22  1  0  0  0
 21 23  1  0  0  0
 25 24  1  0  0  0
 26 25  1  0  0  0
 25 28  1  0  0  0
 26 27  2  0  0  0
 33 26  1  0  0  0
 28 29  1  0  0  0
 29 30  1  0  0  0
 30 31  1  0  0  0
 31 32  1  0  0  0
 34 33  1  0  0  0
 35 34  1  0  0  0
 34 37  1  0  0  0
 35 36  2  0  0  0
 42 35  1  0  0  0
 37 38  1  0  0  0
 38 39  1  0  0  0
 39 40  2  0  0  0
 39 41  1  0  0  0
 43 42  1  0  0  0
 44 43  1  0  0  0
 43 46  1  0  0  0
 44 45  2  0  0  0
 49 44  1  0  0  0
 46 47  1  0  0  0
 46 48  1  0  0  0
 50 49  1  0  0  0
 51 50  1  0  0  0
 50 53  1  0  0  0
 51 52  2  0  0  0
 54 51  1  0  0  0
 55 54  1  0  0  0
 56 55  1  0  0  0
 55 58  1  0  0  0
 56 57  2  0  0  0
 65 56  1  0  0  0
 58 59  1  0  0  0
 59 60  1  0  0  0
 60 61  1  0  0  0
 61 62  1  0  0  0
 62 63  2  0  0  0
 62 64  1  0  0  0
 66 65  1  0  0  0
 67 66  1  0  0  0
 66 69  1  0  0  0
 67 68  2  0  0  0
 74 67  1  0  0  0
 69 70  1  0  0  0
 70 71  1  0  0  0
 71 72  1  0  0  0
 72 73  1  0  0  0
 75 74  1  0  0  0
 76 75  1  0  0  0
 75 78  1  0  0  0
 76 77  2  0  0  0
 80 76  1  0  0  0
 78 79  1  0  0  0
 81 80  1  0  0  0
 82 81  1  0  0  0
 81 84  1  0  0  0
 82 83  2  0  0  0
 87 82  1  0  0  0
 84 85  1  0  0  0
 84 86  1  0  0  0
 88 87  1  0  0  0
 89 88  1  0  0  0
 89 90  2  0  0  0
 91 89  1  0  0  0
 92 91  1  0  0  0
 93 92  1  0  0  0
 93 94  2  0  0  0
 96 93  1  0  0  0
 95 97  2  0  0  0
 98 95  1  0  0  0
 95109  1  0  0  0
 98 96  1  0  0  0
 99 98  1  0  0  0
102 99  1  0  0  0
101100  1  0  0  0
100102  1  0  0  0
103101  1  0  0  0
108103  1  0  0  0
106104  1  0  0  0
108105  2  0  0  0
107106  1  0  0  0
107108  1  0  0  0
109110  1  0  0  0
110111  1  0  0  0
110113  1  0  0  0
111112  2  0  0  0
111114  1  0  0  0
114115  1  0  0  0
114120  1  0  0  0
115116  1  0  0  0
115118  1  0  0  0
116117  2  0  0  0
116121  1  0  0  0
118119  1  0  0  0
119120  1  0  0  0
  1122  1  0  0  0
  1123  1  0  0  0
  1124  1  0  0  0
  2125  1  0  0  0
  5126  1  0  0  0
  5127  1  0  0  0
  5128  1  0  0  0
  6129  1  0  0  0
  7130  1  0  0  0
 10131  1  0  0  0
 10132  1  0  0  0
 11133  1  0  0  0
 11134  1  0  0  0
 12135  1  0  0  0
 12136  1  0  0  0
 13137  1  0  0  0
 15138  1  0  0  0
 15139  1  0  0  0
 16140  1  0  0  0
 17141  1  0  0  0
 18142  1  0  0  0
 21143  1  0  0  0
 22144  1  0  0  0
 23145  1  0  0  0
 23146  1  0  0  0
 23147  1  0  0  0
 24148  1  0  0  0
 25149  1  0  0  0
 28150  1  0  0  0
 28151  1  0  0  0
 29152  1  0  0  0
 29153  1  0  0  0
 30154  1  0  0  0
 30155  1  0  0  0
 31156  1  0  0  0
 31157  1  0  0  0
 32158  1  0  0  0
 32159  1  0  0  0
 32160  1  0  0  0
 33161  1  0  0  0
 34162  1  0  0  0
 37163  1  0  0  0
 37164  1  0  0  0
 38165  1  0  0  0
 38166  1  0  0  0
 41167  1  0  0  0
 41168  1  0  0  0
 42169  1  0  0  0
 43170  1  0  0  0
 46171  1  0  0  0
 47172  1  0  0  0
 48173  1  0  0  0
 48174  1  0  0  0
 48175  1  0  0  0
 49176  1  0  0  0
 50177  1  0  0  0
 53178  1  0  0  0
 53179  1  0  0  0
 53180  1  0  0  0
 54181  1  0  0  0
 55182  1  0  0  0
 58183  1  0  0  0
 58184  1  0  0  0
 59185  1  0  0  0
 59186  1  0  0  0
 60187  1  0  0  0
 60188  1  0  0  0
 61189  1  0  0  0
 63190  1  0  0  0
 64191  1  0  0  0
 64192  1  0  0  0
 65193  1  0  0  0
 66194  1  0  0  0
 69195  1  0  0  0
 69196  1  0  0  0
 70197  1  0  0  0
 70198  1  0  0  0
 71199  1  0  0  0
 71200  1  0  0  0
 72201  1  0  0  0
 72202  1  0  0  0
 73203  1  0  0  0
 73204  1  0  0  0
 73205  1  0  0  0
 74206  1  0  0  0
 75207  1  0  0  0
 78208  1  0  0  0
 78209  1  0  0  0
 79210  1  0  0  0
 80211  1  0  0  0
 81212  1  0  0  0
 84213  1  0  0  0
 85214  1  0  0  0
 86215  1  0  0  0
 86216  1  0  0  0
 86217  1  0  0  0
 87218  1  0  0  0
 88219  1  0  0  0
 88220  1  0  0  0
 91221  1  0  0  0
 92222  1  0  0  0
 92223  1  0  0  0
 96224  1  0  0  0
 98225  1  0  0  0
 99226  1  0  0  0
 99227  1  0  0  0
100228  1  0  0  0
100229  1  0  0  0
101230  1  0  0  0
101231  1  0  0  0
102232  1  0  0  0
102233  1  0  0  0
103234  1  0  0  0
104235  1  0  0  0
104236  1  0  0  0
104237  1  0  0  0
106238  1  0  0  0
106239  1  0  0  0
107240  1  0  0  0
107241  1  0  0  0
109242  1  0  0  0
110243  1  0  0  0
113244  1  0  0  0
113245  1  0  0  0
113246  1  0  0  0
115247  1  0  0  0
118248  1  0  0  0
118249  1  0  0  0
119250  1  0  0  0
119251  1  0  0  0
120252  1  0  0  0
120253  1  0  0  0
121254  1  0  0  0
M  END
$$$$
