### 
### Created by X-TOOL on Mon Sep 10 21:13:32 2018
### 

@<TRIPOS>MOLECULE
5u2j_ligand
  255   255     1     0     0
SMALL
GAST_HUCK


@<TRIPOS>ATOM
      1 N          54.8760   -4.7170   -1.8390 N.4       1 ALA         0.2377
      2 CA         55.4740   -5.4580   -0.7340 C.3       1 ALA         0.0621
      3 C          55.4370   -6.9550   -1.0040 C.2       1 ALA         0.2264
      4 O          54.5820   -7.4440   -1.7460 O.2       1 ALA        -0.3907
      5 CB         54.7620   -5.1400    0.5710 C.3       1 ALA        -0.0040
      6 N          56.3680   -7.6860   -0.4000 N.am      1 ARG        -0.2610
      7 CA         56.3900   -9.1360   -0.5220 C.3       1 ARG         0.1312
      8 C          55.5050   -9.7500    0.5530 C.2       1 ARG         0.2040
      9 O          55.6030   -9.3940    1.7310 O.2       1 ARG        -0.3944
     10 CB         57.8200   -9.6700   -0.4220 C.3       1 ARG        -0.0092
     11 CG         58.7200   -9.1540   -1.5360 C.3       1 ARG        -0.0156
     12 CD         60.0390   -9.9110   -1.6060 C.3       1 ARG         0.0627
     13 NE         60.7750   -9.8370   -0.3490 N.pl3     1 ARG        -0.2723
     14 CZ         60.9980  -10.8740    0.4510 C.cat     1 ARG         0.2882
     15 NH1        60.5480  -12.0790    0.1250 N.pl3     1 ARG        -0.2849
     16 NH2        61.6750  -10.7070    1.5770 N.pl3     1 ARG        -0.2849
     17 N          54.6220  -10.6510    0.1360 N.am      1 THR        -0.2613
     18 CA         53.7030  -11.3410    1.0250 C.3       1 THR         0.1565
     19 C          53.8430  -12.8380    0.7950 C.2       1 THR         0.2065
     20 O          54.5770  -13.2860   -0.0910 O.2       1 THR        -0.3943
     21 CB         52.2520  -10.9020    0.7890 C.3       1 THR         0.0924
     22 OG1        51.8070  -11.3960   -0.4810 O.3       1 THR        -0.3874
     23 CG2        52.1420   -9.3840    0.7940 C.3       1 THR        -0.0346
     24 N          53.1250  -13.6190    1.6020 N.am      1 LYS        -0.2637
     25 CA         53.1140  -15.0600    1.3860 C.3       1 LYS         0.1310
     26 C          52.5780  -15.3980    0.0010 C.2       1 LYS         0.2039
     27 O          53.0810  -16.3140   -0.6580 O.2       1 LYS        -0.3944
     28 CB         52.3020  -15.7500    2.4810 C.3       1 LYS        -0.0122
     29 CG         52.9960  -15.7190    3.8380 C.3       1 LYS        -0.0440
     30 CD         52.3180  -16.6160    4.8560 C.3       1 LYS        -0.0124
     31 CE         53.0910  -16.6190    6.1680 C.3       1 LYS        -0.0354
     32 NZ         52.6930  -17.7470    7.0530 N.4       1 LYS         0.2185
     33 N          51.5850  -14.6410   -0.4760 N.am      1 GLN        -0.2636
     34 CA         51.0550  -14.8780   -1.8160 C.3       1 GLN         0.1330
     35 C          52.1010  -14.5830   -2.8870 C.2       1 GLN         0.2041
     36 O          52.3340  -15.4040   -3.7810 O.2       1 GLN        -0.3944
     37 CB         49.7960  -14.0420   -2.0520 C.3       1 GLN         0.0045
     38 CG         49.3660  -14.0100   -3.5150 C.3       1 GLN         0.0412
     39 CD         47.8800  -13.7690   -3.6960 C.2       1 GLN         0.1737
     40 OE1        47.1790  -13.3930   -2.7570 O.2       1 GLN        -0.3973
     41 NE2        47.3910  -13.9870   -4.9110 N.am      1 GLN        -0.3009
     42 N          52.7460  -13.4130   -2.8150 N.am      1 THR        -0.2613
     43 CA         53.7140  -13.0630   -3.8510 C.3       1 THR         0.1565
     44 C          54.9480  -13.9540   -3.7770 C.2       1 THR         0.2065
     45 O          55.5030  -14.3400   -4.8130 O.2       1 THR        -0.3943
     46 CB         54.1150  -11.5870   -3.7520 C.3       1 THR         0.0924
     47 OG1        54.8820  -11.3650   -2.5630 O.3       1 THR        -0.3874
     48 CG2        52.8830  -10.6890   -3.7390 C.3       1 THR        -0.0346
     49 N          55.3850  -14.3040   -2.5650 N.am      1 ALA        -0.2639
     50 CA         56.5740  -15.1380   -2.4230 C.3       1 ALA         0.1282
     51 C          56.3540  -16.5230   -3.0190 C.2       1 ALA         0.2036
     52 O          57.2280  -17.0510   -3.7180 O.2       1 ALA        -0.3944
     53 CB         56.9730  -15.2440   -0.9520 C.3       1 ALA        -0.0244
     54 N          55.1900  -17.1270   -2.7610 N.am      1 ARG        -0.2637
     55 CA         54.9230  -18.4590   -3.2910 C.3       1 ARG         0.1311
     56 C          54.7860  -18.4480   -4.8080 C.2       1 ARG         0.2039
     57 O          55.1670  -19.4210   -5.4680 O.2       1 ARG        -0.3944
     58 CB         53.6650  -19.0450   -2.6510 C.3       1 ARG        -0.0092
     59 CG         53.8040  -19.3700   -1.1710 C.3       1 ARG        -0.0156
     60 CD         52.6800  -20.2920   -0.7190 C.3       1 ARG         0.0627
     61 NE         52.6880  -20.5230    0.7220 N.pl3     1 ARG        -0.2723
     62 CZ         51.8380  -19.9580    1.5740 C.cat     1 ARG         0.2882
     63 NH1        50.9010  -19.1310    1.1310 N.pl3     1 ARG        -0.2849
     64 NH2        51.9180  -20.2280    2.8700 N.pl3     1 ARG        -0.2849
     65 N          54.2430  -17.3720   -5.3800 N.am      1 LYS        -0.2637
     66 CA         54.1880  -17.2790   -6.8350 C.3       1 LYS         0.1310
     67 C          55.5840  -17.1150   -7.4210 C.2       1 LYS         0.2040
     68 O          55.8880  -17.6590   -8.4890 O.2       1 LYS        -0.3944
     69 CB         53.2880  -16.1180   -7.2600 C.3       1 LYS        -0.0122
     70 CG         53.4500  -15.7350   -8.7270 C.3       1 LYS        -0.0440
     71 CD         52.5450  -14.5870   -9.1450 C.3       1 LYS        -0.0124
     72 CE         51.2960  -14.5050   -8.2820 C.3       1 LYS        -0.0354
     73 NZ         50.4170  -13.3870   -8.7200 N.4       1 LYS         0.2185
     74 N          56.4510  -16.3800   -6.7230 N.am      1 SER        -0.2616
     75 CA         57.7960  -16.1420   -7.2300 C.3       1 SER         0.1539
     76 C          58.6480  -17.4060   -7.1540 C.2       1 SER         0.2063
     77 O          59.3710  -17.7290   -8.1040 O.2       1 SER        -0.3943
     78 CB         58.4380  -14.9920   -6.4540 C.3       1 SER         0.0843
     79 OG         59.8300  -14.9290   -6.6820 O.3       1 SER        -0.3903
     80 N          58.5690  -18.1420   -6.0420 N.am      1 THR        -0.2613
     81 CA         59.3280  -19.3800   -5.9120 C.3       1 THR         0.1565
     82 C          58.6660  -20.5550   -6.6150 C.2       1 THR         0.2063
     83 O          59.3610  -21.5100   -6.9810 O.2       1 THR        -0.3943
     84 CB         59.5220  -19.7550   -4.4410 C.3       1 THR         0.0924
     85 OG1        58.2520  -20.0710   -3.8510 O.3       1 THR        -0.3874
     86 CG2        60.1890  -18.6240   -3.6700 C.3       1 THR        -0.0346
     87 N          57.3520  -20.5110   -6.8080 N.am      1 GLY        -0.2663
     88 CA         56.6230  -21.6810   -7.2480 C.3       1 GLY         0.1201
     89 C          56.4170  -22.6520   -6.1020 C.2       1 GLY         0.2005
     90 O          56.7980  -22.4120   -4.9550 O.2       1 GLY        -0.3947
     91 N          55.8010  -23.7800   -6.4280 N.am      1 GLY        -0.2666
     92 CA         55.5110  -24.7860   -5.4250 C.3       1 GLY         0.1201
     93 C          56.7450  -25.5070   -4.9190 C.2       1 GLY         0.2007
     94 O          57.7690  -25.5610   -5.6010 O.2       1 GLY        -0.3947
     95 C          57.6100  -28.2290   -3.9790 C.2       1 BTK         0.2039
     96 N          56.6530  -26.0440   -3.7080 N.am      1 BTK        -0.2640
     97 O          56.5520  -28.7310   -4.3720 O.2       1 BTK        -0.3944
     98 CA         57.6710  -26.9230   -3.2030 C.3       1 BTK         0.1310
     99 CB         57.5240  -27.2660   -1.7130 C.3       1 BTK        -0.0123
    100 CD         57.0710  -26.2900    0.5230 C.3       1 BTK        -0.0325
    101 CE         57.3100  -25.0810    1.4330 C.3       1 BTK         0.0309
    102 CG         57.7220  -26.0590   -0.8240 C.3       1 BTK        -0.0470
    103 NZ         58.6340  -25.0180    1.9830 N.am      1 BTK        -0.2870
    104 CAA        63.1340  -23.2190    2.6660 C.3       1 BTK        -0.0632
    105 OAD        59.0000  -22.7930    1.5390 O.2       1 BTK        -0.3971
    106 CAF        61.7660  -23.0130    2.0720 C.3       1 BTK        -0.0389
    107 CAJ        60.7840  -24.0180    2.6340 C.3       1 BTK         0.0370
    108 CAN        59.4110  -23.8740    2.0050 C.2       1 BTK         0.1760
    109 N          58.7820  -28.8010   -4.2220 N.am      1 ALA        -0.2640
    110 CA         58.8530  -30.0520   -4.9660 C.3       1 ALA         0.1283
    111 C          58.2910  -31.2010   -4.1400 C.2       1 ALA         0.2056
    112 O          58.7200  -31.4280   -3.0100 O.2       1 ALA        -0.3942
    113 CB         60.2810  -30.3430   -5.3820 C.3       1 ALA        -0.0244
    114 N          57.3130  -31.9250   -4.7030 N.am      1 PRO        -0.2556
    115 CA         56.7120  -33.0900   -4.0480 C.3       1 PRO         0.0972
    116 C          57.6240  -34.3120   -4.0860 C.2       1 PRO         0.0603
    117 O          58.0330  -34.7860   -3.0270 O.co2     1 PRO        -0.5666
    118 CB         55.4450  -33.3310   -4.8680 C.3       1 PRO        -0.0159
    119 CG         55.7910  -32.8220   -6.2250 C.3       1 PRO        -0.0288
    120 CD         56.6700  -31.6260   -5.9950 C.3       1 PRO         0.0362
    121 OXT        57.9300  -34.7960   -5.1750 O.co2     1 PRO        -0.5666
    122 H1         54.9111   -3.7296   -1.6394 H         1 ALA         0.2015
    123 H2         53.9162   -5.0025   -1.9546 H         1 ALA         0.2015
    124 H3         55.3874   -4.9068   -2.6866 H         1 ALA         0.2015
    125 H4         56.5255   -5.1489   -0.6400 H         1 ALA         0.1095
    126 H5         55.2272   -5.7078    1.3903 H         1 ALA         0.0310
    127 H6         53.7013   -5.4192    0.4875 H         1 ALA         0.0310
    128 H7         54.8423   -4.0630    0.7796 H         1 ALA         0.0310
    129 H8         57.0680   -7.2302    0.1498 H         1 ARG         0.1884
    130 H9         55.9865   -9.4111   -1.5076 H         1 ARG         0.0800
    131 H10        57.7898  -10.7683   -0.4745 H         1 ARG         0.0313
    132 H11        58.2442   -9.3606    0.5446 H         1 ARG         0.0313
    133 H12        58.9315   -8.0896   -1.3564 H         1 ARG         0.0301
    134 H13        58.1954   -9.2667   -2.4963 H         1 ARG         0.0301
    135 H14        60.6566   -9.4766   -2.4059 H         1 ARG         0.0689
    136 H15        59.8316  -10.9667   -1.8352 H         1 ARG         0.0689
    137 H16        61.1465   -8.9200   -0.0625 H         1 ARG         0.2642
    138 H17        60.7232  -12.8801    0.7482 H         1 ARG         0.2615
    139 H18        60.0235  -12.2132   -0.7512 H         1 ARG         0.2615
    140 H19        62.0258   -9.7731    1.8333 H         1 ARG         0.2615
    141 H20        61.8507  -11.5110    2.1964 H         1 ARG         0.2615
    142 H21        54.5882  -10.8653   -0.8402 H         1 THR         0.1884
    143 H22        53.9733  -11.1091    2.0657 H         1 THR         0.0826
    144 H23        51.6162  -11.3139    1.5865 H         1 THR         0.0639
    145 H24        50.9085  -11.1246   -0.6279 H         1 THR         0.2101
    146 H25        51.0954   -9.0917    0.6234 H         1 THR         0.0257
    147 H26        52.7737   -8.9679   -0.0046 H         1 THR         0.0257
    148 H27        52.4773   -8.9952    1.7668 H         1 THR         0.0257
    149 H28        52.5972  -13.2185    2.3510 H         1 LYS         0.1883
    150 H29        54.1500  -15.4247    1.4472 H         1 LYS         0.0800
    151 H30        52.1419  -16.7992    2.1919 H         1 LYS         0.0312
    152 H31        51.3305  -15.2421    2.5713 H         1 LYS         0.0312
    153 H32        52.9865  -14.6860    4.2159 H         1 LYS         0.0269
    154 H33        54.0362  -16.0532    3.7103 H         1 LYS         0.0269
    155 H34        52.2730  -17.6416    4.4608 H         1 LYS         0.0317
    156 H35        51.2975  -16.2483    5.0387 H         1 LYS         0.0317
    157 H36        52.8998  -15.6719    6.6938 H         1 LYS         0.0813
    158 H37        54.1649  -16.7050    5.9461 H         1 LYS         0.0813
    159 H38        53.2281  -17.7094    7.9064 H         1 LYS         0.1994
    160 H39        52.8703  -18.6212    6.5835 H         1 LYS         0.1994
    161 H40        51.7110  -17.6746    7.2687 H         1 LYS         0.1994
    162 H41        51.2030  -13.9086    0.0876 H         1 GLN         0.1883
    163 H42        50.7808  -15.9406   -1.8908 H         1 GLN         0.0801
    164 H43        49.9930  -13.0113   -1.7222 H         1 GLN         0.0337
    165 H44        48.9759  -14.4676   -1.4551 H         1 GLN         0.0337
    166 H45        49.6222  -14.9754   -3.9758 H         1 GLN         0.0504
    167 H46        49.9153  -13.2038   -4.0232 H         1 GLN         0.0504
    168 H47        46.4177  -13.8450   -5.0911 H         1 GLN         0.1814
    169 H48        47.9960  -14.2932   -5.6460 H         1 GLN         0.1814
    170 H49        52.5669  -12.7839   -2.0586 H         1 THR         0.1884
    171 H50        53.2363  -13.2226   -4.8289 H         1 THR         0.0826
    172 H51        54.7306  -11.3302   -4.6267 H         1 THR         0.0639
    173 H52        55.6660  -11.9009   -2.5886 H         1 THR         0.2101
    174 H53        53.1968   -9.6371   -3.6676 H         1 THR         0.0257
    175 H54        52.2530  -10.9432   -2.8739 H         1 THR         0.0257
    176 H55        52.3104  -10.8386   -4.6662 H         1 THR         0.0257
    177 H56        54.8951  -13.9931   -1.7505 H         1 ALA         0.1883
    178 H57        57.3977  -14.6570   -2.9708 H         1 ALA         0.0797
    179 H58        57.8695  -15.8747   -0.8598 H         1 ALA         0.0277
    180 H59        56.1481  -15.6935   -0.3798 H         1 ALA         0.0277
    181 H60        57.1887  -14.2402   -0.5573 H         1 ALA         0.0277
    182 H61        54.5007  -16.6645   -2.2033 H         1 ARG         0.1883
    183 H62        55.7749  -19.1045   -3.0313 H         1 ARG         0.0800
    184 H63        53.4082  -19.9724   -3.1839 H         1 ARG         0.0313
    185 H64        52.8488  -18.3169   -2.7678 H         1 ARG         0.0313
    186 H65        53.7622  -18.4368   -0.5901 H         1 ARG         0.0301
    187 H66        54.7704  -19.8663   -0.9987 H         1 ARG         0.0301
    188 H67        52.7903  -21.2591   -1.2313 H         1 ARG         0.0689
    189 H68        51.7179  -19.8372   -0.9974 H         1 ARG         0.0689
    190 H69        53.3976  -21.1648    1.1034 H         1 ARG         0.2642
    191 H70        50.2440  -18.6948    1.7935 H         1 ARG         0.2615
    192 H71        50.8302  -18.9247    0.1243 H         1 ARG         0.2615
    193 H72        52.6443  -20.8698    3.2185 H         1 ARG         0.2615
    194 H73        51.2538  -19.7958    3.5281 H         1 ARG         0.2615
    195 H74        53.8758  -16.6334   -4.8147 H         1 LYS         0.1883
    196 H75        53.7573  -18.2129   -7.2253 H         1 LYS         0.0800
    197 H76        53.5327  -15.2420   -6.6414 H         1 LYS         0.0312
    198 H77        52.2407  -16.4071   -7.0883 H         1 LYS         0.0312
    199 H78        53.2121  -16.6122   -9.3466 H         1 LYS         0.0269
    200 H79        54.4951  -15.4376   -8.8983 H         1 LYS         0.0269
    201 H80        52.2440  -14.7350  -10.1926 H         1 LYS         0.0317
    202 H81        53.1027  -13.6433   -9.0535 H         1 LYS         0.0317
    203 H82        51.5921  -14.3408   -7.2354 H         1 LYS         0.0813
    204 H83        50.7409  -15.4513   -8.3619 H         1 LYS         0.0813
    205 H84        49.5979  -13.3541   -8.1335 H         1 LYS         0.1994
    206 H85        50.1388  -13.5337   -9.6777 H         1 LYS         0.1994
    207 H86        50.9188  -12.5160   -8.6455 H         1 LYS         0.1994
    208 H87        56.1756  -15.9892   -5.8447 H         1 SER         0.1884
    209 H88        57.7203  -15.8464   -8.2868 H         1 SER         0.0823
    210 H89        58.2581  -15.1414   -5.3792 H         1 SER         0.0606
    211 H90        57.9799  -14.0446   -6.7743 H         1 SER         0.0606
    212 H91        60.1984  -14.2064   -6.1874 H         1 SER         0.2097
    213 H92        57.9826  -17.8404   -5.2902 H         1 THR         0.1884
    214 H93        60.3160  -19.2167   -6.3671 H         1 THR         0.0826
    215 H94        60.1687  -20.6432   -4.3877 H         1 THR         0.0639
    216 H95        57.8621  -20.8029   -4.3145 H         1 THR         0.2101
    217 H96        60.3151  -18.9215   -2.6185 H         1 THR         0.0257
    218 H97        59.5600  -17.7231   -3.7232 H         1 THR         0.0257
    219 H98        61.1737  -18.4103   -4.1112 H         1 THR         0.0257
    220 H99        56.8592  -19.6559   -6.6466 H         1 GLY         0.1881
    221 H100       57.1917  -22.1809   -8.0459 H         1 GLY         0.0763
    222 H101       55.6423  -21.3694   -7.6368 H         1 GLY         0.0763
    223 H102       55.5329  -23.9390   -7.3782 H         1 GLY         0.1881
    224 H103       54.8288  -25.5290   -5.8638 H         1 GLY         0.0763
    225 H104       55.0195  -24.2958   -4.5717 H         1 GLY         0.0763
    226 H105       55.8600  -25.8325   -3.1367 H         1 BTK         0.1883
    227 H106       58.6495  -26.4448   -3.3575 H         1 BTK         0.0800
    228 H107       58.2739  -28.0263   -1.4493 H         1 BTK         0.0312
    229 H108       56.5156  -27.6704   -1.5409 H         1 BTK         0.0312
    230 H109       55.9893  -26.4343    0.3851 H         1 BTK         0.0285
    231 H110       57.5043  -27.1877    0.9881 H         1 BTK         0.0285
    232 H111       56.5916  -25.1265    2.2648 H         1 BTK         0.0520
    233 H112       57.1349  -24.1668    0.8469 H         1 BTK         0.0520
    234 H113       57.2677  -25.1780   -1.3008 H         1 BTK         0.0268
    235 H114       58.7988  -25.8848   -0.6821 H         1 BTK         0.0268
    236 H115       59.0189  -25.8536    2.3749 H         1 BTK         0.1850
    237 H116       63.8315  -22.4799    2.2451 H         1 BTK         0.0231
    238 H117       63.4877  -24.2333    2.4291 H         1 BTK         0.0231
    239 H118       63.0823  -23.0943    3.7577 H         1 BTK         0.0231
    240 H119       61.8237  -23.1357    0.9804 H         1 BTK         0.0287
    241 H120       61.4184  -21.9966    2.3089 H         1 BTK         0.0287
    242 H121       60.6968  -23.8624    3.7194 H         1 BTK         0.0502
    243 H122       61.1610  -25.0326    2.4381 H         1 BTK         0.0502
    244 H123       59.6224  -28.3708   -3.8924 H         1 ALA         0.1883
    245 H124       58.2422  -29.9488   -5.8750 H         1 ALA         0.0797
    246 H125       60.3143  -31.2895   -5.9414 H         1 ALA         0.0277
    247 H126       60.9146  -30.4239   -4.4865 H         1 ALA         0.0277
    248 H127       60.6506  -29.5268   -6.0201 H         1 ALA         0.0277
    249 H128       56.4639  -32.8598   -3.0014 H         1 PRO         0.0728
    250 H129       54.5949  -32.7743   -4.4468 H         1 PRO         0.0306
    251 H130       55.2001  -34.4028   -4.9033 H         1 PRO         0.0306
    252 H131       54.8808  -32.5306   -6.7696 H         1 PRO         0.0286
    253 H132       56.3306  -33.5908   -6.7976 H         1 PRO         0.0286
    254 H133       57.4187  -31.5270   -6.7948 H         1 PRO         0.0524
    255 H134       56.0735  -30.7037   -5.9348 H         1 PRO         0.0524
@<TRIPOS>BOND
     1    2    1 1  
     2    3    2 1  
     3    2    5 1  
     4    3    4 2  
     5    6    3 am 
     6    7    6 1  
     7    8    7 1  
     8    7   10 1  
     9    8    9 2  
    10   17    8 am 
    11   10   11 1  
    12   11   12 1  
    13   12   13 1  
    14   13   14 ar 
    15   14   15 ar 
    16   14   16 ar 
    17   18   17 1  
    18   19   18 1  
    19   18   21 1  
    20   19   20 2  
    21   24   19 am 
    22   21   22 1  
    23   21   23 1  
    24   25   24 1  
    25   26   25 1  
    26   25   28 1  
    27   26   27 2  
    28   33   26 am 
    29   28   29 1  
    30   29   30 1  
    31   30   31 1  
    32   31   32 1  
    33   34   33 1  
    34   35   34 1  
    35   34   37 1  
    36   35   36 2  
    37   42   35 am 
    38   37   38 1  
    39   38   39 1  
    40   39   40 2  
    41   39   41 am 
    42   43   42 1  
    43   44   43 1  
    44   43   46 1  
    45   44   45 2  
    46   49   44 am 
    47   46   47 1  
    48   46   48 1  
    49   50   49 1  
    50   51   50 1  
    51   50   53 1  
    52   51   52 2  
    53   54   51 am 
    54   55   54 1  
    55   56   55 1  
    56   55   58 1  
    57   56   57 2  
    58   65   56 am 
    59   58   59 1  
    60   59   60 1  
    61   60   61 1  
    62   61   62 ar 
    63   62   63 ar 
    64   62   64 ar 
    65   66   65 1  
    66   67   66 1  
    67   66   69 1  
    68   67   68 2  
    69   74   67 am 
    70   69   70 1  
    71   70   71 1  
    72   71   72 1  
    73   72   73 1  
    74   75   74 1  
    75   76   75 1  
    76   75   78 1  
    77   76   77 2  
    78   80   76 am 
    79   78   79 1  
    80   81   80 1  
    81   82   81 1  
    82   81   84 1  
    83   82   83 2  
    84   87   82 am 
    85   84   85 1  
    86   84   86 1  
    87   88   87 1  
    88   89   88 1  
    89   89   90 2  
    90   91   89 am 
    91   92   91 1  
    92   93   92 1  
    93   93   94 2  
    94   96   93 am 
    95   95   97 2  
    96   98   95 1  
    97   95  109 am 
    98   98   96 1  
    99   99   98 1  
   100  102   99 1  
   101  101  100 1  
   102  100  102 1  
   103  103  101 1  
   104  108  103 am 
   105  106  104 1  
   106  108  105 2  
   107  107  106 1  
   108  107  108 1  
   109  109  110 1  
   110  110  111 1  
   111  110  113 1  
   112  111  112 2  
   113  111  114 am 
   114  114  115 1  
   115  114  120 1  
   116  115  116 1  
   117  115  118 1  
   118  116  117 ar 
   119  116  121 ar 
   120  118  119 1  
   121  119  120 1  
   122    1  122 1  
   123    1  123 1  
   124    1  124 1  
   125    2  125 1  
   126    5  126 1  
   127    5  127 1  
   128    5  128 1  
   129    6  129 1  
   130    7  130 1  
   131   10  131 1  
   132   10  132 1  
   133   11  133 1  
   134   11  134 1  
   135   12  135 1  
   136   12  136 1  
   137   13  137 1  
   138   15  138 1  
   139   15  139 1  
   140   16  140 1  
   141   16  141 1  
   142   17  142 1  
   143   18  143 1  
   144   21  144 1  
   145   22  145 1  
   146   23  146 1  
   147   23  147 1  
   148   23  148 1  
   149   24  149 1  
   150   25  150 1  
   151   28  151 1  
   152   28  152 1  
   153   29  153 1  
   154   29  154 1  
   155   30  155 1  
   156   30  156 1  
   157   31  157 1  
   158   31  158 1  
   159   32  159 1  
   160   32  160 1  
   161   32  161 1  
   162   33  162 1  
   163   34  163 1  
   164   37  164 1  
   165   37  165 1  
   166   38  166 1  
   167   38  167 1  
   168   41  168 1  
   169   41  169 1  
   170   42  170 1  
   171   43  171 1  
   172   46  172 1  
   173   47  173 1  
   174   48  174 1  
   175   48  175 1  
   176   48  176 1  
   177   49  177 1  
   178   50  178 1  
   179   53  179 1  
   180   53  180 1  
   181   53  181 1  
   182   54  182 1  
   183   55  183 1  
   184   58  184 1  
   185   58  185 1  
   186   59  186 1  
   187   59  187 1  
   188   60  188 1  
   189   60  189 1  
   190   61  190 1  
   191   63  191 1  
   192   63  192 1  
   193   64  193 1  
   194   64  194 1  
   195   65  195 1  
   196   66  196 1  
   197   69  197 1  
   198   69  198 1  
   199   70  199 1  
   200   70  200 1  
   201   71  201 1  
   202   71  202 1  
   203   72  203 1  
   204   72  204 1  
   205   73  205 1  
   206   73  206 1  
   207   73  207 1  
   208   74  208 1  
   209   75  209 1  
   210   78  210 1  
   211   78  211 1  
   212   79  212 1  
   213   80  213 1  
   214   81  214 1  
   215   84  215 1  
   216   85  216 1  
   217   86  217 1  
   218   86  218 1  
   219   86  219 1  
   220   87  220 1  
   221   88  221 1  
   222   88  222 1  
   223   91  223 1  
   224   92  224 1  
   225   92  225 1  
   226   96  226 1  
   227   98  227 1  
   228   99  228 1  
   229   99  229 1  
   230  100  230 1  
   231  100  231 1  
   232  101  232 1  
   233  101  233 1  
   234  102  234 1  
   235  102  235 1  
   236  103  236 1  
   237  104  237 1  
   238  104  238 1  
   239  104  239 1  
   240  106  240 1  
   241  106  241 1  
   242  107  242 1  
   243  107  243 1  
   244  109  244 1  
   245  110  245 1  
   246  113  246 1  
   247  113  247 1  
   248  113  248 1  
   249  115  249 1  
   250  118  250 1  
   251  118  251 1  
   252  119  252 1  
   253  119  253 1  
   254  120  254 1  
   255  120  255 1  
@<TRIPOS>SUBSTRUCTURE
     1 ALA         1

