5ugd_ligand
  -I-interpret- 

 85 87  0  0  0  0  0  0  0  0999 V2000
   14.2660  -12.7070  140.0880 C   0  0  0  0  0
   13.5700  -11.8460  139.0310 C   0  0  0  0  0
   13.5810  -10.3760  139.4650 C   0  0  0  0  0
   14.4960   -9.5700  138.5350 C   0  0  0  0  0
   14.1630   -8.0780  138.6660 C   0  0  0  0  0
   15.4580   -7.2630  138.6400 C   0  0  0  0  0
   15.5850   -6.5250  137.3040 C   0  0  0  0  0
   17.0700   -6.2590  136.9870 C   0  0  0  0  0
   17.1900   -5.9700  135.5390 N   0  0  0  0  0
   18.2090   -6.3880  134.7650 C   0  0  0  0  0
   19.1800   -7.0670  135.1370 O   0  0  0  0  0
   18.0480   -6.0460  133.2890 C   0  0  0  0  0
   19.2610   -5.4020  132.7320 N   0  0  0  0  0
   19.5530   -4.1220  133.0530 C   0  0  0  0  0
   18.8840   -3.4330  133.8420 O   0  0  0  0  0
   20.8070   -3.5800  132.3750 C   0  0  0  0  0
   22.0280   -3.9330  133.2740 C   0  0  0  0  0
   23.3240   -3.4350  132.6180 C   0  0  0  0  0
   23.2660   -1.9160  132.3850 C   0  0  0  0  0
   24.5570   -1.4870  131.7050 C   0  0  0  0  0
   24.6720   -0.0230  131.5920 N   0  3  0  0  0
   22.0570   -1.5770  131.4870 C   0  0  0  0  0
   20.7560   -2.0280  132.1730 C   0  0  0  0  0
   17.6660   -7.2650  132.4630 C   0  0  0  0  0
   16.4500   -7.8580  132.9120 C   0  0  0  0  0
   15.2110   -7.2440  132.7070 C   0  0  0  0  0
   14.0240   -7.8720  133.1180 C   0  0  0  0  0
   16.4930   -9.1230  133.5260 C   0  0  0  0  0
   15.3120   -9.7520  133.9410 C   0  0  0  0  0
   14.0730   -9.1250  133.7510 C   0  0  0  0  0
   12.8930   -9.7690  134.0520 O   0  0  0  0  0
   12.4850   -9.9180  135.4210 C   0  0  0  0  0
   11.1070  -10.1950  135.5200 C   0  0  0  0  0
   10.6530  -11.0280  136.5490 C   0  0  0  0  0
    9.2830  -11.2660  136.7010 C   0  0  0  0  0
    8.3580  -10.6550  135.8280 N   0  0  0  0  0
    8.8130   -9.8170  134.7900 C   0  0  0  0  0
   10.1860   -9.5990  134.6540 C   0  0  0  0  0
   15.2973  -12.3738  140.2047 H   0  0  0  0  0
   13.7412  -12.6083  141.0383 H   0  0  0  0  0
   14.2534  -13.7499  139.7711 H   0  0  0  0  0
   12.5385  -12.1796  138.9181 H   0  0  0  0  0
   14.0981  -11.9446  138.0826 H   0  0  0  0  0
   13.9509  -10.3037  140.4878 H   0  0  0  0  0
   12.5685   -9.9758  139.4119 H   0  0  0  0  0
   14.3420   -9.8895  137.5043 H   0  0  0  0  0
   15.5369   -9.7376  138.8116 H   0  0  0  0  0
   13.6420   -7.9030  139.6073 H   0  0  0  0  0
   13.5250   -7.7736  137.8363 H   0  0  0  0  0
   16.3075   -7.9352  138.7608 H   0  0  0  0  0
   15.4405   -6.5355  139.4515 H   0  0  0  0  0
   15.0563   -5.5740  137.3682 H   0  0  0  0  0
   15.1541   -7.1389  136.5131 H   0  0  0  0  0
   17.6704   -7.1311  137.2459 H   0  0  0  0  0
   17.4313   -5.4114  137.5693 H   0  0  0  0  0
   16.4527   -5.4185  135.1000 H   0  0  0  0  0
   17.2304   -5.3277  133.2284 H   0  0  0  0  0
   19.8749   -5.9243  132.1069 H   0  0  0  0  0
   20.8850   -4.0327  131.3865 H   0  0  0  0  0
   22.0814   -5.0146  133.3981 H   0  0  0  0  0
   21.9096   -3.4521  134.2450 H   0  0  0  0  0
   23.4472   -3.9346  131.6571 H   0  0  0  0  0
   24.1618   -3.6586  133.2784 H   0  0  0  0  0
   23.1542   -1.3905  133.3334 H   0  0  0  0  0
   24.5629   -1.9046  130.6982 H   0  0  0  0  0
   25.3912   -1.8454  132.3081 H   0  0  0  0  0
   25.5508    0.2133  131.1312 H   0  0  0  0  0
   23.8913    0.3368  131.0429 H   0  0  0  0  0
   24.6533    0.3913  132.5239 H   0  0  0  0  0
   22.1599   -2.0947  130.5333 H   0  0  0  0  0
   22.0223   -0.5003  131.3205 H   0  0  0  0  0
   20.6552   -1.5320  133.1384 H   0  0  0  0  0
   19.8995   -1.7632  131.5531 H   0  0  0  0  0
   18.4609   -8.0043  132.5607 H   0  0  0  0  0
   17.5272   -6.9456  131.4301 H   0  0  0  0  0
   15.1657   -6.2682  132.2234 H   0  0  0  0  0
   13.0635   -7.3865  132.9456 H   0  0  0  0  0
   17.4522   -9.6173  133.6800 H   0  0  0  0  0
   15.3569  -10.7332  134.4137 H   0  0  0  0  0
   12.6890   -8.9850  135.9463 H   0  0  0  0  0
   13.0374  -10.7498  135.8581 H   0  0  0  0  0
   11.3662  -11.4908  137.2312 H   0  0  0  0  0
    8.9296  -11.9242  137.4947 H   0  0  0  0  0
    8.1062   -9.3475  134.1058 H   0  0  0  0  0
   10.5467   -8.9504  133.8557 H   0  0  0  0  0
  1  2  1  0  0  0
  2  3  1  0  0  0
  3  4  1  0  0  0
  4  5  1  0  0  0
  5  6  1  0  0  0
  6  7  1  0  0  0
  7  8  1  0  0  0
  8  9  1  0  0  0
  9 10  1  0  0  0
 10 11  2  0  0  0
 10 12  1  0  0  0
 12 13  1  0  0  0
 12 24  1  0  0  0
 13 14  1  0  0  0
 14 15  2  0  0  0
 14 16  1  0  0  0
 16 17  1  0  0  0
 16 23  1  0  0  0
 17 18  1  0  0  0
 18 19  1  0  0  0
 19 20  1  0  0  0
 19 22  1  0  0  0
 20 21  1  0  0  0
 22 23  1  0  0  0
 24 25  1  0  0  0
 25 26  4  0  0  0
 25 28  4  0  0  0
 26 27  4  0  0  0
 27 30  4  0  0  0
 28 29  4  0  0  0
 29 30  4  0  0  0
 30 31  1  0  0  0
 31 32  1  0  0  0
 32 33  1  0  0  0
 33 34  4  0  0  0
 33 38  4  0  0  0
 34 35  4  0  0  0
 35 36  4  0  0  0
 36 37  4  0  0  0
 37 38  4  0  0  0
  1 39  1  0  0  0
  1 40  1  0  0  0
  1 41  1  0  0  0
  2 42  1  0  0  0
  2 43  1  0  0  0
  3 44  1  0  0  0
  3 45  1  0  0  0
  4 46  1  0  0  0
  4 47  1  0  0  0
  5 48  1  0  0  0
  5 49  1  0  0  0
  6 50  1  0  0  0
  6 51  1  0  0  0
  7 52  1  0  0  0
  7 53  1  0  0  0
  8 54  1  0  0  0
  8 55  1  0  0  0
  9 56  1  0  0  0
 12 57  1  0  0  0
 13 58  1  0  0  0
 16 59  1  0  0  0
 17 60  1  0  0  0
 17 61  1  0  0  0
 18 62  1  0  0  0
 18 63  1  0  0  0
 19 64  1  0  0  0
 20 65  1  0  0  0
 20 66  1  0  0  0
 21 67  1  0  0  0
 21 68  1  0  0  0
 21 69  1  0  0  0
 22 70  1  0  0  0
 22 71  1  0  0  0
 23 72  1  0  0  0
 23 73  1  0  0  0
 24 74  1  0  0  0
 24 75  1  0  0  0
 26 76  1  0  0  0
 27 77  1  0  0  0
 28 78  1  0  0  0
 29 79  1  0  0  0
 32 80  1  0  0  0
 32 81  1  0  0  0
 34 82  1  0  0  0
 35 83  1  0  0  0
 37 84  1  0  0  0
 38 85  1  0  0  0
M  END
$$$$
