3s2a_ligand
  -I-interpret- 

 54 58  0  0  0  0  0  0  0  0999 V2000
   26.6260   12.4580   22.4990 N   0  0  0  0  0
   19.2280   12.9160   24.3330 N   0  0  0  0  0
   24.5420   13.3150   20.9270 C   0  0  0  0  0
   25.8260   13.2580   20.3980 C   0  0  0  0  0
   25.6640   16.2980   19.1630 C   0  0  0  0  0
   26.8770   16.5550   19.7950 C   0  0  0  0  0
   27.0360   17.7390   20.5090 C   0  0  0  0  0
   24.7680   18.3890   19.9330 C   0  0  0  0  0
   22.6290   11.9500   23.6100 C   0  0  0  0  0
   20.4660   12.9560   23.8150 C   0  0  0  0  0
   22.1740   14.0230   22.4770 C   0  0  0  0  0
   19.9610   15.0440   22.6960 C   0  0  0  0  0
   21.6450   16.7450   21.8210 C   0  0  0  0  0
   21.6350   18.2590   21.5670 C   0  0  0  0  0
   19.1840   16.7680   21.0480 C   0  0  0  0  0
   20.6930   18.5820   20.5320 O   0  0  0  0  0
   19.3490   18.2920   20.9700 C   0  0  0  0  0
   20.2650   16.1610   21.8700 N   0  0  0  0  0
   20.8750   14.0150   22.9860 C   0  0  0  0  0
   18.6850   14.9480   23.2570 C   0  0  0  0  0
   18.3490   13.8730   24.0780 C   0  0  0  0  0
   21.3430   11.9290   24.1300 C   0  0  0  0  0
   23.0530   12.9950   22.7930 C   0  0  0  0  0
   24.3400   12.9580   22.2650 C   0  0  0  0  0
   25.4150   12.5110   23.0290 C   0  0  0  0  0
   26.8600   12.8130   21.2180 C   0  0  0  0  0
   28.4590   12.7160   20.5630 Cl  0  0  0  0  0
   26.1090   13.5810   19.1290 N   0  0  0  0  0
   25.4860   14.8400   18.2840 S   0  0  0  0  0
   24.0450   14.5680   17.9700 O   0  0  0  0  0
   26.2620   15.0030   17.0100 O   0  0  0  0  0
   25.9790   18.6500   20.5730 C   0  0  0  0  0
   26.1270   19.7890   21.2680 F   0  0  0  0  0
   24.6100   17.2060   19.2170 C   0  0  0  0  0
   23.7034   13.6336   20.3079 H   0  0  0  0  0
   27.6941   15.8364   19.7314 H   0  0  0  0  0
   27.9777   17.9537   21.0142 H   0  0  0  0  0
   23.9501   19.1070   19.9931 H   0  0  0  0  0
   23.3169   11.1375   23.8441 H   0  0  0  0  0
   22.4997   14.8376   21.8301 H   0  0  0  0  0
   22.1186   16.5695   22.7869 H   0  0  0  0  0
   22.1818   16.2701   20.9998 H   0  0  0  0  0
   22.6304   18.5750   21.2548 H   0  0  0  0  0
   21.3474   18.7728   22.4843 H   0  0  0  0  0
   19.2361   16.3568   20.0399 H   0  0  0  0  0
   18.2226   16.5417   21.5092 H   0  0  0  0  0
   19.1711   18.7373   21.9489 H   0  0  0  0  0
   18.6288   18.7099   20.2666 H   0  0  0  0  0
   17.9451   15.7213   23.0506 H   0  0  0  0  0
   17.3518   13.8194   24.5149 H   0  0  0  0  0
   21.0251   11.1135   24.7796 H   0  0  0  0  0
   25.2587   12.2049   24.0634 H   0  0  0  0  0
   26.7776   12.9852   18.6408 H   0  0  0  0  0
   23.6719   16.9929   18.7045 H   0  0  0  0  0
  1 25  4  0  0  0
 26  1  4  0  0  0
 10  2  4  0  0  0
  2 21  4  0  0  0
  4  3  4  0  0  0
  3 24  4  0  0  0
  4 26  4  0  0  0
 28  4  1  0  0  0
  5  6  4  0  0  0
 29  5  1  0  0  0
  5 34  4  0  0  0
  6  7  4  0  0  0
  7 32  4  0  0  0
  8 32  4  0  0  0
 34  8  4  0  0  0
  9 22  4  0  0  0
 23  9  4  0  0  0
 19 10  4  0  0  0
 22 10  4  0  0  0
 11 19  4  0  0  0
 23 11  4  0  0  0
 12 18  1  0  0  0
 19 12  4  0  0  0
 12 20  4  0  0  0
 13 14  1  0  0  0
 18 13  1  0  0  0
 14 16  1  0  0  0
 15 17  1  0  0  0
 18 15  1  0  0  0
 17 16  1  0  0  0
 20 21  4  0  0  0
 24 23  1  0  0  0
 24 25  4  0  0  0
 26 27  1  0  0  0
 28 29  1  0  0  0
 29 30  2  0  0  0
 29 31  2  0  0  0
 32 33  1  0  0  0
  3 35  1  0  0  0
  6 36  1  0  0  0
  7 37  1  0  0  0
  8 38  1  0  0  0
  9 39  1  0  0  0
 11 40  1  0  0  0
 13 41  1  0  0  0
 13 42  1  0  0  0
 14 43  1  0  0  0
 14 44  1  0  0  0
 15 45  1  0  0  0
 15 46  1  0  0  0
 17 47  1  0  0  0
 17 48  1  0  0  0
 20 49  1  0  0  0
 21 50  1  0  0  0
 22 51  1  0  0  0
 25 52  1  0  0  0
 28 53  1  0  0  0
 34 54  1  0  0  0
M  END
$$$$
