4nal_ligand
  -I-interpret- 

 20 21  0  0  0  0  0  0  0  0999 V2000
    4.0360   24.5720  -22.6360 C   0  0  0  0  0
    4.3070   23.4780  -20.4820 C   0  0  0  0  0
    4.6160   22.3060  -19.5770 C   0  0  0  0  0
    4.1680   24.7390  -19.8780 C   0  0  0  0  0
    3.9390   25.8830  -20.6410 C   0  0  0  0  0
    4.2500   23.4010  -21.8900 C   0  0  0  0  0
    4.4020   22.1890  -22.5730 O   0  0  0  0  0
    3.8630   25.8100  -22.0250 C   0  0  0  0  0
    5.6780   20.5540  -18.9120 C   0  0  0  0  0
    4.8470   20.8510  -17.9210 C   0  0  0  0  0
    4.1380   22.0400  -18.3610 C   0  0  0  0  0
    5.5690   21.4260  -19.9140 N   0  0  0  0  0
    2.8060   22.9610  -17.3960 Br  0  0  0  0  0
    4.6290   19.9390  -16.2840 Br  0  0  0  0  0
    3.7580   27.4240  -19.8730 Cl  0  0  0  0  0
    6.8610   19.0760  -18.9010 Br  0  0  0  0  0
    3.9660   24.5130  -24.3830 Cl  0  0  0  0  0
    4.2405   24.8242  -18.7938 H   0  0  0  0  0
    4.5401   21.4811  -21.9394 H   0  0  0  0  0
    3.6720   26.7030  -22.6202 H   0  0  0  0  0
  6  1  4  0  0  0
  1  8  4  0  0  0
  1 17  1  0  0  0
  3  2  1  0  0  0
  2  4  4  0  0  0
  2  6  4  0  0  0
  3 11  4  0  0  0
 12  3  4  0  0  0
  4  5  4  0  0  0
  5  8  4  0  0  0
  5 15  1  0  0  0
  6  7  1  0  0  0
  9 10  4  0  0  0
  9 12  4  0  0  0
  9 16  1  0  0  0
 10 11  4  0  0  0
 10 14  1  0  0  0
 11 13  1  0  0  0
  4 18  1  0  0  0
  7 19  1  0  0  0
  8 20  1  0  0  0
M  END
$$$$
