3sni_ligand
  -I-interpret- 

 41 44  0  0  0  0  0  0  0  0999 V2000
   17.3740  -11.1860  -34.8170 C   0  0  0  0  0
   19.3420   -7.3570  -34.9590 N   0  0  0  0  0
   20.2970  -10.7660  -38.9190 O   0  0  0  0  0
   18.0910   -9.8680  -34.8500 C   0  0  0  0  0
   20.1340  -10.9330  -32.3180 N   0  0  0  0  0
   17.4490   -8.7800  -35.4640 C   0  0  0  0  0
   20.7830  -11.7920  -34.2550 N   0  0  0  0  0
   18.1140   -7.5620  -35.4920 C   0  0  0  0  0
   20.5120  -11.2460  -36.5840 N   0  0  0  0  0
   19.9460   -8.4170  -34.3650 C   0  0  0  0  0
   22.3090  -14.0430  -34.9140 N   0  0  0  0  0
   19.3740   -9.6880  -34.2830 C   0  0  0  0  0
   20.0890  -10.7760  -33.6270 C   0  0  0  0  0
   20.8810  -12.0640  -32.0730 C   0  0  0  0  0
   21.2970  -12.6250  -33.2700 C   0  0  0  0  0
   21.0140  -12.0620  -35.6300 C   0  0  0  0  0
   21.7830  -13.1990  -35.9140 C   0  0  0  0  0
   22.0290  -13.4870  -37.2580 C   0  0  0  0  0
   21.5270  -12.6620  -38.2660 C   0  0  0  0  0
   20.7790  -11.5520  -37.8800 C   0  0  0  0  0
   20.0090   -9.4050  -38.5940 C   0  0  0  0  0
   22.0820  -13.7820  -33.6570 C   0  0  0  0  0
   22.6650  -14.7200  -32.6360 C   0  0  0  0  0
   21.1060  -12.4810  -30.6700 C   0  0  0  0  0
   16.4329  -11.0728  -34.2789 H   0  0  0  0  0
   17.1737  -11.5148  -35.8367 H   0  0  0  0  0
   17.9965  -11.9243  -34.3115 H   0  0  0  0  0
   16.4583   -8.8889  -35.9053 H   0  0  0  0  0
   17.6175   -6.7189  -35.9724 H   0  0  0  0  0
   20.9331   -8.2679  -33.9273 H   0  0  0  0  0
   22.6188  -14.3646  -37.5227 H   0  0  0  0  0
   21.7137  -12.8787  -39.3178 H   0  0  0  0  0
   19.2503   -9.3722  -37.8121 H   0  0  0  0  0
   20.9175   -8.9170  -38.2411 H   0  0  0  0  0
   19.6402   -8.8910  -39.4817 H   0  0  0  0  0
   22.2699  -15.7228  -32.7984 H   0  0  0  0  0
   23.7503  -14.7350  -32.7362 H   0  0  0  0  0
   22.3958  -14.3795  -31.6361 H   0  0  0  0  0
   21.6255  -11.6861  -30.1349 H   0  0  0  0  0
   20.1460  -12.6755  -30.1917 H   0  0  0  0  0
   21.7115  -13.3872  -30.6543 H   0  0  0  0  0
  4  1  1  0  0  0
  2  8  4  0  0  0
 10  2  4  0  0  0
 20  3  1  0  0  0
  3 21  1  0  0  0
  4  6  4  0  0  0
 12  4  4  0  0  0
  5 13  4  0  0  0
 14  5  4  0  0  0
  6  8  4  0  0  0
  7 13  4  0  0  0
 15  7  4  0  0  0
  7 16  4  0  0  0
 16  9  4  0  0  0
  9 20  4  0  0  0
 12 10  4  0  0  0
 11 17  4  0  0  0
 22 11  4  0  0  0
 13 12  1  0  0  0
 15 14  4  0  0  0
 14 24  1  0  0  0
 15 22  4  0  0  0
 16 17  4  0  0  0
 17 18  4  0  0  0
 18 19  4  0  0  0
 19 20  4  0  0  0
 22 23  1  0  0  0
  1 25  1  0  0  0
  1 26  1  0  0  0
  1 27  1  0  0  0
  6 28  1  0  0  0
  8 29  1  0  0  0
 10 30  1  0  0  0
 18 31  1  0  0  0
 19 32  1  0  0  0
 21 33  1  0  0  0
 21 34  1  0  0  0
 21 35  1  0  0  0
 23 36  1  0  0  0
 23 37  1  0  0  0
 23 38  1  0  0  0
 24 39  1  0  0  0
 24 40  1  0  0  0
 24 41  1  0  0  0
M  END
$$$$
