5l4m_ligand
  -I-interpret- 

 18 18  0  0  0  0  0  0  0  0999 V2000
  -22.1570   -0.0760  -23.6180 C   0  0  0  0  0
  -21.9950    0.8930  -24.6570 C   0  0  0  0  0
  -21.0420    0.6400  -25.6690 C   0  0  0  0  0
  -20.3060   -0.4520  -25.6780 N   0  0  0  0  0
  -20.4530   -1.3570  -24.7090 C   0  0  0  0  0
  -21.3610   -1.2370  -23.6350 C   0  0  0  0  0
  -21.5190   -2.4780  -22.3850 Cl  0  0  0  0  0
  -19.4160   -2.7390  -24.8300 Cl  0  0  0  0  0
  -20.9070    1.5550  -26.6530 O   0  0  0  0  0
  -20.3560    1.0950  -27.9190 C   0  0  0  0  0
  -21.2800    0.1060  -28.5650 C   0  0  0  0  0
  -22.0540   -0.6400  -27.8250 O   0  0  0  0  0
  -21.2840    0.0100  -29.7800 O   0  0  0  0  0
  -22.9690    2.3590  -24.6650 Cl  0  0  0  0  0
  -22.8867    0.0821  -22.8239 H   0  0  0  0  0
  -19.3957    0.6139  -27.7335 H   0  0  0  0  0
  -20.2321    1.9504  -28.5832 H   0  0  0  0  0
  -21.9142   -0.4252  -26.8998 H   0  0  0  0  0
  1  2  4  0  0  0
  1  6  4  0  0  0
  2  3  4  0  0  0
  2 14  1  0  0  0
  3  4  4  0  0  0
  3  9  1  0  0  0
  4  5  4  0  0  0
  5  6  4  0  0  0
  5  8  1  0  0  0
  6  7  1  0  0  0
  9 10  1  0  0  0
 10 11  1  0  0  0
 11 12  1  0  0  0
 11 13  2  0  0  0
  1 15  1  0  0  0
 10 16  1  0  0  0
 10 17  1  0  0  0
 12 18  1  0  0  0
M  END
$$$$
