6d3g_ligand
  -I-interpret- 

 31 31  0  0  0  0  0  0  0  0999 V2000
   99.8090   12.9090  162.0990 O   0  0  0  0  0
   99.6320   12.4130  160.9680 C   0  0  0  0  0
   98.3300   12.3110  160.4010 N   0  0  0  0  0
   98.0780   11.7730  159.0960 C   0  0  0  0  0
   97.1860   12.7830  161.1160 C   0  0  0  0  0
   96.3130   11.5810  161.5450 C   0  0  0  0  0
   96.7260   10.4320  161.4670 O   0  0  0  0  0
   95.0150   11.7550  162.0610 N   0  0  0  0  0
   96.4500   13.8470  160.3010 C   0  0  0  0  0
   96.4240   13.6440  158.7860 C   0  0  0  0  0
   97.5960   12.8690  158.1700 C   0  0  0  0  0
   98.6710   13.7940  157.8340 N   0  3  0  0  0
   98.6830   14.9580  158.6440 O   0  0  0  0  0
  100.0810   15.4860  158.9570 S   0  0  0  0  0
  100.0780   16.3310  160.2170 O   0  0  0  0  0
  100.7250   16.3250  157.8260 O   0  0  0  0  0
  101.0240   14.3770  159.3310 O   0  0  0  0  0
  100.4908   12.0507  160.4030 H   0  0  0  0  0
   97.3121   11.0008  159.1677 H   0  0  0  0  0
   98.9995   11.3470  158.6991 H   0  0  0  0  0
   97.4850   13.2844  162.0365 H   0  0  0  0  0
   94.4674   10.9438  162.3484 H   0  0  0  0  0
   94.6220   12.6923  162.1475 H   0  0  0  0  0
   96.9829   14.7823  160.4723 H   0  0  0  0  0
   95.4110   13.8149  160.6289 H   0  0  0  0  0
   96.4641   14.6423  158.3502 H   0  0  0  0  0
   95.5327   13.0516  158.5793 H   0  0  0  0  0
   97.2548   12.3834  157.2557 H   0  0  0  0  0
   98.5310   14.0917  156.8685 H   0  0  0  0  0
   99.5547   13.3065  157.9818 H   0  0  0  0  0
  100.7386   15.8106  157.0156 H   0  0  0  0  0
  1  2  2  0  0  0
  2  3  1  0  0  0
  3  4  1  0  0  0
  3  5  1  0  0  0
  4 11  1  0  0  0
  5  6  1  0  0  0
  5  9  1  0  0  0
  6  7  2  0  0  0
  6  8  1  0  0  0
  9 10  1  0  0  0
 10 11  1  0  0  0
 11 12  1  0  0  0
 12 13  1  0  0  0
 13 14  1  0  0  0
 14 15  2  0  0  0
 14 16  1  0  0  0
 14 17  2  0  0  0
  2 18  1  0  0  0
  4 19  1  0  0  0
  4 20  1  0  0  0
  5 21  1  0  0  0
  8 22  1  0  0  0
  8 23  1  0  0  0
  9 24  1  0  0  0
  9 25  1  0  0  0
 10 26  1  0  0  0
 10 27  1  0  0  0
 11 28  1  0  0  0
 12 29  1  0  0  0
 12 30  1  0  0  0
 16 31  1  0  0  0
M  END
$$$$
