4hz5_ligand
  -I-interpret- 

 35 37  0  0  0  0  0  0  0  0999 V2000
    7.4740   66.7360   12.3240 O   0  0  0  0  0
    8.4900   66.9070   12.9750 C   0  0  0  0  0
    9.1080   65.7690   13.7000 C   0  0  0  0  0
    8.7100   64.3450   13.7660 C   0  0  0  0  0
    7.5380   63.6710   13.1010 C   0  0  0  0  0
    6.9040   62.6560   14.0380 C   0  0  0  0  0
   10.3250   65.9430   14.5180 C   0  0  0  0  0
   11.2700   67.0110   14.9240 C   0  0  0  0  0
   11.1460   68.3070   14.5100 O   0  0  0  0  0
   12.2970   69.1520   14.4800 C   0  0  0  0  0
   12.2870   66.6640   15.7390 N   0  0  0  0  0
   12.4620   65.3950   16.1800 C   0  0  0  0  0
   11.6260   64.3850   15.8410 N   0  0  0  0  0
   10.5670   64.5790   15.0310 C   0  0  0  0  0
    9.6210   63.7400   14.5660 N   0  0  0  0  0
   13.7650   65.0490   17.2010 S   0  0  0  0  0
   14.8690   66.3390   17.2620 C   0  0  0  0  0
   15.3620   66.9140   16.0950 C   0  0  0  0  0
   16.2660   67.9720   16.1870 C   0  0  0  0  0
   16.6580   68.4230   17.4460 C   0  0  0  0  0
   16.1720   67.8470   18.5590 N   0  0  0  0  0
   15.2990   66.8280   18.4930 C   0  0  0  0  0
    8.9450   67.8962   13.0248 H   0  0  0  0  0
    7.8873   63.1562   12.2060 H   0  0  0  0  0
    6.7955   64.4261   12.8430 H   0  0  0  0  0
    7.6421   61.9000   14.3058 H   0  0  0  0  0
    6.5571   63.1622   14.9389 H   0  0  0  0  0
    6.0597   62.1805   13.5389 H   0  0  0  0  0
   12.7149   69.2303   15.4837 H   0  0  0  0  0
   13.0414   68.7261   13.8073 H   0  0  0  0  0
   12.0100   70.1423   14.1262 H   0  0  0  0  0
   15.0455   66.5421   15.1205 H   0  0  0  0  0
   16.6610   68.4403   15.2855 H   0  0  0  0  0
   17.3641   69.2492   17.5288 H   0  0  0  0  0
   14.9233   66.3793   19.4126 H   0  0  0  0  0
  1  2  2  0  0  0
  2  3  1  0  0  0
  3  4  4  0  0  0
  3  7  4  0  0  0
  4  5  1  0  0  0
  4 15  4  0  0  0
  5  6  1  0  0  0
  7  8  4  0  0  0
  7 14  4  0  0  0
  8  9  1  0  0  0
  8 11  4  0  0  0
  9 10  1  0  0  0
 11 12  4  0  0  0
 12 13  4  0  0  0
 12 16  1  0  0  0
 13 14  4  0  0  0
 14 15  4  0  0  0
 16 17  1  0  0  0
 17 18  4  0  0  0
 17 22  4  0  0  0
 18 19  4  0  0  0
 19 20  4  0  0  0
 20 21  4  0  0  0
 21 22  4  0  0  0
  2 23  1  0  0  0
  5 24  1  0  0  0
  5 25  1  0  0  0
  6 26  1  0  0  0
  6 27  1  0  0  0
  6 28  1  0  0  0
 10 29  1  0  0  0
 10 30  1  0  0  0
 10 31  1  0  0  0
 18 32  1  0  0  0
 19 33  1  0  0  0
 20 34  1  0  0  0
 22 35  1  0  0  0
M  END
$$$$
