3q2g_ligand
  -I-interpret- 

 65 67  0  0  0  0  0  0  0  0999 V2000
    9.1530  -12.1080    3.7220 C   0  0  0  0  0
   10.5310  -14.8000   21.2150 Cl  0  0  0  0  0
   10.0580  -12.2030    4.9540 C   0  0  0  0  0
   11.5440  -11.4160   17.2100 Cl  0  0  0  0  0
    9.1590  -12.1520    6.1830 C   0  0  0  0  0
    9.8700  -11.6320    7.4430 C   0  0  0  0  0
   10.5070  -10.2640    7.1900 C   0  0  0  0  0
    8.7230  -11.4770    8.4460 C   0  0  0  0  0
    9.1080  -10.7120   10.0460 S   0  0  0  0  0
   10.1260   -9.7070   10.0110 O   0  0  0  0  0
    7.9060  -10.4550   10.7290 O   0  0  0  0  0
    9.7610  -11.9420   10.9400 N   0  0  0  0  0
    8.9240  -13.1040   11.2660 C   0  0  0  0  0
    8.9600  -13.3110   12.7830 C   0  0  0  0  0
   10.3930  -13.5100   13.2500 C   0  0  0  0  0
   11.1900  -12.2230   12.9530 C   0  0  0  0  0
   11.1510  -11.8900   11.4430 C   0  0  0  0  0
   10.3510  -13.8170   14.6520 O   0  0  0  0  0
   11.5920  -13.9160   15.3590 C   0  0  0  0  0
   11.3270  -14.1300   16.8280 C   0  0  0  0  0
   11.1200  -15.4250   17.2890 C   0  0  0  0  0
   10.8730  -15.6290   18.6410 C   0  0  0  0  0
   10.8320  -14.5520   19.5240 C   0  0  0  0  0
   11.0400  -13.2660   19.0660 C   0  0  0  0  0
   11.2900  -13.0560   17.7240 C   0  0  0  0  0
   10.8840  -12.6230    7.9040 N   0  0  0  0  0
   10.5040  -13.9090    8.3340 O   0  0  0  0  0
   12.2080  -12.3660    7.9400 C   0  0  0  0  0
   12.9390  -13.2520    8.3480 O   0  0  0  0  0
   10.8560  -13.4890    4.8720 C   0  0  0  0  0
   10.2350  -14.6690    4.7910 N   0  0  0  0  0
   10.9270  -15.7920    4.6960 C   0  0  0  0  0
   12.3220  -15.7180    4.6810 C   0  0  0  0  0
   13.0700  -16.8440    4.6020 F   0  0  0  0  0
   12.9460  -14.4760    4.7700 C   0  0  0  0  0
   12.1830  -13.3980    4.8620 N   0  0  0  0  0
    9.7667  -12.1071    2.8212 H   0  0  0  0  0
    8.4775  -12.9632    3.7021 H   0  0  0  0  0
    8.5730  -11.1863    3.7690 H   0  0  0  0  0
   10.7721  -11.3814    5.0105 H   0  0  0  0  0
    8.8295  -13.1702    6.3899 H   0  0  0  0  0
    8.3413  -11.4660    5.9620 H   0  0  0  0  0
    9.7567   -9.5844    6.7859 H   0  0  0  0  0
   10.8926   -9.8651    8.1282 H   0  0  0  0  0
   11.3238  -10.3714    6.4763 H   0  0  0  0  0
    8.3954  -12.4907    8.6764 H   0  0  0  0  0
    8.0030  -10.8124    7.9684 H   0  0  0  0  0
    9.3017  -13.9915   10.7582 H   0  0  0  0  0
    7.8995  -12.9316   10.9361 H   0  0  0  0  0
    8.3752  -14.1951   13.0371 H   0  0  0  0  0
    8.5430  -12.4316   13.2738 H   0  0  0  0  0
   10.8894  -14.3294   12.7301 H   0  0  0  0  0
   12.2269  -12.3742   13.2532 H   0  0  0  0  0
   10.7437  -11.3971   13.5070 H   0  0  0  0  0
   11.5468  -10.8859   11.2903 H   0  0  0  0  0
   11.7521  -12.6211   10.9023 H   0  0  0  0  0
   12.1576  -12.9939   15.2253 H   0  0  0  0  0
   12.1628  -14.7588   14.9691 H   0  0  0  0  0
   11.1510  -16.2686   16.5995 H   0  0  0  0  0
   10.7099  -16.6401   19.0140 H   0  0  0  0  0
   11.0072  -12.4241   19.7575 H   0  0  0  0  0
    9.5500  -13.9968    8.2727 H   0  0  0  0  0
   12.6079  -11.4048    7.6172 H   0  0  0  0  0
   10.4198  -16.7546    4.6308 H   0  0  0  0  0
   14.0329  -14.3938    4.7641 H   0  0  0  0  0
  3  1  1  0  0  0
 23  2  1  0  0  0
  5  3  1  0  0  0
  3 30  1  0  0  0
 25  4  1  0  0  0
  6  5  1  0  0  0
  6  7  1  0  0  0
  8  6  1  0  0  0
  6 26  1  0  0  0
  9  8  1  0  0  0
  9 10  2  0  0  0
  9 11  2  0  0  0
 12  9  1  0  0  0
 13 12  1  0  0  0
 17 12  1  0  0  0
 14 13  1  0  0  0
 15 14  1  0  0  0
 15 16  1  0  0  0
 18 15  1  0  0  0
 16 17  1  0  0  0
 19 18  1  0  0  0
 20 19  1  0  0  0
 21 20  4  0  0  0
 20 25  4  0  0  0
 22 21  4  0  0  0
 22 23  4  0  0  0
 23 24  4  0  0  0
 24 25  4  0  0  0
 26 27  1  0  0  0
 26 28  1  0  0  0
 28 29  2  0  0  0
 30 31  4  0  0  0
 30 36  4  0  0  0
 31 32  4  0  0  0
 32 33  4  0  0  0
 33 34  1  0  0  0
 33 35  4  0  0  0
 35 36  4  0  0  0
  1 37  1  0  0  0
  1 38  1  0  0  0
  1 39  1  0  0  0
  3 40  1  0  0  0
  5 41  1  0  0  0
  5 42  1  0  0  0
  7 43  1  0  0  0
  7 44  1  0  0  0
  7 45  1  0  0  0
  8 46  1  0  0  0
  8 47  1  0  0  0
 13 48  1  0  0  0
 13 49  1  0  0  0
 14 50  1  0  0  0
 14 51  1  0  0  0
 15 52  1  0  0  0
 16 53  1  0  0  0
 16 54  1  0  0  0
 17 55  1  0  0  0
 17 56  1  0  0  0
 19 57  1  0  0  0
 19 58  1  0  0  0
 21 59  1  0  0  0
 22 60  1  0  0  0
 24 61  1  0  0  0
 27 62  1  0  0  0
 28 63  1  0  0  0
 32 64  1  0  0  0
 35 65  1  0  0  0
M  END
$$$$
