4o04_ligand
  -I-interpret- 

 52 55  0  0  0  0  0  0  0  0999 V2000
    8.6760  -12.3620  -24.2100 O   0  0  0  0  0
    7.5050  -12.7110  -24.3040 C   0  0  0  0  0
    7.1670  -14.1380  -24.6770 C   0  0  0  0  0
    5.9010  -14.3150  -25.5320 C   0  0  0  0  0
    5.5490  -15.7970  -25.6400 C   0  0  0  0  0
    6.1380  -13.7620  -26.9420 C   0  0  0  0  0
    6.3900  -11.7620  -24.1050 C   0  0  0  0  0
    6.2960  -10.3690  -23.7390 C   0  0  0  0  0
    7.4310   -9.4330  -23.3990 C   0  0  0  0  0
    6.9130   -7.9950  -23.4390 C   0  0  0  0  0
    5.6110   -7.8110  -22.7990 N   0  3  0  0  0
    5.2380   -6.3890  -22.7710 C   0  0  0  0  0
    4.5800   -8.5980  -23.4710 C   0  0  0  0  0
    4.9700  -10.0080  -23.7880 C   0  0  0  0  0
    4.2390  -11.1180  -24.1760 N   0  0  0  0  0
    5.1020  -12.1920  -24.3740 C   0  0  0  0  0
    4.7450  -13.5670  -24.8550 C   0  0  0  0  0
    2.8100  -11.1250  -24.3940 C   0  0  0  0  0
    2.2280  -10.1740  -25.2380 C   0  0  0  0  0
    0.8590  -10.1830  -25.4520 C   0  0  0  0  0
    0.0460  -11.1460  -24.8490 C   0  0  0  0  0
   -1.4300  -11.1550  -25.1550 C   0  0  0  0  0
   -2.2480  -11.7240  -24.2760 N   0  0  0  0  0
   -1.8320  -10.6500  -26.2050 O   0  0  0  0  0
    0.6330  -12.0950  -24.0080 C   0  0  0  0  0
    2.0020  -12.0860  -23.7720 C   0  0  0  0  0
    6.9879  -14.6696  -23.7424 H   0  0  0  0  0
    7.9999  -14.5089  -25.2743 H   0  0  0  0  0
    5.3851  -16.2039  -24.6421 H   0  0  0  0  0
    4.6422  -15.9114  -26.2339 H   0  0  0  0  0
    6.3693  -16.3299  -26.1208 H   0  0  0  0  0
    5.2338  -13.8887  -27.5373 H   0  0  0  0  0
    6.3871  -12.7028  -26.8783 H   0  0  0  0  0
    6.9610  -14.3027  -27.4094 H   0  0  0  0  0
    8.2388   -9.5547  -24.1206 H   0  0  0  0  0
    7.8118   -9.6607  -22.4034 H   0  0  0  0  0
    6.7978   -7.7229  -24.4882 H   0  0  0  0  0
    7.6294   -7.3791  -22.8953 H   0  0  0  0  0
    5.6867   -8.1422  -21.8372 H   0  0  0  0  0
    5.9872   -5.8291  -22.2112 H   0  0  0  0  0
    5.1853   -6.0084  -23.7910 H   0  0  0  0  0
    4.2660   -6.2791  -22.2901 H   0  0  0  0  0
    4.3767   -8.1055  -24.4219 H   0  0  0  0  0
    3.7300   -8.6511  -22.7907 H   0  0  0  0  0
    4.4535  -14.1485  -23.9804 H   0  0  0  0  0
    3.9558  -13.4534  -25.5982 H   0  0  0  0  0
    2.8512   -9.4256  -25.7275 H   0  0  0  0  0
    0.4106   -9.4291  -26.0991 H   0  0  0  0  0
   -3.2511  -11.7545  -24.4583 H   0  0  0  0  0
   -1.8728  -12.1303  -23.4189 H   0  0  0  0  0
    0.0094  -12.8514  -23.5315 H   0  0  0  0  0
    2.4464  -12.8245  -23.1048 H   0  0  0  0  0
  1  2  2  0  0  0
  2  3  1  0  0  0
  2  7  1  0  0  0
  3  4  1  0  0  0
  4  5  1  0  0  0
  4  6  1  0  0  0
  4 17  1  0  0  0
  7  8  4  0  0  0
  7 16  4  0  0  0
  8  9  1  0  0  0
  8 14  4  0  0  0
  9 10  1  0  0  0
 10 11  1  0  0  0
 11 12  1  0  0  0
 11 13  1  0  0  0
 13 14  1  0  0  0
 14 15  4  0  0  0
 15 16  4  0  0  0
 15 18  1  0  0  0
 16 17  1  0  0  0
 18 19  4  0  0  0
 18 26  4  0  0  0
 19 20  4  0  0  0
 20 21  4  0  0  0
 21 22  1  0  0  0
 21 25  4  0  0  0
 22 23  1  0  0  0
 22 24  2  0  0  0
 25 26  4  0  0  0
  3 27  1  0  0  0
  3 28  1  0  0  0
  5 29  1  0  0  0
  5 30  1  0  0  0
  5 31  1  0  0  0
  6 32  1  0  0  0
  6 33  1  0  0  0
  6 34  1  0  0  0
  9 35  1  0  0  0
  9 36  1  0  0  0
 10 37  1  0  0  0
 10 38  1  0  0  0
 11 39  1  0  0  0
 12 40  1  0  0  0
 12 41  1  0  0  0
 12 42  1  0  0  0
 13 43  1  0  0  0
 13 44  1  0  0  0
 17 45  1  0  0  0
 17 46  1  0  0  0
 19 47  1  0  0  0
 20 48  1  0  0  0
 23 49  1  0  0  0
 23 50  1  0  0  0
 25 51  1  0  0  0
 26 52  1  0  0  0
M  END
$$$$
