5g53_ligand
  -I-interpret- 

 38 40  0  0  0  0  0  0  0  0999 V2000
   -3.9690  -41.6580   19.1080 C   0  0  0  0  0
   -2.7680  -41.8540   19.2430 O   0  0  0  0  0
   -4.5090  -41.2840   17.9480 N   0  0  0  0  0
   -3.7090  -41.1170   16.7500 C   0  0  0  0  0
   -4.5490  -40.8610   15.5240 C   0  0  0  0  0
   -4.9320  -41.8600   20.2450 C   0  0  0  0  0
   -5.2780  -43.2480   20.2540 O   0  0  0  0  0
   -4.3790  -41.5100   21.6270 C   0  0  0  0  0
   -4.9390  -40.2910   22.1330 O   0  0  0  0  0
   -4.7220  -42.7090   22.4990 C   0  0  0  0  0
   -5.8820  -42.4930   23.3160 O   0  0  0  0  0
   -4.9960  -43.8480   21.5260 C   0  0  0  0  0
   -3.8290  -44.7780   21.4590 N   0  0  0  0  0
   -2.9180  -44.9010   20.4650 C   0  0  0  0  0
   -2.0030  -45.8560   20.7630 N   0  0  0  0  0
   -2.3250  -46.3560   21.9640 C   0  0  0  0  0
   -1.7850  -47.3940   22.8710 C   0  0  0  0  0
   -0.6780  -48.0910   22.5240 N   0  0  0  0  0
   -2.4290  -47.6170   24.0450 N   0  0  0  0  0
   -3.5320  -46.9220   24.4000 C   0  0  0  0  0
   -4.0710  -45.9640   23.6200 N   0  0  0  0  0
   -3.5290  -45.6500   22.4180 C   0  0  0  0  0
   -5.5131  -41.1104   17.9017 H   0  0  0  0  0
   -3.1506  -42.0389   16.5879 H   0  0  0  0  0
   -3.0590  -40.2546   16.8978 H   0  0  0  0  0
   -5.2218  -41.7035   15.3637 H   0  0  0  0  0
   -5.1319  -39.9512   15.6680 H   0  0  0  0  0
   -3.8984  -40.7439   14.6573 H   0  0  0  0  0
   -5.7733  -41.1882   20.0747 H   0  0  0  0  0
   -3.3048  -41.3270   21.6026 H   0  0  0  0  0
   -4.6978  -39.5646   21.5535 H   0  0  0  0  0
   -3.9032  -42.9135   23.1889 H   0  0  0  0  0
   -6.0516  -43.2774   23.8428 H   0  0  0  0  0
   -5.8440  -44.4510   21.8507 H   0  0  0  0  0
   -2.9200  -44.3114   19.5482 H   0  0  0  0  0
   -0.2137  -47.9017   21.6358 H   0  0  0  0  0
   -0.3080  -48.8056   23.1507 H   0  0  0  0  0
   -4.0052  -47.1452   25.3562 H   0  0  0  0  0
  1  2  2  0  0  0
  1  3  1  0  0  0
  1  6  1  0  0  0
  3  4  1  0  0  0
  4  5  1  0  0  0
  6  7  1  0  0  0
  6  8  1  0  0  0
  7 12  1  0  0  0
  8  9  1  0  0  0
  8 10  1  0  0  0
 10 11  1  0  0  0
 10 12  1  0  0  0
 12 13  1  0  0  0
 13 14  4  0  0  0
 13 22  4  0  0  0
 14 15  4  0  0  0
 15 16  4  0  0  0
 16 17  4  0  0  0
 16 22  4  0  0  0
 17 18  1  0  0  0
 17 19  4  0  0  0
 19 20  4  0  0  0
 20 21  4  0  0  0
 21 22  4  0  0  0
  3 23  1  0  0  0
  4 24  1  0  0  0
  4 25  1  0  0  0
  5 26  1  0  0  0
  5 27  1  0  0  0
  5 28  1  0  0  0
  6 29  1  0  0  0
  8 30  1  0  0  0
  9 31  1  0  0  0
 10 32  1  0  0  0
 11 33  1  0  0  0
 12 34  1  0  0  0
 14 35  1  0  0  0
 18 36  1  0  0  0
 18 37  1  0  0  0
 20 38  1  0  0  0
M  END
$$$$
