### 
### Created by X-TOOL on Mon Aug  2 16:15:23 2021
### 

@<TRIPOS>MOLECULE
6ntb_ligand
   43    45     1     0     0
SMALL
GAST_HUCK


@<TRIPOS>ATOM
      1 PG         31.4900  -10.0100    0.5230 P.3       1 ATP         0.1879
      2 O1G        31.3490   -8.6900   -0.1870 O.co2     1 ATP        -0.6091
      3 O2G        32.3900  -10.9640   -0.2240 O.co2     1 ATP        -0.6091
      4 O3G        30.2000  -10.6220    1.0270 O.co2     1 ATP        -0.6091
      5 PB         31.7370   -8.7800    3.0960 P.3       1 ATP         0.3553
      6 O1B        31.6540   -7.3640    2.5820 O.co2     1 ATP        -0.5652
      7 O2B        30.5360   -9.4320    3.7340 O.co2     1 ATP        -0.5652
      8 O3B        32.2970   -9.6800    1.8770 O.3       1 ATP        -0.1546
      9 PA         33.4280   -9.9550    5.1470 P.3       1 ATP         0.3266
     10 O1A        32.2480  -10.5100    5.9040 O.co2     1 ATP        -0.5692
     11 O2A        34.5760   -9.3540    5.9190 O.co2     1 ATP        -0.5692
     12 O3A        33.0100   -8.8120    4.0880 O.3       1 ATP        -0.1171
     13 O5'        33.9860  -11.1300    4.1850 O.3       1 ATP        -0.2441
     14 C5'        35.0450  -10.8560    3.2700 C.3       1 ATP         0.1131
     15 C4'        35.5980  -12.1350    2.6570 C.3       1 ATP         0.1189
     16 O4'        36.0530  -12.9800    3.7120 O.3       1 ATP        -0.3364
     17 C3'        34.5240  -12.9100    1.9090 C.3       1 ATP         0.1149
     18 O3'        34.4930  -12.5690    0.5190 O.3       1 ATP        -0.3864
     19 C2'        34.9680  -14.3450    2.1010 C.3       1 ATP         0.1385
     20 O2'        35.9350  -14.6470    1.1000 O.3       1 ATP        -0.3836
     21 C1'        35.7080  -14.3380    3.4140 C.3       1 ATP         0.2010
     22 N9         34.8620  -14.8790    4.5010 N.pl3     1 ATP        -0.1919
     23 C8         33.9570  -14.2000    5.2440 C.2       1 ATP         0.1123
     24 N7         33.3760  -15.0120    6.1650 N.2       1 ATP        -0.2958
     25 C5         33.9140  -16.2420    6.0090 C.ar      1 ATP         0.1045
     26 C6         33.7620  -17.5690    6.6410 C.ar      1 ATP         0.1298
     27 N6         32.8900  -17.7760    7.6580 N.pl3     1 ATP        -0.3152
     28 N1         34.5330  -18.5750    6.1660 N.ar      1 ATP        -0.2698
     29 C2         35.4030  -18.4110    5.1560 C.ar      1 ATP         0.0533
     30 N3         35.5920  -17.2410    4.5290 N.ar      1 ATP        -0.2714
     31 C4         34.8890  -16.1440    4.9100 C.ar      1 ATP         0.1613
     32 H1         35.8542  -10.3372    3.8048 H         1 ATP         0.0648
     33 H2         34.6640  -10.2098    2.4655 H         1 ATP         0.0648
     34 H3         36.4253  -11.8888    1.9751 H         1 ATP         0.0651
     35 H4         33.5314  -12.7367    2.3502 H         1 ATP         0.0648
     36 H5         34.3116  -11.6412    0.4257 H         1 ATP         0.2100
     37 H6         34.1249  -15.0514    2.0892 H         1 ATP         0.0676
     38 H7         36.2267  -15.5451    1.2038 H         1 ATP         0.2101
     39 H8         36.6203  -14.9463    3.3269 H         1 ATP         0.0996
     40 H9         33.7254  -13.1432    5.1199 H         1 ATP         0.1349
     41 H10        32.8042  -18.7115    8.0804 H         1 ATP         0.1820
     42 H11        32.3133  -16.9978    8.0083 H         1 ATP         0.1820
     43 H12        35.9818  -19.2681    4.8312 H         1 ATP         0.0996
@<TRIPOS>BOND
     1    1    2 ar 
     2    1    3 ar 
     3    1    4 ar 
     4    8    1 1  
     5    5    6 ar 
     6    5    7 ar 
     7    5    8 1  
     8   12    5 1  
     9    9   10 ar 
    10    9   11 ar 
    11    9   12 1  
    12    9   13 1  
    13   13   14 1  
    14   14   15 1  
    15   15   16 1  
    16   15   17 1  
    17   16   21 1  
    18   17   18 1  
    19   17   19 1  
    20   19   20 1  
    21   19   21 1  
    22   21   22 1  
    23   22   23 1  
    24   22   31 1  
    25   23   24 2  
    26   24   25 1  
    27   25   26 ar 
    28   25   31 ar 
    29   26   27 1  
    30   26   28 ar 
    31   28   29 ar 
    32   29   30 ar 
    33   30   31 ar 
    34   14   32 1  
    35   14   33 1  
    36   15   34 1  
    37   17   35 1  
    38   18   36 1  
    39   19   37 1  
    40   20   38 1  
    41   21   39 1  
    42   23   40 1  
    43   27   41 1  
    44   27   42 1  
    45   29   43 1  
@<TRIPOS>SUBSTRUCTURE
     1 ATP         1

