6ntb_ligand
  -I-interpret- 

 47 49  0  0  0  0  0  0  0  0999 V2000
   31.4900  -10.0100    0.5230 P   0  0  0  0  0
   31.3490   -8.6900   -0.1870 O   0  0  0  0  0
   32.3900  -10.9640   -0.2240 O   0  0  0  0  0
   30.2000  -10.6220    1.0270 O   0  0  0  0  0
   31.7370   -8.7800    3.0960 P   0  0  0  0  0
   31.6540   -7.3640    2.5820 O   0  0  0  0  0
   30.5360   -9.4320    3.7340 O   0  0  0  0  0
   32.2970   -9.6800    1.8770 O   0  0  0  0  0
   33.4280   -9.9550    5.1470 P   0  0  0  0  0
   32.2480  -10.5100    5.9040 O   0  0  0  0  0
   34.5760   -9.3540    5.9190 O   0  0  0  0  0
   33.0100   -8.8120    4.0880 O   0  0  0  0  0
   33.9860  -11.1300    4.1850 O   0  0  0  0  0
   35.0450  -10.8560    3.2700 C   0  0  0  0  0
   35.5980  -12.1350    2.6570 C   0  0  0  0  0
   36.0530  -12.9800    3.7120 O   0  0  0  0  0
   34.5240  -12.9100    1.9090 C   0  0  0  0  0
   34.4930  -12.5690    0.5190 O   0  0  0  0  0
   34.9680  -14.3450    2.1010 C   0  0  0  0  0
   35.9350  -14.6470    1.1000 O   0  0  0  0  0
   35.7080  -14.3380    3.4140 C   0  0  0  0  0
   34.8620  -14.8790    4.5010 N   0  0  0  0  0
   33.9570  -14.2000    5.2440 C   0  0  0  0  0
   33.3760  -15.0120    6.1650 N   0  0  0  0  0
   33.9140  -16.2420    6.0090 C   0  0  0  0  0
   33.7620  -17.5690    6.6410 C   0  0  0  0  0
   32.8900  -17.7760    7.6580 N   0  0  0  0  0
   34.5330  -18.5750    6.1660 N   0  0  0  0  0
   35.4030  -18.4110    5.1560 C   0  0  0  0  0
   35.5920  -17.2410    4.5290 N   0  0  0  0  0
   34.8890  -16.1440    4.9100 C   0  0  0  0  0
   32.4522  -11.7899    0.2614 H   0  0  0  0  0
   30.3914  -11.4559    1.4623 H   0  0  0  0  0
   32.5017   -7.1095    2.2102 H   0  0  0  0  0
   35.2466   -9.0460    5.3050 H   0  0  0  0  0
   35.8487  -10.3573    3.8116 H   0  0  0  0  0
   34.6547  -10.2295    2.4679 H   0  0  0  0  0
   36.3943  -11.8571    1.9665 H   0  0  0  0  0
   33.5170  -12.7041    2.2720 H   0  0  0  0  0
   33.8053  -13.0762    0.0815 H   0  0  0  0  0
   34.1357  -15.0477    2.0616 H   0  0  0  0  0
   36.2297  -15.5546    1.2049 H   0  0  0  0  0
   36.5974  -14.9633    3.3367 H   0  0  0  0  0
   33.7252  -13.1422    5.1198 H   0  0  0  0  0
   32.3189  -17.0054    8.0049 H   0  0  0  0  0
   32.8050  -18.7024    8.0763 H   0  0  0  0  0
   35.9850  -19.2728    4.8295 H   0  0  0  0  0
  1  2  2  0  0  0
  1  3  1  0  0  0
  1  4  1  0  0  0
  8  1  1  0  0  0
  5  6  1  0  0  0
  5  7  2  0  0  0
  5  8  1  0  0  0
 12  5  1  0  0  0
  9 10  2  0  0  0
  9 11  1  0  0  0
  9 12  1  0  0  0
  9 13  1  0  0  0
 13 14  1  0  0  0
 14 15  1  0  0  0
 15 16  1  0  0  0
 15 17  1  0  0  0
 16 21  1  0  0  0
 17 18  1  0  0  0
 17 19  1  0  0  0
 19 20  1  0  0  0
 19 21  1  0  0  0
 21 22  1  0  0  0
 22 23  4  0  0  0
 22 31  4  0  0  0
 23 24  4  0  0  0
 24 25  4  0  0  0
 25 26  4  0  0  0
 25 31  4  0  0  0
 26 27  1  0  0  0
 26 28  4  0  0  0
 28 29  4  0  0  0
 29 30  4  0  0  0
 30 31  4  0  0  0
  3 32  1  0  0  0
  4 33  1  0  0  0
  6 34  1  0  0  0
 11 35  1  0  0  0
 14 36  1  0  0  0
 14 37  1  0  0  0
 15 38  1  0  0  0
 17 39  1  0  0  0
 18 40  1  0  0  0
 19 41  1  0  0  0
 20 42  1  0  0  0
 21 43  1  0  0  0
 23 44  1  0  0  0
 27 45  1  0  0  0
 27 46  1  0  0  0
 29 47  1  0  0  0
M  END
$$$$
