3uza_ligand
  -I-interpret- 

 36 38  0  0  0  0  0  0  0  0999 V2000
   50.3560   24.0150   31.1080 N   0  0  0  0  0
   49.2100   23.5740   31.7030 N   0  0  0  0  0
   47.9190   23.6790   31.1470 C   0  0  0  0  0
   47.7660   24.2870   29.8490 C   0  0  0  0  0
   48.9630   24.7270   29.2700 N   0  0  0  0  0
   50.1990   24.5950   29.8740 C   0  0  0  0  0
   44.7950   21.9180   33.5160 N   0  0  0  0  0
   45.9570   21.2710   33.2720 C   0  0  0  0  0
   46.9960   21.8210   32.5030 C   0  0  0  0  0
   46.8330   23.1120   31.9590 C   0  0  0  0  0
   45.6210   23.7910   32.2040 C   0  0  0  0  0
   44.6390   23.1510   32.9890 C   0  0  0  0  0
   44.0520   24.9480   27.6990 C   0  0  0  0  0
   44.3230   23.6880   28.2610 C   0  0  0  0  0
   45.5200   23.4530   28.9610 C   0  0  0  0  0
   46.4830   24.4790   29.1200 C   0  0  0  0  0
   46.1940   25.7440   28.5460 C   0  0  0  0  0
   44.9950   25.9830   27.8440 C   0  0  0  0  0
   51.2870   25.0420   29.2410 N   0  0  0  0  0
   43.3270   23.8340   33.2850 C   0  0  0  0  0
   46.1210   19.8900   33.8680 C   0  0  0  0  0
   47.9136   21.2589   32.3295 H   0  0  0  0  0
   45.4473   24.7869   31.7963 H   0  0  0  0  0
   43.1222   25.1214   27.1572 H   0  0  0  0  0
   43.5961   22.8830   28.1528 H   0  0  0  0  0
   45.7090   22.4676   29.3870 H   0  0  0  0  0
   46.9179   26.5521   28.6505 H   0  0  0  0  0
   44.7989   26.9657   27.4151 H   0  0  0  0  0
   52.2048   24.9479   29.6759 H   0  0  0  0  0
   51.2000   25.4774   28.3227 H   0  0  0  0  0
   42.5082   23.2304   32.8935 H   0  0  0  0  0
   43.2131   23.9477   34.3631 H   0  0  0  0  0
   43.3150   24.8157   32.8116 H   0  0  0  0  0
   46.0458   19.9529   34.9536 H   0  0  0  0  0
   45.3379   19.2353   33.4856 H   0  0  0  0  0
   47.0970   19.4904   33.5927 H   0  0  0  0  0
  2  1  4  0  0  0
  6  1  4  0  0  0
  3  2  4  0  0  0
  4  3  4  0  0  0
  3 10  1  0  0  0
  4  5  4  0  0  0
 16  4  1  0  0  0
  5  6  4  0  0  0
  6 19  1  0  0  0
  8  7  4  0  0  0
 12  7  4  0  0  0
  9  8  4  0  0  0
  8 21  1  0  0  0
 10  9  4  0  0  0
 10 11  4  0  0  0
 11 12  4  0  0  0
 12 20  1  0  0  0
 14 13  4  0  0  0
 13 18  4  0  0  0
 15 14  4  0  0  0
 15 16  4  0  0  0
 16 17  4  0  0  0
 17 18  4  0  0  0
  9 22  1  0  0  0
 11 23  1  0  0  0
 13 24  1  0  0  0
 14 25  1  0  0  0
 15 26  1  0  0  0
 17 27  1  0  0  0
 18 28  1  0  0  0
 19 29  1  0  0  0
 19 30  1  0  0  0
 20 31  1  0  0  0
 20 32  1  0  0  0
 20 33  1  0  0  0
 21 34  1  0  0  0
 21 35  1  0  0  0
 21 36  1  0  0  0
M  END
$$$$
