4o4y_ligand
  -I-interpret- 

101102  0  0  0  0  0  0  0  0999 V2000
    6.5300   29.1770  -57.5040 N   0  3  0  0  0
    6.5130   28.2790  -56.3480 C   0  0  0  0  0
    5.1440   28.2740  -55.6230 C   0  0  0  0  0
    4.8490   29.1920  -54.8660 O   0  0  0  0  0
    7.6470   28.8380  -55.4580 C   0  0  0  0  0
    8.0700   30.1780  -56.0930 C   0  0  0  0  0
    7.0700   30.5010  -57.1570 C   0  0  0  0  0
    4.3190   27.2590  -55.8750 N   0  0  0  0  0
    2.9140   27.2890  -55.4570 C   0  0  0  0  0
    2.7880   27.1660  -53.9510 C   0  0  0  0  0
    3.4760   26.3500  -53.3420 O   0  0  0  0  0
    2.1290   26.1720  -56.1170 C   0  0  0  0  0
    1.8780   27.9420  -53.3390 N   0  0  0  0  0
    1.7400   27.8740  -51.8860 C   0  0  0  0  0
    1.4330   26.4660  -51.3740 C   0  0  0  0  0
    0.7150   25.7030  -52.0370 O   0  0  0  0  0
    0.5600   28.8040  -51.5760 C   0  0  0  0  0
    0.2790   29.5630  -52.8180 C   0  0  0  0  0
    1.1130   29.0520  -53.9390 C   0  0  0  0  0
    1.9980   26.1360  -50.2200 N   0  0  0  0  0
    1.7060   24.8670  -49.5470 C   0  0  0  0  0
    0.9510   25.1850  -48.2510 C   0  0  0  0  0
    1.4820   25.8140  -47.3270 O   0  0  0  0  0
    2.9820   24.0710  -49.2780 C   0  0  0  0  0
    2.7090   22.7970  -48.4710 C   0  0  0  0  0
    3.3200   21.5580  -49.0510 C   0  0  0  0  0
    4.2150   21.6770  -49.8860 O   0  0  0  0  0
    2.9430   20.4540  -48.6400 O   0  0  0  0  0
   -0.3210   24.7930  -48.2220 N   0  0  0  0  0
   -1.1830   25.0590  -47.0660 C   0  0  0  0  0
   -1.6740   23.7560  -46.4370 C   0  0  0  0  0
   -2.0130   22.8270  -47.1580 O   0  0  0  0  0
   -2.3440   25.9420  -47.5250 C   0  0  0  0  0
   -1.8180   27.2790  -48.0880 C   0  0  0  0  0
   -2.6940   27.7990  -49.2340 C   0  0  0  0  0
   -1.6650   28.2990  -46.9470 C   0  0  0  0  0
   -1.7760   23.7250  -45.1030 N   0  0  0  0  0
   -2.0630   22.5000  -44.3790 C   0  0  0  0  0
   -3.3540   22.5720  -43.5520 C   0  0  0  0  0
   -3.5030   21.8750  -42.5790 O   0  0  0  0  0
   -0.8650   22.1170  -43.4820 C   0  0  0  0  0
    0.0240   20.9550  -43.9410 C   0  0  0  0  0
    0.6850   21.2830  -45.2030 C   0  0  0  0  0
    1.0820   20.6460  -42.8580 C   0  0  0  0  0
   -4.2850   23.4180  -43.9480 N   0  0  0  0  0
   -5.5660   23.5080  -43.2040 C   0  0  0  0  0
   -6.6770   22.7800  -43.9090 C   0  0  0  0  0
   -6.4510   22.1810  -44.9650 O   0  0  0  0  0
   -7.8200   22.7800  -43.4580 O   0  0  0  0  0
    5.5716   29.2968  -57.8319 H   0  0  0  0  0
    7.1259   28.7651  -58.2221 H   0  0  0  0  0
    6.6621   27.2343  -56.6210 H   0  0  0  0  0
    8.4861   28.1441  -55.4081 H   0  0  0  0  0
    7.3083   28.9787  -54.4316 H   0  0  0  0  0
    9.0706   30.1013  -56.5184 H   0  0  0  0  0
    8.0973   30.9665  -55.3409 H   0  0  0  0  0
    6.3029   31.1993  -56.8224 H   0  0  0  0  0
    7.5083   31.0189  -58.0101 H   0  0  0  0  0
    4.6733   26.4410  -56.3708 H   0  0  0  0  0
    2.5043   28.2495  -55.7697 H   0  0  0  0  0
    2.1756   26.2876  -57.1999 H   0  0  0  0  0
    2.5589   25.2112  -55.8341 H   0  0  0  0  0
    1.0902   26.2172  -55.7898 H   0  0  0  0  0
    2.6723   28.1593  -51.3987 H   0  0  0  0  0
    0.8021   29.4785  -50.7547 H   0  0  0  0  0
   -0.3139   28.2322  -51.2638 H   0  0  0  0  0
   -0.4377   30.3803  -52.8985 H   0  0  0  0  0
    1.1503   29.4140  -54.9664 H   0  0  0  0  0
    2.6556   26.7850  -49.7879 H   0  0  0  0  0
    1.0883   24.2377  -50.1878 H   0  0  0  0  0
    3.6592   24.7002  -48.7004 H   0  0  0  0  0
    3.4093   23.7800  -50.2376 H   0  0  0  0  0
    1.6292   22.6483  -48.4614 H   0  0  0  0  0
    3.1501   22.9410  -47.4847 H   0  0  0  0  0
    2.2407   20.5760  -47.9969 H   0  0  0  0  0
   -0.7058   24.2948  -49.0246 H   0  0  0  0  0
   -0.6198   25.5810  -46.2924 H   0  0  0  0  0
   -2.9908   26.1474  -46.6721 H   0  0  0  0  0
   -2.8963   25.4216  -48.3075 H   0  0  0  0  0
   -0.8325   27.1142  -48.5237 H   0  0  0  0  0
   -2.7048   27.0676  -50.0421 H   0  0  0  0  0
   -3.7096   27.9561  -48.8708 H   0  0  0  0  0
   -2.2881   28.7417  -49.6009 H   0  0  0  0  0
   -2.6337   28.4618  -46.4746 H   0  0  0  0  0
   -0.9599   27.9147  -46.2100 H   0  0  0  0  0
   -1.2934   29.2408  -47.3507 H   0  0  0  0  0
   -1.6479   24.5901  -44.5780 H   0  0  0  0  0
   -2.2224   21.7243  -45.1280 H   0  0  0  0  0
   -1.2995   21.7963  -42.5352 H   0  0  0  0  0
   -0.2171   22.9935  -43.4696 H   0  0  0  0  0
   -0.6020   20.0760  -44.0949 H   0  0  0  0  0
   -0.0683   21.4762  -45.9667 H   0  0  0  0  0
    1.3032   22.1705  -45.0679 H   0  0  0  0  0
    1.3112   20.4460  -45.5120 H   0  0  0  0  0
    1.6991   21.5291  -42.6923 H   0  0  0  0  0
    0.5806   20.3722  -41.9297 H   0  0  0  0  0
    1.7100   19.8196  -43.1907 H   0  0  0  0  0
   -4.1250   24.0091  -44.7637 H   0  0  0  0  0
   -5.8424   24.5595  -43.1257 H   0  0  0  0  0
   -5.4252   23.0503  -42.2248 H   0  0  0  0  0
   -5.5217   22.2693  -45.1891 H   0  0  0  0  0
  1  2  1  0  0  0
  1  7  1  0  0  0
  2  3  1  0  0  0
  2  5  1  0  0  0
  3  4  2  0  0  0
  3  8  1  0  0  0
  5  6  1  0  0  0
  6  7  1  0  0  0
  8  9  1  0  0  0
  9 10  1  0  0  0
  9 12  1  0  0  0
 10 11  2  0  0  0
 10 13  1  0  0  0
 13 14  1  0  0  0
 13 19  1  0  0  0
 14 15  1  0  0  0
 14 17  1  0  0  0
 15 16  2  0  0  0
 15 20  1  0  0  0
 17 18  1  0  0  0
 18 19  2  0  0  0
 20 21  1  0  0  0
 21 22  1  0  0  0
 21 24  1  0  0  0
 22 23  2  0  0  0
 22 29  1  0  0  0
 24 25  1  0  0  0
 25 26  1  0  0  0
 26 27  2  0  0  0
 26 28  1  0  0  0
 29 30  1  0  0  0
 30 31  1  0  0  0
 30 33  1  0  0  0
 31 32  2  0  0  0
 31 37  1  0  0  0
 33 34  1  0  0  0
 34 35  1  0  0  0
 34 36  1  0  0  0
 37 38  1  0  0  0
 38 39  1  0  0  0
 38 41  1  0  0  0
 39 40  2  0  0  0
 39 45  1  0  0  0
 41 42  1  0  0  0
 42 43  1  0  0  0
 42 44  1  0  0  0
 45 46  1  0  0  0
 46 47  1  0  0  0
 47 48  1  0  0  0
 47 49  2  0  0  0
  1 50  1  0  0  0
  1 51  1  0  0  0
  2 52  1  0  0  0
  5 53  1  0  0  0
  5 54  1  0  0  0
  6 55  1  0  0  0
  6 56  1  0  0  0
  7 57  1  0  0  0
  7 58  1  0  0  0
  8 59  1  0  0  0
  9 60  1  0  0  0
 12 61  1  0  0  0
 12 62  1  0  0  0
 12 63  1  0  0  0
 14 64  1  0  0  0
 17 65  1  0  0  0
 17 66  1  0  0  0
 18 67  1  0  0  0
 19 68  1  0  0  0
 20 69  1  0  0  0
 21 70  1  0  0  0
 24 71  1  0  0  0
 24 72  1  0  0  0
 25 73  1  0  0  0
 25 74  1  0  0  0
 28 75  1  0  0  0
 29 76  1  0  0  0
 30 77  1  0  0  0
 33 78  1  0  0  0
 33 79  1  0  0  0
 34 80  1  0  0  0
 35 81  1  0  0  0
 35 82  1  0  0  0
 35 83  1  0  0  0
 36 84  1  0  0  0
 36 85  1  0  0  0
 36 86  1  0  0  0
 37 87  1  0  0  0
 38 88  1  0  0  0
 41 89  1  0  0  0
 41 90  1  0  0  0
 42 91  1  0  0  0
 43 92  1  0  0  0
 43 93  1  0  0  0
 43 94  1  0  0  0
 44 95  1  0  0  0
 44 96  1  0  0  0
 44 97  1  0  0  0
 45 98  1  0  0  0
 46 99  1  0  0  0
 46100  1  0  0  0
 48101  1  0  0  0
M  END
$$$$
