3vf5_ligand
  -I-interpret- 

 81 85  0  0  0  0  0  0  0  0999 V2000
   -7.4830  -14.1430   14.8480 O   0  0  0  0  0
   -6.1170  -14.1830   15.1610 C   0  0  0  0  0
   -8.1640  -15.2950   15.0740 C   0  0  0  0  0
   -7.5830  -16.4240   15.6180 C   0  0  0  0  0
   -8.3510  -17.5750   15.8200 C   0  0  0  0  0
   -9.6970  -17.5760   15.5000 C   0  0  0  0  0
  -10.2650  -16.4620   14.9230 C   0  0  0  0  0
   -9.4980  -15.3500   14.6450 C   0  0  0  0  0
  -10.7020  -18.9530   15.9230 S   0  0  0  0  0
  -11.7840  -19.0800   14.9430 O   0  0  0  0  0
   -9.7790  -20.0870   16.1050 O   0  0  0  0  0
  -11.4120  -18.6910   17.3820 N   0  0  0  0  0
  -10.5030  -18.3830   18.4780 C   0  0  0  0  0
  -10.9270  -18.8870   19.8380 C   0  0  0  0  0
  -11.2480  -20.3770   19.9530 C   0  0  0  0  0
   -9.8590  -18.6770   20.8450 N   0  0  0  0  0
   -9.2670  -19.8080   21.1650 C   0  0  0  0  0
   -8.3060  -19.9580   21.9310 O   0  0  0  0  0
   -9.9570  -20.9820   20.5220 C   0  0  0  0  0
  -12.6860  -17.9880   17.3760 C   0  0  0  0  0
  -13.8140  -18.8350   17.9380 C   0  0  0  0  0
  -15.0020  -18.0600   18.2110 O   0  0  0  0  0
  -14.2130  -19.9950   17.0390 C   0  0  0  0  0
  -15.0500  -20.9140   17.7710 N   0  0  0  0  0
  -14.6690  -22.1100   18.2210 C   0  0  0  0  0
  -13.4970  -22.5410   18.1100 O   0  0  0  0  0
  -15.6400  -22.7760   18.8550 O   0  0  0  0  0
  -15.4130  -25.0170   17.8640 C   0  0  0  0  0
  -15.3420  -24.1600   19.1360 C   0  0  0  0  0
  -16.5160  -24.6610   19.9720 C   0  0  0  0  0
  -17.5980  -25.0380   18.9690 C   0  0  0  0  0
  -18.3690  -23.9090   18.5460 O   0  0  0  0  0
  -18.2020  -23.6650   17.1420 C   0  0  0  0  0
  -17.6050  -24.9360   16.5780 C   0  0  0  0  0
  -16.8390  -25.5220   17.7330 C   0  0  0  0  0
  -14.9210  -19.5410   15.7500 C   0  0  0  0  0
  -16.5540  -21.2240   14.7600 C   0  0  0  0  0
  -16.9090  -22.3020   13.9770 C   0  0  0  0  0
  -15.8790  -23.0360   13.3660 C   0  0  0  0  0
  -14.5720  -22.5720   13.4510 C   0  0  0  0  0
  -14.2300  -21.4530   14.2220 C   0  0  0  0  0
  -15.2660  -20.7670   14.8990 C   0  0  0  0  0
   -5.9947  -14.4128   16.2195 H   0  0  0  0  0
   -5.6307  -14.9531   14.5621 H   0  0  0  0  0
   -5.6673  -13.2141   14.9439 H   0  0  0  0  0
   -6.5274  -16.4177   15.8894 H   0  0  0  0  0
   -7.8885  -18.4727   16.2302 H   0  0  0  0  0
  -11.3285  -16.4591   14.6843 H   0  0  0  0  0
   -9.9282  -14.5148   14.0924 H   0  0  0  0  0
  -10.4610  -17.2962   18.5496 H   0  0  0  0  0
   -9.5590  -18.8758   18.2454 H   0  0  0  0  0
  -11.8375  -18.3117   20.0057 H   0  0  0  0  0
  -11.5284  -20.8179   18.9964 H   0  0  0  0  0
  -12.1132  -20.5691   20.5876 H   0  0  0  0  0
   -9.6138  -17.7693   21.2403 H   0  0  0  0  0
   -9.3451  -21.4547   19.7538 H   0  0  0  0  0
  -10.1517  -21.7886   21.2288 H   0  0  0  0  0
  -12.9310  -17.7407   16.3431 H   0  0  0  0  0
  -12.5856  -17.1006   18.0010 H   0  0  0  0  0
  -13.4032  -19.2334   18.8657 H   0  0  0  0  0
  -15.6845  -18.6360   18.5632 H   0  0  0  0  0
  -13.2934  -20.4923   16.7304 H   0  0  0  0  0
  -16.0101  -20.6259   17.9595 H   0  0  0  0  0
  -14.7168  -25.8533   17.9284 H   0  0  0  0  0
  -15.1359  -24.4266   16.9906 H   0  0  0  0  0
  -14.3556  -24.2299   19.5946 H   0  0  0  0  0
  -16.8649  -23.8983   20.6681 H   0  0  0  0  0
  -16.2313  -25.5118   20.5910 H   0  0  0  0  0
  -18.2733  -25.7657   19.4190 H   0  0  0  0  0
  -17.5562  -22.8059   16.9603 H   0  0  0  0  0
  -19.1510  -23.4232   16.6633 H   0  0  0  0  0
  -16.9683  -24.7455   15.7141 H   0  0  0  0  0
  -18.3666  -25.6175   16.1990 H   0  0  0  0  0
  -16.7700  -26.6018   17.6009 H   0  0  0  0  0
  -14.2618  -18.8809   15.1863 H   0  0  0  0  0
  -15.8361  -19.0072   16.0065 H   0  0  0  0  0
  -17.3433  -20.7027   15.3016 H   0  0  0  0  0
  -17.9547  -22.5756   13.8367 H   0  0  0  0  0
  -16.1025  -23.9591   12.8312 H   0  0  0  0  0
  -13.7890  -23.0943   12.9013 H   0  0  0  0  0
  -13.1948  -21.1203   14.2981 H   0  0  0  0  0
  1  2  1  0  0  0
  3  1  1  0  0  0
  4  3  4  0  0  0
  8  3  4  0  0  0
  5  4  4  0  0  0
  6  5  4  0  0  0
  6  7  4  0  0  0
  9  6  1  0  0  0
  7  8  4  0  0  0
  9 10  2  0  0  0
  9 11  2  0  0  0
 12  9  1  0  0  0
 12 13  1  0  0  0
 20 12  1  0  0  0
 13 14  1  0  0  0
 14 15  1  0  0  0
 14 16  1  0  0  0
 15 19  1  0  0  0
 16 17  1  0  0  0
 17 18  2  0  0  0
 17 19  1  0  0  0
 21 20  1  0  0  0
 21 22  1  0  0  0
 23 21  1  0  0  0
 23 24  1  0  0  0
 36 23  1  0  0  0
 24 25  1  0  0  0
 25 26  2  0  0  0
 25 27  1  0  0  0
 27 29  1  0  0  0
 29 28  1  0  0  0
 28 35  1  0  0  0
 29 30  1  0  0  0
 30 31  1  0  0  0
 31 32  1  0  0  0
 31 35  1  0  0  0
 32 33  1  0  0  0
 34 33  1  0  0  0
 35 34  1  0  0  0
 42 36  1  0  0  0
 37 38  4  0  0  0
 37 42  4  0  0  0
 38 39  4  0  0  0
 39 40  4  0  0  0
 40 41  4  0  0  0
 41 42  4  0  0  0
  2 43  1  0  0  0
  2 44  1  0  0  0
  2 45  1  0  0  0
  4 46  1  0  0  0
  5 47  1  0  0  0
  7 48  1  0  0  0
  8 49  1  0  0  0
 13 50  1  0  0  0
 13 51  1  0  0  0
 14 52  1  0  0  0
 15 53  1  0  0  0
 15 54  1  0  0  0
 16 55  1  0  0  0
 19 56  1  0  0  0
 19 57  1  0  0  0
 20 58  1  0  0  0
 20 59  1  0  0  0
 21 60  1  0  0  0
 22 61  1  0  0  0
 23 62  1  0  0  0
 24 63  1  0  0  0
 28 64  1  0  0  0
 28 65  1  0  0  0
 29 66  1  0  0  0
 30 67  1  0  0  0
 30 68  1  0  0  0
 31 69  1  0  0  0
 33 70  1  0  0  0
 33 71  1  0  0  0
 34 72  1  0  0  0
 34 73  1  0  0  0
 35 74  1  0  0  0
 36 75  1  0  0  0
 36 76  1  0  0  0
 37 77  1  0  0  0
 38 78  1  0  0  0
 39 79  1  0  0  0
 40 80  1  0  0  0
 41 81  1  0  0  0
M  END
$$$$
