5j9x_ligand
  -I-interpret- 

 51 53  0  0  0  0  0  0  0  0999 V2000
    0.0920   38.0230  -24.6890 C   0  0  0  0  0
   -0.3750   33.1730  -23.1650 C   0  0  0  0  0
   -1.6520   33.4700  -23.6440 C   0  0  0  0  0
    0.8110   33.6700  -23.8650 C   0  0  0  0  0
   -0.6750   35.6050  -26.6490 C   0  0  0  0  0
   -0.4010   37.3680  -27.9300 C   0  0  0  0  0
    0.6420   37.4450  -25.8300 C   0  0  0  0  0
    2.2100   38.6950  -23.7750 C   0  0  0  0  0
    2.2490   33.3670  -23.5020 C   0  0  0  0  0
    4.8600   32.0010  -25.1690 C   0  0  0  0  0
    6.9100   31.5660  -26.5190 C   0  0  0  0  0
   -1.7920   34.2600  -24.7860 C   0  0  0  0  0
   -0.5900   34.7380  -25.4770 C   0  0  0  0  0
    0.6470   34.4260  -24.9860 C   0  0  0  0  0
   -1.4020   35.3850  -27.7800 N   0  0  0  0  0
   -0.1200   36.8410  -26.7620 N   0  3  0  0  0
   -3.0020   34.5790  -25.3110 O   0  0  0  0  0
   -0.2020   32.4230  -22.0540 O   0  0  0  0  0
   -1.1860   36.5170  -28.5790 N   0  0  0  0  0
    0.0000   38.5170  -28.3110 O   0  0  0  0  0
    2.1030   37.5390  -25.9060 C   0  0  0  0  0
    2.8460   38.1470  -24.8930 C   0  0  0  0  0
    2.7550   32.1640  -23.8240 N   0  0  0  0  0
    2.9340   34.2370  -23.0180 O   0  0  0  0  0
    4.2020   31.7900  -23.7930 C   0  0  0  0  0
    0.8290   38.6250  -23.6700 C   0  0  0  0  0
    1.8890   31.0690  -24.2290 C   0  0  0  0  0
    6.0860   31.1070  -25.3450 C   0  0  0  0  0
    2.6690   37.0180  -27.0030 F   0  0  0  0  0
   -0.9928   38.0035  -24.5849 H   0  0  0  0  0
   -2.5337   33.0876  -23.1297 H   0  0  0  0  0
    2.7960   39.1743  -22.9908 H   0  0  0  0  0
    5.1769   33.0412  -25.2447 H   0  0  0  0  0
    4.1340   31.7482  -25.9417 H   0  0  0  0  0
    6.3057   31.5213  -27.4250 H   0  0  0  0  0
    7.2400   32.5912  -26.3510 H   0  0  0  0  0
    7.7786   30.9165  -26.6277 H   0  0  0  0  0
    1.5302   34.7939  -25.5082 H   0  0  0  0  0
   -1.9787   34.5725  -27.9984 H   0  0  0  0  0
   -2.8774   35.1263  -26.0898 H   0  0  0  0  0
    0.7367   32.3246  -21.8787 H   0  0  0  0  0
   -1.5714   36.6633  -29.5120 H   0  0  0  0  0
    3.9319   38.1950  -24.9742 H   0  0  0  0  0
    4.7095   32.4214  -23.0637 H   0  0  0  0  0
    4.2838   30.7365  -23.5256 H   0  0  0  0  0
    0.3233   39.0377  -22.7970 H   0  0  0  0  0
    1.1909   30.8425  -23.4232 H   0  0  0  0  0
    1.3342   31.3574  -25.1218 H   0  0  0  0  0
    2.4949   30.1890  -24.4447 H   0  0  0  0  0
    5.7553   30.0838  -25.5232 H   0  0  0  0  0
    6.6952   31.1601  -24.4427 H   0  0  0  0  0
  7  1  4  0  0  0
  1 26  4  0  0  0
  2  3  4  0  0  0
  4  2  4  0  0  0
  2 18  1  0  0  0
  3 12  4  0  0  0
  9  4  1  0  0  0
  4 14  4  0  0  0
 13  5  1  0  0  0
  5 15  1  0  0  0
  5 16  2  0  0  0
 16  6  1  0  0  0
  6 19  1  0  0  0
  6 20  2  0  0  0
 16  7  1  0  0  0
  7 21  4  0  0  0
 22  8  4  0  0  0
 26  8  4  0  0  0
 23  9  1  0  0  0
  9 24  2  0  0  0
 25 10  1  0  0  0
 10 28  1  0  0  0
 28 11  1  0  0  0
 13 12  4  0  0  0
 12 17  1  0  0  0
 14 13  4  0  0  0
 15 19  1  0  0  0
 21 22  4  0  0  0
 21 29  1  0  0  0
 23 25  1  0  0  0
 23 27  1  0  0  0
  1 30  1  0  0  0
  3 31  1  0  0  0
  8 32  1  0  0  0
 10 33  1  0  0  0
 10 34  1  0  0  0
 11 35  1  0  0  0
 11 36  1  0  0  0
 11 37  1  0  0  0
 14 38  1  0  0  0
 15 39  1  0  0  0
 17 40  1  0  0  0
 18 41  1  0  0  0
 19 42  1  0  0  0
 22 43  1  0  0  0
 25 44  1  0  0  0
 25 45  1  0  0  0
 26 46  1  0  0  0
 27 47  1  0  0  0
 27 48  1  0  0  0
 27 49  1  0  0  0
 28 50  1  0  0  0
 28 51  1  0  0  0
M  END
$$$$
