1fe3_ligand
  -I-interpret- 

 56 55  0  0  0  0  0  0  0  0999 V2000
   94.3250   71.7690  -40.2280 C   0  0  0  0  0
   94.7080   70.6330  -40.5840 O   0  0  0  0  0
   93.1710   72.1910  -40.4460 O   0  0  0  0  0
   95.2990   72.6770  -39.4950 C   0  0  0  0  0
   96.7040   72.6320  -40.0770 C   0  0  0  0  0
   97.6550   73.5410  -39.3140 C   0  0  0  0  0
   99.0660   73.4470  -39.8780 C   0  0  0  0  0
  100.0440   74.3620  -39.1450 C   0  0  0  0  0
   99.7260   75.8380  -39.3600 C   0  0  0  0  0
   99.7580   76.2030  -40.8360 C   0  0  0  0  0
   99.5260   77.5540  -41.5150 C   0  0  0  0  0
   99.3520   77.6130  -42.8400 C   0  0  0  0  0
   98.0020   77.3300  -43.5010 C   0  0  0  0  0
   96.6510   77.3740  -42.8010 C   0  0  0  0  0
   95.6040   76.5650  -43.5480 C   0  0  0  0  0
   95.8170   75.0710  -43.3430 C   0  0  0  0  0
   94.7930   74.2430  -44.1080 C   0  0  0  0  0
   95.0230   74.3040  -45.6130 C   0  0  0  0  0
   96.3440   73.6530  -46.0110 C   0  0  0  0  0
   96.3630   72.1670  -45.6790 C   0  0  0  0  0
   95.6228   70.5080  -40.3211 H   0  0  0  0  0
   95.3563   72.3375  -38.4608 H   0  0  0  0  0
   94.9336   73.6998  -39.5866 H   0  0  0  0  0
   96.6592   72.9712  -41.1119 H   0  0  0  0  0
   97.0738   71.6091  -40.0059 H   0  0  0  0  0
   97.6737   73.2309  -38.2692 H   0  0  0  0  0
   97.3077   74.5699  -39.4081 H   0  0  0  0  0
   99.0339   73.7539  -40.9234 H   0  0  0  0  0
   99.4101   72.4195  -39.7597 H   0  0  0  0  0
  101.0437   74.1708  -39.5349 H   0  0  0  0  0
   99.9698   74.1516  -38.0781 H   0  0  0  0  0
  100.4765   76.4332  -38.8398 H   0  0  0  0  0
   98.7253   76.0361  -38.9760 H   0  0  0  0  0
   98.8885   75.6515  -41.1936 H   0  0  0  0  0
  100.8158   76.0534  -41.0524 H   0  0  0  0  0
  100.4449   78.1119  -41.3348 H   0  0  0  0  0
   98.5836   77.9106  -41.0993 H   0  0  0  0  0
   99.9907   76.8136  -43.2155 H   0  0  0  0  0
   99.5335   78.6622  -43.0731 H   0  0  0  0  0
   98.0909   76.2754  -43.7617 H   0  0  0  0  0
   97.9184   78.1514  -44.2126 H   0  0  0  0  0
   96.3189   78.4114  -42.7607 H   0  0  0  0  0
   96.7668   76.9485  -41.8042 H   0  0  0  0  0
   95.6858   76.7863  -44.6121 H   0  0  0  0  0
   94.6186   76.8326  -43.1664 H   0  0  0  0  0
   95.7094   74.8524  -42.2806 H   0  0  0  0  0
   96.8100   74.8130  -43.7112 H   0  0  0  0  0
   93.8021   74.6451  -43.8971 H   0  0  0  0  0
   94.8865   73.2047  -43.7898 H   0  0  0  0  0
   95.0532   75.3515  -45.9128 H   0  0  0  0  0
   94.2135   73.7653  -46.1054 H   0  0  0  0  0
   97.1468   74.1388  -45.4564 H   0  0  0  0  0
   96.4715   73.7657  -47.0876 H   0  0  0  0  0
   96.2241   72.0339  -44.6061 H   0  0  0  0  0
   95.5576   71.6657  -46.2159 H   0  0  0  0  0
   97.3208   71.7414  -45.9782 H   0  0  0  0  0
  1  2  1  0  0  0
  1  3  2  0  0  0
  1  4  1  0  0  0
  4  5  1  0  0  0
  5  6  1  0  0  0
  6  7  1  0  0  0
  7  8  1  0  0  0
  8  9  1  0  0  0
  9 10  1  0  0  0
 10 11  1  0  0  0
 11 12  1  0  0  0
 12 13  1  0  0  0
 13 14  1  0  0  0
 14 15  1  0  0  0
 15 16  1  0  0  0
 16 17  1  0  0  0
 17 18  1  0  0  0
 18 19  1  0  0  0
 19 20  1  0  0  0
  2 21  1  0  0  0
  4 22  1  0  0  0
  4 23  1  0  0  0
  5 24  1  0  0  0
  5 25  1  0  0  0
  6 26  1  0  0  0
  6 27  1  0  0  0
  7 28  1  0  0  0
  7 29  1  0  0  0
  8 30  1  0  0  0
  8 31  1  0  0  0
  9 32  1  0  0  0
  9 33  1  0  0  0
 10 34  1  0  0  0
 10 35  1  0  0  0
 11 36  1  0  0  0
 11 37  1  0  0  0
 12 38  1  0  0  0
 12 39  1  0  0  0
 13 40  1  0  0  0
 13 41  1  0  0  0
 14 42  1  0  0  0
 14 43  1  0  0  0
 15 44  1  0  0  0
 15 45  1  0  0  0
 16 46  1  0  0  0
 16 47  1  0  0  0
 17 48  1  0  0  0
 17 49  1  0  0  0
 18 50  1  0  0  0
 18 51  1  0  0  0
 19 52  1  0  0  0
 19 53  1  0  0  0
 20 54  1  0  0  0
 20 55  1  0  0  0
 20 56  1  0  0  0
M  END
$$$$
