1yvm_ligand
  -I-interpret- 

 20 22  0  0  0  0  0  0  0  0999 V2000
   24.3470  -13.3850    8.3080 C   0  0  0  0  0
   23.4390  -12.5440    7.7850 N   0  0  0  0  0
   23.8060  -12.1770    6.6060 C   0  0  0  0  0
   23.0280  -11.1420    5.9250 C   0  0  0  0  0
   23.2390  -10.5820    4.7340 C   0  0  0  0  0
   21.8550   -9.5470    4.2350 S   0  0  0  0  0
   21.0430   -9.9820    5.7590 C   0  0  0  0  0
   21.7110  -10.8240    6.4160 N   0  0  0  0  0
   25.0730  -12.5300    6.3060 N   0  0  0  0  0
   25.3600  -13.4290    7.3620 C   0  0  0  0  0
   26.5590  -14.0800    7.6270 C   0  0  0  0  0
   26.5570  -14.8640    8.7870 C   0  0  0  0  0
   25.5010  -14.8700    9.7140 C   0  0  0  0  0
   24.3470  -14.1140    9.4900 C   0  0  0  0  0
   24.1383  -10.7325    4.1367 H   0  0  0  0  0
   20.0869   -9.5708    6.0830 H   0  0  0  0  0
   27.4328  -13.9874    6.9820 H   0  0  0  0  0
   27.4189  -15.5025    8.9810 H   0  0  0  0  0
   25.5829  -15.4718   10.6191 H   0  0  0  0  0
   23.5111  -14.0978   10.1894 H   0  0  0  0  0
  1  2  4  0  0  0
  1 10  4  0  0  0
  1 14  4  0  0  0
  2  3  4  0  0  0
  3  4  1  0  0  0
  3  9  4  0  0  0
  4  5  4  0  0  0
  4  8  4  0  0  0
  5  6  4  0  0  0
  6  7  4  0  0  0
  7  8  4  0  0  0
  9 10  4  0  0  0
 10 11  4  0  0  0
 11 12  4  0  0  0
 12 13  4  0  0  0
 13 14  4  0  0  0
  5 15  1  0  0  0
  7 16  1  0  0  0
 11 17  1  0  0  0
 12 18  1  0  0  0
 13 19  1  0  0  0
 14 20  1  0  0  0
M  END
$$$$
