6gvg_ligand
  -I-interpret- 

 41 44  0  0  0  0  0  0  0  0999 V2000
  -15.7910  146.3640   26.7730 C   0  0  0  0  0
  -15.3730  144.0130   26.5400 C   0  0  0  0  0
  -15.1690  145.3050   26.1070 C   0  0  0  0  0
  -14.0540  144.0070   24.8330 C   0  0  0  0  0
  -17.2950  147.1530   28.6160 C   0  0  0  0  0
  -17.9840  148.9520   29.7820 C   0  0  0  0  0
  -16.8250  148.3570   29.2340 C   0  0  0  0  0
  -16.1720  143.6960   27.6160 C   0  0  0  0  0
  -16.7880  144.7440   28.2760 C   0  0  0  0  0
  -16.6050  146.0690   27.8670 C   0  0  0  0  0
  -14.3130  145.2830   25.0020 N   0  0  0  0  0
  -14.6560  143.1640   25.7230 O   0  0  0  0  0
  -13.2820  143.4390   23.9090 N   0  0  0  0  0
  -19.0260  148.1320   29.4870 N   0  0  0  0  0
  -18.6060  147.0320   28.7740 N   0  0  0  0  0
  -15.6540  149.1270   29.4780 C   0  0  0  0  0
  -15.6900  150.2870   30.1580 N   0  0  0  0  0
  -16.8780  150.7340   30.6240 C   0  0  0  0  0
  -18.0570  150.1070   30.4660 N   0  0  0  0  0
  -20.4660  148.2550   29.8090 C   0  0  0  0  0
  -20.6680  148.2760   31.3220 C   0  0  0  0  0
  -21.2490  147.1260   29.1460 C   0  0  0  0  0
  -14.3020  148.6960   28.9920 C   0  0  0  0  0
  -16.8860  151.8850   31.2950 N   0  0  0  0  0
  -15.6442  147.3935   26.4465 H   0  0  0  0  0
  -16.3130  142.6630   27.9341 H   0  0  0  0  0
  -17.4289  144.5330   29.1320 H   0  0  0  0  0
  -12.8049  144.0173   23.2173 H   0  0  0  0  0
  -13.1676  142.4256   23.8928 H   0  0  0  0  0
  -20.8466  149.1971   29.4144 H   0  0  0  0  0
  -20.2835  147.3509   31.7515 H   0  0  0  0  0
  -20.1330  149.1253   31.7469 H   0  0  0  0  0
  -21.7313  148.3668   31.5441 H   0  0  0  0  0
  -21.1173  147.1801   28.0653 H   0  0  0  0  0
  -20.8806  146.1671   29.5107 H   0  0  0  0  0
  -22.3065  147.2270   29.3899 H   0  0  0  0  0
  -14.0522  147.7285   29.4274 H   0  0  0  0  0
  -14.3172  148.6138   27.9052 H   0  0  0  0  0
  -13.5575  149.4337   29.2914 H   0  0  0  0  0
  -16.0155  152.3960   31.4414 H   0  0  0  0  0
  -17.7626  152.2551   31.6623 H   0  0  0  0  0
  1  3  4  0  0  0
 10  1  4  0  0  0
  3  2  4  0  0  0
  2  8  4  0  0  0
  2 12  4  0  0  0
  3 11  4  0  0  0
 11  4  4  0  0  0
  4 12  4  0  0  0
  4 13  1  0  0  0
  5  7  4  0  0  0
  5 10  1  0  0  0
  5 15  4  0  0  0
  7  6  4  0  0  0
  6 14  4  0  0  0
  6 19  4  0  0  0
  7 16  4  0  0  0
  8  9  4  0  0  0
  9 10  4  0  0  0
 14 15  4  0  0  0
 14 20  1  0  0  0
 16 17  4  0  0  0
 16 23  1  0  0  0
 17 18  4  0  0  0
 18 19  4  0  0  0
 18 24  1  0  0  0
 20 21  1  0  0  0
 20 22  1  0  0  0
  1 25  1  0  0  0
  8 26  1  0  0  0
  9 27  1  0  0  0
 13 28  1  0  0  0
 13 29  1  0  0  0
 20 30  1  0  0  0
 21 31  1  0  0  0
 21 32  1  0  0  0
 21 33  1  0  0  0
 22 34  1  0  0  0
 22 35  1  0  0  0
 22 36  1  0  0  0
 23 37  1  0  0  0
 23 38  1  0  0  0
 23 39  1  0  0  0
 24 40  1  0  0  0
 24 41  1  0  0  0
M  END
$$$$
