2xiy_ligand
  -I-interpret- 

 18 19  0  0  0  0  0  0  0  0999 V2000
  -21.9660  -35.2900   -1.5910 N   0  0  0  0  0
  -21.7560  -34.1650   -0.8950 C   0  0  0  0  0
  -22.0720  -34.3720    0.3940 N   0  0  0  0  0
  -22.4830  -35.6380    0.5190 C   0  0  0  0  0
  -22.9250  -36.3780    1.6130 C   0  0  0  0  0
  -23.2990  -37.7180    1.4430 C   0  0  0  0  0
  -23.2270  -38.3010    0.1740 C   0  0  0  0  0
  -22.7810  -37.5490   -0.9240 C   0  0  0  0  0
  -22.4060  -36.2210   -0.7480 C   0  0  0  0  0
  -21.2430  -32.8410   -1.4610 C   0  0  0  0  0
  -20.9960  -31.9200   -0.3980 O   0  0  0  0  0
  -22.9799  -35.9162    2.5988 H   0  0  0  0  0
  -23.6442  -38.3027    2.2956 H   0  0  0  0  0
  -23.5181  -39.3425    0.0371 H   0  0  0  0  0
  -22.7286  -38.0047   -1.9128 H   0  0  0  0  0
  -21.9933  -32.4224   -2.1318 H   0  0  0  0  0
  -20.3154  -33.0185   -2.0052 H   0  0  0  0  0
  -20.6744  -31.0919   -0.7619 H   0  0  0  0  0
  1  2  4  0  0  0
  1  9  4  0  0  0
  2  3  4  0  0  0
  2 10  1  0  0  0
  3  4  4  0  0  0
  4  5  4  0  0  0
  4  9  4  0  0  0
  5  6  4  0  0  0
  6  7  4  0  0  0
  7  8  4  0  0  0
  8  9  4  0  0  0
 10 11  1  0  0  0
  5 12  1  0  0  0
  6 13  1  0  0  0
  7 14  1  0  0  0
  8 15  1  0  0  0
 10 16  1  0  0  0
 10 17  1  0  0  0
 11 18  1  0  0  0
M  END
$$$$
