3fyz_ligand
  -I-interpret- 

 48 49  0  0  0  0  0  0  0  0999 V2000
  107.2930   32.8400   26.9460 C   0  0  0  0  0
  106.6450   31.5660   26.9960 C   0  0  0  0  0
  105.4440   31.4660   27.7630 C   0  0  0  0  0
  104.5690   30.3430   28.0180 C   0  0  0  0  0
  103.5770   30.7850   28.8300 C   0  0  0  0  0
  103.7560   32.2630   29.1510 C   0  0  0  0  0
  105.5670   33.8490   28.3860 C   0  0  0  0  0
  106.7510   33.9810   27.6380 C   0  0  0  0  0
  108.5780   32.9870   26.1630 C   0  0  0  0  0
  102.4650   29.9140   29.3460 C   0  0  0  0  0
  103.0200   33.5170   31.3690 C   0  0  0  0  0
  103.8470   34.8040   31.4270 C   0  0  0  0  0
  101.5870   33.6010   32.0040 C   0  0  0  0  0
  100.9010   34.9460   31.6090 C   0  0  0  0  0
  101.7240   33.4650   33.5420 C   0  0  0  0  0
  102.3470   34.7240   35.4430 C   0  0  0  0  0
  104.9940   32.5950   28.4010 N   0  0  0  0  0
  109.0910   34.2550   26.2010 N   0  0  0  0  0
  102.9480   33.0540   29.9630 N   0  0  0  0  0
  101.5000   33.9540   36.2150 N   0  0  0  0  0
  101.2230   30.3670   28.8140 O   0  0  0  0  0
  109.1540   32.1030   25.5500 O   0  0  0  0  0
  104.3400   35.3530   30.4450 O   0  0  0  0  0
  104.0970   35.4870   32.7330 O   0  0  0  0  0
   99.1780   32.4170   32.0890 O   0  0  0  0  0
  101.1390   30.7860   31.8280 O   0  0  0  0  0
  102.1640   34.6710   34.1040 O   0  0  0  0  0
  103.2010   35.4170   35.9560 O   0  0  0  0  0
  100.4990   32.2690   31.4150 S   0  0  0  0  0
  107.0524   30.7035   26.4685 H   0  0  0  0  0
  104.6852   29.3310   27.6301 H   0  0  0  0  0
  105.1278   34.6898   28.9229 H   0  0  0  0  0
  107.2572   34.9447   27.5822 H   0  0  0  0  0
  102.4359   29.9675   30.4343 H   0  0  0  0  0
  102.6381   28.8827   29.0386 H   0  0  0  0  0
  103.5426   32.7954   31.9969 H   0  0  0  0  0
  100.7850   34.9889   30.5260 H   0  0  0  0  0
   99.9214   35.0058   32.0832 H   0  0  0  0  0
  101.5191   35.7794   31.9428 H   0  0  0  0  0
  102.4511   32.6842   33.7651 H   0  0  0  0  0
  100.7510   33.2121   33.9633 H   0  0  0  0  0
  109.9618   34.4676   25.7144 H   0  0  0  0  0
  108.6026   34.9875   26.7160 H   0  0  0  0  0
  102.1160   33.3924   29.4797 H   0  0  0  0  0
  101.5872   33.9625   37.2312 H   0  0  0  0  0
  100.7871   33.3766   35.7691 H   0  0  0  0  0
  100.5132   29.8109   29.1435 H   0  0  0  0  0
  103.6769   34.9897   33.4385 H   0  0  0  0  0
  2  1  4  0  0  0
  8  1  4  0  0  0
  1  9  1  0  0  0
  3  2  4  0  0  0
  3  4  4  0  0  0
 17  3  4  0  0  0
  5  4  4  0  0  0
  6  5  4  0  0  0
  5 10  1  0  0  0
  6 17  4  0  0  0
 19  6  1  0  0  0
  7  8  4  0  0  0
 17  7  4  0  0  0
  9 18  1  0  0  0
  9 22  2  0  0  0
 10 21  1  0  0  0
 11 12  1  0  0  0
 13 11  1  0  0  0
 11 19  1  0  0  0
 12 23  2  0  0  0
 12 24  1  0  0  0
 13 14  1  0  0  0
 15 13  1  0  0  0
 13 29  1  0  0  0
 27 15  1  0  0  0
 16 20  1  0  0  0
 16 27  1  0  0  0
 16 28  2  0  0  0
 29 25  4  0  0  0
 29 26  4  0  0  0
  2 30  1  0  0  0
  4 31  1  0  0  0
  7 32  1  0  0  0
  8 33  1  0  0  0
 10 34  1  0  0  0
 10 35  1  0  0  0
 11 36  1  0  0  0
 14 37  1  0  0  0
 14 38  1  0  0  0
 14 39  1  0  0  0
 15 40  1  0  0  0
 15 41  1  0  0  0
 18 42  1  0  0  0
 18 43  1  0  0  0
 19 44  1  0  0  0
 20 45  1  0  0  0
 20 46  1  0  0  0
 21 47  1  0  0  0
 24 48  1  0  0  0
M  END
$$$$
