2vi5_ligand
  -I-interpret- 

 43 43  0  0  0  0  0  0  0  0999 V2000
   10.1130   10.0660  -15.1780 O   0  0  0  0  0
   10.0010    8.9590  -15.7480 C   0  0  0  0  0
    8.9900    8.7480  -16.6240 N   0  0  0  0  0
    8.8320    7.5730  -17.2710 C   0  0  0  0  0
    7.8770    7.4210  -18.0650 O   0  0  0  0  0
   10.9030    7.9910  -15.4820 N   0  0  0  0  0
   10.8500    6.7680  -16.0670 C   0  0  0  0  0
    9.7490    6.4350  -17.0130 C   0  0  0  0  0
   10.1990    5.7750  -18.2340 N   0  0  0  0  0
    9.7830    4.5470  -18.5710 C   0  0  0  0  0
    8.8240    3.8310  -17.6400 C   0  0  0  0  0
    7.4430    3.6950  -18.2480 C   0  0  0  0  0
   10.1620    3.9920  -19.5880 O   0  0  0  0  0
   11.7790    5.8320  -15.7370 N   0  0  0  0  0
   12.8640    6.1340  -14.8120 C   0  0  0  0  0
   12.4450    5.9120  -13.3620 C   0  0  0  0  0
   11.6230    6.9950  -12.9160 O   0  0  0  0  0
   13.6870    5.8490  -12.4760 C   0  0  0  0  0
   14.5910    6.9060  -12.8280 O   0  0  0  0  0
   14.3880    4.4930  -12.5900 C   0  0  0  0  0
   13.5200    3.4550  -12.1140 O   0  0  0  0  0
   15.7070    4.4590  -11.8220 C   0  0  0  0  0
   15.4770    4.6080  -10.4170 O   0  0  0  0  0
    8.3257    9.5015  -16.8011 H   0  0  0  0  0
    9.1517    5.6873  -16.4912 H   0  0  0  0  0
   10.8497    6.2632  -18.8493 H   0  0  0  0  0
    8.7381    4.4141  -16.7231 H   0  0  0  0  0
    9.2141    2.8310  -17.4502 H   0  0  0  0  0
    7.0405    4.6860  -18.4577 H   0  0  0  0  0
    7.5099    3.1251  -19.1747 H   0  0  0  0  0
    6.7885    3.1764  -17.5475 H   0  0  0  0  0
   11.7154    4.8994  -16.1451 H   0  0  0  0  0
   13.1388    7.1817  -14.9342 H   0  0  0  0  0
   13.7001    5.4708  -15.0340 H   0  0  0  0  0
   11.8876    4.9774  -13.2985 H   0  0  0  0  0
   11.3655    6.8450  -12.0034 H   0  0  0  0  0
   13.3709    5.9731  -11.4402 H   0  0  0  0  0
   15.3689    6.8602  -12.2673 H   0  0  0  0  0
   14.6186    4.3310  -13.6429 H   0  0  0  0  0
   13.9654    2.6078  -12.1882 H   0  0  0  0  0
   16.3365    5.2799  -12.1655 H   0  0  0  0  0
   16.1943    3.5004  -12.0000 H   0  0  0  0  0
   16.3166    4.5841   -9.9521 H   0  0  0  0  0
  1  2  2  0  0  0
  2  3  1  0  0  0
  2  6  1  0  0  0
  3  4  1  0  0  0
  4  5  2  0  0  0
  4  8  1  0  0  0
  6  7  2  0  0  0
  7  8  1  0  0  0
  7 14  1  0  0  0
  8  9  1  0  0  0
  9 10  1  0  0  0
 10 11  1  0  0  0
 10 13  2  0  0  0
 11 12  1  0  0  0
 14 15  1  0  0  0
 15 16  1  0  0  0
 16 17  1  0  0  0
 16 18  1  0  0  0
 18 19  1  0  0  0
 18 20  1  0  0  0
 20 21  1  0  0  0
 20 22  1  0  0  0
 22 23  1  0  0  0
  3 24  1  0  0  0
  8 25  1  0  0  0
  9 26  1  0  0  0
 11 27  1  0  0  0
 11 28  1  0  0  0
 12 29  1  0  0  0
 12 30  1  0  0  0
 12 31  1  0  0  0
 14 32  1  0  0  0
 15 33  1  0  0  0
 15 34  1  0  0  0
 16 35  1  0  0  0
 17 36  1  0  0  0
 18 37  1  0  0  0
 19 38  1  0  0  0
 20 39  1  0  0  0
 21 40  1  0  0  0
 22 41  1  0  0  0
 22 42  1  0  0  0
 23 43  1  0  0  0
M  END
$$$$
