### 
### Created by X-TOOL on Mon Sep 10 21:13:29 2018
### 

@<TRIPOS>MOLECULE
5jsm_ligand
  122   129     1     0     0
SMALL
GAST_HUCK


@<TRIPOS>ATOM
      1 C10       -16.3310    7.9530   21.6930 C.ar      1 6NB         0.1409
      2 C13       -16.0250   10.1230   21.8640 C.2       1 6NB         0.0538
      3 C15       -14.6980   12.1350   19.9670 C.ar      1 6NB         0.0790
      4 C17       -13.3150   13.7240   21.2120 C.ar      1 6NB        -0.0421
      5 C20       -15.5280   13.1680   19.5460 C.ar      1 6NB         0.1647
      6 C21       -16.2250   17.2780   21.8100 C.3       1 6NB         0.0894
      7 C22       -17.6690   17.0390   22.3480 C.3       1 6NB        -0.0342
      8 C24       -14.4100    0.6640   16.3330 C.3       1 6NB         0.0941
      9 C26       -13.3740   -2.4600   15.0780 C.3       1 6NB         0.0711
     10 C28        -9.8880   -2.8330   16.0500 C.3       1 6NB         0.0755
     11 N01       -16.6350    6.6570   21.9570 N.ar      1 6NB        -0.2844
     12 N02       -16.4400    9.0580   22.4990 N.pl3     1 6NB        -0.2554
     13 N03       -16.1620   15.4710   19.4890 N.am      1 6NB        -0.1922
     14 N04        -8.8780  -10.2060   21.7490 N.ar      1 6NB        -0.2844
     15 N05        -9.2120  -12.6100   22.0090 N.pl3     1 6NB        -0.2554
     16 N          -8.8560  -18.7780   18.4450 N.am      1 6NB        -0.1922
     17 C01       -15.3790    2.8260   16.9020 C.ar      1 6NB         0.0923
     18 C02       -15.6520    4.1110   16.4940 C.ar      1 6NB        -0.0319
     19 C03       -15.8320    5.1370   17.4510 C.ar      1 6NB        -0.0626
     20 C04       -15.7340    4.8420   18.8010 C.ar      1 6NB        -0.0286
     21 C05       -15.4710    3.5440   19.2390 C.ar      1 6NB        -0.0626
     22 C06       -15.2920    2.5220   18.2840 C.ar      1 6NB        -0.0319
     23 C07       -15.9350    5.9730   19.8090 C.ar      1 6NB        -0.0127
     24 C08       -15.5760    7.3200   19.4690 C.ar      1 6NB        -0.0484
     25 C09       -15.7990    8.3200   20.4790 C.ar      1 6NB         0.0167
     26 C11       -16.4490    5.6910   21.0540 C.ar      1 6NB         0.0012
     27 C12       -15.5930    9.7600   20.5670 C.2       1 6NB         0.0411
     28 C14       -15.0300   10.7080   19.5110 C.2       1 6NB         0.1305
     29 C16       -13.6060   12.4080   20.7960 C.ar      1 6NB         0.1310
     30 C18       -14.1650   14.7800   20.7770 C.ar      1 6NB        -0.0439
     31 C19       -15.2700   14.4800   19.9550 C.ar      1 6NB         0.0978
     32 C23       -17.6590   17.1660   23.8930 C.3       1 6NB        -0.0637
     33 C25       -14.3230   -0.3060   15.1660 C.3       1 6NB         0.0755
     34 C27       -12.0360   -3.1720   15.0220 C.3       1 6NB         0.0711
     35 C29       -10.0960   -4.3630   15.8770 C.3       1 6NB         0.0941
     36 C30        -8.9120   -6.0340   16.9700 C.ar      1 6NB         0.0923
     37 C31        -8.5610   -7.2730   16.4760 C.ar      1 6NB        -0.0319
     38 C32        -8.6070   -8.3800   17.3010 C.ar      1 6NB        -0.0626
     39 C33        -9.0450   -8.1970   18.6420 C.ar      1 6NB        -0.0286
     40 C34        -9.4080   -6.9610   19.1360 C.ar      1 6NB        -0.0626
     41 C35        -9.3490   -5.8440   18.3200 C.ar      1 6NB        -0.0319
     42 C36        -9.1050   -9.4050   19.5640 C.ar      1 6NB        -0.0127
     43 C37        -9.3560  -10.7050   19.0410 C.ar      1 6NB        -0.0484
     44 C38        -9.3810  -11.7590   19.9780 C.ar      1 6NB         0.0167
     45 C39        -9.1410  -11.4750   21.2980 C.ar      1 6NB         0.1409
     46 C40        -8.8560   -9.2050   20.9310 C.ar      1 6NB         0.0012
     47 C41        -9.6210  -13.2000   19.9140 C.2       1 6NB         0.0411
     48 C42        -9.4970  -13.6620   21.2050 C.2       1 6NB         0.0538
     49 C43        -9.9140  -14.0350   18.7010 C.2       1 6NB         0.1305
     50 C44       -10.3740  -15.5160   18.9210 C.ar      1 6NB         0.0790
     51 C45       -11.6190  -15.8340   19.4640 C.ar      1 6NB         0.1310
     52 C46       -11.9980  -17.1580   19.6740 C.ar      1 6NB        -0.0421
     53 C47       -11.0820  -18.1600   19.3310 C.ar      1 6NB        -0.0439
     54 C48        -9.8150  -17.8110   18.7920 C.ar      1 6NB         0.0978
     55 C49        -9.4760  -16.5020   18.5890 C.ar      1 6NB         0.1647
     56 C50        -9.3340  -20.6560   20.5650 C.3       1 6NB         0.0894
     57 C51        -8.0570  -20.5940   21.3730 C.3       1 6NB        -0.0342
     58 C          -8.3130  -21.1600   22.7550 C.3       1 6NB        -0.0637
     59 O01       -14.8830   10.3590   18.3620 O.2       1 6NB        -0.3915
     60 O02       -14.8280   17.5410   19.7170 O.2       1 6NB        -0.1502
     61 O03       -17.1050   17.7150   19.2940 O.2       1 6NB        -0.1502
     62 O04       -15.2020    1.7840   15.8880 O.3       1 6NB        -0.3150
     63 O05       -13.1530   -1.0790   15.2850 O.3       1 6NB        -0.3748
     64 O06       -11.0610   -2.2460   15.4630 O.3       1 6NB        -0.3748
     65 O07        -8.8370   -4.9140   16.0950 O.3       1 6NB        -0.3150
     66 O08        -9.7290  -13.6420   17.5930 O.2       1 6NB        -0.3915
     67 O09        -7.9710  -21.0660   18.2000 O.2       1 6NB        -0.1502
     68 O         -10.2560  -20.8700   18.1090 O.2       1 6NB        -0.1502
     69 F01       -16.5850   12.8670   18.7460 F         1 6NB        -0.1907
     70 F02       -12.8380   11.3680   21.1500 F         1 6NB        -0.1929
     71 F03        -8.2980  -16.1590   18.0930 F         1 6NB        -0.1907
     72 F         -12.4430  -14.8060   19.7670 F         1 6NB        -0.1929
     73 S01       -16.1040   17.0280   20.0470 S.o2      1 6NB         0.0588
     74 S          -9.0770  -20.3890   18.8050 S.o2      1 6NB         0.0588
     75 H1        -16.0137   11.1331   22.2708 H         1 6NB         0.1098
     76 H2        -12.4621   13.9270   21.8495 H         1 6NB         0.0539
     77 H3        -15.5406   16.5793   22.3134 H         1 6NB         0.0523
     78 H4        -15.9288   18.3119   22.0410 H         1 6NB         0.0523
     79 H5        -18.0069   16.0318   22.0629 H         1 6NB         0.0279
     80 H6        -18.3507   17.7891   21.9207 H         1 6NB         0.0279
     81 H7        -13.4034    1.0025   16.6195 H         1 6NB         0.0638
     82 H8        -14.8922    0.1779   17.1939 H         1 6NB         0.0638
     83 H9        -13.9731   -2.8657   15.9065 H         1 6NB         0.0583
     84 H10       -13.9110   -2.6093   14.1297 H         1 6NB         0.0583
     85 H11        -8.9811   -2.5011   15.5233 H         1 6NB         0.0587
     86 H12        -9.8112   -2.5682   17.1149 H         1 6NB         0.0587
     87 H13       -16.7972    9.0498   23.4650 H         1 6NB         0.2359
     88 H14       -16.8472   15.2252   18.8033 H         1 6NB         0.2130
     89 H15        -9.0693  -12.6730   23.0271 H         1 6NB         0.2359
     90 H16        -8.0227  -18.4925   17.9716 H         1 6NB         0.2130
     91 H17       -15.7294    4.3379   15.4368 H         1 6NB         0.0546
     92 H18       -16.0457    6.1499   17.1294 H         1 6NB         0.0594
     93 H19       -15.4052    3.3241   20.2984 H         1 6NB         0.0594
     94 H20       -15.0885    1.5070   18.6056 H         1 6NB         0.0546
     95 H21       -15.1582    7.5713   18.5008 H         1 6NB         0.0658
     96 H22       -16.7069    4.6686   21.3056 H         1 6NB         0.0749
     97 H23       -13.9647   15.8029   21.0745 H         1 6NB         0.0496
     98 H24       -18.6745   16.9987   24.2812 H         1 6NB         0.0230
     99 H25       -17.3197   18.1734   24.1759 H         1 6NB         0.0230
    100 H26       -16.9758   16.4160   24.3182 H         1 6NB         0.0230
    101 H27       -14.2956    0.2577   14.2218 H         1 6NB         0.0587
    102 H28       -15.2018   -0.9676   15.1727 H         1 6NB         0.0587
    103 H29       -11.8185   -3.4887   13.9913 H         1 6NB         0.0583
    104 H30       -12.0476   -4.0523   15.6814 H         1 6NB         0.0583
    105 H31       -10.4510   -4.5946   14.8619 H         1 6NB         0.0638
    106 H32       -10.8191   -4.7426   16.6139 H         1 6NB         0.0638
    107 H33        -8.2498   -7.3778   15.4429 H         1 6NB         0.0546
    108 H34        -8.3178   -9.3593   16.9372 H         1 6NB         0.0594
    109 H35        -9.7396   -6.8644   20.1635 H         1 6NB         0.0594
    110 H36        -9.6234   -4.8625   18.6894 H         1 6NB         0.0546
    111 H37        -9.5187  -10.8752   17.9829 H         1 6NB         0.0658
    112 H38        -8.6447   -8.2085   21.3018 H         1 6NB         0.0749
    113 H39        -9.6090  -14.6969   21.5251 H         1 6NB         0.1098
    114 H40       -12.9688  -17.4041   20.0887 H         1 6NB         0.0539
    115 H41       -11.3400  -19.2027   19.4769 H         1 6NB         0.0496
    116 H42       -10.0213  -19.8826   20.9386 H         1 6NB         0.0523
    117 H43        -9.7877  -21.6483   20.7048 H         1 6NB         0.0523
    118 H44        -7.7268  -19.5483   21.4593 H         1 6NB         0.0279
    119 H45        -7.2760  -21.1851   20.8724 H         1 6NB         0.0279
    120 H46        -7.3864  -21.1168   23.3463 H         1 6NB         0.0230
    121 H47        -8.6438  -22.2054   22.6676 H         1 6NB         0.0230
    122 H48        -9.0945  -20.5686   23.2545 H         1 6NB         0.0230
@<TRIPOS>BOND
     1   11    1 ar 
     2    1   12 1  
     3   25    1 ar 
     4   12    2 1  
     5   27    2 2  
     6    3    5 ar 
     7   28    3 1  
     8    3   29 ar 
     9   29    4 ar 
    10    4   30 ar 
    11    5   31 ar 
    12    5   69 1  
    13    6    7 1  
    14   73    6 1  
    15    7   32 1  
    16   33    8 1  
    17    8   62 1  
    18   34    9 1  
    19    9   63 1  
    20   35   10 1  
    21   10   64 1  
    22   26   11 ar 
    23   31   13 1  
    24   13   73 am 
    25   45   14 ar 
    26   14   46 ar 
    27   15   45 1  
    28   48   15 1  
    29   16   54 1  
    30   74   16 am 
    31   17   18 ar 
    32   17   22 ar 
    33   62   17 1  
    34   18   19 ar 
    35   19   20 ar 
    36   21   20 ar 
    37   20   23 1  
    38   22   21 ar 
    39   23   24 ar 
    40   23   26 ar 
    41   24   25 ar 
    42   25   27 1  
    43   27   28 1  
    44   28   59 2  
    45   29   70 1  
    46   31   30 ar 
    47   63   33 1  
    48   64   34 1  
    49   65   35 1  
    50   37   36 ar 
    51   41   36 ar 
    52   36   65 1  
    53   38   37 ar 
    54   39   38 ar 
    55   39   40 ar 
    56   42   39 1  
    57   40   41 ar 
    58   43   42 ar 
    59   42   46 ar 
    60   44   43 ar 
    61   44   45 ar 
    62   47   44 1  
    63   47   48 2  
    64   49   47 1  
    65   50   49 1  
    66   49   66 2  
    67   50   51 ar 
    68   55   50 ar 
    69   52   51 ar 
    70   51   72 1  
    71   53   52 ar 
    72   54   53 ar 
    73   54   55 ar 
    74   55   71 1  
    75   56   57 1  
    76   56   74 1  
    77   57   58 1  
    78   73   60 2  
    79   73   61 2  
    80   74   67 2  
    81   74   68 2  
    82    2   75 1  
    83    4   76 1  
    84    6   77 1  
    85    6   78 1  
    86    7   79 1  
    87    7   80 1  
    88    8   81 1  
    89    8   82 1  
    90    9   83 1  
    91    9   84 1  
    92   10   85 1  
    93   10   86 1  
    94   12   87 1  
    95   13   88 1  
    96   15   89 1  
    97   16   90 1  
    98   18   91 1  
    99   19   92 1  
   100   21   93 1  
   101   22   94 1  
   102   24   95 1  
   103   26   96 1  
   104   30   97 1  
   105   32   98 1  
   106   32   99 1  
   107   32  100 1  
   108   33  101 1  
   109   33  102 1  
   110   34  103 1  
   111   34  104 1  
   112   35  105 1  
   113   35  106 1  
   114   37  107 1  
   115   38  108 1  
   116   40  109 1  
   117   41  110 1  
   118   43  111 1  
   119   46  112 1  
   120   48  113 1  
   121   52  114 1  
   122   53  115 1  
   123   56  116 1  
   124   56  117 1  
   125   57  118 1  
   126   57  119 1  
   127   58  120 1  
   128   58  121 1  
   129   58  122 1  
@<TRIPOS>SUBSTRUCTURE
     1 6NB         1

