5jsm_ligand
  -I-interpret- 

120127  0  0  0  0  0  0  0  0999 V2000
  -16.3310    7.9530   21.6930 C   0  0  0  0  0
  -16.0250   10.1230   21.8640 C   0  0  0  0  0
  -14.6980   12.1350   19.9670 C   0  0  0  0  0
  -13.3150   13.7240   21.2120 C   0  0  0  0  0
  -15.5280   13.1680   19.5460 C   0  0  0  0  0
  -16.2250   17.2780   21.8100 C   0  0  0  0  0
  -17.6690   17.0390   22.3480 C   0  0  0  0  0
  -14.4100    0.6640   16.3330 C   0  0  0  0  0
  -13.3740   -2.4600   15.0780 C   0  0  0  0  0
   -9.8880   -2.8330   16.0500 C   0  0  0  0  0
  -16.6350    6.6570   21.9570 N   0  0  0  0  0
  -16.4400    9.0580   22.4990 N   0  0  0  0  0
  -16.1620   15.4710   19.4890 N   0  0  0  0  0
   -8.8780  -10.2060   21.7490 N   0  0  0  0  0
   -9.2120  -12.6100   22.0090 N   0  0  0  0  0
   -8.8560  -18.7780   18.4450 N   0  0  0  0  0
  -15.3790    2.8260   16.9020 C   0  0  0  0  0
  -15.6520    4.1110   16.4940 C   0  0  0  0  0
  -15.8320    5.1370   17.4510 C   0  0  0  0  0
  -15.7340    4.8420   18.8010 C   0  0  0  0  0
  -15.4710    3.5440   19.2390 C   0  0  0  0  0
  -15.2920    2.5220   18.2840 C   0  0  0  0  0
  -15.9350    5.9730   19.8090 C   0  0  0  0  0
  -15.5760    7.3200   19.4690 C   0  0  0  0  0
  -15.7990    8.3200   20.4790 C   0  0  0  0  0
  -16.4490    5.6910   21.0540 C   0  0  0  0  0
  -15.5930    9.7600   20.5670 C   0  0  0  0  0
  -15.0300   10.7080   19.5110 C   0  0  0  0  0
  -13.6060   12.4080   20.7960 C   0  0  0  0  0
  -14.1650   14.7800   20.7770 C   0  0  0  0  0
  -15.2700   14.4800   19.9550 C   0  0  0  0  0
  -17.6590   17.1660   23.8930 C   0  0  0  0  0
  -14.3230   -0.3060   15.1660 C   0  0  0  0  0
  -12.0360   -3.1720   15.0220 C   0  0  0  0  0
  -10.0960   -4.3630   15.8770 C   0  0  0  0  0
   -8.9120   -6.0340   16.9700 C   0  0  0  0  0
   -8.5610   -7.2730   16.4760 C   0  0  0  0  0
   -8.6070   -8.3800   17.3010 C   0  0  0  0  0
   -9.0450   -8.1970   18.6420 C   0  0  0  0  0
   -9.4080   -6.9610   19.1360 C   0  0  0  0  0
   -9.3490   -5.8440   18.3200 C   0  0  0  0  0
   -9.1050   -9.4050   19.5640 C   0  0  0  0  0
   -9.3560  -10.7050   19.0410 C   0  0  0  0  0
   -9.3810  -11.7590   19.9780 C   0  0  0  0  0
   -9.1410  -11.4750   21.2980 C   0  0  0  0  0
   -8.8560   -9.2050   20.9310 C   0  0  0  0  0
   -9.6210  -13.2000   19.9140 C   0  0  0  0  0
   -9.4970  -13.6620   21.2050 C   0  0  0  0  0
   -9.9140  -14.0350   18.7010 C   0  0  0  0  0
  -10.3740  -15.5160   18.9210 C   0  0  0  0  0
  -11.6190  -15.8340   19.4640 C   0  0  0  0  0
  -11.9980  -17.1580   19.6740 C   0  0  0  0  0
  -11.0820  -18.1600   19.3310 C   0  0  0  0  0
   -9.8150  -17.8110   18.7920 C   0  0  0  0  0
   -9.4760  -16.5020   18.5890 C   0  0  0  0  0
   -9.3340  -20.6560   20.5650 C   0  0  0  0  0
   -8.0570  -20.5940   21.3730 C   0  0  0  0  0
   -8.3130  -21.1600   22.7550 C   0  0  0  0  0
  -14.8830   10.3590   18.3620 O   0  0  0  0  0
  -14.8280   17.5410   19.7170 O   0  0  0  0  0
  -17.1050   17.7150   19.2940 O   0  0  0  0  0
  -15.2020    1.7840   15.8880 O   0  0  0  0  0
  -13.1530   -1.0790   15.2850 O   0  0  0  0  0
  -11.0610   -2.2460   15.4630 O   0  0  0  0  0
   -8.8370   -4.9140   16.0950 O   0  0  0  0  0
   -9.7290  -13.6420   17.5930 O   0  0  0  0  0
   -7.9710  -21.0660   18.2000 O   0  0  0  0  0
  -10.2560  -20.8700   18.1090 O   0  0  0  0  0
  -16.5850   12.8670   18.7460 F   0  0  0  0  0
  -12.8380   11.3680   21.1500 F   0  0  0  0  0
   -8.2980  -16.1590   18.0930 F   0  0  0  0  0
  -12.4430  -14.8060   19.7670 F   0  0  0  0  0
  -16.1040   17.0280   20.0470 S   0  0  0  0  0
   -9.0770  -20.3890   18.8050 S   0  0  0  0  0
  -16.0137   11.1340   22.2711 H   0  0  0  0  0
  -12.4574   13.9282   21.8530 H   0  0  0  0  0
  -15.5614   16.5639   22.2977 H   0  0  0  0  0
  -15.9531   18.3118   22.0230 H   0  0  0  0  0
  -18.0073   16.0428   22.0631 H   0  0  0  0  0
  -18.3470   17.7789   21.9226 H   0  0  0  0  0
  -13.4163    0.9904   16.6397 H   0  0  0  0  0
  -14.8675    0.1866   17.1996 H   0  0  0  0  0
  -13.9707   -2.8632   15.8963 H   0  0  0  0  0
  -13.9093   -2.6098   14.1404 H   0  0  0  0  0
   -8.9724   -2.4868   15.5706 H   0  0  0  0  0
   -9.7680   -2.5511   17.0961 H   0  0  0  0  0
  -16.8609   15.2203   18.7896 H   0  0  0  0  0
   -8.0060  -18.4868   17.9621 H   0  0  0  0  0
  -15.7298    4.3391   15.4310 H   0  0  0  0  0
  -16.0469    6.1555   17.1276 H   0  0  0  0  0
  -15.4048    3.3229   20.3043 H   0  0  0  0  0
  -15.0874    1.5014   18.6074 H   0  0  0  0  0
  -15.1559    7.5726   18.4955 H   0  0  0  0  0
  -16.7084    4.6630   21.3070 H   0  0  0  0  0
  -13.9636   15.8086   21.0762 H   0  0  0  0  0
  -16.9817   16.4224   24.3130 H   0  0  0  0  0
  -17.3226   18.1645   24.1720 H   0  0  0  0  0
  -18.6657   17.0000   24.2764 H   0  0  0  0  0
  -14.2959    0.2526   14.2304 H   0  0  0  0  0
  -15.1939   -0.9615   15.1726 H   0  0  0  0  0
  -11.8191   -3.5099   14.0087 H   0  0  0  0  0
  -12.0424   -4.0590   15.6554 H   0  0  0  0  0
  -10.4854   -4.6128   14.8900 H   0  0  0  0  0
  -10.8388   -4.7549   16.5718 H   0  0  0  0  0
   -8.2481   -7.3784   15.4372 H   0  0  0  0  0
   -8.3162   -9.3648   16.9352 H   0  0  0  0  0
   -9.7414   -6.8638   20.1692 H   0  0  0  0  0
   -9.6249   -4.8571   18.6915 H   0  0  0  0  0
   -9.5196  -10.8761   17.9770 H   0  0  0  0  0
   -8.6435   -8.2030   21.3038 H   0  0  0  0  0
   -9.6091  -14.6978   21.5254 H   0  0  0  0  0
  -12.9742  -17.4055   20.0910 H   0  0  0  0  0
  -11.3414  -19.2085   19.4777 H   0  0  0  0  0
   -9.9905  -19.8641   20.9256 H   0  0  0  0  0
   -9.7536  -21.6544   20.6886 H   0  0  0  0  0
   -7.7278  -19.5583   21.4574 H   0  0  0  0  0
   -7.2817  -21.1778   20.8768 H   0  0  0  0  0
   -9.0876  -20.5732   23.2488 H   0  0  0  0  0
   -8.6407  -22.1958   22.6670 H   0  0  0  0  0
   -7.3942  -21.1167   23.3399 H   0  0  0  0  0
 11  1  4  0  0  0
  1 12  4  0  0  0
 25  1  4  0  0  0
 12  2  4  0  0  0
 27  2  4  0  0  0
  3  5  4  0  0  0
 28  3  1  0  0  0
  3 29  4  0  0  0
 29  4  4  0  0  0
  4 30  4  0  0  0
  5 31  4  0  0  0
  5 69  1  0  0  0
  6  7  1  0  0  0
 73  6  1  0  0  0
  7 32  1  0  0  0
 33  8  1  0  0  0
  8 62  1  0  0  0
 34  9  1  0  0  0
  9 63  1  0  0  0
 35 10  1  0  0  0
 10 64  1  0  0  0
 26 11  4  0  0  0
 31 13  1  0  0  0
 13 73  1  0  0  0
 45 14  4  0  0  0
 14 46  4  0  0  0
 15 45  4  0  0  0
 48 15  4  0  0  0
 16 54  1  0  0  0
 74 16  1  0  0  0
 17 18  4  0  0  0
 17 22  4  0  0  0
 62 17  1  0  0  0
 18 19  4  0  0  0
 19 20  4  0  0  0
 21 20  4  0  0  0
 20 23  1  0  0  0
 22 21  4  0  0  0
 23 24  4  0  0  0
 23 26  4  0  0  0
 24 25  4  0  0  0
 25 27  4  0  0  0
 27 28  1  0  0  0
 28 59  2  0  0  0
 29 70  1  0  0  0
 31 30  4  0  0  0
 63 33  1  0  0  0
 64 34  1  0  0  0
 65 35  1  0  0  0
 37 36  4  0  0  0
 41 36  4  0  0  0
 36 65  1  0  0  0
 38 37  4  0  0  0
 39 38  4  0  0  0
 39 40  4  0  0  0
 42 39  1  0  0  0
 40 41  4  0  0  0
 43 42  4  0  0  0
 42 46  4  0  0  0
 44 43  4  0  0  0
 44 45  4  0  0  0
 47 44  4  0  0  0
 47 48  4  0  0  0
 49 47  1  0  0  0
 50 49  1  0  0  0
 49 66  2  0  0  0
 50 51  4  0  0  0
 55 50  4  0  0  0
 52 51  4  0  0  0
 51 72  1  0  0  0
 53 52  4  0  0  0
 54 53  4  0  0  0
 54 55  4  0  0  0
 55 71  1  0  0  0
 56 57  1  0  0  0
 56 74  1  0  0  0
 57 58  1  0  0  0
 73 60  2  0  0  0
 73 61  2  0  0  0
 74 67  2  0  0  0
 74 68  2  0  0  0
  2 75  1  0  0  0
  4 76  1  0  0  0
  6 77  1  0  0  0
  6 78  1  0  0  0
  7 79  1  0  0  0
  7 80  1  0  0  0
  8 81  1  0  0  0
  8 82  1  0  0  0
  9 83  1  0  0  0
  9 84  1  0  0  0
 10 85  1  0  0  0
 10 86  1  0  0  0
 13 87  1  0  0  0
 16 88  1  0  0  0
 18 89  1  0  0  0
 19 90  1  0  0  0
 21 91  1  0  0  0
 22 92  1  0  0  0
 24 93  1  0  0  0
 26 94  1  0  0  0
 30 95  1  0  0  0
 32 96  1  0  0  0
 32 97  1  0  0  0
 32 98  1  0  0  0
 33 99  1  0  0  0
 33100  1  0  0  0
 34101  1  0  0  0
 34102  1  0  0  0
 35103  1  0  0  0
 35104  1  0  0  0
 37105  1  0  0  0
 38106  1  0  0  0
 40107  1  0  0  0
 41108  1  0  0  0
 43109  1  0  0  0
 46110  1  0  0  0
 48111  1  0  0  0
 52112  1  0  0  0
 53113  1  0  0  0
 56114  1  0  0  0
 56115  1  0  0  0
 57116  1  0  0  0
 57117  1  0  0  0
 58118  1  0  0  0
 58119  1  0  0  0
 58120  1  0  0  0
M  END
$$$$
