3rwi_ligand
  -I-interpret- 

157160  0  0  0  0  0  0  0  0999 V2000
  -23.1680   15.1540  -20.6240 N   0  3  0  0  0
  -21.9190   14.5000  -20.2780 C   0  0  0  0  0
  -21.4200   13.6070  -21.3930 C   0  0  0  0  0
  -22.0800   13.4670  -22.4250 O   0  0  0  0  0
  -20.2550   13.0020  -21.1880 N   0  0  0  0  0
  -19.6660   12.1150  -22.1850 C   0  0  0  0  0
  -20.1720   10.6860  -22.0200 C   0  0  0  0  0
  -20.1860    9.9080  -22.9740 O   0  0  0  0  0
  -18.1390   12.1460  -22.0950 C   0  0  0  0  0
  -17.7130   12.5420  -20.8030 O   0  0  0  0  0
  -20.5870   10.3480  -20.8040 N   0  0  0  0  0
  -21.0920    9.0120  -20.5100 C   0  0  0  0  0
  -22.3290    8.6940  -21.3440 C   0  0  0  0  0
  -23.2700    9.4860  -21.4040 O   0  0  0  0  0
  -21.4130    8.8760  -19.0210 C   0  0  0  0  0
  -20.2560    8.4060  -18.1940 C   0  0  0  0  0
  -19.8890    7.0800  -18.1130 N   0  0  0  0  0
  -19.3840    9.0860  -17.4130 C   0  0  0  0  0
  -18.8410    6.9630  -17.3170 C   0  0  0  0  0
  -18.5150    8.1660  -16.8790 N   0  0  0  0  0
  -22.3200    7.5310  -21.9860 N   0  0  0  0  0
  -23.4390    7.1070  -22.8190 C   0  0  0  0  0
  -24.7380    7.0650  -22.0210 C   0  0  0  0  0
  -24.8330    6.3720  -21.0080 O   0  0  0  0  0
  -23.1580    5.7350  -23.4370 C   0  0  0  0  0
  -24.2850    5.1240  -24.2720 C   0  0  0  0  0
  -24.5730    5.9790  -25.4960 C   0  0  0  0  0
  -23.9410    3.6980  -24.6770 C   0  0  0  0  0
  -25.7350    7.8120  -22.4830 N   0  0  0  0  0
  -27.0300    7.8600  -21.8140 C   0  0  0  0  0
  -27.8590    6.6200  -22.1300 C   0  0  0  0  0
  -28.5560    6.0910  -21.2640 O   0  0  0  0  0
  -27.7950    9.1220  -22.2190 C   0  0  0  0  0
  -29.2560    9.1220  -21.8010 C   0  0  0  0  0
  -29.4400    9.4050  -20.3230 C   0  0  0  0  0
  -28.4240    9.5950  -19.6230 O   0  0  0  0  0
  -30.6000    9.4370  -19.8620 O   0  0  0  0  0
  -27.7790    6.1620  -23.3740 N   0  0  0  0  0
  -28.5200    4.9820  -23.8060 C   0  0  0  0  0
  -27.9710    3.7190  -23.1510 C   0  0  0  0  0
  -26.7610    3.4920  -23.1330 O   0  0  0  0  0
  -28.4760    4.8170  -25.3360 C   0  0  0  0  0
  -29.3040    3.6140  -25.7630 C   0  0  0  0  0
  -28.9700    6.0830  -26.0200 C   0  0  0  0  0
  -28.8690    2.8990  -22.6150 N   0  0  0  0  0
  -28.4770    1.6590  -21.9560 C   0  0  0  0  0
  -28.7890    0.4470  -22.8280 C   0  0  0  0  0
  -29.9320    0.2400  -23.2350 O   0  0  0  0  0
  -29.1760    1.5270  -20.6020 C   0  0  0  0  0
  -29.2010    2.8100  -19.7890 C   0  0  0  0  0
  -27.8450    3.1580  -19.2070 C   0  0  0  0  0
  -27.0970    2.2790  -18.7790 O   0  0  0  0  0
  -27.5220    4.4460  -19.1870 N   0  0  0  0  0
  -27.7650   -0.3520  -23.1100 N   0  0  0  0  0
  -27.9270   -1.5410  -23.9260 C   0  0  0  0  0
  -28.0400   -2.8020  -23.0920 C   0  0  0  0  0
  -27.0370   -3.3400  -22.6230 O   0  0  0  0  0
  -29.2680   -3.2750  -22.9070 N   0  0  0  0  0
  -29.5150   -4.4760  -22.1220 C   0  0  0  0  0
  -29.3740   -5.7270  -22.9780 C   0  0  0  0  0
  -29.8760   -5.7870  -24.1030 O   0  0  0  0  0
  -30.9030   -4.4410  -21.4810 C   0  0  0  0  0
  -31.1200   -3.2860  -20.5300 C   0  0  0  0  0
  -30.7500   -3.3800  -19.1960 C   0  0  0  0  0
  -31.7070   -2.1060  -20.9660 C   0  0  0  0  0
  -30.9520   -2.3260  -18.3240 C   0  0  0  0  0
  -31.9120   -1.0480  -20.1030 C   0  0  0  0  0
  -31.5330   -1.1620  -18.7840 C   0  0  0  0  0
  -31.7400   -0.1070  -17.9270 O   0  0  0  0  0
  -28.6950   -6.7300  -22.4340 N   0  0  0  0  0
  -28.5170   -7.9930  -23.1320 C   0  0  0  0  0
  -29.8230   -8.7720  -23.1940 C   0  0  0  0  0
  -30.7060   -8.5880  -22.3560 O   0  0  0  0  0
  -27.4430   -8.8280  -22.4400 C   0  0  0  0  0
  -26.0710   -8.2790  -22.6250 C   0  0  0  0  0
  -25.7270   -7.1210  -23.2730 C   0  0  0  0  0
  -24.8490   -8.8610  -22.1680 C   0  0  0  0  0
  -24.3660   -6.9520  -23.2440 N   0  0  0  0  0
  -23.8020   -8.0070  -22.5720 C   0  0  0  0  0
  -24.5340  -10.0260  -21.4620 C   0  0  0  0  0
  -22.4640   -8.2800  -22.2880 C   0  0  0  0  0
  -23.2070  -10.2960  -21.1810 C   0  0  0  0  0
  -22.1860   -9.4270  -21.5970 C   0  0  0  0  0
  -30.0180   -9.6030  -24.0790 O   0  0  0  0  0
  -23.4678   15.7441  -19.8479 H   0  0  0  0  0
  -23.0307   15.7281  -21.4559 H   0  0  0  0  0
  -23.8799   14.4478  -20.8105 H   0  0  0  0  0
  -22.0902   13.8820  -19.3966 H   0  0  0  0  0
  -21.1694   15.2702  -20.0964 H   0  0  0  0  0
  -19.7597   13.1619  -20.3108 H   0  0  0  0  0
  -19.9696   12.4722  -23.1690 H   0  0  0  0  0
  -17.7609   12.8641  -22.8227 H   0  0  0  0  0
  -17.7570   11.1454  -22.2972 H   0  0  0  0  0
  -16.7535   12.5533  -20.7731 H   0  0  0  0  0
  -20.5514   11.0411  -20.0565 H   0  0  0  0  0
  -20.3121    8.2965  -20.7705 H   0  0  0  0  0
  -22.2043    8.1324  -18.9255 H   0  0  0  0  0
  -21.6925    9.8647  -18.6570 H   0  0  0  0  0
  -19.3735   10.1622  -17.2403 H   0  0  0  0  0
  -18.3322    6.0326  -17.0647 H   0  0  0  0  0
  -21.5093    6.9189  -21.8938 H   0  0  0  0  0
  -23.5539    7.8393  -23.6182 H   0  0  0  0  0
  -22.9952    5.0536  -22.6020 H   0  0  0  0  0
  -22.3178    5.8748  -24.1172 H   0  0  0  0  0
  -25.1863    5.0953  -23.6597 H   0  0  0  0  0
  -24.8718    6.9778  -25.1778 H   0  0  0  0  0
  -23.6752    6.0455  -26.1106 H   0  0  0  0  0
  -25.3777    5.5245  -26.0739 H   0  0  0  0  0
  -23.0251    3.7004  -25.2679 H   0  0  0  0  0
  -23.7961    3.0925  -23.7823 H   0  0  0  0  0
  -24.7563    3.2833  -25.2699 H   0  0  0  0  0
  -25.5909    8.3661  -23.3272 H   0  0  0  0  0
  -26.8502    7.8849  -20.7392 H   0  0  0  0  0
  -27.7707    9.1789  -23.3072 H   0  0  0  0  0
  -27.3163    9.9640  -21.7191 H   0  0  0  0  0
  -29.6634    8.1320  -22.0060 H   0  0  0  0  0
  -29.7643    9.9085  -22.3588 H   0  0  0  0  0
  -31.2283    9.2657  -20.5673 H   0  0  0  0  0
  -27.1839    6.6480  -24.0449 H   0  0  0  0  0
  -29.5549    5.1280  -23.4964 H   0  0  0  0  0
  -27.4431    4.6459  -25.6394 H   0  0  0  0  0
  -28.9028    2.7143  -25.2963 H   0  0  0  0  0
  -30.3383    3.7569  -25.4501 H   0  0  0  0  0
  -29.2619    3.5120  -26.8474 H   0  0  0  0  0
  -29.9966    6.2833  -25.7132 H   0  0  0  0  0
  -28.3340    6.9207  -25.7341 H   0  0  0  0  0
  -28.9322    5.9488  -27.1010 H   0  0  0  0  0
  -29.8580    3.1435  -22.6660 H   0  0  0  0  0
  -27.3994    1.6942  -21.7957 H   0  0  0  0  0
  -28.6206    0.7892  -20.0230 H   0  0  0  0  0
  -30.2116    1.2502  -20.7994 H   0  0  0  0  0
  -29.8953    2.6687  -18.9607 H   0  0  0  0  0
  -29.4996    3.6217  -20.4524 H   0  0  0  0  0
  -26.6228    4.7404  -18.8060 H   0  0  0  0  0
  -28.1731    5.1408  -19.5526 H   0  0  0  0  0
  -26.8411   -0.1235  -22.7432 H   0  0  0  0  0
  -27.0478   -1.6354  -24.5634 H   0  0  0  0  0
  -28.8466   -1.4331  -24.5011 H   0  0  0  0  0
  -30.0579   -2.7840  -23.3258 H   0  0  0  0  0
  -28.7663   -4.5062  -21.3304 H   0  0  0  0  0
  -31.0122   -5.3581  -20.9021 H   0  0  0  0  0
  -31.6267   -4.3317  -22.2887 H   0  0  0  0  0
  -30.2929   -4.2992  -18.8296 H   0  0  0  0  0
  -32.0116   -2.0131  -22.0085 H   0  0  0  0  0
  -30.6540   -2.4141  -17.2792 H   0  0  0  0  0
  -32.3713   -0.1276  -20.4637 H   0  0  0  0  0
  -32.1498    0.6171  -18.4059 H   0  0  0  0  0
  -28.2892   -6.6118  -21.5057 H   0  0  0  0  0
  -28.2006   -7.7756  -24.1522 H   0  0  0  0  0
  -30.4187   -7.9174  -21.7320 H   0  0  0  0  0
  -27.4637   -9.8256  -22.8787 H   0  0  0  0  0
  -27.6595   -8.8285  -21.3717 H   0  0  0  0  0
  -26.4318   -6.4349  -23.7426 H   0  0  0  0  0
  -25.3198  -10.7089  -21.1390 H   0  0  0  0  0
  -21.6696   -7.6044  -22.6050 H   0  0  0  0  0
  -22.9496  -11.1988  -20.6272 H   0  0  0  0  0
  -21.1496   -9.6716  -21.3643 H   0  0  0  0  0
  1  2  1  0  0  0
  2  3  1  0  0  0
  3  4  2  0  0  0
  3  5  1  0  0  0
  5  6  1  0  0  0
  6  7  1  0  0  0
  6  9  1  0  0  0
  7  8  2  0  0  0
  7 11  1  0  0  0
  9 10  1  0  0  0
 11 12  1  0  0  0
 12 13  1  0  0  0
 12 15  1  0  0  0
 13 14  2  0  0  0
 13 21  1  0  0  0
 15 16  1  0  0  0
 16 17  4  0  0  0
 16 18  4  0  0  0
 17 19  4  0  0  0
 18 20  4  0  0  0
 19 20  4  0  0  0
 21 22  1  0  0  0
 22 23  1  0  0  0
 22 25  1  0  0  0
 23 24  2  0  0  0
 23 29  1  0  0  0
 25 26  1  0  0  0
 26 27  1  0  0  0
 26 28  1  0  0  0
 29 30  1  0  0  0
 30 31  1  0  0  0
 30 33  1  0  0  0
 31 32  2  0  0  0
 31 38  1  0  0  0
 33 34  1  0  0  0
 34 35  1  0  0  0
 35 36  2  0  0  0
 35 37  1  0  0  0
 38 39  1  0  0  0
 39 40  1  0  0  0
 39 42  1  0  0  0
 40 41  2  0  0  0
 40 45  1  0  0  0
 42 43  1  0  0  0
 42 44  1  0  0  0
 45 46  1  0  0  0
 46 47  1  0  0  0
 46 49  1  0  0  0
 47 48  2  0  0  0
 47 54  1  0  0  0
 49 50  1  0  0  0
 50 51  1  0  0  0
 51 52  2  0  0  0
 51 53  1  0  0  0
 54 55  1  0  0  0
 55 56  1  0  0  0
 56 57  2  0  0  0
 56 58  1  0  0  0
 58 59  1  0  0  0
 59 60  1  0  0  0
 59 62  1  0  0  0
 60 61  2  0  0  0
 60 70  1  0  0  0
 62 63  1  0  0  0
 63 64  4  0  0  0
 63 65  4  0  0  0
 64 66  4  0  0  0
 65 67  4  0  0  0
 66 68  4  0  0  0
 67 68  4  0  0  0
 68 69  1  0  0  0
 70 71  1  0  0  0
 71 72  1  0  0  0
 71 74  1  0  0  0
 72 73  1  0  0  0
 72 84  2  0  0  0
 74 75  1  0  0  0
 75 76  4  0  0  0
 75 77  4  0  0  0
 76 78  4  0  0  0
 77 79  4  0  0  0
 77 80  4  0  0  0
 78 79  4  0  0  0
 79 81  4  0  0  0
 80 82  4  0  0  0
 81 83  4  0  0  0
 82 83  4  0  0  0
  1 85  1  0  0  0
  1 86  1  0  0  0
  1 87  1  0  0  0
  2 88  1  0  0  0
  2 89  1  0  0  0
  5 90  1  0  0  0
  6 91  1  0  0  0
  9 92  1  0  0  0
  9 93  1  0  0  0
 10 94  1  0  0  0
 11 95  1  0  0  0
 12 96  1  0  0  0
 15 97  1  0  0  0
 15 98  1  0  0  0
 18 99  1  0  0  0
 19100  1  0  0  0
 21101  1  0  0  0
 22102  1  0  0  0
 25103  1  0  0  0
 25104  1  0  0  0
 26105  1  0  0  0
 27106  1  0  0  0
 27107  1  0  0  0
 27108  1  0  0  0
 28109  1  0  0  0
 28110  1  0  0  0
 28111  1  0  0  0
 29112  1  0  0  0
 30113  1  0  0  0
 33114  1  0  0  0
 33115  1  0  0  0
 34116  1  0  0  0
 34117  1  0  0  0
 37118  1  0  0  0
 38119  1  0  0  0
 39120  1  0  0  0
 42121  1  0  0  0
 43122  1  0  0  0
 43123  1  0  0  0
 43124  1  0  0  0
 44125  1  0  0  0
 44126  1  0  0  0
 44127  1  0  0  0
 45128  1  0  0  0
 46129  1  0  0  0
 49130  1  0  0  0
 49131  1  0  0  0
 50132  1  0  0  0
 50133  1  0  0  0
 53134  1  0  0  0
 53135  1  0  0  0
 54136  1  0  0  0
 55137  1  0  0  0
 55138  1  0  0  0
 58139  1  0  0  0
 59140  1  0  0  0
 62141  1  0  0  0
 62142  1  0  0  0
 64143  1  0  0  0
 65144  1  0  0  0
 66145  1  0  0  0
 67146  1  0  0  0
 69147  1  0  0  0
 70148  1  0  0  0
 71149  1  0  0  0
 73150  1  0  0  0
 74151  1  0  0  0
 74152  1  0  0  0
 76153  1  0  0  0
 80154  1  0  0  0
 81155  1  0  0  0
 82156  1  0  0  0
 83157  1  0  0  0
M  END
$$$$
