### 
### Created by X-TOOL on Mon Sep 10 21:13:09 2018
### 

@<TRIPOS>MOLECULE
3rwi_ligand
  157   160     1     0     0
SMALL
GAST_HUCK


@<TRIPOS>ATOM
      1 N         -23.1680   15.1540  -20.6240 N.4       1 GLY         0.2357
      2 CA        -21.9190   14.5000  -20.2780 C.3       1 GLY         0.0545
      3 C         -21.4200   13.6070  -21.3930 C.2       1 GLY         0.2237
      4 O         -22.0800   13.4670  -22.4250 O.2       1 GLY        -0.3910
      5 N         -20.2550   13.0020  -21.1880 N.am      1 SER        -0.2591
      6 CA        -19.6660   12.1150  -22.1850 C.3       1 SER         0.1540
      7 C         -20.1720   10.6860  -22.0200 C.2       1 SER         0.2063
      8 O         -20.1860    9.9080  -22.9740 O.2       1 SER        -0.3943
      9 CB        -18.1390   12.1460  -22.0950 C.3       1 SER         0.0843
     10 OG        -17.7130   12.5420  -20.8030 O.3       1 SER        -0.3903
     11 N         -20.5870   10.3480  -20.8040 N.am      1 HIS        -0.2624
     12 CA        -21.0920    9.0120  -20.5100 C.3       1 HIS         0.1369
     13 C         -22.3290    8.6940  -21.3440 C.2       1 HIS         0.2054
     14 O         -23.2700    9.4860  -21.4040 O.2       1 HIS        -0.3942
     15 CB        -21.4130    8.8760  -19.0210 C.3       1 HIS         0.0145
     16 CG        -20.2560    8.4060  -18.1940 C.2       1 HIS        -0.0027
     17 ND1       -19.8890    7.0800  -18.1130 N.2       1 HIS        -0.3252
     18 CD2       -19.3840    9.0860  -17.4130 C.2       1 HIS         0.0291
     19 CE1       -18.8410    6.9630  -17.3170 C.2       1 HIS         0.0907
     20 NE2       -18.5150    8.1660  -16.8790 N.pl3     1 HIS        -0.2752
     21 N         -22.3200    7.5310  -21.9860 N.am      1 LEU        -0.2636
     22 CA        -23.4390    7.1070  -22.8190 C.3       1 LEU         0.1312
     23 C         -24.7380    7.0650  -22.0210 C.2       1 LEU         0.2039
     24 O         -24.8330    6.3720  -21.0080 O.2       1 LEU        -0.3944
     25 CB        -23.1580    5.7350  -23.4370 C.3       1 LEU        -0.0101
     26 CG        -24.2850    5.1240  -24.2720 C.3       1 LEU        -0.0425
     27 CD1       -24.5730    5.9790  -25.4960 C.3       1 LEU        -0.0625
     28 CD2       -23.9410    3.6980  -24.6770 C.3       1 LEU        -0.0625
     29 N         -25.7350    7.8120  -22.4830 N.am      1 GLU        -0.2636
     30 CA        -27.0300    7.8600  -21.8140 C.3       1 GLU         0.1325
     31 C         -27.8590    6.6200  -22.1300 C.2       1 GLU         0.2040
     32 O         -28.5560    6.0910  -21.2640 O.2       1 GLU        -0.3944
     33 CB        -27.7950    9.1220  -22.2190 C.3       1 GLU        -0.0008
     34 CG        -29.2560    9.1220  -21.8010 C.3       1 GLU         0.0044
     35 CD        -29.4400    9.4050  -20.3230 C.2       1 GLU         0.0350
     36 OE1       -28.4240    9.5950  -19.6230 O.co2     1 GLU        -0.5690
     37 OE2       -30.6000    9.4370  -19.8620 O.co2     1 GLU        -0.5690
     38 N         -27.7790    6.1620  -23.3740 N.am      1 VAL        -0.2635
     39 CA        -28.5200    4.9820  -23.8060 C.3       1 VAL         0.1332
     40 C         -27.9710    3.7190  -23.1510 C.2       1 VAL         0.2042
     41 O         -26.7610    3.4920  -23.1330 O.2       1 VAL        -0.3944
     42 CB        -28.4760    4.8170  -25.3360 C.3       1 VAL        -0.0063
     43 CG1       -29.3040    3.6140  -25.7630 C.3       1 VAL        -0.0584
     44 CG2       -28.9700    6.0830  -26.0200 C.3       1 VAL        -0.0584
     45 N         -28.8690    2.8990  -22.6150 N.am      1 GLN        -0.2636
     46 CA        -28.4770    1.6590  -21.9560 C.3       1 GLN         0.1330
     47 C         -28.7890    0.4470  -22.8280 C.2       1 GLN         0.2038
     48 O         -29.9320    0.2400  -23.2350 O.2       1 GLN        -0.3944
     49 CB        -29.1760    1.5270  -20.6020 C.3       1 GLN         0.0045
     50 CG        -29.2010    2.8100  -19.7890 C.3       1 GLN         0.0412
     51 CD        -27.8450    3.1580  -19.2070 C.2       1 GLN         0.1737
     52 OE1       -27.0970    2.2790  -18.7790 O.2       1 GLN        -0.3973
     53 NE2       -27.5220    4.4460  -19.1870 N.am      1 GLN        -0.3009
     54 N         -27.7650   -0.3520  -23.1100 N.am      1 GLY        -0.2664
     55 CA        -27.9270   -1.5410  -23.9260 C.3       1 GLY         0.1201
     56 C         -28.0400   -2.8020  -23.0920 C.2       1 GLY         0.2009
     57 O         -27.0370   -3.3400  -22.6230 O.2       1 GLY        -0.3947
     58 N         -29.2680   -3.2750  -22.9070 N.am      1 TYR        -0.2624
     59 CA        -29.5150   -4.4760  -22.1220 C.3       1 TYR         0.1390
     60 C         -29.3740   -5.7270  -22.9780 C.2       1 TYR         0.2053
     61 O         -29.8760   -5.7870  -24.1030 O.2       1 TYR        -0.3942
     62 CB        -30.9030   -4.4410  -21.4810 C.3       1 TYR         0.0163
     63 CG        -31.1200   -3.2860  -20.5300 C.ar      1 TYR        -0.0493
     64 CD1       -30.7500   -3.3800  -19.1960 C.ar      1 TYR        -0.0685
     65 CD2       -31.7070   -2.1060  -20.9660 C.ar      1 TYR        -0.0685
     66 CE1       -30.9520   -2.3260  -18.3240 C.ar      1 TYR        -0.0398
     67 CE2       -31.9120   -1.0480  -20.1030 C.ar      1 TYR        -0.0398
     68 CZ        -31.5330   -1.1620  -18.7840 C.ar      1 TYR         0.0805
     69 OH        -31.7400   -0.1070  -17.9270 O.3       1 TYR        -0.3376
     70 N         -28.6950   -6.7300  -22.4340 N.am      1 TRP        -0.2683
     71 CA        -28.5170   -7.9930  -23.1320 C.3       1 TRP         0.0986
     72 C         -29.8230   -8.7720  -23.1940 C.2       1 TRP         0.0613
     73 O         -30.7060   -8.5880  -22.3560 O.co2     1 TRP        -0.5665
     74 CB        -27.4430   -8.8280  -22.4400 C.3       1 TRP        -0.0013
     75 CG        -26.0710   -8.2790  -22.6250 C.2       1 TRP        -0.0424
     76 CD1       -25.7270   -7.1210  -23.2730 C.2       1 TRP         0.0166
     77 CD2       -24.8490   -8.8610  -22.1680 C.ar      1 TRP        -0.0214
     78 NE1       -24.3660   -6.9520  -23.2440 N.pl3     1 TRP        -0.2891
     79 CE2       -23.8020   -8.0070  -22.5720 C.ar      1 TRP         0.0603
     80 CE3       -24.5340  -10.0260  -21.4620 C.ar      1 TRP        -0.0747
     81 CZ2       -22.4640   -8.2800  -22.2880 C.ar      1 TRP        -0.0443
     82 CZ3       -23.2070  -10.2960  -21.1810 C.ar      1 TRP        -0.0792
     83 CH2       -22.1860   -9.4270  -21.5970 C.ar      1 TRP        -0.0768
     84 OXT       -30.0180   -9.6030  -24.0790 O.co2     1 TRP        -0.5665
     85 H         -23.4678   15.7441  -19.8479 H         1 GLY         0.2012
     86 H         -23.0307   15.7281  -21.4559 H         1 GLY         0.2012
     87 H         -23.8799   14.4478  -20.8105 H         1 GLY         0.2012
     88 H         -22.0902   13.8820  -19.3966 H         1 GLY         0.1061
     89 H         -21.1694   15.2702  -20.0964 H         1 GLY         0.1061
     90 H         -19.7597   13.1619  -20.3108 H         1 SER         0.1885
     91 H         -19.9696   12.4722  -23.1690 H         1 SER         0.0823
     92 H         -17.7609   12.8641  -22.8227 H         1 SER         0.0606
     93 H         -17.7570   11.1454  -22.2972 H         1 SER         0.0606
     94 H         -18.0472   11.9201  -20.1525 H         1 SER         0.2097
     95 H         -20.5514   11.0411  -20.0565 H         1 HIS         0.1885
     96 H         -20.3121    8.2965  -20.7705 H         1 HIS         0.0817
     97 H         -22.2043    8.1324  -18.9255 H         1 HIS         0.0420
     98 H         -21.6925    9.8647  -18.6570 H         1 HIS         0.0420
     99 H         -19.3735   10.1622  -17.2403 H         1 HIS         0.0729
    100 H         -18.3322    6.0326  -17.0647 H         1 HIS         0.1199
    101 H         -17.7430    8.3774  -16.2467 H         1 HIS         0.2361
    102 H         -21.5093    6.9189  -21.8938 H         1 LEU         0.1883
    103 H         -23.5539    7.8393  -23.6182 H         1 LEU         0.0800
    104 H         -22.9952    5.0536  -22.6020 H         1 LEU         0.0315
    105 H         -22.3178    5.8748  -24.1172 H         1 LEU         0.0315
    106 H         -25.1863    5.0953  -23.6597 H         1 LEU         0.0298
    107 H         -24.8718    6.9778  -25.1778 H         1 LEU         0.0232
    108 H         -23.6752    6.0455  -26.1106 H         1 LEU         0.0232
    109 H         -25.3777    5.5245  -26.0739 H         1 LEU         0.0232
    110 H         -23.0251    3.7004  -25.2679 H         1 LEU         0.0232
    111 H         -23.7961    3.0925  -23.7823 H         1 LEU         0.0232
    112 H         -24.7563    3.2833  -25.2699 H         1 LEU         0.0232
    113 H         -25.5909    8.3661  -23.3272 H         1 GLU         0.1883
    114 H         -26.8502    7.8849  -20.7392 H         1 GLU         0.0801
    115 H         -27.7707    9.1789  -23.3072 H         1 GLU         0.0330
    116 H         -27.3163    9.9640  -21.7191 H         1 GLU         0.0330
    117 H         -29.6634    8.1320  -22.0060 H         1 GLU         0.0433
    118 H         -29.7643    9.9085  -22.3588 H         1 GLU         0.0433
    119 H         -27.1839    6.6480  -24.0449 H         1 VAL         0.1883
    120 H         -29.5549    5.1280  -23.4964 H         1 VAL         0.0802
    121 H         -27.4431    4.6459  -25.6394 H         1 VAL         0.0343
    122 H         -28.9028    2.7143  -25.2963 H         1 VAL         0.0234
    123 H         -30.3383    3.7569  -25.4501 H         1 VAL         0.0234
    124 H         -29.2619    3.5120  -26.8474 H         1 VAL         0.0234
    125 H         -29.9966    6.2833  -25.7132 H         1 VAL         0.0234
    126 H         -28.3340    6.9207  -25.7341 H         1 VAL         0.0234
    127 H         -28.9322    5.9488  -27.1010 H         1 VAL         0.0234
    128 H         -29.8580    3.1435  -22.6660 H         1 GLN         0.1883
    129 H         -27.3994    1.6942  -21.7957 H         1 GLN         0.0801
    130 H         -28.6206    0.7892  -20.0230 H         1 GLN         0.0337
    131 H         -30.2116    1.2502  -20.7994 H         1 GLN         0.0337
    132 H         -29.8953    2.6687  -18.9607 H         1 GLN         0.0504
    133 H         -29.4996    3.6217  -20.4524 H         1 GLN         0.0504
    134 H         -26.6228    4.7404  -18.8060 H         1 GLN         0.1814
    135 H         -28.1731    5.1408  -19.5526 H         1 GLN         0.1814
    136 H         -26.8411   -0.1235  -22.7432 H         1 GLY         0.1881
    137 H         -27.0478   -1.6354  -24.5634 H         1 GLY         0.0763
    138 H         -28.8466   -1.4331  -24.5011 H         1 GLY         0.0763
    139 H         -30.0579   -2.7840  -23.3258 H         1 TYR         0.1885
    140 H         -28.7663   -4.5062  -21.3304 H         1 TYR         0.0821
    141 H         -31.0122   -5.3581  -20.9021 H         1 TYR         0.0453
    142 H         -31.6267   -4.3317  -22.2887 H         1 TYR         0.0453
    143 H         -30.2929   -4.2992  -18.8296 H         1 TYR         0.0530
    144 H         -32.0116   -2.0131  -22.0085 H         1 TYR         0.0530
    145 H         -30.6540   -2.4141  -17.2792 H         1 TYR         0.0525
    146 H         -32.3713   -0.1276  -20.4637 H         1 TYR         0.0525
    147 H         -31.4247   -0.3412  -17.0510 H         1 TYR         0.2458
    148 H         -28.2892   -6.6118  -21.5057 H         1 TRP         0.1877
    149 H         -28.2006   -7.7756  -24.1522 H         1 TRP         0.0741
    150 H         -27.4637   -9.8256  -22.8787 H         1 TRP         0.0390
    151 H         -27.6595   -8.8285  -21.3717 H         1 TRP         0.0390
    152 H         -26.4318   -6.4349  -23.7426 H         1 TRP         0.0795
    153 H         -23.8564   -6.1698  -23.6549 H         1 TRP         0.2216
    154 H         -25.3198  -10.7089  -21.1390 H         1 TRP         0.0540
    155 H         -21.6696   -7.6044  -22.6050 H         1 TRP         0.0541
    156 H         -22.9496  -11.1988  -20.6272 H         1 TRP         0.0510
    157 H         -21.1496   -9.6716  -21.3643 H         1 TRP         0.0530
@<TRIPOS>BOND
     1    1    2 1  
     2    2    3 1  
     3    3    4 2  
     4    3    5 am 
     5    5    6 1  
     6    6    7 1  
     7    6    9 1  
     8    7    8 2  
     9    7   11 am 
    10    9   10 1  
    11   11   12 1  
    12   12   13 1  
    13   12   15 1  
    14   13   14 2  
    15   13   21 am 
    16   15   16 1  
    17   16   17 1  
    18   16   18 2  
    19   17   19 2  
    20   18   20 1  
    21   19   20 1  
    22   21   22 1  
    23   22   23 1  
    24   22   25 1  
    25   23   24 2  
    26   23   29 am 
    27   25   26 1  
    28   26   27 1  
    29   26   28 1  
    30   29   30 1  
    31   30   31 1  
    32   30   33 1  
    33   31   32 2  
    34   31   38 am 
    35   33   34 1  
    36   34   35 1  
    37   35   36 ar 
    38   35   37 ar 
    39   38   39 1  
    40   39   40 1  
    41   39   42 1  
    42   40   41 2  
    43   40   45 am 
    44   42   43 1  
    45   42   44 1  
    46   45   46 1  
    47   46   47 1  
    48   46   49 1  
    49   47   48 2  
    50   47   54 am 
    51   49   50 1  
    52   50   51 1  
    53   51   52 2  
    54   51   53 am 
    55   54   55 1  
    56   55   56 1  
    57   56   57 2  
    58   56   58 am 
    59   58   59 1  
    60   59   60 1  
    61   59   62 1  
    62   60   61 2  
    63   60   70 am 
    64   62   63 1  
    65   63   64 ar 
    66   63   65 ar 
    67   64   66 ar 
    68   65   67 ar 
    69   66   68 ar 
    70   67   68 ar 
    71   68   69 1  
    72   70   71 1  
    73   71   72 1  
    74   71   74 1  
    75   72   73 ar 
    76   72   84 ar 
    77   74   75 1  
    78   75   76 2  
    79   75   77 1  
    80   76   78 1  
    81   77   79 ar 
    82   77   80 ar 
    83   78   79 1  
    84   79   81 ar 
    85   80   82 ar 
    86   81   83 ar 
    87   82   83 ar 
    88    1   85 1  
    89    1   86 1  
    90    1   87 1  
    91    2   88 1  
    92    2   89 1  
    93    5   90 1  
    94    6   91 1  
    95    9   92 1  
    96    9   93 1  
    97   10   94 1  
    98   11   95 1  
    99   12   96 1  
   100   15   97 1  
   101   15   98 1  
   102   18   99 1  
   103   19  100 1  
   104   20  101 1  
   105   21  102 1  
   106   22  103 1  
   107   25  104 1  
   108   25  105 1  
   109   26  106 1  
   110   27  107 1  
   111   27  108 1  
   112   27  109 1  
   113   28  110 1  
   114   28  111 1  
   115   28  112 1  
   116   29  113 1  
   117   30  114 1  
   118   33  115 1  
   119   33  116 1  
   120   34  117 1  
   121   34  118 1  
   122   38  119 1  
   123   39  120 1  
   124   42  121 1  
   125   43  122 1  
   126   43  123 1  
   127   43  124 1  
   128   44  125 1  
   129   44  126 1  
   130   44  127 1  
   131   45  128 1  
   132   46  129 1  
   133   49  130 1  
   134   49  131 1  
   135   50  132 1  
   136   50  133 1  
   137   53  134 1  
   138   53  135 1  
   139   54  136 1  
   140   55  137 1  
   141   55  138 1  
   142   58  139 1  
   143   59  140 1  
   144   62  141 1  
   145   62  142 1  
   146   64  143 1  
   147   65  144 1  
   148   66  145 1  
   149   67  146 1  
   150   69  147 1  
   151   70  148 1  
   152   71  149 1  
   153   74  150 1  
   154   74  151 1  
   155   76  152 1  
   156   78  153 1  
   157   80  154 1  
   158   81  155 1  
   159   82  156 1  
   160   83  157 1  
@<TRIPOS>SUBSTRUCTURE
     1 GLY         1

