3ms4_ligand
  -I-interpret- 

 45 46  0  0  0  0  0  0  0  0999 V2000
   19.4790   15.4430   56.7550 C   0  0  0  0  0
   17.1570   10.7620   48.5730 F   0  0  0  0  0
   18.9460   14.1430   56.3770 N   0  0  0  0  0
   18.7300   13.3210   58.7910 S   0  0  0  0  0
   20.7910   15.7260   55.9940 C   0  0  0  0  0
   16.8830    8.6720   49.0060 F   0  0  0  0  0
   17.9850   12.0840   56.7430 N   0  0  0  0  0
   21.8220   14.7890   56.3610 O   0  0  0  0  0
   21.2320   17.1830   56.2030 C   0  0  0  0  0
   18.8500    9.4930   48.9190 F   0  0  0  0  0
   18.0440   11.8660   55.4420 N   0  0  0  0  0
   22.3600   17.4910   55.3860 O   0  0  0  0  0
   20.0900   18.1280   55.8150 C   0  0  0  0  0
   20.4820   19.4980   55.9930 O   0  0  0  0  0
   18.8320   17.8040   56.6230 C   0  0  0  0  0
   18.4830   16.4260   56.4260 O   0  0  0  0  0
   17.6270   18.6860   56.2650 C   0  0  0  0  0
   17.5420   18.9410   54.8520 O   0  0  0  0  0
   18.5530   13.1870   57.2320 C   0  0  0  0  0
   17.4640   10.8850   54.9360 C   0  0  0  0  0
   17.5270   10.6260   53.4880 C   0  0  0  0  0
   18.4130   11.3180   52.6520 C   0  0  0  0  0
   18.4460   11.0380   51.2870 C   0  0  0  0  0
   17.5880   10.0660   50.7520 C   0  0  0  0  0
   16.7040    9.3840   51.5930 C   0  0  0  0  0
   16.6730    9.6590   52.9580 C   0  0  0  0  0
   17.6100    9.7460   49.2760 C   0  0  0  0  0
   19.7057   15.4715   57.8208 H   0  0  0  0  0
   18.8645   13.9421   55.3803 H   0  0  0  0  0
   20.6074   15.5881   54.9285 H   0  0  0  0  0
   21.5062   13.8942   56.2155 H   0  0  0  0  0
   21.4957   17.3091   57.2531 H   0  0  0  0  0
   23.0878   16.9082   55.6145 H   0  0  0  0  0
   19.8615   17.9817   54.7593 H   0  0  0  0  0
   19.7541   20.0727   55.7450 H   0  0  0  0  0
   19.0709   18.0063   57.6671 H   0  0  0  0  0
   17.7423   19.6418   56.7761 H   0  0  0  0  0
   16.7208   18.1630   56.5706 H   0  0  0  0  0
   16.7777   19.4937   54.6731 H   0  0  0  0  0
   16.4078   11.0790   55.1227 H   0  0  0  0  0
   17.9666   10.0252   55.3790 H   0  0  0  0  0
   19.0766   12.0755   53.0691 H   0  0  0  0  0
   19.1374   11.5735   50.6364 H   0  0  0  0  0
   16.0339    8.6314   51.1775 H   0  0  0  0  0
   15.9843    9.1208   53.6093 H   0  0  0  0  0
  3  1  1  0  0  0
  1  5  1  0  0  0
  1 16  1  0  0  0
 27  2  1  0  0  0
 19  3  1  0  0  0
 19  4  2  0  0  0
  5  8  1  0  0  0
  5  9  1  0  0  0
 27  6  1  0  0  0
 11  7  2  0  0  0
  7 19  1  0  0  0
  9 12  1  0  0  0
  9 13  1  0  0  0
 27 10  1  0  0  0
 20 11  1  0  0  0
 13 14  1  0  0  0
 15 13  1  0  0  0
 16 15  1  0  0  0
 15 17  1  0  0  0
 17 18  1  0  0  0
 21 20  1  0  0  0
 22 21  4  0  0  0
 21 26  4  0  0  0
 23 22  4  0  0  0
 24 23  4  0  0  0
 24 25  4  0  0  0
 24 27  1  0  0  0
 25 26  4  0  0  0
  1 28  1  0  0  0
  3 29  1  0  0  0
  5 30  1  0  0  0
  8 31  1  0  0  0
  9 32  1  0  0  0
 12 33  1  0  0  0
 13 34  1  0  0  0
 14 35  1  0  0  0
 15 36  1  0  0  0
 17 37  1  0  0  0
 17 38  1  0  0  0
 18 39  1  0  0  0
 20 40  1  0  0  0
 20 41  1  0  0  0
 22 42  1  0  0  0
 23 43  1  0  0  0
 25 44  1  0  0  0
 26 45  1  0  0  0
M  END
$$$$
