6o57_ligand
  -I-interpret- 

122121  0  0  0  0  0  0  0  0999 V2000
   73.0480   21.5370   10.6180 C   0  0  0  0  0
   71.8330   21.6880   10.8190 O   0  0  0  0  0
   74.1160   22.0660   11.5010 C   0  0  0  0  0
   73.6610   20.7930    9.6550 N   0  0  0  0  0
   72.8950   20.2170    8.6570 C   0  0  0  0  0
   72.5480   18.7550    9.0570 C   0  0  0  0  0
   73.3460   17.7740    9.2460 O   0  0  0  0  0
   73.5760   20.3340    7.2270 C   0  0  0  0  0
   73.7650   21.6840    6.7680 O   0  0  0  0  0
   72.5880   19.7460    6.2870 C   0  0  0  0  0
   71.3880   18.4430    9.1690 N   0  0  0  0  0
   70.9310   17.1120    9.4180 C   0  0  0  0  0
   70.0060   16.4170    8.4720 C   0  0  0  0  0
   68.7500   16.5670    8.2620 O   0  0  0  0  0
   70.2900   17.1350   10.8040 C   0  0  0  0  0
   70.8150   18.0760   11.9240 C   0  0  0  0  0
   69.9270   15.8010   11.2710 C   0  0  0  0  0
   72.3100   17.8330   12.3250 C   0  0  0  0  0
   70.5300   15.6640    7.8240 N   0  0  0  0  0
   69.7410   15.0710    6.7640 C   0  0  0  0  0
   69.0840   13.7030    6.8880 C   0  0  0  0  0
   70.3120   15.1740    5.3890 C   0  0  0  0  0
   71.1180   16.4150    5.1410 C   0  0  0  0  0
   70.6010   17.5050    4.3640 C   0  0  0  0  0
   69.3260   17.2300    3.5950 C   0  0  0  0  0
   68.5800   13.3430    8.1990 N   0  3  0  0  0
   67.4830   12.3650    8.2920 C   0  0  0  0  0
   66.4740   12.5060    7.2440 C   0  0  0  0  0
   65.7940   13.5350    6.8250 O   0  0  0  0  0
   66.9190   12.4490    9.6460 C   0  0  0  0  0
   66.1330   11.2120    9.9980 C   0  0  0  0  0
   64.8360   11.7210   10.4460 C   0  0  0  0  0
   65.0290   12.6340   11.6450 C   0  0  0  0  0
   66.0980   11.4900    6.7140 N   0  0  0  0  0
   64.9770   11.4830    5.7510 C   0  0  0  0  0
   64.0340   10.2650    5.9250 C   0  0  0  0  0
   64.4660    8.9630    5.9580 O   0  0  0  0  0
   65.4030   11.8610    4.3060 C   0  0  0  0  0
   64.3220   11.7950    3.2580 C   0  0  0  0  0
   64.1080   10.4540    2.7160 C   0  0  0  0  0
   64.8210    9.5740    2.8770 O   0  0  0  0  0
   62.9630   10.2810    2.0580 N   0  0  0  0  0
   62.7980   10.3410    5.7770 N   0  0  0  0  0
   61.8640    9.1010    5.6970 C   0  0  0  0  0
   60.8790    9.2620    4.6220 C   0  0  0  0  0
   60.5870   10.4200    4.3160 O   0  0  0  0  0
   61.2110    9.2070    7.0250 C   0  0  0  0  0
   62.0300    8.7270    8.1690 C   0  0  0  0  0
   60.9080    8.6360    9.1210 C   0  0  0  0  0
   61.6080    8.2730   10.4070 N   0  0  0  0  0
   61.1020    8.2810   11.6370 C   0  0  0  0  0
   59.8700    8.6800   11.9120 N   0  0  0  0  0
   61.8890    7.8810   12.6450 N   0  0  0  0  0
   60.3180    8.2860    3.8290 N   0  0  0  0  0
   74.0359   23.1517   11.5556 H   0  0  0  0  0
   74.0042   21.6415   12.4987 H   0  0  0  0  0
   75.0899   21.7922   11.0953 H   0  0  0  0  0
   74.6725   20.6622    9.6696 H   0  0  0  0  0
   71.9611   20.7708    8.5609 H   0  0  0  0  0
   74.5548   19.8572    7.2795 H   0  0  0  0  0
   74.3986   22.1282    7.3362 H   0  0  0  0  0
   71.6623   20.3200    6.3289 H   0  0  0  0  0
   72.9898   19.7755    5.2742 H   0  0  0  0  0
   72.3893   18.7124    6.5704 H   0  0  0  0  0
   70.6866   19.1782    9.0800 H   0  0  0  0  0
   71.8307   16.5096    9.2925 H   0  0  0  0  0
   69.3920   17.7065   10.5690 H   0  0  0  0  0
   70.2108   17.8858   12.8111 H   0  0  0  0  0
   70.7474   19.0952   11.5435 H   0  0  0  0  0
   69.2140   15.3560   10.5770 H   0  0  0  0  0
   70.8212   15.1799   11.3232 H   0  0  0  0  0
   69.4756   15.8742   12.2604 H   0  0  0  0  0
   72.4264   16.8113   12.6865 H   0  0  0  0  0
   72.9479   17.9867   11.4546 H   0  0  0  0  0
   72.5921   18.5326   13.1118 H   0  0  0  0  0
   71.5069   15.4119    7.9737 H   0  0  0  0  0
   68.9205   15.7659    6.9428 H   0  0  0  0  0
   69.8590   12.9738    6.6522 H   0  0  0  0  0
   68.2175   13.7236    6.2270 H   0  0  0  0  0
   69.4714   15.1958    4.6954 H   0  0  0  0  0
   70.9841   14.3259    5.2585 H   0  0  0  0  0
   71.9673   16.0602    4.5571 H   0  0  0  0  0
   71.2470   16.8434    6.1350 H   0  0  0  0  0
   71.3624   17.7367    3.6192 H   0  0  0  0  0
   70.3647   18.2992    5.0722 H   0  0  0  0  0
   69.4952   16.4128    2.8938 H   0  0  0  0  0
   68.5349   16.9542    4.2923 H   0  0  0  0  0
   69.0332   18.1257    3.0472 H   0  0  0  0  0
   68.1972   14.2074    8.5820 H   0  0  0  0  0
   69.3681   12.9028    8.6739 H   0  0  0  0  0
   67.8850   11.3667    8.1193 H   0  0  0  0  0
   66.2475   13.3066    9.6865 H   0  0  0  0  0
   67.7405   12.5483   10.3555 H   0  0  0  0  0
   66.6273   10.6173   10.7662 H   0  0  0  0  0
   66.0363   10.5331    9.1507 H   0  0  0  0  0
   64.1981   10.8837   10.7290 H   0  0  0  0  0
   64.3695   12.2823    9.6364 H   0  0  0  0  0
   65.4969   12.0741   12.4548 H   0  0  0  0  0
   65.6681   13.4709   11.3636 H   0  0  0  0  0
   64.0600   13.0096   11.9737 H   0  0  0  0  0
   66.5664   10.6117    6.9365 H   0  0  0  0  0
   64.3206   12.3143    6.0084 H   0  0  0  0  0
   66.1596   11.1341    4.0106 H   0  0  0  0  0
   65.7272   12.9009    4.3453 H   0  0  0  0  0
   64.6308   12.4347    2.4312 H   0  0  0  0  0
   63.3909   12.1073    3.7308 H   0  0  0  0  0
   62.7178    9.3601    1.6945 H   0  0  0  0  0
   62.3313   11.0695    1.9176 H   0  0  0  0  0
   62.3771   11.2673    5.7045 H   0  0  0  0  0
   62.3590    8.1522    5.4899 H   0  0  0  0  0
   60.3217    8.5777    6.9891 H   0  0  0  0  0
   61.0200   10.2661    7.1977 H   0  0  0  0  0
   62.8757    9.3485    8.4634 H   0  0  0  0  0
   62.6144    7.8208    8.0095 H   0  0  0  0  0
   60.1511    7.9099    8.8244 H   0  0  0  0  0
   60.3296    9.5571    9.1922 H   0  0  0  0  0
   62.5838    7.9880   10.3235 H   0  0  0  0  0
   59.2587    9.0017   11.1616 H   0  0  0  0  0
   61.5354    7.8879   13.6017 H   0  0  0  0  0
   62.8417    7.5696   12.4556 H   0  0  0  0  0
   59.7093    8.5467    3.0532 H   0  0  0  0  0
   60.5111    7.3023    4.0174 H   0  0  0  0  0
  1  2  2  0  0  0
  1  3  1  0  0  0
  1  4  1  0  0  0
  4  5  1  0  0  0
  5  6  1  0  0  0
  5  8  1  0  0  0
  6  7  2  0  0  0
  6 11  1  0  0  0
  8  9  1  0  0  0
  8 10  1  0  0  0
 11 12  1  0  0  0
 12 13  1  0  0  0
 12 15  1  0  0  0
 13 14  2  0  0  0
 13 19  1  0  0  0
 15 16  1  0  0  0
 15 17  1  0  0  0
 16 18  1  0  0  0
 19 20  1  0  0  0
 20 21  1  0  0  0
 20 22  1  0  0  0
 21 26  1  0  0  0
 22 23  1  0  0  0
 23 24  1  0  0  0
 24 25  1  0  0  0
 26 27  1  0  0  0
 27 28  1  0  0  0
 27 30  1  0  0  0
 28 29  2  0  0  0
 28 34  1  0  0  0
 30 31  1  0  0  0
 31 32  1  0  0  0
 32 33  1  0  0  0
 34 35  1  0  0  0
 35 36  1  0  0  0
 35 38  1  0  0  0
 36 37  2  0  0  0
 36 43  1  0  0  0
 38 39  1  0  0  0
 39 40  1  0  0  0
 40 41  2  0  0  0
 40 42  1  0  0  0
 43 44  1  0  0  0
 44 45  1  0  0  0
 44 47  1  0  0  0
 45 46  2  0  0  0
 45 54  1  0  0  0
 47 48  1  0  0  0
 48 49  1  0  0  0
 49 50  1  0  0  0
 50 51  1  0  0  0
 51 52  2  0  0  0
 51 53  1  0  0  0
  3 55  1  0  0  0
  3 56  1  0  0  0
  3 57  1  0  0  0
  4 58  1  0  0  0
  5 59  1  0  0  0
  8 60  1  0  0  0
  9 61  1  0  0  0
 10 62  1  0  0  0
 10 63  1  0  0  0
 10 64  1  0  0  0
 11 65  1  0  0  0
 12 66  1  0  0  0
 15 67  1  0  0  0
 16 68  1  0  0  0
 16 69  1  0  0  0
 17 70  1  0  0  0
 17 71  1  0  0  0
 17 72  1  0  0  0
 18 73  1  0  0  0
 18 74  1  0  0  0
 18 75  1  0  0  0
 19 76  1  0  0  0
 20 77  1  0  0  0
 21 78  1  0  0  0
 21 79  1  0  0  0
 22 80  1  0  0  0
 22 81  1  0  0  0
 23 82  1  0  0  0
 23 83  1  0  0  0
 24 84  1  0  0  0
 24 85  1  0  0  0
 25 86  1  0  0  0
 25 87  1  0  0  0
 25 88  1  0  0  0
 26 89  1  0  0  0
 26 90  1  0  0  0
 27 91  1  0  0  0
 30 92  1  0  0  0
 30 93  1  0  0  0
 31 94  1  0  0  0
 31 95  1  0  0  0
 32 96  1  0  0  0
 32 97  1  0  0  0
 33 98  1  0  0  0
 33 99  1  0  0  0
 33100  1  0  0  0
 34101  1  0  0  0
 35102  1  0  0  0
 38103  1  0  0  0
 38104  1  0  0  0
 39105  1  0  0  0
 39106  1  0  0  0
 42107  1  0  0  0
 42108  1  0  0  0
 43109  1  0  0  0
 44110  1  0  0  0
 47111  1  0  0  0
 47112  1  0  0  0
 48113  1  0  0  0
 48114  1  0  0  0
 49115  1  0  0  0
 49116  1  0  0  0
 50117  1  0  0  0
 52118  1  0  0  0
 53119  1  0  0  0
 53120  1  0  0  0
 54121  1  0  0  0
 54122  1  0  0  0
M  END
$$$$
