### 
### Created by X-TOOL on Mon Aug  2 16:15:31 2021
### 

@<TRIPOS>MOLECULE
6o57_ligand
  123   122     1     0     0
SMALL
GAST_HUCK


@<TRIPOS>ATOM
      1 C          73.0480   21.5370   10.6180 C.2       1 MOL         0.1752
      2 O          71.8330   21.6880   10.8190 O.2       1 MOL        -0.3972
      3 CH3        74.1160   22.0660   11.5010 C.3       1 MOL         0.0258
      4 N          73.6610   20.7930    9.6550 N.am      1 MOL        -0.2635
      5 CA         72.8950   20.2170    8.6570 C.3       1 MOL         0.1564
      6 C1         72.5480   18.7550    9.0570 C.2       1 MOL         0.2065
      7 O1         73.3460   17.7740    9.2460 O.2       1 MOL        -0.3943
      8 CB         73.5760   20.3340    7.2270 C.3       1 MOL         0.0924
      9 OG1        73.7650   21.6840    6.7680 O.3       1 MOL        -0.3874
     10 CG2        72.5880   19.7460    6.2870 C.3       1 MOL        -0.0346
     11 N1         71.3880   18.4430    9.1690 N.am      1 MOL        -0.2634
     12 CA1        70.9310   17.1120    9.4180 C.3       1 MOL         0.1334
     13 C2         70.0060   16.4170    8.4720 C.2       1 MOL         0.2023
     14 O2         68.7500   16.5670    8.2620 O.2       1 MOL        -0.3945
     15 CB1        70.2900   17.1350   10.8040 C.3       1 MOL        -0.0037
     16 CG1        70.8150   18.0760   11.9240 C.3       1 MOL        -0.0491
     17 CG21       69.9270   15.8010   11.2710 C.3       1 MOL        -0.0582
     18 CD1        72.3100   17.8330   12.3250 C.3       1 MOL        -0.0648
     19 N2         70.5300   15.6640    7.8240 N.am      1 MOL        -0.2769
     20 CA2        69.7410   15.0710    6.7640 C.3       1 MOL         0.0817
     21 C3         69.0840   13.7030    6.8880 C.3       1 MOL        -0.0081
     22 CB2        70.3120   15.1740    5.3890 C.3       1 MOL        -0.0249
     23 CG         71.1180   16.4150    5.1410 C.3       1 MOL        -0.0510
     24 CD         70.6010   17.5050    4.3640 C.3       1 MOL        -0.0558
     25 CE         69.3260   17.2300    3.5950 C.3       1 MOL        -0.0653
     26 N3         68.5800   13.3430    8.1990 N.4       1 MOL         0.2477
     27 CA3        67.4830   12.3650    8.2920 C.3       1 MOL         0.0668
     28 C4         66.4740   12.5060    7.2440 C.2       1 MOL         0.2268
     29 O3         65.7940   13.5350    6.8250 O.2       1 MOL        -0.3907
     30 CB3        66.9190   12.4490    9.6460 C.3       1 MOL         0.0079
     31 CG3        66.1330   11.2120    9.9980 C.3       1 MOL        -0.0460
     32 CD2        64.8360   11.7210   10.4460 C.3       1 MOL        -0.0556
     33 CE1        65.0290   12.6340   11.6450 C.3       1 MOL        -0.0653
     34 N4         66.0980   11.4900    6.7140 N.am      1 MOL        -0.2609
     35 CA4        64.9770   11.4830    5.7510 C.3       1 MOL         0.1331
     36 C5         64.0340   10.2650    5.9250 C.2       1 MOL         0.2040
     37 O4         64.4660    8.9630    5.9580 O.2       1 MOL        -0.3944
     38 CB4        65.4030   11.8610    4.3060 C.3       1 MOL         0.0045
     39 CG4        64.3220   11.7950    3.2580 C.3       1 MOL         0.0412
     40 CD3        64.1080   10.4540    2.7160 C.2       1 MOL         0.1737
     41 OE1        64.8210    9.5740    2.8770 O.2       1 MOL        -0.3973
     42 NE2        62.9630   10.2810    2.0580 N.am      1 MOL        -0.3009
     43 N5         62.7980   10.3410    5.7770 N.am      1 MOL        -0.2637
     44 CA5        61.8640    9.1010    5.6970 C.3       1 MOL         0.1307
     45 C6         60.8790    9.2620    4.6220 C.2       1 MOL         0.1992
     46 O5         60.5870   10.4200    4.3160 O.2       1 MOL        -0.3947
     47 CB5        61.2110    9.2070    7.0250 C.3       1 MOL        -0.0092
     48 CG5        62.0300    8.7270    8.1690 C.3       1 MOL        -0.0156
     49 CD4        60.9080    8.6360    9.1210 C.3       1 MOL         0.0627
     50 NE         61.6080    8.2730   10.4070 N.pl3     1 MOL        -0.2723
     51 CZ         61.1020    8.2810   11.6370 C.cat     1 MOL         0.2882
     52 NH1        59.8700    8.6800   11.9120 N.pl3     1 MOL        -0.2849
     53 NH2        61.8890    7.8810   12.6450 N.pl3     1 MOL        -0.2849
     54 N6         60.3180    8.2860    3.8290 N.am      1 MOL        -0.2990
     55 H1         75.0994   21.7903   11.0926 H         1 MOL         0.0467
     56 H2         74.0044   21.6383   12.5083 H         1 MOL         0.0467
     57 H3         74.0363   23.1617   11.5570 H         1 MOL         0.0467
     58 H4         74.6526   20.6648    9.6694 H         1 MOL         0.1883
     59 H5         71.9486   20.7749    8.6028 H         1 MOL         0.0826
     60 H6         74.5330   19.7918    7.2163 H         1 MOL         0.0639
     61 H7         74.1749   21.6715    5.9111 H         1 MOL         0.2101
     62 H8         72.9864   19.7884    5.2625 H         1 MOL         0.0257
     63 H9         71.6484   20.3157    6.3389 H         1 MOL         0.0257
     64 H10        72.3974   18.6985    6.5632 H         1 MOL         0.0257
     65 H11        70.7004   19.1638    9.0818 H         1 MOL         0.1883
     66 H12        71.8337   16.4849    9.4603 H         1 MOL         0.0802
     67 H13        69.3136   17.5915   10.5844 H         1 MOL         0.0345
     68 H14        70.1908   17.9289   12.8177 H         1 MOL         0.0267
     69 H15        70.7168   19.1145   11.5750 H         1 MOL         0.0267
     70 H16        69.5672   15.2007   10.4223 H         1 MOL         0.0235
     71 H17        69.1318   15.8809   12.0268 H         1 MOL         0.0235
     72 H18        70.8083   15.3158   11.7158 H         1 MOL         0.0235
     73 H19        72.5959   18.5385   13.1191 H         1 MOL         0.0230
     74 H20        72.9549   17.9878   11.4474 H         1 MOL         0.0230
     75 H21        72.4288   16.8022   12.6901 H         1 MOL         0.0230
     76 H22        71.4878   15.4168    7.9707 H         1 MOL         0.1857
     77 H23        68.8757   15.7498    6.7425 H         1 MOL         0.0609
     78 H24        69.8285   12.9473    6.5973 H         1 MOL         0.0837
     79 H25        68.2382   13.6737    6.1854 H         1 MOL         0.0837
     80 H26        69.4803   15.1551    4.6693 H         1 MOL         0.0289
     81 H27        70.9622   14.3028    5.2209 H         1 MOL         0.0289
     82 H28        72.0422   16.0894    4.6412 H         1 MOL         0.0266
     83 H29        71.3624   16.8286    6.1306 H         1 MOL         0.0266
     84 H30        71.3745   17.7970    3.6384 H         1 MOL         0.0263
     85 H31        70.4059   18.3431    5.0492 H         1 MOL         0.0263
     86 H32        69.0295   18.1333    3.0417 H         1 MOL         0.0230
     87 H33        68.5268   16.9516    4.2976 H         1 MOL         0.0230
     88 H34        69.4954   16.4054    2.8869 H         1 MOL         0.0230
     89 H35        68.2579   14.1922    8.6363 H         1 MOL         0.2036
     90 H36        69.3559   12.9688    8.7225 H         1 MOL         0.2036
     91 H37        67.9208   11.3629    8.1729 H         1 MOL         0.1099
     92 H38        66.2531   13.3227    9.7017 H         1 MOL         0.0346
     93 H39        67.7404   12.5673   10.3680 H         1 MOL         0.0346
     94 H40        66.6301   10.6507   10.8029 H         1 MOL         0.0269
     95 H41        66.0136   10.5629    9.1180 H         1 MOL         0.0269
     96 H42        64.1904   10.8768   10.7298 H         1 MOL         0.0263
     97 H43        64.3632   12.2858    9.6291 H         1 MOL         0.0263
     98 H44        64.0517   13.0138   11.9777 H         1 MOL         0.0230
     99 H45        65.6738   13.4791   11.3623 H         1 MOL         0.0230
    100 H46        65.5011   12.0701   12.4630 H         1 MOL         0.0230
    101 H47        66.5573   10.6289    6.9321 H         1 MOL         0.1885
    102 H48        64.3519   12.3336    6.0603 H         1 MOL         0.0801
    103 H49        66.2077   11.1753    4.0025 H         1 MOL         0.0337
    104 H50        65.7878   12.8913    4.3276 H         1 MOL         0.0337
    105 H51        64.6001   12.4636    2.4300 H         1 MOL         0.0504
    106 H52        63.3802   12.1415    3.7086 H         1 MOL         0.0504
    107 H53        62.7456    9.3905    1.6584 H         1 MOL         0.1814
    108 H54        62.3207   11.0417    1.9635 H         1 MOL         0.1814
    109 H55        62.3853   11.2491    5.7059 H         1 MOL         0.1883
    110 H56        62.4190    8.1596    5.5712 H         1 MOL         0.0800
    111 H57        60.2840    8.6155    6.9974 H         1 MOL         0.0313
    112 H58        60.9660   10.2648    7.2011 H         1 MOL         0.0313
    113 H59        62.7955    9.4531    8.4800 H         1 MOL         0.0301
    114 H60        62.5049    7.7539    7.9751 H         1 MOL         0.0301
    115 H61        60.1937    7.8548    8.8218 H         1 MOL         0.0689
    116 H62        60.3826    9.5982    9.2111 H         1 MOL         0.0689
    117 H63        62.5934    7.9852   10.3227 H         1 MOL         0.2642
    118 H64        59.5288    8.6655   12.8837 H         1 MOL         0.2615
    119 H65        59.2527    9.0049   11.1542 H         1 MOL         0.2615
    120 H66        62.8510    7.5666   12.4537 H         1 MOL         0.2615
    121 H67        61.5320    7.8880   13.6111 H         1 MOL         0.2615
    122 H68        59.6520    8.5348    3.1258 H         1 MOL         0.1815
    123 H69        60.5766    7.3284    3.9563 H         1 MOL         0.1815
@<TRIPOS>BOND
     1    1    2 2  
     2    1    3 1  
     3    1    4 am 
     4    4    5 1  
     5    5    6 1  
     6    5    8 1  
     7    6    7 2  
     8    6   11 am 
     9    8    9 1  
    10    8   10 1  
    11   11   12 1  
    12   12   13 1  
    13   12   15 1  
    14   13   14 2  
    15   13   19 am 
    16   15   16 1  
    17   15   17 1  
    18   16   18 1  
    19   19   20 1  
    20   20   21 1  
    21   20   22 1  
    22   21   26 1  
    23   22   23 1  
    24   23   24 1  
    25   24   25 1  
    26   26   27 1  
    27   27   28 1  
    28   27   30 1  
    29   28   29 2  
    30   28   34 am 
    31   30   31 1  
    32   31   32 1  
    33   32   33 1  
    34   34   35 1  
    35   35   36 1  
    36   35   38 1  
    37   36   37 2  
    38   36   43 am 
    39   38   39 1  
    40   39   40 1  
    41   40   41 2  
    42   40   42 am 
    43   43   44 1  
    44   44   45 1  
    45   44   47 1  
    46   45   46 2  
    47   45   54 am 
    48   47   48 1  
    49   48   49 1  
    50   49   50 1  
    51   50   51 ar 
    52   51   52 ar 
    53   51   53 ar 
    54    3   55 1  
    55    3   56 1  
    56    3   57 1  
    57    4   58 1  
    58    5   59 1  
    59    8   60 1  
    60    9   61 1  
    61   10   62 1  
    62   10   63 1  
    63   10   64 1  
    64   11   65 1  
    65   12   66 1  
    66   15   67 1  
    67   16   68 1  
    68   16   69 1  
    69   17   70 1  
    70   17   71 1  
    71   17   72 1  
    72   18   73 1  
    73   18   74 1  
    74   18   75 1  
    75   19   76 1  
    76   20   77 1  
    77   21   78 1  
    78   21   79 1  
    79   22   80 1  
    80   22   81 1  
    81   23   82 1  
    82   23   83 1  
    83   24   84 1  
    84   24   85 1  
    85   25   86 1  
    86   25   87 1  
    87   25   88 1  
    88   26   89 1  
    89   26   90 1  
    90   27   91 1  
    91   30   92 1  
    92   30   93 1  
    93   31   94 1  
    94   31   95 1  
    95   32   96 1  
    96   32   97 1  
    97   33   98 1  
    98   33   99 1  
    99   33  100 1  
   100   34  101 1  
   101   35  102 1  
   102   38  103 1  
   103   38  104 1  
   104   39  105 1  
   105   39  106 1  
   106   42  107 1  
   107   42  108 1  
   108   43  109 1  
   109   44  110 1  
   110   47  111 1  
   111   47  112 1  
   112   48  113 1  
   113   48  114 1  
   114   49  115 1  
   115   49  116 1  
   116   50  117 1  
   117   52  118 1  
   118   52  119 1  
   119   53  120 1  
   120   53  121 1  
   121   54  122 1  
   122   54  123 1  
@<TRIPOS>SUBSTRUCTURE
     1 MOL         1

