1ftk_ligand
  -I-interpret- 

 33 33  0  0  0  0  0  0  0  0999 V2000
   -8.5750    9.5990    8.3570 N   0  3  0  0  0
   -9.7500   10.1070    9.1550 C   0  0  0  0  0
  -12.3640   11.2250    9.4980 C   0  0  0  0  0
  -12.3090   12.8460    7.6680 C   0  0  0  0  0
   -8.6910   10.1310    7.0230 C   0  0  0  0  0
  -10.0910   10.6490    6.7990 C   0  0  0  0  0
  -11.2300    9.5660    6.5310 C   0  0  0  0  0
  -10.3860   11.1850    8.1640 C   0  0  0  0  0
  -11.2260    9.1240    5.0600 C   0  0  0  0  0
  -11.7560   11.7700    8.5180 C   0  0  0  0  0
   -7.5940   11.1850    6.7100 C   0  0  0  0  0
   -6.6660   11.2560    7.5430 O   0  0  0  0  0
  -11.9440    8.1440    4.8060 O   0  0  0  0  0
  -10.5560    9.7770    4.2320 O   0  0  0  0  0
   -7.7520   11.8560    5.6600 O   0  0  0  0  0
   -8.5747    8.5793    8.3344 H   0  0  0  0  0
   -7.6987    9.8986    8.7844 H   0  0  0  0  0
   -9.4666   10.5243   10.1212 H   0  0  0  0  0
  -10.4482    9.3207    9.4420 H   0  0  0  0  0
  -12.5337   10.1710    9.2779 H   0  0  0  0  0
  -11.7553   11.3162   10.3976 H   0  0  0  0  0
  -13.3208   11.7237    9.6530 H   0  0  0  0  0
  -11.6317   13.7000    7.6786 H   0  0  0  0  0
  -12.4190   12.4805    6.6470 H   0  0  0  0  0
  -13.2826   13.1480    8.0540 H   0  0  0  0  0
   -8.5171    9.3242    6.3110 H   0  0  0  0  0
  -10.1066   11.2995    5.9245 H   0  0  0  0  0
  -12.1985   10.0094    6.7624 H   0  0  0  0  0
  -11.0431    8.6958    7.1603 H   0  0  0  0  0
   -9.9328   12.1720    8.2558 H   0  0  0  0  0
  -12.2358   12.6580    8.9295 H   0  0  0  0  0
  -10.0902   10.4836    4.6851 H   0  0  0  0  0
   -8.5599   11.5779    5.2224 H   0  0  0  0  0
  1  2  1  0  0  0
  1  5  1  0  0  0
  2  8  1  0  0  0
  5  6  1  0  0  0
  5 11  1  0  0  0
  6  7  1  0  0  0
  6  8  1  0  0  0
  7  9  1  0  0  0
  8 10  1  0  0  0
  9 13  2  0  0  0
  9 14  1  0  0  0
 11 12  2  0  0  0
 11 15  1  0  0  0
 10  4  1  0  0  0
 10  3  1  0  0  0
  1 16  1  0  0  0
  1 17  1  0  0  0
  2 18  1  0  0  0
  2 19  1  0  0  0
  3 20  1  0  0  0
  3 21  1  0  0  0
  3 22  1  0  0  0
  4 23  1  0  0  0
  4 24  1  0  0  0
  4 25  1  0  0  0
  5 26  1  0  0  0
  6 27  1  0  0  0
  7 28  1  0  0  0
  7 29  1  0  0  0
  8 30  1  0  0  0
 10 31  1  0  0  0
 14 32  1  0  0  0
 15 33  1  0  0  0
M  END
$$$$
