5yso_ligand
  -I-interpret- 

 73 76  0  0  0  0  0  0  0  0999 V2000
   73.5490   -1.9610  152.2860 C   0  0  0  0  0
   72.2750   -0.8350  149.9430 C   0  0  0  0  0
   73.4860   -2.6740  151.1710 C   0  0  0  0  0
   72.4340    1.1420  148.3240 C   0  0  0  0  0
   73.9280    3.5020  147.6850 C   0  0  0  0  0
   74.6680    2.1930  147.9970 C   0  0  0  0  0
   71.0700   -1.0310  147.5340 C   0  0  0  0  0
   69.2220    0.4390  146.6570 C   0  0  0  0  0
   76.8460   -3.8100  157.4830 C   0  0  0  0  0
   75.5980   -4.3530  156.8600 C   0  0  0  0  0
   75.8480   -5.8690  156.5590 C   0  0  0  0  0
   75.7220   -4.1170  154.6070 C   0  0  0  0  0
   74.6580   -3.9040  153.5240 C   0  0  0  0  0
   74.4310   -1.6720  154.6680 C   0  0  0  0  0
   75.1330   -2.3860  155.8690 C   0  0  0  0  0
   72.9460   -0.5380  152.3220 C   0  0  0  0  0
   72.3740   -0.0190  151.2320 C   0  0  0  0  0
   72.7930   -2.0900  149.9030 C   0  0  0  0  0
   71.5900   -0.1400  148.7200 C   0  0  0  0  0
   71.8080    2.2850  148.0600 C   0  0  0  0  0
   72.5970    3.5550  147.7170 C   0  0  0  0  0
   73.9700    1.0890  148.2980 C   0  0  0  0  0
   70.5360   -0.2440  146.3100 C   0  0  0  0  0
   68.3790    0.4080  145.3900 C   0  0  0  0  0
   70.1500   -2.1770  148.0130 C   0  0  0  0  0
   70.3040   -3.3850  147.4990 C   0  0  0  0  0
   69.4040   -4.5310  147.9850 C   0  0  0  0  0
   68.4810   -4.3060  148.9140 C   0  0  0  0  0
   68.3000   -2.8990  149.4790 C   0  0  0  0  0
   69.0900   -1.9100  149.0860 C   0  0  0  0  0
   75.1990   -3.6910  155.7570 N   0  3  0  0  0
   74.2080   -2.5170  153.5050 N   0  0  0  0  0
   74.6370    4.6750  147.3630 O   0  0  0  0  0
   68.9960    1.2150  144.4410 O   0  0  0  0  0
   73.9206   -3.6731  151.1404 H   0  0  0  0  0
   75.7573    2.1618  147.9737 H   0  0  0  0  0
   71.9591   -1.5174  147.1328 H   0  0  0  0  0
   69.3882    1.4625  146.9932 H   0  0  0  0  0
   68.7179   -0.0728  147.4768 H   0  0  0  0  0
   77.0569   -4.3534  158.4041 H   0  0  0  0  0
   77.6786   -3.9304  156.7899 H   0  0  0  0  0
   76.7081   -2.7522  157.7071 H   0  0  0  0  0
   74.7752   -4.2185  157.5622 H   0  0  0  0  0
   76.6913   -5.9682  155.8756 H   0  0  0  0  0
   76.0696   -6.3912  157.4898 H   0  0  0  0  0
   74.9565   -6.2994  156.1028 H   0  0  0  0  0
   76.6307   -3.5643  154.3686 H   0  0  0  0  0
   75.9974   -5.1694  154.6752 H   0  0  0  0  0
   73.8046   -4.5472  153.7387 H   0  0  0  0  0
   75.0912   -4.1460  152.5535 H   0  0  0  0  0
   75.0891   -0.8630  154.3510 H   0  0  0  0  0
   73.4506   -1.3502  155.0192 H   0  0  0  0  0
   74.5433   -2.1699  156.7599 H   0  0  0  0  0
   76.1572   -2.0152  155.9084 H   0  0  0  0  0
   72.9878    0.0452  153.2419 H   0  0  0  0  0
   71.9745    0.9947  151.2619 H   0  0  0  0  0
   72.7246   -2.6838  148.9915 H   0  0  0  0  0
   70.6037    0.1720  149.0634 H   0  0  0  0  0
   70.7189    2.3200  148.0877 H   0  0  0  0  0
   72.0759    4.4880  147.5024 H   0  0  0  0  0
   74.4894    0.1576  148.5234 H   0  0  0  0  0
   70.3709   -0.9368  145.4848 H   0  0  0  0  0
   71.2672    0.5127  146.0258 H   0  0  0  0  0
   67.3738    0.7744  145.5985 H   0  0  0  0  0
   68.2967   -0.6134  145.0183 H   0  0  0  0  0
   71.0625   -3.5662  146.7375 H   0  0  0  0  0
   69.5227   -5.5306  147.5670 H   0  0  0  0  0
   67.8549   -5.1234  149.2717 H   0  0  0  0  0
   67.5154   -2.7066  150.2108 H   0  0  0  0  0
   68.9864   -0.9164  149.5221 H   0  0  0  0  0
   74.2209   -3.9731  155.6930 H   0  0  0  0  0
   74.0157    5.3884  147.1997 H   0  0  0  0  0
   68.4786    1.2089  143.6324 H   0  0  0  0  0
  1  3  4  0  0  0
  1 16  4  0  0  0
 32  1  1  0  0  0
  2 17  4  0  0  0
 18  2  4  0  0  0
  2 19  1  0  0  0
  3 18  4  0  0  0
 19  4  1  0  0  0
  4 20  4  0  0  0
  4 22  4  0  0  0
  6  5  4  0  0  0
  5 21  4  0  0  0
  5 33  1  0  0  0
 22  6  4  0  0  0
 19  7  1  0  0  0
  7 23  1  0  0  0
  7 25  1  0  0  0
 23  8  1  0  0  0
  8 24  1  0  0  0
 10  9  1  0  0  0
 10 11  1  0  0  0
 31 10  1  0  0  0
 13 12  1  0  0  0
 12 31  1  0  0  0
 32 13  1  0  0  0
 14 15  1  0  0  0
 14 32  1  0  0  0
 15 31  1  0  0  0
 16 17  4  0  0  0
 20 21  4  0  0  0
 24 34  1  0  0  0
 25 26  4  0  0  0
 25 30  4  0  0  0
 26 27  4  0  0  0
 27 28  4  0  0  0
 28 29  4  0  0  0
 29 30  4  0  0  0
  3 35  1  0  0  0
  6 36  1  0  0  0
  7 37  1  0  0  0
  8 38  1  0  0  0
  8 39  1  0  0  0
  9 40  1  0  0  0
  9 41  1  0  0  0
  9 42  1  0  0  0
 10 43  1  0  0  0
 11 44  1  0  0  0
 11 45  1  0  0  0
 11 46  1  0  0  0
 12 47  1  0  0  0
 12 48  1  0  0  0
 13 49  1  0  0  0
 13 50  1  0  0  0
 14 51  1  0  0  0
 14 52  1  0  0  0
 15 53  1  0  0  0
 15 54  1  0  0  0
 16 55  1  0  0  0
 17 56  1  0  0  0
 18 57  1  0  0  0
 19 58  1  0  0  0
 20 59  1  0  0  0
 21 60  1  0  0  0
 22 61  1  0  0  0
 23 62  1  0  0  0
 23 63  1  0  0  0
 24 64  1  0  0  0
 24 65  1  0  0  0
 26 66  1  0  0  0
 27 67  1  0  0  0
 28 68  1  0  0  0
 29 69  1  0  0  0
 30 70  1  0  0  0
 31 71  1  0  0  0
 33 72  1  0  0  0
 34 73  1  0  0  0
M  END
$$$$
