### 
### Created by X-TOOL on Mon Sep 10 21:13:12 2018
### 

@<TRIPOS>MOLECULE
4gne_ligand
  104   103     1     0     0
SMALL
GAST_HUCK


@<TRIPOS>ATOM
      1 N           8.7300  -30.7640    9.0740 N.4       1 ALA         0.2377
      2 CA          8.3660  -29.4180    8.5400 C.3       1 ALA         0.0621
      3 C           8.8670  -28.3260    9.4820 C.2       1 ALA         0.2264
      4 O           8.9730  -28.5400   10.6930 O.2       1 ALA        -0.3907
      5 CB          6.8650  -29.3120    8.3630 C.3       1 ALA        -0.0040
      6 N           9.1650  -27.1600    8.9120 N.am      1 ARG        -0.2610
      7 CA          9.8190  -26.0550    9.6010 C.3       1 ARG         0.1312
      8 C           8.8580  -24.9820   10.0500 C.2       1 ARG         0.2040
      9 O           7.7930  -24.8160    9.4620 O.2       1 ARG        -0.3944
     10 CB         10.8050  -25.3920    8.6500 C.3       1 ARG        -0.0092
     11 CG         11.8770  -26.3230    8.1230 C.3       1 ARG        -0.0156
     12 CD         12.4430  -25.7750    6.8150 C.3       1 ARG         0.0627
     13 NE         11.4060  -25.7590    5.7790 N.pl3     1 ARG        -0.2723
     14 CZ         11.3790  -24.9370    4.7370 C.cat     1 ARG         0.2882
     15 NH1        12.3610  -24.0600    4.5440 N.pl3     1 ARG        -0.2849
     16 NH2        10.3700  -25.0090    3.8740 N.pl3     1 ARG        -0.2849
     17 N           9.2790  -24.2130   11.0490 N.am      1 THR        -0.2613
     18 CA          8.5620  -23.0110   11.4420 C.3       1 THR         0.1565
     19 C           9.4070  -21.7410   11.3010 C.2       1 THR         0.2065
     20 O          10.6470  -21.7700   11.2430 O.2       1 THR        -0.3943
     21 CB          8.0530  -23.0720   12.8940 C.3       1 THR         0.0924
     22 OG1         9.1690  -23.1600   13.7830 O.3       1 THR        -0.3874
     23 CG2         7.1130  -24.2620   13.1020 C.3       1 THR        -0.0346
     24 N           8.7110  -20.6170   11.2380 N.am      1 LYS        -0.2637
     25 CA          9.3420  -19.3220   11.3430 C.3       1 LYS         0.1310
     26 C           8.5660  -18.5240   12.3870 C.2       1 LYS         0.2039
     27 O           7.4340  -18.8820   12.7490 O.2       1 LYS        -0.3944
     28 CB          9.3450  -18.5930    9.9950 C.3       1 LYS        -0.0122
     29 CG          8.0040  -18.4930    9.2970 C.3       1 LYS        -0.0440
     30 CD          8.1190  -17.6690    8.0230 C.3       1 LYS        -0.0124
     31 CE          8.2830  -16.1910    8.3210 C.3       1 LYS        -0.0354
     32 NZ          8.5760  -15.4120    7.0860 N.4       1 LYS         0.2185
     33 N           9.1830  -17.4540   12.8730 N.am      1 GLN        -0.2636
     34 CA          8.5850  -16.6080   13.8850 C.3       1 GLN         0.1330
     35 C           8.5340  -15.1900   13.3560 C.2       1 GLN         0.2036
     36 O           9.5360  -14.6800   12.8440 O.2       1 GLN        -0.3944
     37 CB          9.4270  -16.6510   15.1640 C.3       1 GLN         0.0045
     38 CG          8.8360  -15.8320   16.2950 C.3       1 GLN         0.0412
     39 CD          7.4990  -16.3550   16.7780 C.2       1 GLN         0.1737
     40 OE1         6.5570  -15.5810   16.9850 O.2       1 GLN        -0.3973
     41 NE2         7.4070  -17.6680   16.9710 N.am      1 GLN        -0.3009
     42 N           7.3670  -14.5620   13.4760 N.am      1 THR        -0.2670
     43 CA          7.2010  -13.1530   13.1120 C.3       1 THR         0.1198
     44 C           6.6170  -12.3240   14.2540 C.2       1 THR         0.0626
     45 O           6.2749  -12.8643   15.3397 O.co2     1 THR        -0.5665
     46 CB          6.3130  -13.0050   11.8730 C.3       1 THR         0.0869
     47 OG1         5.0070  -13.5300   12.1560 O.3       1 THR        -0.3880
     48 CG2         6.9160  -13.7800   10.7300 C.3       1 THR        -0.0352
     49 O           6.4752  -11.0805   14.1082 O.co2     1 THR        -0.5665
     50 H1          8.3948  -31.4769    8.4451 H         1 ALA         0.2015
     51 H2          8.3086  -30.8909    9.9808 H         1 ALA         0.2015
     52 H3          9.7322  -30.8330    9.1565 H         1 ALA         0.2015
     53 H4          8.8465  -29.2856    7.5594 H         1 ALA         0.1095
     54 H5          6.6116  -28.3165    7.9695 H         1 ALA         0.0310
     55 H6          6.3699  -29.4592    9.3342 H         1 ALA         0.0310
     56 H7          6.5237  -30.0832    7.6568 H         1 ALA         0.0310
     57 H8          8.9246  -27.0347    7.9495 H         1 ARG         0.1884
     58 H9         10.3515  -26.4519   10.4779 H         1 ARG         0.0800
     59 H10        11.2971  -24.5655    9.1836 H         1 ARG         0.0313
     60 H11        10.2430  -24.9922    7.7931 H         1 ARG         0.0313
     61 H12        11.4412  -27.3170    7.9439 H         1 ARG         0.0301
     62 H13        12.6855  -26.4052    8.8643 H         1 ARG         0.0301
     63 H14        13.2761  -26.4128    6.4846 H         1 ARG         0.0689
     64 H15        12.8082  -24.7504    6.9787 H         1 ARG         0.0689
     65 H16        10.6376  -26.4393    5.8665 H         1 ARG         0.2642
     66 H17        12.3329  -23.4255    3.7331 H         1 ARG         0.2615
     67 H18        13.1492  -24.0156    5.2055 H         1 ARG         0.2615
     68 H19         9.6107  -25.6884    4.0249 H         1 ARG         0.2615
     69 H20        10.3477  -24.3853    3.0546 H         1 ARG         0.2615
     70 H21        10.1103  -24.4678   11.5430 H         1 THR         0.1884
     71 H22         7.6913  -22.9195   10.7760 H         1 THR         0.0826
     72 H23         7.4978  -22.1476   13.1114 H         1 THR         0.0639
     73 H24         9.6674  -23.9446   13.5871 H         1 THR         0.2101
     74 H25         6.7674  -24.2781   14.1462 H         1 THR         0.0257
     75 H26         7.6492  -25.1962   12.8789 H         1 THR         0.0257
     76 H27         6.2469  -24.1669   12.4306 H         1 THR         0.0257
     77 H28         7.7199  -20.6657   11.1142 H         1 LYS         0.1883
     78 H29        10.3823  -19.4491   11.6770 H         1 LYS         0.0800
     79 H30        10.0355  -19.1257    9.3246 H         1 LYS         0.0312
     80 H31         9.7142  -17.5708   10.1648 H         1 LYS         0.0312
     81 H32         7.2804  -18.0135    9.9727 H         1 LYS         0.0269
     82 H33         7.6536  -19.5041    9.0423 H         1 LYS         0.0269
     83 H34         7.2083  -17.8123    7.4229 H         1 LYS         0.0317
     84 H35         8.9928  -18.0161    7.4521 H         1 LYS         0.0317
     85 H36         9.1129  -16.0599    9.0310 H         1 LYS         0.0813
     86 H37         7.3530  -15.8120    8.7699 H         1 LYS         0.0813
     87 H38         8.6786  -14.4370    7.3202 H         1 LYS         0.1994
     88 H39         7.8175  -15.5222    6.4313 H         1 LYS         0.1994
     89 H40         9.4302  -15.7494    6.6706 H         1 LYS         0.1994
     90 H41        10.0930  -17.2239   12.5282 H         1 GLN         0.1883
     91 H42         7.5660  -16.9585   14.1058 H         1 GLN         0.0801
     92 H43        10.4296  -16.2602   14.9360 H         1 GLN         0.0337
     93 H44         9.5076  -17.6970   15.4947 H         1 GLN         0.0337
     94 H45         8.7004  -14.7984   15.9439 H         1 GLN         0.0504
     95 H46         9.5409  -15.8429   17.1394 H         1 GLN         0.0504
     96 H47         6.5474  -18.0675   17.2895 H         1 GLN         0.1814
     97 H48         8.1975  -18.2555   16.7976 H         1 GLN         0.1814
     98 H49         6.5785  -15.0680   13.8257 H         1 THR         0.1876
     99 H50         8.1963  -12.7501   12.8731 H         1 THR         0.0752
    100 H51         6.2342  -11.9424   11.5998 H         1 THR         0.0632
    101 H52         4.4566  -13.4380   11.3873 H         1 THR         0.2100
    102 H53         6.2792  -13.6746    9.8393 H         1 THR         0.0256
    103 H54         6.9885  -14.8425   11.0052 H         1 THR         0.0256
    104 H55         7.9204  -13.3886   10.5110 H         1 THR         0.0256
@<TRIPOS>BOND
     1    1    2 1  
     2    2    3 1  
     3    2    5 1  
     4    3    4 2  
     5    3    6 am 
     6    6    7 1  
     7    7    8 1  
     8    7   10 1  
     9    8    9 2  
    10    8   17 am 
    11   10   11 1  
    12   11   12 1  
    13   12   13 1  
    14   13   14 ar 
    15   14   15 ar 
    16   14   16 ar 
    17   17   18 1  
    18   18   19 1  
    19   18   21 1  
    20   19   20 2  
    21   19   24 am 
    22   21   22 1  
    23   21   23 1  
    24   24   25 1  
    25   25   26 1  
    26   25   28 1  
    27   26   27 2  
    28   26   33 am 
    29   28   29 1  
    30   29   30 1  
    31   30   31 1  
    32   31   32 1  
    33   33   34 1  
    34   34   35 1  
    35   34   37 1  
    36   35   36 2  
    37   35   42 am 
    38   37   38 1  
    39   38   39 1  
    40   39   40 2  
    41   39   41 am 
    42   42   43 1  
    43   43   44 1  
    44   43   46 1  
    45   44   45 ar 
    46   46   47 1  
    47   46   48 1  
    48   44   49 ar 
    49    1   50 1  
    50    1   51 1  
    51    1   52 1  
    52    2   53 1  
    53    5   54 1  
    54    5   55 1  
    55    5   56 1  
    56    6   57 1  
    57    7   58 1  
    58   10   59 1  
    59   10   60 1  
    60   11   61 1  
    61   11   62 1  
    62   12   63 1  
    63   12   64 1  
    64   13   65 1  
    65   15   66 1  
    66   15   67 1  
    67   16   68 1  
    68   16   69 1  
    69   17   70 1  
    70   18   71 1  
    71   21   72 1  
    72   22   73 1  
    73   23   74 1  
    74   23   75 1  
    75   23   76 1  
    76   24   77 1  
    77   25   78 1  
    78   28   79 1  
    79   28   80 1  
    80   29   81 1  
    81   29   82 1  
    82   30   83 1  
    83   30   84 1  
    84   31   85 1  
    85   31   86 1  
    86   32   87 1  
    87   32   88 1  
    88   32   89 1  
    89   33   90 1  
    90   34   91 1  
    91   37   92 1  
    92   37   93 1  
    93   38   94 1  
    94   38   95 1  
    95   41   96 1  
    96   41   97 1  
    97   42   98 1  
    98   43   99 1  
    99   46  100 1  
   100   47  101 1  
   101   48  102 1  
   102   48  103 1  
   103   48  104 1  
@<TRIPOS>SUBSTRUCTURE
     1 ALA         1

