4gne_ligand
  -I-interpret- 

104103  0  0  0  0  0  0  0  0999 V2000
    8.7300  -30.7640    9.0740 N   0  3  0  0  0
    8.3660  -29.4180    8.5400 C   0  0  0  0  0
    8.8670  -28.3260    9.4820 C   0  0  0  0  0
    8.9730  -28.5400   10.6930 O   0  0  0  0  0
    6.8650  -29.3120    8.3630 C   0  0  0  0  0
    9.1650  -27.1600    8.9120 N   0  0  0  0  0
    9.8190  -26.0550    9.6010 C   0  0  0  0  0
    8.8580  -24.9820   10.0500 C   0  0  0  0  0
    7.7930  -24.8160    9.4620 O   0  0  0  0  0
   10.8050  -25.3920    8.6500 C   0  0  0  0  0
   11.8770  -26.3230    8.1230 C   0  0  0  0  0
   12.4430  -25.7750    6.8150 C   0  0  0  0  0
   11.4060  -25.7590    5.7790 N   0  0  0  0  0
   11.3790  -24.9370    4.7370 C   0  0  0  0  0
   12.3610  -24.0600    4.5440 N   0  0  0  0  0
   10.3700  -25.0090    3.8740 N   0  0  0  0  0
    9.2790  -24.2130   11.0490 N   0  0  0  0  0
    8.5620  -23.0110   11.4420 C   0  0  0  0  0
    9.4070  -21.7410   11.3010 C   0  0  0  0  0
   10.6470  -21.7700   11.2430 O   0  0  0  0  0
    8.0530  -23.0720   12.8940 C   0  0  0  0  0
    9.1690  -23.1600   13.7830 O   0  0  0  0  0
    7.1130  -24.2620   13.1020 C   0  0  0  0  0
    8.7110  -20.6170   11.2380 N   0  0  0  0  0
    9.3420  -19.3220   11.3430 C   0  0  0  0  0
    8.5660  -18.5240   12.3870 C   0  0  0  0  0
    7.4340  -18.8820   12.7490 O   0  0  0  0  0
    9.3450  -18.5930    9.9950 C   0  0  0  0  0
    8.0040  -18.4930    9.2970 C   0  0  0  0  0
    8.1190  -17.6690    8.0230 C   0  0  0  0  0
    8.2830  -16.1910    8.3210 C   0  0  0  0  0
    8.5760  -15.4120    7.0860 N   0  3  0  0  0
    9.1830  -17.4540   12.8730 N   0  0  0  0  0
    8.5850  -16.6080   13.8850 C   0  0  0  0  0
    8.5340  -15.1900   13.3560 C   0  0  0  0  0
    9.5360  -14.6800   12.8440 O   0  0  0  0  0
    9.4270  -16.6510   15.1640 C   0  0  0  0  0
    8.8360  -15.8320   16.2950 C   0  0  0  0  0
    7.4990  -16.3550   16.7780 C   0  0  0  0  0
    6.5570  -15.5810   16.9850 O   0  0  0  0  0
    7.4070  -17.6680   16.9710 N   0  0  0  0  0
    7.3670  -14.5620   13.4760 N   0  0  0  0  0
    7.2010  -13.1530   13.1120 C   0  0  0  0  0
    6.6170  -12.3240   14.2540 C   0  0  0  0  0
    6.2749  -12.8643   15.3397 O   0  0  0  0  0
    6.3130  -13.0050   11.8730 C   0  0  0  0  0
    5.0070  -13.5300   12.1560 O   0  0  0  0  0
    6.9160  -13.7800   10.7300 C   0  0  0  0  0
    6.4752  -11.0805   14.1082 O   0  0  0  0  0
    9.7420  -30.8209    9.1879 H   0  0  0  0  0
    8.2766  -30.9043    9.9768 H   0  0  0  0  0
    8.4192  -31.4831    8.4207 H   0  0  0  0  0
    8.8406  -29.2862    7.5677 H   0  0  0  0  0
    6.3774  -29.4252    9.3312 H   0  0  0  0  0
    6.6180  -28.3373    7.9421 H   0  0  0  0  0
    6.5236  -30.0974    7.6887 H   0  0  0  0  0
    8.9198  -27.0321    7.9302 H   0  0  0  0  0
   10.3004  -26.4822   10.4807 H   0  0  0  0  0
   11.3091  -24.6023    9.2071 H   0  0  0  0  0
   10.2356  -25.0368    7.7911 H   0  0  0  0  0
   11.4428  -27.3064    7.9431 H   0  0  0  0  0
   12.6787  -26.4008    8.8573 H   0  0  0  0  0
   13.2636  -26.4133    6.4873 H   0  0  0  0  0
   12.7975  -24.7575    6.9793 H   0  0  0  0  0
   10.6451  -26.4327    5.8656 H   0  0  0  0  0
   12.3405  -23.4417    3.7331 H   0  0  0  0  0
   13.1343  -24.0061    5.2070 H   0  0  0  0  0
    9.6255  -25.6916    4.0157 H   0  0  0  0  0
   10.1269  -24.4729   11.5528 H   0  0  0  0  0
    7.7169  -22.9667   10.7550 H   0  0  0  0  0
    7.4882  -22.1638   13.1044 H   0  0  0  0  0
    8.8530  -23.1981   14.6887 H   0  0  0  0  0
    6.2553  -24.1666   12.4361 H   0  0  0  0  0
    7.6454  -25.1870   12.8806 H   0  0  0  0  0
    6.7712  -24.2768   14.1369 H   0  0  0  0  0
    7.7001  -20.6667   11.1117 H   0  0  0  0  0
   10.3848  -19.4348   11.6395 H   0  0  0  0  0
    9.9936  -19.1689    9.3349 H   0  0  0  0  0
    9.6633  -17.5706   10.1985 H   0  0  0  0  0
    7.2941  -18.0078    9.9669 H   0  0  0  0  0
    7.6668  -19.4965    9.0376 H   0  0  0  0  0
    7.2046  -17.8025    7.4449 H   0  0  0  0  0
    8.9979  -18.0074    7.4743 H   0  0  0  0  0
    9.1179  -16.0694    9.0111 H   0  0  0  0  0
    7.3515  -15.8205    8.7490 H   0  0  0  0  0
    8.6796  -14.4256    7.3242 H   0  0  0  0  0
    9.4405  -15.7544    6.6666 H   0  0  0  0  0
    7.8079  -15.5244    6.4243 H   0  0  0  0  0
   10.1112  -17.2193   12.5213 H   0  0  0  0  0
    7.5792  -16.9590   14.1158 H   0  0  0  0  0
   10.4060  -16.2329   14.9296 H   0  0  0  0  0
    9.4720  -17.6884   15.4955 H   0  0  0  0  0
    8.6786  -14.8201   15.9218 H   0  0  0  0  0
    9.5306  -15.8789   17.1337 H   0  0  0  0  0
    6.5325  -18.0746   17.3032 H   0  0  0  0  0
    8.2109  -18.2681   16.7868 H   0  0  0  0  0
    6.5627  -15.0781   13.8327 H   0  0  0  0  0
    8.1989  -12.7738   12.8918 H   0  0  0  0  0
    6.4445  -13.8081   15.2935 H   0  0  0  0  0
    6.2371  -11.9510   11.6058 H   0  0  0  0  0
    4.4507  -13.4370   11.3791 H   0  0  0  0  0
    7.9111  -13.3912   10.5141 H   0  0  0  0  0
    6.9873  -14.8326   11.0040 H   0  0  0  0  0
    6.2842  -13.6748    9.8480 H   0  0  0  0  0
  1  2  1  0  0  0
  2  3  1  0  0  0
  2  5  1  0  0  0
  3  4  2  0  0  0
  3  6  1  0  0  0
  6  7  1  0  0  0
  7  8  1  0  0  0
  7 10  1  0  0  0
  8  9  2  0  0  0
  8 17  1  0  0  0
 10 11  1  0  0  0
 11 12  1  0  0  0
 12 13  1  0  0  0
 13 14  1  0  0  0
 14 15  1  0  0  0
 14 16  2  0  0  0
 17 18  1  0  0  0
 18 19  1  0  0  0
 18 21  1  0  0  0
 19 20  2  0  0  0
 19 24  1  0  0  0
 21 22  1  0  0  0
 21 23  1  0  0  0
 24 25  1  0  0  0
 25 26  1  0  0  0
 25 28  1  0  0  0
 26 27  2  0  0  0
 26 33  1  0  0  0
 28 29  1  0  0  0
 29 30  1  0  0  0
 30 31  1  0  0  0
 31 32  1  0  0  0
 33 34  1  0  0  0
 34 35  1  0  0  0
 34 37  1  0  0  0
 35 36  2  0  0  0
 35 42  1  0  0  0
 37 38  1  0  0  0
 38 39  1  0  0  0
 39 40  2  0  0  0
 39 41  1  0  0  0
 42 43  1  0  0  0
 43 44  1  0  0  0
 43 46  1  0  0  0
 44 45  1  0  0  0
 46 47  1  0  0  0
 46 48  1  0  0  0
 44 49  2  0  0  0
  1 50  1  0  0  0
  1 51  1  0  0  0
  1 52  1  0  0  0
  2 53  1  0  0  0
  5 54  1  0  0  0
  5 55  1  0  0  0
  5 56  1  0  0  0
  6 57  1  0  0  0
  7 58  1  0  0  0
 10 59  1  0  0  0
 10 60  1  0  0  0
 11 61  1  0  0  0
 11 62  1  0  0  0
 12 63  1  0  0  0
 12 64  1  0  0  0
 13 65  1  0  0  0
 15 66  1  0  0  0
 15 67  1  0  0  0
 16 68  1  0  0  0
 17 69  1  0  0  0
 18 70  1  0  0  0
 21 71  1  0  0  0
 22 72  1  0  0  0
 23 73  1  0  0  0
 23 74  1  0  0  0
 23 75  1  0  0  0
 24 76  1  0  0  0
 25 77  1  0  0  0
 28 78  1  0  0  0
 28 79  1  0  0  0
 29 80  1  0  0  0
 29 81  1  0  0  0
 30 82  1  0  0  0
 30 83  1  0  0  0
 31 84  1  0  0  0
 31 85  1  0  0  0
 32 86  1  0  0  0
 32 87  1  0  0  0
 32 88  1  0  0  0
 33 89  1  0  0  0
 34 90  1  0  0  0
 37 91  1  0  0  0
 37 92  1  0  0  0
 38 93  1  0  0  0
 38 94  1  0  0  0
 41 95  1  0  0  0
 41 96  1  0  0  0
 42 97  1  0  0  0
 43 98  1  0  0  0
 45 99  1  0  0  0
 46100  1  0  0  0
 47101  1  0  0  0
 48102  1  0  0  0
 48103  1  0  0  0
 48104  1  0  0  0
M  END
$$$$
