1m2x_ligand
  -I-interpret- 

 29 29  0  0  0  0  0  0  0  0999 V2000
  -29.4130   35.1480    7.0740 O   0  0  0  0  0
  -28.2570   35.5820    7.2860 C   0  0  0  0  0
  -27.2680   35.4070    6.5480 O   0  0  0  0  0
  -28.0410   36.4090    8.5740 C   0  0  0  0  0
  -28.7630   35.7520    9.7520 C   0  0  0  0  0
  -27.7810   34.6970   10.2750 C   0  0  0  0  0
  -26.3940   35.3130   10.0650 C   0  0  0  0  0
  -26.6250   36.3060    8.9900 N   0  0  0  0  0
  -25.6540   37.1220    8.5260 C   0  0  0  0  0
  -25.9280   37.9910    7.6970 O   0  0  0  0  0
  -24.2130   36.9500    9.0220 C   0  0  0  0  0
  -23.9890   37.8620   10.2340 C   0  0  0  0  0
  -23.2280   37.2870    7.9000 C   0  0  0  0  0
  -21.5140   36.8160    8.3230 S   0  0  0  0  0
  -29.9918   35.4193    7.7902 H   0  0  0  0  0
  -28.3797   37.4228    8.3603 H   0  0  0  0  0
  -29.7117   35.3085    9.4499 H   0  0  0  0  0
  -29.0268   36.4774   10.5216 H   0  0  0  0  0
  -27.8870   33.7484    9.7487 H   0  0  0  0  0
  -27.9636   34.4573   11.3225 H   0  0  0  0  0
  -25.6403   34.5720    9.7986 H   0  0  0  0  0
  -25.9909   35.7617   10.9729 H   0  0  0  0  0
  -24.0456   35.9147    9.3190 H   0  0  0  0  0
  -24.1564   38.8989    9.9427 H   0  0  0  0  0
  -24.6858   37.5888   11.0264 H   0  0  0  0  0
  -22.9660   37.7443   10.5915 H   0  0  0  0  0
  -23.2537   38.3646    7.7381 H   0  0  0  0  0
  -23.5233   36.7304    7.0106 H   0  0  0  0  0
  -20.7072   37.1321    7.3140 H   0  0  0  0  0
  1  2  1  0  0  0
  2  3  2  0  0  0
  2  4  1  0  0  0
  4  5  1  0  0  0
  4  8  1  0  0  0
  5  6  1  0  0  0
  6  7  1  0  0  0
  7  8  1  0  0  0
  8  9  1  0  0  0
  9 10  2  0  0  0
  9 11  1  0  0  0
 11 12  1  0  0  0
 11 13  1  0  0  0
 13 14  1  0  0  0
  1 15  1  0  0  0
  4 16  1  0  0  0
  5 17  1  0  0  0
  5 18  1  0  0  0
  6 19  1  0  0  0
  6 20  1  0  0  0
  7 21  1  0  0  0
  7 22  1  0  0  0
 11 23  1  0  0  0
 12 24  1  0  0  0
 12 25  1  0  0  0
 12 26  1  0  0  0
 13 27  1  0  0  0
 13 28  1  0  0  0
 14 29  1  0  0  0
M  END
$$$$
