### 
### Created by X-TOOL on Mon Sep 10 21:12:51 2018
### 

@<TRIPOS>MOLECULE
1p17_ligand
   34    36     1     0     0
SMALL
GAST_HUCK


@<TRIPOS>ATOM
      1 P           8.5560   38.0610  -11.8730 P.3       1 IMP         0.2008
      2 O1P         7.6930   38.3180  -13.0490 O.co2     1 IMP        -0.5537
      3 O2P         8.3060   36.8300  -11.0790 O.co2     1 IMP        -0.5537
      4 O3P         9.9920   38.1450  -12.2690 O.co2     1 IMP        -0.5537
      5 O5          8.2870   39.2930  -10.8870 O.3       1 IMP        -0.2734
      6 C5          9.2390   39.6580   -9.8860 C.3       1 IMP         0.1072
      7 C4          8.5650   39.8380   -8.5410 C.3       1 IMP         0.1182
      8 O4          7.8490   41.1000   -8.4810 O.3       1 IMP        -0.3362
      9 C3          7.5050   38.8170   -8.1750 C.3       1 IMP         0.1149
     10 O3          8.0930   37.5980   -7.7260 O.3       1 IMP        -0.3864
     11 C2          6.7440   39.5390   -7.0580 C.3       1 IMP         0.1389
     12 O2          7.3720   39.4390   -5.7930 O.3       1 IMP        -0.3835
     13 C1          6.8070   41.0010   -7.5190 C.3       1 IMP         0.2003
     14 N9          5.5700   41.5300   -8.0940 N.pl3     1 IMP        -0.2045
     15 C8          5.1960   41.5100   -9.4150 C.2       1 IMP         0.1004
     16 N7          4.0400   42.0770   -9.6300 N.2       1 IMP        -0.3155
     17 C5          3.6200   42.4920   -8.3750 C.2       1 IMP         0.1044
     18 C6          2.4410   43.1640   -7.9840 C.2       1 IMP         0.2200
     19 O6          1.4960   43.5290   -8.6910 O.2       1 IMP        -0.4066
     20 N1          2.4160   43.4000   -6.6150 N.am      1 IMP        -0.2042
     21 C2          3.3950   43.0320   -5.7360 C.2       1 IMP         0.1273
     22 N3          4.5010   42.3970   -6.0870 N.2       1 IMP        -0.2683
     23 C4          4.5480   42.1610   -7.4140 C.2       1 IMP         0.1354
     24 H1          9.7227   40.6024  -10.1759 H         1 IMP         0.0639
     25 H2          9.9986   38.8665   -9.8054 H         1 IMP         0.0639
     26 H3          9.3540   39.8188   -7.7748 H         1 IMP         0.0650
     27 H4          6.8446   38.6060   -9.0290 H         1 IMP         0.0648
     28 H5          7.4068   36.9795   -7.5046 H         1 IMP         0.2100
     29 H6          5.7088   39.1737   -6.9879 H         1 IMP         0.0677
     30 H7          7.4410   38.5242   -5.5464 H         1 IMP         0.2101
     31 H8          7.0602   41.6210   -6.6464 H         1 IMP         0.1001
     32 H9          5.8022   41.0662  -10.2033 H         1 IMP         0.1213
     33 H10         1.6190   43.8766   -6.2440 H         1 IMP         0.2557
     34 H11         3.2566   43.2760   -4.6837 H         1 IMP         0.1493
@<TRIPOS>BOND
     1    1    2 ar 
     2    1    3 ar 
     3    1    4 ar 
     4    1    5 1  
     5    5    6 1  
     6    6    7 1  
     7    7    8 1  
     8    7    9 1  
     9    8   13 1  
    10    9   10 1  
    11    9   11 1  
    12   11   12 1  
    13   11   13 1  
    14   13   14 1  
    15   14   15 1  
    16   14   23 1  
    17   15   16 2  
    18   16   17 1  
    19   17   18 1  
    20   17   23 2  
    21   18   19 2  
    22   18   20 am 
    23   20   21 am 
    24   21   22 2  
    25   22   23 1  
    26    6   24 1  
    27    6   25 1  
    28    7   26 1  
    29    9   27 1  
    30   10   28 1  
    31   11   29 1  
    32   12   30 1  
    33   13   31 1  
    34   15   32 1  
    35   20   33 1  
    36   21   34 1  
@<TRIPOS>SUBSTRUCTURE
     1 IMP         1

