1p17_ligand
  -I-interpret- 

 36 38  0  0  0  0  0  0  0  0999 V2000
    8.5560   38.0610  -11.8730 P   0  0  0  0  0
    7.6930   38.3180  -13.0490 O   0  0  0  0  0
    8.3060   36.8300  -11.0790 O   0  0  0  0  0
    9.9920   38.1450  -12.2690 O   0  0  0  0  0
    8.2870   39.2930  -10.8870 O   0  0  0  0  0
    9.2390   39.6580   -9.8860 C   0  0  0  0  0
    8.5650   39.8380   -8.5410 C   0  0  0  0  0
    7.8490   41.1000   -8.4810 O   0  0  0  0  0
    7.5050   38.8170   -8.1750 C   0  0  0  0  0
    8.0930   37.5980   -7.7260 O   0  0  0  0  0
    6.7440   39.5390   -7.0580 C   0  0  0  0  0
    7.3720   39.4390   -5.7930 O   0  0  0  0  0
    6.8070   41.0010   -7.5190 C   0  0  0  0  0
    5.5700   41.5300   -8.0940 N   0  0  0  0  0
    5.1960   41.5100   -9.4150 C   0  0  0  0  0
    4.0400   42.0770   -9.6300 N   0  0  0  0  0
    3.6200   42.4920   -8.3750 C   0  0  0  0  0
    2.4410   43.1640   -7.9840 C   0  0  0  0  0
    1.4960   43.5290   -8.6910 O   0  0  0  0  0
    2.4160   43.4000   -6.6150 N   0  0  0  0  0
    3.3950   43.0320   -5.7360 C   0  0  0  0  0
    4.5010   42.3970   -6.0870 N   0  0  0  0  0
    4.5480   42.1610   -7.4140 C   0  0  0  0  0
    8.9312   36.7872  -10.3517 H   0  0  0  0  0
   10.5446   37.9774  -11.5021 H   0  0  0  0  0
    9.7067   40.5998  -10.1731 H   0  0  0  0  0
    9.9824   38.8652   -9.8028 H   0  0  0  0  0
    9.4094   39.7510   -7.8572 H   0  0  0  0  0
    6.8678   38.5169   -9.0069 H   0  0  0  0  0
    7.3996   36.9729   -7.5022 H   0  0  0  0  0
    5.7468   39.1212   -6.9198 H   0  0  0  0  0
    6.8492   39.9092   -5.1394 H   0  0  0  0  0
    6.9847   41.6046   -6.6290 H   0  0  0  0  0
    5.8028   41.0658  -10.2040 H   0  0  0  0  0
    1.6030   43.8861   -6.2366 H   0  0  0  0  0
    3.2564   43.2762   -4.6828 H   0  0  0  0  0
  1  2  2  0  0  0
  1  3  1  0  0  0
  1  4  1  0  0  0
  1  5  1  0  0  0
  5  6  1  0  0  0
  6  7  1  0  0  0
  7  8  1  0  0  0
  7  9  1  0  0  0
  8 13  1  0  0  0
  9 10  1  0  0  0
  9 11  1  0  0  0
 11 12  1  0  0  0
 11 13  1  0  0  0
 13 14  1  0  0  0
 14 15  4  0  0  0
 14 23  4  0  0  0
 15 16  4  0  0  0
 16 17  4  0  0  0
 17 18  1  0  0  0
 17 23  4  0  0  0
 18 19  2  0  0  0
 18 20  1  0  0  0
 20 21  1  0  0  0
 21 22  2  0  0  0
 22 23  1  0  0  0
  3 24  1  0  0  0
  4 25  1  0  0  0
  6 26  1  0  0  0
  6 27  1  0  0  0
  7 28  1  0  0  0
  9 29  1  0  0  0
 10 30  1  0  0  0
 11 31  1  0  0  0
 12 32  1  0  0  0
 13 33  1  0  0  0
 15 34  1  0  0  0
 20 35  1  0  0  0
 21 36  1  0  0  0
M  END
$$$$
