1n2v_ligand
  -I-interpret- 

 26 27  0  0  0  0  0  0  0  0999 V2000
   15.4350   16.8530   20.4090 N   0  0  0  0  0
   16.5900   17.0760   19.8060 C   0  0  0  0  0
   16.7440   17.0260   18.2840 C   0  0  0  0  0
   15.6650   17.7690   17.4320 C   0  0  0  0  0
   16.3420   18.3730   16.1580 C   0  0  0  0  0
   15.3430   19.1170   15.2380 C   0  0  0  0  0
   17.4900   17.3220   20.6050 N   0  0  0  0  0
   17.0380   17.3010   21.9580 C   0  0  0  0  0
   17.7020   17.5270   23.2770 C   0  0  0  0  0
   16.8750   17.4100   24.4010 N   0  0  0  0  0
   15.4120   17.0790   24.3150 N   0  0  0  0  0
   14.7400   16.8560   23.0980 C   0  0  0  0  0
   13.5080   16.5760   23.0100 O   0  0  0  0  0
   15.6460   16.9830   21.8390 C   0  0  0  0  0
   18.9000   17.7960   23.3310 O   0  0  0  0  0
   16.6619   15.9735   18.0127 H   0  0  0  0  0
   17.6883   17.5247   18.0656 H   0  0  0  0  0
   15.2191   18.5688   18.0233 H   0  0  0  0  0
   14.8865   17.0665   17.1343 H   0  0  0  0  0
   16.7697   17.5491   15.5867 H   0  0  0  0  0
   17.0893   19.0941   16.4890 H   0  0  0  0  0
   14.5706   18.4232   14.9062 H   0  0  0  0  0
   14.8838   19.9369   15.7903 H   0  0  0  0  0
   15.8739   19.5128   14.3722 H   0  0  0  0  0
   17.2859   17.5566   25.3230 H   0  0  0  0  0
   14.8787   17.0125   25.1819 H   0  0  0  0  0
  1  2  4  0  0  0
  1 14  4  0  0  0
  2  3  1  0  0  0
  2  7  4  0  0  0
  3  4  1  0  0  0
  4  5  1  0  0  0
  5  6  1  0  0  0
  7  8  4  0  0  0
  8  9  1  0  0  0
  8 14  4  0  0  0
  9 10  1  0  0  0
  9 15  2  0  0  0
 10 11  1  0  0  0
 11 12  1  0  0  0
 12 13  2  0  0  0
 12 14  1  0  0  0
  3 16  1  0  0  0
  3 17  1  0  0  0
  4 18  1  0  0  0
  4 19  1  0  0  0
  5 20  1  0  0  0
  5 21  1  0  0  0
  6 22  1  0  0  0
  6 23  1  0  0  0
  6 24  1  0  0  0
 10 25  1  0  0  0
 11 26  1  0  0  0
M  END
$$$$
