3psb_ligand
  -I-interpret- 

 46 49  0  0  0  0  0  0  0  0999 V2000
   80.7320    4.8770   -6.5040 C   0  0  0  0  0
   80.8620    5.7000   -7.6250 C   0  0  0  0  0
   82.0300    6.4480   -7.8600 C   0  0  0  0  0
   83.0710    6.3440   -6.9110 C   0  0  0  0  0
   82.9410    5.5140   -5.7750 C   0  0  0  0  0
   81.7650    4.7660   -5.5570 C   0  0  0  0  0
   79.4590    4.1990   -6.4530 C   0  0  0  0  0
   78.7110    4.7350   -7.6930 C   0  0  0  0  0
   79.6510    5.6760   -8.5020 C   0  0  0  0  0
   84.2180    7.0180   -7.0500 N   0  0  0  0  0
   84.6640    8.1500   -7.7510 C   0  0  0  0  0
   79.0590    3.3820   -5.5660 N   0  3  0  0  0
   83.8450    9.3130   -8.0880 C   0  0  0  0  0
   84.5500   10.2990   -8.7890 C   0  0  0  0  0
   86.2270    9.8790   -9.0770 S   0  0  0  0  0
   85.9920    8.3510   -8.2410 C   0  0  0  0  0
   87.1230    7.4720   -8.1360 C   0  0  0  0  0
   86.9680    6.3270   -7.6970 O   0  0  0  0  0
   82.4820    9.5450   -7.7980 C   0  0  0  0  0
   81.9100   10.7640   -8.2350 C   0  0  0  0  0
   82.6000   11.7080   -8.9130 N   0  0  0  0  0
   83.9050   11.4900   -9.1920 C   0  0  0  0  0
   78.1990    4.0410   -4.6250 O   0  0  0  0  0
   88.3200    8.1120   -8.0830 O   0  0  0  0  0
   90.4880    8.4600   -9.1210 C   0  0  0  0  0
   89.5410    7.4600   -8.4300 C   0  0  0  0  0
   82.1279    7.0832   -8.7403 H   0  0  0  0  0
   83.7596    5.4509   -5.0581 H   0  0  0  0  0
   81.6607    4.1231   -4.6830 H   0  0  0  0  0
   79.0800    3.4035   -5.8114 H   0  0  0  0  0
   77.8297    5.2908   -7.3727 H   0  0  0  0  0
   78.4061    3.8987   -8.3221 H   0  0  0  0  0
   79.8502    5.3314   -9.5167 H   0  0  0  0  0
   79.2273    6.6619   -8.6929 H   0  0  0  0  0
   84.9680    6.5981   -6.5008 H   0  0  0  0  0
   79.8687    3.0096   -5.0699 H   0  0  0  0  0
   78.5395    2.6301   -6.0189 H   0  0  0  0  0
   81.8895    8.8087   -7.2549 H   0  0  0  0  0
   80.8593   10.9509   -8.0133 H   0  0  0  0  0
   84.4694   12.2463   -9.7374 H   0  0  0  0  0
   77.9070    3.4096   -3.9634 H   0  0  0  0  0
   90.0135    8.8429  -10.0245 H   0  0  0  0  0
   90.6999    9.2862   -8.4423 H   0  0  0  0  0
   91.4181    7.9558   -9.3832 H   0  0  0  0  0
   89.3287    6.6353   -9.1104 H   0  0  0  0  0
   90.0161    7.0793   -7.5259 H   0  0  0  0  0
  1  2  4  0  0  0
  1  6  4  0  0  0
  1  7  1  0  0  0
  2  3  4  0  0  0
  2  9  1  0  0  0
  3  4  4  0  0  0
  4  5  4  0  0  0
  4 10  1  0  0  0
  5  6  4  0  0  0
  7  8  1  0  0  0
  7 12  1  0  0  0
  8  9  1  0  0  0
 10 11  1  0  0  0
 11 13  4  0  0  0
 11 16  4  0  0  0
 12 23  1  0  0  0
 13 14  4  0  0  0
 13 19  4  0  0  0
 14 15  4  0  0  0
 14 22  4  0  0  0
 15 16  4  0  0  0
 16 17  1  0  0  0
 17 18  2  0  0  0
 17 24  1  0  0  0
 19 20  4  0  0  0
 20 21  4  0  0  0
 21 22  4  0  0  0
 24 26  1  0  0  0
 26 25  1  0  0  0
  3 27  1  0  0  0
  5 28  1  0  0  0
  6 29  1  0  0  0
  7 30  1  0  0  0
  8 31  1  0  0  0
  8 32  1  0  0  0
  9 33  1  0  0  0
  9 34  1  0  0  0
 10 35  1  0  0  0
 12 36  1  0  0  0
 12 37  1  0  0  0
 19 38  1  0  0  0
 20 39  1  0  0  0
 22 40  1  0  0  0
 23 41  1  0  0  0
 25 42  1  0  0  0
 25 43  1  0  0  0
 25 44  1  0  0  0
 26 45  1  0  0  0
 26 46  1  0  0  0
M  END
$$$$
