1mhw_ligand
  -I-interpret- 

100103  0  0  0  0  0  0  0  0999 V2000
   -3.7460   13.4580  124.2040 C   0  0  0  0  0
   -3.6560   14.3890  123.0160 C   0  0  0  0  0
   -3.1580   13.9460  121.9760 O   0  0  0  0  0
   -3.3070   15.3360  128.2050 C   0  0  0  0  0
   -2.1300   14.8850  127.4470 C   0  0  0  0  0
   -2.2710   14.2830  126.1380 C   0  0  0  0  0
   -3.5910   14.1130  125.5610 C   0  0  0  0  0
   -4.7680   14.5560  126.2880 C   0  0  0  0  0
   -4.6330   15.1610  127.5880 C   0  0  0  0  0
   -2.8670   17.1420  132.2680 C   0  0  0  0  0
   -4.3130   16.1010  130.4840 C   0  0  0  0  0
   -3.1540   15.9580  129.5890 C   0  0  0  0  0
   -4.1750   16.6850  131.8100 C   0  0  0  0  0
   -1.8430   16.4250  130.0750 C   0  0  0  0  0
   -1.7020   17.0100  131.4020 C   0  0  0  0  0
   -3.7380   15.8070  123.1760 N   0  0  0  0  0
   -3.3210   16.6960  122.2450 C   0  0  0  0  0
   -2.2900   17.6900  122.5500 C   0  0  0  0  0
   -1.8590   17.8680  123.7070 O   0  0  0  0  0
   -4.6070   17.4400  121.6680 C   0  0  0  0  0
   -5.9720   16.3120  121.1490 S   0  0  0  0  0
   -1.9110   18.3430  121.3460 N   0  0  0  0  0
   -0.8260   19.4220  121.3860 C   0  0  0  0  0
   -1.1890   20.6950  122.2750 C   0  0  0  0  0
   -2.6210   21.3250  122.0140 C   0  0  0  0  0
   -2.5350   22.7860  121.9630 C   0  0  0  0  0
   -3.6290   23.6130  121.7690 N   0  0  0  0  0
   -4.4780   23.7360  120.6490 C   0  0  0  0  0
   -4.0390   23.8440  119.3510 N   0  0  0  0  0
   -5.8250   23.7690  120.7540 N   0  0  0  0  0
   -0.2550   19.9000  120.0890 C   0  0  0  0  0
    0.8780   20.4090  120.1130 O   0  0  0  0  0
   -0.9970   19.7810  118.9970 N   0  0  0  0  0
   -0.5670   20.2220  117.7750 C   0  0  0  0  0
   -0.9370   21.7280  117.8340 C   0  0  0  0  0
   -2.0950   22.0340  118.2170 O   0  0  0  0  0
   -1.2670   19.5820  116.5060 C   0  0  0  0  0
   -0.9460   20.3900  115.2050 C   0  0  0  0  0
    0.2340   20.0580  114.4150 C   0  0  0  0  0
   -1.8250   21.5030  114.7690 C   0  0  0  0  0
    0.5310   20.8250  113.2280 C   0  0  0  0  0
   -1.5110   22.2510  113.5940 C   0  0  0  0  0
   -0.3400   21.9170  112.8260 C   0  0  0  0  0
   -0.0530   22.6400  111.7230 O   0  0  0  0  0
    1.5620   24.9460  119.0640 C   0  0  0  0  0
    2.5320   25.3190  118.0360 C   0  0  0  0  0
    3.9410   25.4040  118.3670 C   0  0  0  0  0
    4.3790   25.1200  119.7200 C   0  0  0  0  0
    3.4160   24.7460  120.7400 C   0  0  0  0  0
    2.0130   24.6590  120.4170 C   0  0  0  0  0
    0.0910   24.8530  118.7270 C   0  0  0  0  0
   -0.4890   24.3110  117.4620 C   0  0  0  0  0
   -0.0520   22.8520  117.4330 N   0  0  0  0  0
   -2.9230   12.7501  124.1059 H   0  0  0  0  0
   -4.7454   13.0235  124.1821 H   0  0  0  0  0
   -1.1360   15.0059  127.8776 H   0  0  0  0  0
   -1.3879   13.9584  125.5876 H   0  0  0  0  0
   -5.7572   14.4300  125.8479 H   0  0  0  0  0
   -5.5232   15.4935  128.1219 H   0  0  0  0  0
   -2.7610   17.5828  133.2593 H   0  0  0  0  0
   -5.2933   15.7633  130.1477 H   0  0  0  0  0
   -5.0457   16.7807  132.4587 H   0  0  0  0  0
   -0.9672   16.3314  129.4329 H   0  0  0  0  0
   -0.7252   17.3490  131.7471 H   0  0  0  0  0
   -4.1341   16.1701  124.0430 H   0  0  0  0  0
   -2.7830   16.0562  121.5455 H   0  0  0  0  0
   -4.2888   17.9864  120.7802 H   0  0  0  0  0
   -4.9984   18.0687  122.4678 H   0  0  0  0  0
   -6.9892   17.0331  120.6862 H   0  0  0  0  0
   -2.3579   18.0950  120.4633 H   0  0  0  0  0
   -0.0396   18.8364  121.8621 H   0  0  0  0  0
   -0.4605   21.4662  122.0245 H   0  0  0  0  0
   -1.1815   20.3611  123.3126 H   0  0  0  0  0
   -3.2887   21.0370  122.8260 H   0  0  0  0  0
   -3.0015   20.9585  121.0606 H   0  0  0  0  0
   -1.9352   22.9631  121.0702 H   0  0  0  0  0
   -2.2098   23.0456  122.9705 H   0  0  0  0  0
   -3.8546   24.2247  122.5534 H   0  0  0  0  0
   -4.7127   23.9369  118.5908 H   0  0  0  0  0
   -3.0395   23.8313  119.1479 H   0  0  0  0  0
   -6.2668   23.7038  121.6710 H   0  0  0  0  0
   -1.9173   19.3471  119.0699 H   0  0  0  0  0
    0.4831   19.9641  117.6377 H   0  0  0  0  0
   -2.3455   19.5954  116.6633 H   0  0  0  0  0
   -0.8937   18.5655  116.3819 H   0  0  0  0  0
    0.8858   19.2385  114.7177 H   0  0  0  0  0
   -2.7145   21.7507  115.3483 H   0  0  0  0  0
    1.4111   20.5843  112.6317 H   0  0  0  0  0
   -2.1555   23.0719  113.2796 H   0  0  0  0  0
   -0.7236   23.3161  111.6014 H   0  0  0  0  0
    2.1962   25.5331  117.0213 H   0  0  0  0  0
    4.6675   25.6800  117.6027 H   0  0  0  0  0
    5.4372   25.1877  119.9725 H   0  0  0  0  0
    3.7544   24.5302  121.7534 H   0  0  0  0  0
    1.2921   24.3788  121.1851 H   0  0  0  0  0
   -0.1930   25.9039  118.6714 H   0  0  0  0  0
   -0.2622   24.1306  119.4629 H   0  0  0  0  0
   -0.1400   24.8584  116.5864 H   0  0  0  0  0
   -1.5740   24.4120  117.4351 H   0  0  0  0  0
    0.8954   22.6360  117.1228 H   0  0  0  0  0
  2  1  1  0  0  0
  1  7  1  0  0  0
  2  3  2  0  0  0
 16  2  1  0  0  0
  5  4  4  0  0  0
  9  4  4  0  0  0
  4 12  1  0  0  0
  6  5  4  0  0  0
  7  6  4  0  0  0
  7  8  4  0  0  0
  8  9  4  0  0  0
 13 10  4  0  0  0
 15 10  4  0  0  0
 12 11  4  0  0  0
 11 13  4  0  0  0
 12 14  4  0  0  0
 14 15  4  0  0  0
 17 16  1  0  0  0
 18 17  1  0  0  0
 17 20  1  0  0  0
 18 19  2  0  0  0
 22 18  1  0  0  0
 20 21  1  0  0  0
 23 22  1  0  0  0
 23 24  1  0  0  0
 31 23  1  0  0  0
 24 25  1  0  0  0
 25 26  1  0  0  0
 26 27  1  0  0  0
 27 28  1  0  0  0
 28 29  1  0  0  0
 28 30  2  0  0  0
 31 32  2  0  0  0
 33 31  1  0  0  0
 34 33  1  0  0  0
 35 34  1  0  0  0
 34 37  1  0  0  0
 35 36  2  0  0  0
 53 35  1  0  0  0
 37 38  1  0  0  0
 38 39  4  0  0  0
 38 40  4  0  0  0
 39 41  4  0  0  0
 40 42  4  0  0  0
 41 43  4  0  0  0
 42 43  4  0  0  0
 43 44  1  0  0  0
 45 46  4  0  0  0
 45 50  4  0  0  0
 51 45  1  0  0  0
 46 47  4  0  0  0
 47 48  4  0  0  0
 49 48  4  0  0  0
 50 49  4  0  0  0
 52 51  1  0  0  0
 52 53  1  0  0  0
  1 54  1  0  0  0
  1 55  1  0  0  0
  5 56  1  0  0  0
  6 57  1  0  0  0
  8 58  1  0  0  0
  9 59  1  0  0  0
 10 60  1  0  0  0
 11 61  1  0  0  0
 13 62  1  0  0  0
 14 63  1  0  0  0
 15 64  1  0  0  0
 16 65  1  0  0  0
 17 66  1  0  0  0
 20 67  1  0  0  0
 20 68  1  0  0  0
 21 69  1  0  0  0
 22 70  1  0  0  0
 23 71  1  0  0  0
 24 72  1  0  0  0
 24 73  1  0  0  0
 25 74  1  0  0  0
 25 75  1  0  0  0
 26 76  1  0  0  0
 26 77  1  0  0  0
 27 78  1  0  0  0
 29 79  1  0  0  0
 29 80  1  0  0  0
 30 81  1  0  0  0
 33 82  1  0  0  0
 34 83  1  0  0  0
 37 84  1  0  0  0
 37 85  1  0  0  0
 39 86  1  0  0  0
 40 87  1  0  0  0
 41 88  1  0  0  0
 42 89  1  0  0  0
 44 90  1  0  0  0
 46 91  1  0  0  0
 47 92  1  0  0  0
 48 93  1  0  0  0
 49 94  1  0  0  0
 50 95  1  0  0  0
 51 96  1  0  0  0
 51 97  1  0  0  0
 52 98  1  0  0  0
 52 99  1  0  0  0
 53100  1  0  0  0
M  END
$$$$
