5a4l_ligand
  -I-interpret- 

 21 22  0  0  0  0  0  0  0  0999 V2000
   -5.0250  -16.2530  -44.3890 N   0  0  0  0  0
   -5.9500  -15.7720  -45.2490 C   0  0  0  0  0
   -6.8730  -16.4560  -45.9310 C   0  0  0  0  0
   -7.7580  -15.8110  -46.7840 C   0  0  0  0  0
   -8.7280  -16.5310  -47.5030 F   0  0  0  0  0
   -7.6680  -14.4380  -46.9160 C   0  0  0  0  0
   -6.6980  -13.7640  -46.1950 C   0  0  0  0  0
   -5.8770  -14.4320  -45.3920 C   0  0  0  0  0
   -4.6570  -13.8890  -44.4390 S   0  0  0  0  0
   -4.2390  -15.3150  -43.8600 C   0  0  0  0  0
   -3.2470  -15.5110  -42.9940 N   0  0  0  0  0
   -2.8290  -16.7680  -42.8000 C   0  0  0  0  0
   -1.9120  -17.0690  -42.0390 O   0  0  0  0  0
   -3.5840  -17.8390  -43.5900 C   0  0  0  0  0
   -6.9321  -17.5383  -45.8157 H   0  0  0  0  0
   -8.3474  -13.8971  -47.5747 H   0  0  0  0  0
   -6.6073  -12.6816  -46.2862 H   0  0  0  0  0
   -2.8201  -14.7303  -42.4954 H   0  0  0  0  0
   -2.8857  -18.3736  -44.2339 H   0  0  0  0  0
   -4.0498  -18.5393  -42.8967 H   0  0  0  0  0
   -4.3525  -17.3644  -44.2002 H   0  0  0  0  0
  1  2  4  0  0  0
  1 10  4  0  0  0
  2  3  4  0  0  0
  2  8  4  0  0  0
  3  4  4  0  0  0
  4  5  1  0  0  0
  4  6  4  0  0  0
  6  7  4  0  0  0
  7  8  4  0  0  0
  8  9  4  0  0  0
  9 10  4  0  0  0
 10 11  1  0  0  0
 11 12  1  0  0  0
 12 13  2  0  0  0
 12 14  1  0  0  0
  3 15  1  0  0  0
  6 16  1  0  0  0
  7 17  1  0  0  0
 11 18  1  0  0  0
 14 19  1  0  0  0
 14 20  1  0  0  0
 14 21  1  0  0  0
M  END
$$$$
