2xke_ligand
  -I-interpret- 

 44 46  0  0  0  0  0  0  0  0999 V2000
  -22.7460    7.2100   16.4480 C   0  0  0  0  0
  -22.3490    6.9820   14.9860 C   0  0  0  0  0
  -23.0220    7.9920   14.0840 C   0  0  0  0  0
  -22.6180    7.7310   12.6530 C   0  0  0  0  0
  -21.9200    6.8140   12.2270 O   0  0  0  0  0
  -23.3230    8.4850   11.7790 O   0  0  0  0  0
  -24.5240    7.8580   14.3220 C   0  0  0  0  0
  -24.9800    8.0770   15.7770 C   0  0  0  0  0
  -24.2230    7.1490   16.6760 N   0  0  0  0  0
  -24.7210    6.8900   17.9790 C   0  0  0  0  0
  -25.2600    7.9270   18.6830 N   0  0  0  0  0
  -24.5390    5.6140   18.6020 C   0  0  0  0  0
  -24.0130    4.4920   18.0000 N   0  0  0  0  0
  -24.9380    5.4430   19.9050 N   0  0  0  0  0
  -25.4790    6.4770   20.5720 C   0  0  0  0  0
  -25.6470    7.7410   19.9690 C   0  0  0  0  0
  -26.2840    8.8240   20.7690 C   0  0  0  0  0
  -27.0680    8.6300   21.9040 C   0  0  0  0  0
  -26.0800   10.1390   20.3130 C   0  0  0  0  0
  -26.6280   11.2430   20.9840 C   0  0  0  0  0
  -27.4080   11.0510   22.1310 C   0  0  0  0  0
  -27.6190    9.7380   22.5720 C   0  0  0  0  0
  -28.3320    9.4520   23.7050 O   0  0  0  0  0
  -29.2910   10.3970   24.1460 C   0  0  0  0  0
  -22.4101    8.2082   16.7289 H   0  0  0  0  0
  -22.2880    6.4185   17.0412 H   0  0  0  0  0
  -22.6618    5.9811   14.6885 H   0  0  0  0  0
  -21.2686    7.0926   14.8935 H   0  0  0  0  0
  -22.7225    9.0176   14.2999 H   0  0  0  0  0
  -23.8146    9.1548   12.2599 H   0  0  0  0  0
  -24.7920    6.8342   14.0609 H   0  0  0  0  0
  -25.0058    8.6311   13.7235 H   0  0  0  0  0
  -26.0480    7.8756   15.8596 H   0  0  0  0  0
  -24.7856    9.1088   16.0696 H   0  0  0  0  0
  -23.7138    4.5289   17.0256 H   0  0  0  0  0
  -23.9227    3.6244   18.5287 H   0  0  0  0  0
  -25.7960    6.3351   21.6052 H   0  0  0  0  0
  -27.2540    7.6216   22.2735 H   0  0  0  0  0
  -25.4819   10.3044   19.4169 H   0  0  0  0  0
  -26.4463   12.2513   20.6119 H   0  0  0  0  0
  -27.8384   11.8982   22.6651 H   0  0  0  0  0
  -28.7955   11.3450   24.3552 H   0  0  0  0  0
  -30.0411   10.5414   23.3685 H   0  0  0  0  0
  -29.7716   10.0290   25.0525 H   0  0  0  0  0
  1  2  1  0  0  0
  1  9  1  0  0  0
  2  3  1  0  0  0
  3  4  1  0  0  0
  3  7  1  0  0  0
  4  5  2  0  0  0
  4  6  1  0  0  0
  7  8  1  0  0  0
  8  9  1  0  0  0
  9 10  1  0  0  0
 10 11  4  0  0  0
 10 12  4  0  0  0
 11 16  4  0  0  0
 12 13  1  0  0  0
 12 14  4  0  0  0
 14 15  4  0  0  0
 15 16  4  0  0  0
 16 17  1  0  0  0
 17 18  4  0  0  0
 17 19  4  0  0  0
 18 22  4  0  0  0
 19 20  4  0  0  0
 20 21  4  0  0  0
 21 22  4  0  0  0
 22 23  1  0  0  0
 23 24  1  0  0  0
  1 25  1  0  0  0
  1 26  1  0  0  0
  2 27  1  0  0  0
  2 28  1  0  0  0
  3 29  1  0  0  0
  6 30  1  0  0  0
  7 31  1  0  0  0
  7 32  1  0  0  0
  8 33  1  0  0  0
  8 34  1  0  0  0
 13 35  1  0  0  0
 13 36  1  0  0  0
 15 37  1  0  0  0
 18 38  1  0  0  0
 19 39  1  0  0  0
 20 40  1  0  0  0
 21 41  1  0  0  0
 24 42  1  0  0  0
 24 43  1  0  0  0
 24 44  1  0  0  0
M  END
$$$$
