4kb8_ligand
  -I-interpret- 

 40 42  0  0  0  0  0  0  0  0999 V2000
   -7.6210   -0.2520    9.0160 N   0  0  0  0  0
   -8.9000   -3.0210   10.9680 C   0  0  0  0  0
   -6.5570    0.5350    9.3340 N   0  0  0  0  0
   -5.7540   -2.2410   11.5130 C   0  0  0  0  0
   -9.2460   -2.6330    8.6060 C   0  0  0  0  0
   -5.2290   -4.4900   12.1350 C   0  0  0  0  0
   -6.3170   -1.2800   10.6010 C   0  0  0  0  0
   -5.8240   -3.6040   11.2360 C   0  0  0  0  0
   -6.3760    1.8470    8.7020 C   0  0  0  0  0
  -10.3220   -3.5110    8.6070 C   0  0  0  0  0
  -10.6720   -4.1420    9.8040 C   0  0  0  0  0
   -9.9590   -3.9150   10.9870 C   0  0  0  0  0
   -8.5460   -2.3750    9.7840 C   0  0  0  0  0
  -11.7050   -4.9740    9.8260 F   0  0  0  0  0
   -4.5640   -4.1050   13.2480 N   0  0  0  0  0
   -4.4890   -2.7710   13.4830 C   0  0  0  0  0
   -5.0930   -1.8110   12.6640 C   0  0  0  0  0
   -7.4960   -1.3710    9.7970 C   0  0  0  0  0
   -5.7370   -0.0460   10.2940 C   0  0  0  0  0
   -3.7130   -2.3530   14.7130 C   0  0  0  0  0
   -2.3110   -2.0980   14.3270 N   0  3  0  0  0
   -2.1040   -0.8220   13.6300 C   0  0  0  0  0
   -8.3414   -2.8220   11.8826 H   0  0  0  0  0
   -8.9471   -2.1429    7.6794 H   0  0  0  0  0
   -5.3048   -5.5574   11.9276 H   0  0  0  0  0
   -6.3295   -3.9686   10.3418 H   0  0  0  0  0
   -6.2867    1.7199    7.6231 H   0  0  0  0  0
   -7.2364    2.4780    8.9248 H   0  0  0  0  0
   -5.4710    2.3141    9.0903 H   0  0  0  0  0
  -10.8825   -3.7042    7.6923 H   0  0  0  0  0
  -10.2318   -4.4322   11.9069 H   0  0  0  0  0
   -5.0483   -0.7522   12.9191 H   0  0  0  0  0
   -4.8267    0.3751   10.7207 H   0  0  0  0  0
   -3.7520   -3.1447   15.4611 H   0  0  0  0  0
   -4.1501   -1.4484   15.1358 H   0  0  0  0  0
   -2.0347   -2.8410   13.6851 H   0  0  0  0  0
   -1.7625   -2.0651   15.1863 H   0  0  0  0  0
   -2.6969   -0.8087   12.7154 H   0  0  0  0  0
   -2.4137   -0.0015   14.2773 H   0  0  0  0  0
   -1.0483   -0.7121   13.3818 H   0  0  0  0  0
  1  3  4  0  0  0
 18  1  4  0  0  0
  2 12  4  0  0  0
 13  2  4  0  0  0
  3  9  1  0  0  0
 19  3  4  0  0  0
  7  4  1  0  0  0
  4  8  4  0  0  0
  4 17  4  0  0  0
  5 10  4  0  0  0
 13  5  4  0  0  0
  8  6  4  0  0  0
  6 15  4  0  0  0
 18  7  4  0  0  0
  7 19  4  0  0  0
 10 11  4  0  0  0
 12 11  4  0  0  0
 11 14  1  0  0  0
 13 18  1  0  0  0
 15 16  4  0  0  0
 16 17  4  0  0  0
 16 20  1  0  0  0
 20 21  1  0  0  0
 21 22  1  0  0  0
  2 23  1  0  0  0
  5 24  1  0  0  0
  6 25  1  0  0  0
  8 26  1  0  0  0
  9 27  1  0  0  0
  9 28  1  0  0  0
  9 29  1  0  0  0
 10 30  1  0  0  0
 12 31  1  0  0  0
 17 32  1  0  0  0
 19 33  1  0  0  0
 20 34  1  0  0  0
 20 35  1  0  0  0
 21 36  1  0  0  0
 21 37  1  0  0  0
 22 38  1  0  0  0
 22 39  1  0  0  0
 22 40  1  0  0  0
M  END
$$$$
