6bvh_ligand
  -I-interpret- 

196201  0  0  0  0  0  0  0  0999 V2000
    5.8550   44.8770   11.8140 N   0  0  0  0  0
    5.5500   43.4580   11.8650 C   0  0  0  0  0
    6.6900   42.5560   11.4190 C   0  0  0  0  0
    6.5900   41.3300   11.4990 O   0  0  0  0  0
    7.7790   43.1570   10.9490 N   0  0  0  0  0
    8.9120   42.3790   10.4760 C   0  0  0  0  0
    9.7970   41.9730   11.6480 C   0  0  0  0  0
   10.0090   42.7490   12.5850 O   0  0  0  0  0
    9.7160   43.1710    9.4400 C   0  0  0  0  0
   10.3440   44.3010   10.0660 O   0  0  0  0  0
    8.7950   43.6700    8.3380 C   0  0  0  0  0
   10.2970   40.7410   11.5960 N   0  0  0  0  0
   11.0920   40.1760   12.6750 C   0  0  0  0  0
   12.3100   39.4690   12.1110 C   0  0  0  0  0
   12.2510   38.8750   11.0270 O   0  0  0  0  0
   10.3020   39.1540   13.5080 C   0  0  0  0  0
    8.7620   39.7390   14.1930 S   0  0  0  0  0
   13.4030   39.5060   12.8780 N   0  0  0  0  0
   14.5070   38.5930   12.6280 C   0  0  0  0  0
   14.0260   37.1540   12.7590 C   0  0  0  0  0
   13.0230   36.8580   13.4170 O   0  0  0  0  0
   15.6580   38.8110   13.6150 C   0  0  0  0  0
   15.2270   38.4860   14.9490 O   0  0  0  0  0
   16.1600   40.2470   13.5540 C   0  0  0  0  0
   14.7710   36.2380   12.1520 N   0  0  0  0  0
   14.3740   34.8350   12.1930 C   0  0  0  0  0
   15.1690   34.0380   13.2220 C   0  0  0  0  0
   15.5070   32.8720   13.0280 O   0  0  0  0  0
   14.4660   34.2520   10.7900 C   0  0  0  0  0
   13.1850   34.6140   10.0620 C   0  0  0  0  0
   13.3000   34.7340    8.5730 C   0  0  0  0  0
   11.9990   35.1400    8.0300 N   0  0  0  0  0
   11.6150   34.9410    6.7780 C   0  0  0  0  0
   12.4390   34.3510    5.9210 N   0  0  0  0  0
   10.4110   35.3410    6.3840 N   0  0  0  0  0
   15.4670   34.6670   14.3510 N   0  0  0  0  0
   16.1500   34.0320   15.4630 C   0  0  0  0  0
   15.1250   33.4900   16.4550 C   0  0  0  0  0
   13.9340   33.8010   16.3800 O   0  0  0  0  0
   17.0710   35.0440   16.1420 C   0  0  0  0  0
   16.3270   36.2190   16.4780 O   0  0  0  0  0
   15.5950   32.6710   17.3920 N   0  0  0  0  0
   14.7940   32.2880   18.5530 C   0  0  0  0  0
   15.3580   33.0200   19.7670 C   0  0  0  0  0
   16.5000   32.7510   20.1760 O   0  0  0  0  0
   14.7920   30.7710   18.7850 C   0  0  0  0  0
   14.0560   30.0510   17.6600 C   0  0  0  0  0
   14.1270   30.4590   20.1320 C   0  0  0  0  0
   14.4020   28.5880   17.5740 C   0  0  0  0  0
   14.6170   33.9580   20.3780 N   0  0  0  0  0
   13.3170   34.4870   19.9540 C   0  0  0  0  0
   13.4830   35.5180   18.8480 C   0  0  0  0  0
   14.5860   36.0210   18.6630 O   0  0  0  0  0
   12.7810   35.1460   21.2270 C   0  0  0  0  0
   13.9960   35.5980   21.9310 C   0  0  0  0  0
   15.0670   34.5690   21.6420 C   0  0  0  0  0
   12.4120   35.8280   18.1280 N   0  0  0  0  0
   12.5010   36.8740   17.1050 C   0  0  0  0  0
   12.6790   38.2460   17.7330 C   0  0  0  0  0
   12.2280   38.5120   18.8510 O   0  0  0  0  0
   11.1580   36.7710   16.3730 C   0  0  0  0  0
   10.2170   36.1820   17.4060 C   0  0  0  0  0
   11.0790   35.1960   18.1630 C   0  0  0  0  0
   13.3550   39.1200   16.9960 N   0  0  0  0  0
   13.4630   40.5370   17.3270 C   0  0  0  0  0
   12.6210   41.2900   16.3080 C   0  0  0  0  0
   12.9030   41.2330   15.1060 O   0  0  0  0  0
   14.9220   41.0150   17.3090 C   0  0  0  0  0
   15.7730   40.1530   18.2510 C   0  0  0  0  0
   15.0110   42.4860   17.7100 C   0  0  0  0  0
   17.2560   40.2450   17.9790 C   0  0  0  0  0
   11.5880   41.9870   16.7750 N   0  0  0  0  0
   10.5510   42.4850   15.8870 C   0  0  0  0  0
   10.4640   44.0040   15.9090 C   0  0  0  0  0
   10.7500   44.6590   16.9170 O   0  0  0  0  0
    9.1920   41.8820   16.2540 C   0  0  0  0  0
    9.1830   40.0770   16.1600 S   0  0  0  0  0
   10.0730   44.5240   14.8340 N   0  0  0  0  0
    9.7560   45.9030   14.5330 C   0  0  0  0  0
    8.2610   46.1340   14.7060 C   0  0  0  0  0
    7.4700   45.1950   14.5830 O   0  0  0  0  0
   10.1720   46.2300   13.0960 C   0  0  0  0  0
   10.5040   47.6880   12.9010 C   0  0  0  0  0
    9.6570   48.4770   12.4830 O   0  0  0  0  0
   11.7430   48.0580   13.2050 N   0  0  0  0  0
    7.8300   47.3560   15.0310 N   0  0  0  0  0
    6.3840   47.6190   15.0680 C   0  0  0  0  0
    5.6960   47.3520   13.7410 C   0  0  0  0  0
    4.5360   46.9210   13.7320 O   0  0  0  0  0
    6.3080   49.1020   15.4570 C   0  0  0  0  0
    7.5690   49.3490   16.2120 C   0  0  0  0  0
    8.6120   48.4880   15.5560 C   0  0  0  0  0
    6.3820   47.5730   12.6220 N   0  0  0  0  0
    5.7960   47.3700   11.2990 C   0  0  0  0  0
    5.6100   45.8840   10.9820 C   0  0  0  0  0
    5.0400   45.5260    9.9470 O   0  0  0  0  0
    6.6580   48.0490   10.2210 C   0  0  0  0  0
    7.8710   47.2120    9.7950 C   0  0  0  0  0
    8.3950   46.3960   10.5530 O   0  0  0  0  0
    8.3230   47.4320    8.5660 N   0  0  0  0  0
    6.0270   45.0170   11.7560 O   0  0  0  0  0
    4.8221   42.6799   12.0948 H   0  0  0  0  0
    7.8198   44.1758   10.9201 H   0  0  0  0  0
    8.5370   41.4756    9.9950 H   0  0  0  0  0
   10.4762   42.5154    9.0154 H   0  0  0  0  0
   10.9280   43.9952   10.7639 H   0  0  0  0  0
    8.0361   44.3233    8.7685 H   0  0  0  0  0
    9.3779   44.2238    7.6021 H   0  0  0  0  0
    8.3130   42.8194    7.8561 H   0  0  0  0  0
   10.1161   40.1719   10.7691 H   0  0  0  0  0
   11.3810   41.0088   13.3162 H   0  0  0  0  0
   10.9358   38.8899   14.3546 H   0  0  0  0  0
   10.0488   38.3359   12.8337 H   0  0  0  0  0
   13.4636   40.1780   13.6429 H   0  0  0  0  0
   14.8690   38.7885   11.6186 H   0  0  0  0  0
   16.4822   38.1538   13.3378 H   0  0  0  0  0
   15.9531   38.6250   15.5614 H   0  0  0  0  0
   16.5152   40.4639   12.5466 H   0  0  0  0  0
   15.3461   40.9262   13.8078 H   0  0  0  0  0
   16.9769   40.3754   14.2641 H   0  0  0  0  0
   15.6193   36.5148   11.6579 H   0  0  0  0  0
   13.3386   34.7668   12.5267 H   0  0  0  0  0
   14.5872   33.1696   10.8337 H   0  0  0  0  0
   15.3310   34.6568   10.2645 H   0  0  0  0  0
   12.8861   35.5955   10.4300 H   0  0  0  0  0
   12.4800   33.8053   10.2543 H   0  0  0  0  0
   13.5955   33.7753    8.1467 H   0  0  0  0  0
   14.0548   35.4783    8.3194 H   0  0  0  0  0
   11.3460   35.6071    8.6591 H   0  0  0  0  0
   13.3650   34.0523    6.2272 H   0  0  0  0  0
   10.1158   35.1952    5.4186 H   0  0  0  0  0
    9.7818   35.7939    7.0469 H   0  0  0  0  0
   15.2024   35.6478   14.4425 H   0  0  0  0  0
   16.7521   33.2006   15.0965 H   0  0  0  0  0
   17.8810   35.3098   15.4627 H   0  0  0  0  0
   17.4850   34.6052   17.0498 H   0  0  0  0  0
   16.9080   36.8532   16.9045 H   0  0  0  0  0
   16.5405   32.3001   17.2976 H   0  0  0  0  0
   13.7548   32.5677   18.3800 H   0  0  0  0  0
   15.8232   30.4181   18.7973 H   0  0  0  0  0
   14.3484   30.5177   16.7193 H   0  0  0  0  0
   12.9871   30.1287   17.8588 H   0  0  0  0  0
   14.6826   30.9483   20.9320 H   0  0  0  0  0
   13.1009   30.8266   20.1230 H   0  0  0  0  0
   14.1267   29.3812   20.2946 H   0  0  0  0  0
   15.4716   28.4789   17.3944 H   0  0  0  0  0
   14.1377   28.0978   18.5110 H   0  0  0  0  0
   13.8463   28.1321   16.7546 H   0  0  0  0  0
   12.6553   33.7207   19.5502 H   0  0  0  0  0
   12.1849   34.4600   21.8288 H   0  0  0  0  0
   12.0976   35.9674   21.0117 H   0  0  0  0  0
   13.8169   35.6848   23.0027 H   0  0  0  0  0
   14.3013   36.5864   21.5877 H   0  0  0  0  0
   16.0616   35.0083   21.5653 H   0  0  0  0  0
   15.1766   33.8402   22.4450 H   0  0  0  0  0
   13.3574   36.7463   16.4428 H   0  0  0  0  0
   11.2238   36.1542   15.4767 H   0  0  0  0  0
   10.8137   37.7380   16.0063 H   0  0  0  0  0
    9.3475   35.7076   16.9511 H   0  0  0  0  0
    9.7890   36.9435   18.0580 H   0  0  0  0  0
   10.7233   35.0146   19.1772 H   0  0  0  0  0
   11.0712   34.2001   17.7201 H   0  0  0  0  0
   13.8231   38.7831   16.1547 H   0  0  0  0  0
   13.1033   40.7207   18.3394 H   0  0  0  0  0
   15.3073   40.9121   16.2946 H   0  0  0  0  0
   15.4768   39.1147   18.1015 H   0  0  0  0  0
   15.6036   40.5126   19.2660 H   0  0  0  0  0
   14.4330   43.0880   17.0089 H   0  0  0  0  0
   14.6100   42.6120   18.7157 H   0  0  0  0  0
   16.0534   42.8041   17.6906 H   0  0  0  0  0
   17.4586   39.9133   16.9606 H   0  0  0  0  0
   17.5825   41.2782   18.0977 H   0  0  0  0  0
   17.7933   39.6097   18.6831 H   0  0  0  0  0
   11.5228   42.1753   17.7753 H   0  0  0  0  0
   10.8209   42.1791   14.8762 H   0  0  0  0  0
    8.4557   42.2582   15.5438 H   0  0  0  0  0
    8.9664   42.1651   17.2821 H   0  0  0  0  0
    9.9623   43.8750   14.0550 H   0  0  0  0  0
   10.3003   46.5547   15.2165 H   0  0  0  0  0
    9.3336   45.9883   12.4427 H   0  0  0  0  0
   11.0665   45.6506   12.8674 H   0  0  0  0  0
   12.0259   49.0318   13.0950 H   0  0  0  0  0
   12.4115   47.3683   13.5484 H   0  0  0  0  0
    5.8655   46.9598   15.7642 H   0  0  0  0  0
    5.4226   49.3255   16.0521 H   0  0  0  0  0
    6.2172   49.7509   14.5859 H   0  0  0  0  0
    7.4553   49.1008   17.2673 H   0  0  0  0  0
    7.8486   50.4022   16.1846 H   0  0  0  0  0
    9.1645   49.0149   14.7780 H   0  0  0  0  0
    9.3947   48.1746   16.2469 H   0  0  0  0  0
    7.3477   47.8943   12.6902 H   0  0  0  0  0
    4.8076   47.8294   11.3019 H   0  0  0  0  0
    7.0336   48.9824   10.6402 H   0  0  0  0  0
    6.0314   48.1914    9.3406 H   0  0  0  0  0
    9.1321   46.9160    8.2202 H   0  0  0  0  0
    7.8611   48.1170    7.9677 H   0  0  0  0  0
  1  2  1  0  0  0
  1 95  1  0  0  0
  1101  1  0  0  0
  2  3  1  0  0  0
  2101  1  0  0  0
  3  4  2  0  0  0
  3  5  1  0  0  0
  5  6  1  0  0  0
  6  7  1  0  0  0
  6  9  1  0  0  0
  7  8  2  0  0  0
  7 12  1  0  0  0
  9 10  1  0  0  0
  9 11  1  0  0  0
 12 13  1  0  0  0
 13 14  1  0  0  0
 13 16  1  0  0  0
 14 15  2  0  0  0
 14 18  1  0  0  0
 16 17  1  0  0  0
 17 77  1  0  0  0
 18 19  1  0  0  0
 19 20  1  0  0  0
 19 22  1  0  0  0
 20 21  2  0  0  0
 20 25  1  0  0  0
 22 23  1  0  0  0
 22 24  1  0  0  0
 25 26  1  0  0  0
 26 27  1  0  0  0
 26 29  1  0  0  0
 27 28  2  0  0  0
 27 36  1  0  0  0
 29 30  1  0  0  0
 30 31  1  0  0  0
 31 32  1  0  0  0
 32 33  1  0  0  0
 33 34  2  0  0  0
 33 35  1  0  0  0
 36 37  1  0  0  0
 37 38  1  0  0  0
 37 40  1  0  0  0
 38 39  2  0  0  0
 38 42  1  0  0  0
 40 41  1  0  0  0
 42 43  1  0  0  0
 43 44  1  0  0  0
 43 46  1  0  0  0
 44 45  2  0  0  0
 44 50  1  0  0  0
 46 47  1  0  0  0
 46 48  1  0  0  0
 47 49  1  0  0  0
 50 51  1  0  0  0
 50 56  1  0  0  0
 51 52  1  0  0  0
 51 54  1  0  0  0
 52 53  2  0  0  0
 52 57  1  0  0  0
 54 55  1  0  0  0
 55 56  1  0  0  0
 57 58  1  0  0  0
 57 63  1  0  0  0
 58 59  1  0  0  0
 58 61  1  0  0  0
 59 60  2  0  0  0
 59 64  1  0  0  0
 61 62  1  0  0  0
 62 63  1  0  0  0
 64 65  1  0  0  0
 65 66  1  0  0  0
 65 68  1  0  0  0
 66 67  2  0  0  0
 66 72  1  0  0  0
 68 69  1  0  0  0
 68 70  1  0  0  0
 69 71  1  0  0  0
 72 73  1  0  0  0
 73 74  1  0  0  0
 73 76  1  0  0  0
 74 75  2  0  0  0
 74 78  1  0  0  0
 76 77  1  0  0  0
 78 79  1  0  0  0
 79 80  1  0  0  0
 79 82  1  0  0  0
 80 81  2  0  0  0
 80 86  1  0  0  0
 82 83  1  0  0  0
 83 84  2  0  0  0
 83 85  1  0  0  0
 86 87  1  0  0  0
 86 92  1  0  0  0
 87 88  1  0  0  0
 87 90  1  0  0  0
 88 89  2  0  0  0
 88 93  1  0  0  0
 90 91  1  0  0  0
 91 92  1  0  0  0
 93 94  1  0  0  0
 94 95  1  0  0  0
 94 97  1  0  0  0
 95 96  2  0  0  0
 97 98  1  0  0  0
 98 99  2  0  0  0
 98100  1  0  0  0
  2102  1  0  0  0
  5103  1  0  0  0
  6104  1  0  0  0
  9105  1  0  0  0
 10106  1  0  0  0
 11107  1  0  0  0
 11108  1  0  0  0
 11109  1  0  0  0
 12110  1  0  0  0
 13111  1  0  0  0
 16112  1  0  0  0
 16113  1  0  0  0
 18114  1  0  0  0
 19115  1  0  0  0
 22116  1  0  0  0
 23117  1  0  0  0
 24118  1  0  0  0
 24119  1  0  0  0
 24120  1  0  0  0
 25121  1  0  0  0
 26122  1  0  0  0
 29123  1  0  0  0
 29124  1  0  0  0
 30125  1  0  0  0
 30126  1  0  0  0
 31127  1  0  0  0
 31128  1  0  0  0
 32129  1  0  0  0
 34130  1  0  0  0
 35131  1  0  0  0
 35132  1  0  0  0
 36133  1  0  0  0
 37134  1  0  0  0
 40135  1  0  0  0
 40136  1  0  0  0
 41137  1  0  0  0
 42138  1  0  0  0
 43139  1  0  0  0
 46140  1  0  0  0
 47141  1  0  0  0
 47142  1  0  0  0
 48143  1  0  0  0
 48144  1  0  0  0
 48145  1  0  0  0
 49146  1  0  0  0
 49147  1  0  0  0
 49148  1  0  0  0
 51149  1  0  0  0
 54150  1  0  0  0
 54151  1  0  0  0
 55152  1  0  0  0
 55153  1  0  0  0
 56154  1  0  0  0
 56155  1  0  0  0
 58156  1  0  0  0
 61157  1  0  0  0
 61158  1  0  0  0
 62159  1  0  0  0
 62160  1  0  0  0
 63161  1  0  0  0
 63162  1  0  0  0
 64163  1  0  0  0
 65164  1  0  0  0
 68165  1  0  0  0
 69166  1  0  0  0
 69167  1  0  0  0
 70168  1  0  0  0
 70169  1  0  0  0
 70170  1  0  0  0
 71171  1  0  0  0
 71172  1  0  0  0
 71173  1  0  0  0
 72174  1  0  0  0
 73175  1  0  0  0
 76176  1  0  0  0
 76177  1  0  0  0
 78178  1  0  0  0
 79179  1  0  0  0
 82180  1  0  0  0
 82181  1  0  0  0
 85182  1  0  0  0
 85183  1  0  0  0
 87184  1  0  0  0
 90185  1  0  0  0
 90186  1  0  0  0
 91187  1  0  0  0
 91188  1  0  0  0
 92189  1  0  0  0
 92190  1  0  0  0
 93191  1  0  0  0
 94192  1  0  0  0
 97193  1  0  0  0
 97194  1  0  0  0
100195  1  0  0  0
100196  1  0  0  0
M  END
$$$$
