### 
### Created by X-TOOL on Mon Aug  2 16:12:42 2021
### 

@<TRIPOS>MOLECULE
6bvh_ligand
  197   202     1     0     0
SMALL
GAST_HUCK


@<TRIPOS>ATOM
      1 N           5.8550   44.8770   11.8140 N.am      1 GLY        -0.0890
      2 CA          5.5500   43.4580   11.8650 C.3       1 GLY         0.2896
      3 C           6.6900   42.5560   11.4190 C.2       1 GLY         0.2371
      4 O           6.5900   41.3300   11.4990 O.2       1 GLY        -0.3915
      5 N           7.7790   43.1570   10.9490 N.am      1 GLY        -0.2591
      6 CA          8.9120   42.3790   10.4760 C.3       1 GLY         0.1565
      7 C           9.7970   41.9730   11.6480 C.2       1 GLY         0.2065
      8 O          10.0090   42.7490   12.5850 O.2       1 GLY        -0.3943
      9 CB          9.7160   43.1710    9.4400 C.3       1 GLY         0.0924
     10 OG1        10.3440   44.3010   10.0660 O.3       1 GLY        -0.3874
     11 CG2         8.7950   43.6700    8.3380 C.3       1 GLY        -0.0346
     12 N          10.2970   40.7410   11.5960 N.am      1 GLY        -0.2628
     13 CA         11.0920   40.1760   12.6750 C.3       1 GLY         0.1406
     14 C          12.3100   39.4690   12.1110 C.2       1 GLY         0.2048
     15 O          12.2510   38.8750   11.0270 O.2       1 GLY        -0.3944
     16 CB         10.3020   39.1540   13.5080 C.3       1 GLY         0.0443
     17 SG          8.7620   39.7390   14.1930 S.3       1 GLY        -0.0882
     18 N          13.4030   39.5060   12.8780 N.am      1 GLY        -0.2613
     19 CA         14.5070   38.5930   12.6280 C.3       1 GLY         0.1565
     20 C          14.0260   37.1540   12.7590 C.2       1 GLY         0.2065
     21 O          13.0230   36.8580   13.4170 O.2       1 GLY        -0.3943
     22 CB         15.6580   38.8110   13.6150 C.3       1 GLY         0.0924
     23 OG1        15.2270   38.4860   14.9490 O.3       1 GLY        -0.3874
     24 CG2        16.1600   40.2470   13.5540 C.3       1 GLY        -0.0346
     25 N          14.7710   36.2380   12.1520 N.am      1 GLY        -0.2636
     26 CA         14.3740   34.8350   12.1930 C.3       1 GLY         0.1311
     27 C          15.1690   34.0380   13.2220 C.2       1 GLY         0.2040
     28 O          15.5070   32.8720   13.0280 O.2       1 GLY        -0.3944
     29 CB         14.4660   34.2520   10.7900 C.3       1 GLY        -0.0092
     30 CG         13.1850   34.6140   10.0620 C.3       1 GLY        -0.0156
     31 CD         13.3000   34.7340    8.5730 C.3       1 GLY         0.0627
     32 NE         11.9990   35.1400    8.0300 N.pl3     1 GLY        -0.2723
     33 CZ         11.6150   34.9410    6.7780 C.cat     1 GLY         0.2882
     34 NH1        12.4390   34.3510    5.9210 N.pl3     1 GLY        -0.2849
     35 NH2        10.4110   35.3410    6.3840 N.pl3     1 GLY        -0.2849
     36 N          15.4670   34.6670   14.3510 N.am      1 GLY        -0.2616
     37 CA         16.1500   34.0320   15.4630 C.3       1 GLY         0.1539
     38 C          15.1250   33.4900   16.4550 C.2       1 GLY         0.2062
     39 O          13.9340   33.8010   16.3800 O.2       1 GLY        -0.3943
     40 CB         17.0710   35.0440   16.1420 C.3       1 GLY         0.0843
     41 OG         16.3270   36.2190   16.4780 O.3       1 GLY        -0.3903
     42 N          15.5950   32.6710   17.3920 N.am      1 GLY        -0.2634
     43 CA         14.7940   32.2880   18.5530 C.3       1 GLY         0.1337
     44 C          15.3580   33.0200   19.7670 C.2       1 GLY         0.2067
     45 O          16.5000   32.7510   20.1760 O.2       1 GLY        -0.3942
     46 CB         14.7920   30.7710   18.7850 C.3       1 GLY        -0.0037
     47 CG1        14.0560   30.0510   17.6600 C.3       1 GLY        -0.0491
     48 CG2        14.1270   30.4590   20.1320 C.3       1 GLY        -0.0582
     49 CD1        14.4020   28.5880   17.5740 C.3       1 GLY        -0.0648
     50 N          14.6170   33.9580   20.3780 N.am      1 GLY        -0.2498
     51 CA         13.3170   34.4870   19.9540 C.3       1 GLY         0.1340
     52 C          13.4830   35.5180   18.8480 C.2       1 GLY         0.2066
     53 O          14.5860   36.0210   18.6630 O.2       1 GLY        -0.3942
     54 CB         12.7810   35.1460   21.2270 C.3       1 GLY        -0.0104
     55 CG         13.9960   35.5980   21.9310 C.3       1 GLY        -0.0281
     56 CD         15.0670   34.5690   21.6420 C.3       1 GLY         0.0369
     57 N          12.4120   35.8280   18.1280 N.am      1 GLY        -0.2498
     58 CA         12.5010   36.8740   17.1050 C.3       1 GLY         0.1338
     59 C          12.6790   38.2460   17.7330 C.2       1 GLY         0.2041
     60 O          12.2280   38.5120   18.8510 O.2       1 GLY        -0.3944
     61 CB         11.1580   36.7710   16.3730 C.3       1 GLY        -0.0104
     62 CG         10.2170   36.1820   17.4060 C.3       1 GLY        -0.0281
     63 CD         11.0790   35.1960   18.1630 C.3       1 GLY         0.0369
     64 N          13.3550   39.1200   16.9960 N.am      1 GLY        -0.2635
     65 CA         13.4630   40.5370   17.3270 C.3       1 GLY         0.1335
     66 C          12.6210   41.2900   16.3080 C.2       1 GLY         0.2042
     67 O          12.9030   41.2330   15.1060 O.2       1 GLY        -0.3944
     68 CB         14.9220   41.0150   17.3090 C.3       1 GLY        -0.0037
     69 CG1        15.7730   40.1530   18.2510 C.3       1 GLY        -0.0491
     70 CG2        15.0110   42.4860   17.7100 C.3       1 GLY        -0.0582
     71 CD1        17.2560   40.2450   17.9790 C.3       1 GLY        -0.0648
     72 N          11.5880   41.9870   16.7750 N.am      1 GLY        -0.2629
     73 CA         10.5510   42.4850   15.8870 C.3       1 GLY         0.1406
     74 C          10.4640   44.0040   15.9090 C.2       1 GLY         0.2049
     75 O          10.7500   44.6590   16.9170 O.2       1 GLY        -0.3944
     76 CB          9.1920   41.8820   16.2540 C.3       1 GLY         0.0443
     77 SG          9.1830   40.0770   16.1600 S.3       1 GLY        -0.0882
     78 N          10.0730   44.5240   14.8340 N.am      1 GLY        -0.2616
     79 CA          9.7560   45.9030   14.5330 C.3       1 GLY         0.1478
     80 C           8.2610   46.1340   14.7060 C.2       1 GLY         0.2088
     81 O           7.4700   45.1950   14.5830 O.2       1 GLY        -0.3940
     82 CB         10.1720   46.2300   13.0960 C.3       1 GLY         0.0773
     83 CG         10.5040   47.6880   12.9010 C.2       1 GLY         0.1780
     84 OD1         9.6570   48.4770   12.4830 O.2       1 GLY        -0.3970
     85 ND2        11.7430   48.0580   13.2050 N.am      1 GLY        -0.3007
     86 N           7.8300   47.3560   15.0310 N.am      1 GLY        -0.2497
     87 CA          6.3840   47.6190   15.0680 C.3       1 GLY         0.1338
     88 C           5.6960   47.3520   13.7410 C.2       1 GLY         0.2042
     89 O           4.5360   46.9210   13.7320 O.2       1 GLY        -0.3944
     90 CB          6.3080   49.1020   15.4570 C.3       1 GLY        -0.0104
     91 CG          7.5690   49.3490   16.2120 C.3       1 GLY        -0.0281
     92 CD          8.6120   48.4880   15.5560 C.3       1 GLY         0.0369
     93 N           6.3820   47.5730   12.6220 N.am      1 GLY        -0.2616
     94 CA          5.7960   47.3700   11.2990 C.3       1 GLY         0.1496
     95 C           5.6100   45.8840   10.9820 C.2       1 GLY         0.2349
     96 O           5.0400   45.5260    9.9470 O.2       1 GLY        -0.3937
     97 CB          6.6580   48.0490   10.2210 C.3       1 GLY         0.0773
     98 CG          7.8710   47.2120    9.7950 C.2       1 GLY         0.1780
     99 OD1         8.3950   46.3960   10.5530 O.2       1 GLY        -0.3970
    100 ND2         8.3230   47.4320    8.5660 N.am      1 GLY        -0.3007
    101 OXT         6.0270   45.0170   11.7560 O.3       1 GLY        -0.1970
    102 H1          4.5826   42.9677   12.0490 H         1 GLY         0.1177
    103 H2          7.8190   44.1558   10.9206 H         1 GLY         0.1885
    104 H3          8.5311   41.4661    9.9948 H         1 GLY         0.0826
    105 H4         10.4871   42.5184    9.0047 H         1 GLY         0.0639
    106 H5          9.6777   44.8638   10.4425 H         1 GLY         0.2101
    107 H6          9.3807   44.2370    7.5994 H         1 GLY         0.0257
    108 H7          8.0230   44.3221    8.7725 H         1 GLY         0.0257
    109 H8          8.3150   42.8120    7.8447 H         1 GLY         0.0257
    110 H9         10.1197   40.1831   10.7853 H         1 GLY         0.1884
    111 H10        11.4183   40.9954   13.3324 H         1 GLY         0.0808
    112 H11        10.9419   38.8311   14.3424 H         1 GLY         0.0432
    113 H12        10.0787   38.2920   12.8622 H         1 GLY         0.0432
    114 H13        13.4624   40.1649   13.6279 H         1 GLY         0.1884
    115 H14        14.8774   38.7608   11.6059 H         1 GLY         0.0826
    116 H15        16.4861   38.1411   13.3402 H         1 GLY         0.0639
    117 H16        14.9549   37.5763   14.9799 H         1 GLY         0.2101
    118 H17        16.9845   40.3779   14.2703 H         1 GLY         0.0257
    119 H18        15.3395   40.9335   13.8100 H         1 GLY         0.0257
    120 H19        16.5188   40.4672   12.5377 H         1 GLY         0.0257
    121 H20        15.6027   36.5093   11.6676 H         1 GLY         0.1883
    122 H21        13.3189   34.7944   12.5013 H         1 GLY         0.0800
    123 H22        14.5714   33.1584   10.8437 H         1 GLY         0.0313
    124 H23        15.3316   34.6784   10.2619 H         1 GLY         0.0313
    125 H24        12.8344   35.5803   10.4535 H         1 GLY         0.0301
    126 H25        12.4388   33.8365   10.2825 H         1 GLY         0.0301
    127 H26        13.5927   33.7637    8.1453 H         1 GLY         0.0689
    128 H27        14.0582   35.4898    8.3204 H         1 GLY         0.0689
    129 H28        11.3396   35.6117    8.6653 H         1 GLY         0.2642
    130 H29        12.1434   34.1948    4.9468 H         1 GLY         0.2615
    131 H30        13.3741   34.0493    6.2302 H         1 GLY         0.2615
    132 H31         9.7756   35.7983    7.0534 H         1 GLY         0.2615
    133 H32        10.1129   35.1938    5.4091 H         1 GLY         0.2615
    134 H33        15.2076   35.6286   14.4407 H         1 GLY         0.1884
    135 H34        16.7559   33.1959   15.0837 H         1 GLY         0.0823
    136 H35        17.8890   35.3119   15.4571 H         1 GLY         0.0606
    137 H36        17.4897   34.6013   17.0578 H         1 GLY         0.0606
    138 H37        15.6209   35.9870   17.0696 H         1 GLY         0.2097
    139 H38        16.5219   32.3073   17.2995 H         1 GLY         0.1883
    140 H39        13.7555   32.6111   18.3886 H         1 GLY         0.0803
    141 H40        15.8325   30.4151   18.8096 H         1 GLY         0.0345
    142 H41        14.3192   30.5303   16.7056 H         1 GLY         0.0267
    143 H42        12.9737   30.1459   17.8318 H         1 GLY         0.0267
    144 H43        14.6647   30.9825   20.9363 H         1 GLY         0.0235
    145 H44        14.1595   29.3748   20.3146 H         1 GLY         0.0235
    146 H45        13.0802   30.7962   20.1110 H         1 GLY         0.0235
    147 H46        13.8418   28.1267   16.7473 H         1 GLY         0.0230
    148 H47        14.1357   28.0920   18.5190 H         1 GLY         0.0230
    149 H48        15.4812   28.4765   17.3927 H         1 GLY         0.0230
    150 H49        12.6520   33.6803   19.6120 H         1 GLY         0.0802
    151 H50        12.2219   34.4214   21.8372 H         1 GLY         0.0313
    152 H51        12.1305   35.9986   20.9823 H         1 GLY         0.0313
    153 H52        13.8083   35.6576   23.0132 H         1 GLY         0.0287
    154 H53        14.3066   36.5850   21.5578 H         1 GLY         0.0287
    155 H54        16.0503   35.0469   21.5207 H         1 GLY         0.0524
    156 H55        15.1203   33.8193   22.4452 H         1 GLY         0.0524
    157 H56        13.3371   36.6780   16.4176 H         1 GLY         0.0802
    158 H57        11.2401   36.1097   15.4978 H         1 GLY         0.0313
    159 H58        10.8118   37.7642   16.0510 H         1 GLY         0.0313
    160 H59         9.3726   35.6712   16.9201 H         1 GLY         0.0287
    161 H60         9.8346   36.9642   18.0783 H         1 GLY         0.0287
    162 H61        10.7257   35.0745   19.1976 H         1 GLY         0.0524
    163 H62        11.0922   34.2165   17.6626 H         1 GLY         0.0524
    164 H63        13.8139   38.7897   16.1712 H         1 GLY         0.1883
    165 H64        13.0549   40.7069   18.3342 H         1 GLY         0.0803
    166 H65        15.3127   40.9076   16.2864 H         1 GLY         0.0345
    167 H66        15.4630   39.1037   18.1377 H         1 GLY         0.0267
    168 H67        15.5879   40.4805   19.2847 H         1 GLY         0.0267
    169 H68        14.3966   43.0902   17.0263 H         1 GLY         0.0235
    170 H69        16.0579   42.8189   17.6532 H         1 GLY         0.0235
    171 H70        14.6426   42.6084   18.7392 H         1 GLY         0.0235
    172 H71        17.7994   39.6042   18.6890 H         1 GLY         0.0230
    173 H72        17.5868   41.2873   18.0985 H         1 GLY         0.0230
    174 H73        17.4618   39.9105   16.9515 H         1 GLY         0.0230
    175 H74        11.5241   42.1716   17.7557 H         1 GLY         0.1884
    176 H75        10.8033   42.1724   14.8630 H         1 GLY         0.0808
    177 H76         8.4338   42.2745   15.5604 H         1 GLY         0.0432
    178 H77         8.9395   42.1823   17.2816 H         1 GLY         0.0432
    179 H78         9.9644   43.8877   14.0702 H         1 GLY         0.1885
    180 H79        10.3048   46.5590   15.2247 H         1 GLY         0.0826
    181 H80         9.3445   45.9648   12.4216 H         1 GLY         0.0551
    182 H81        11.0587   45.6307   12.8418 H         1 GLY         0.0551
    183 H82        12.0208   49.0124   13.0959 H         1 GLY         0.1814
    184 H83        12.3980   47.3821   13.5430 H         1 GLY         0.1814
    185 H84         5.9065   46.9960   15.8387 H         1 GLY         0.0802
    186 H85         5.4300   49.2941   16.0912 H         1 GLY         0.0313
    187 H86         6.2593   49.7381   14.5609 H         1 GLY         0.0313
    188 H87         7.4458   49.0649   17.2675 H         1 GLY         0.0287
    189 H88         7.8524   50.4100   16.1485 H         1 GLY         0.0287
    190 H89         9.1167   49.0300   14.7427 H         1 GLY         0.0524
    191 H90         9.3589   48.1462   16.2877 H         1 GLY         0.0524
    192 H91         7.3287   47.8880   12.6889 H         1 GLY         0.1885
    193 H92         4.8032   47.8436   11.2924 H         1 GLY         0.0825
    194 H93         7.0189   49.0097   10.6170 H         1 GLY         0.0551
    195 H94         6.0308   48.2298    9.3356 H         1 GLY         0.0551
    196 H95         9.1113   46.9204    8.2241 H         1 GLY         0.1814
    197 H96         7.8751   48.1093    7.9823 H         1 GLY         0.1814
@<TRIPOS>BOND
     1    1    2 1  
     2    1   95 am 
     3    1  101 1  
     4    2    3 1  
     5    2  101 1  
     6    3    4 2  
     7    3    5 am 
     8    5    6 1  
     9    6    7 1  
    10    6    9 1  
    11    7    8 2  
    12    7   12 am 
    13    9   10 1  
    14    9   11 1  
    15   12   13 1  
    16   13   14 1  
    17   13   16 1  
    18   14   15 2  
    19   14   18 am 
    20   16   17 1  
    21   17   77 1  
    22   18   19 1  
    23   19   20 1  
    24   19   22 1  
    25   20   21 2  
    26   20   25 am 
    27   22   23 1  
    28   22   24 1  
    29   25   26 1  
    30   26   27 1  
    31   26   29 1  
    32   27   28 2  
    33   27   36 am 
    34   29   30 1  
    35   30   31 1  
    36   31   32 1  
    37   32   33 ar 
    38   33   34 ar 
    39   33   35 ar 
    40   36   37 1  
    41   37   38 1  
    42   37   40 1  
    43   38   39 2  
    44   38   42 am 
    45   40   41 1  
    46   42   43 1  
    47   43   44 1  
    48   43   46 1  
    49   44   45 2  
    50   44   50 am 
    51   46   47 1  
    52   46   48 1  
    53   47   49 1  
    54   50   51 1  
    55   50   56 1  
    56   51   52 1  
    57   51   54 1  
    58   52   53 2  
    59   52   57 am 
    60   54   55 1  
    61   55   56 1  
    62   57   58 1  
    63   57   63 1  
    64   58   59 1  
    65   58   61 1  
    66   59   60 2  
    67   59   64 am 
    68   61   62 1  
    69   62   63 1  
    70   64   65 1  
    71   65   66 1  
    72   65   68 1  
    73   66   67 2  
    74   66   72 am 
    75   68   69 1  
    76   68   70 1  
    77   69   71 1  
    78   72   73 1  
    79   73   74 1  
    80   73   76 1  
    81   74   75 2  
    82   74   78 am 
    83   76   77 1  
    84   78   79 1  
    85   79   80 1  
    86   79   82 1  
    87   80   81 2  
    88   80   86 am 
    89   82   83 1  
    90   83   84 2  
    91   83   85 am 
    92   86   87 1  
    93   86   92 1  
    94   87   88 1  
    95   87   90 1  
    96   88   89 2  
    97   88   93 am 
    98   90   91 1  
    99   91   92 1  
   100   93   94 1  
   101   94   95 1  
   102   94   97 1  
   103   95   96 2  
   104   97   98 1  
   105   98   99 2  
   106   98  100 am 
   107    2  102 1  
   108    5  103 1  
   109    6  104 1  
   110    9  105 1  
   111   10  106 1  
   112   11  107 1  
   113   11  108 1  
   114   11  109 1  
   115   12  110 1  
   116   13  111 1  
   117   16  112 1  
   118   16  113 1  
   119   18  114 1  
   120   19  115 1  
   121   22  116 1  
   122   23  117 1  
   123   24  118 1  
   124   24  119 1  
   125   24  120 1  
   126   25  121 1  
   127   26  122 1  
   128   29  123 1  
   129   29  124 1  
   130   30  125 1  
   131   30  126 1  
   132   31  127 1  
   133   31  128 1  
   134   32  129 1  
   135   34  130 1  
   136   34  131 1  
   137   35  132 1  
   138   35  133 1  
   139   36  134 1  
   140   37  135 1  
   141   40  136 1  
   142   40  137 1  
   143   41  138 1  
   144   42  139 1  
   145   43  140 1  
   146   46  141 1  
   147   47  142 1  
   148   47  143 1  
   149   48  144 1  
   150   48  145 1  
   151   48  146 1  
   152   49  147 1  
   153   49  148 1  
   154   49  149 1  
   155   51  150 1  
   156   54  151 1  
   157   54  152 1  
   158   55  153 1  
   159   55  154 1  
   160   56  155 1  
   161   56  156 1  
   162   58  157 1  
   163   61  158 1  
   164   61  159 1  
   165   62  160 1  
   166   62  161 1  
   167   63  162 1  
   168   63  163 1  
   169   64  164 1  
   170   65  165 1  
   171   68  166 1  
   172   69  167 1  
   173   69  168 1  
   174   70  169 1  
   175   70  170 1  
   176   70  171 1  
   177   71  172 1  
   178   71  173 1  
   179   71  174 1  
   180   72  175 1  
   181   73  176 1  
   182   76  177 1  
   183   76  178 1  
   184   78  179 1  
   185   79  180 1  
   186   82  181 1  
   187   82  182 1  
   188   85  183 1  
   189   85  184 1  
   190   87  185 1  
   191   90  186 1  
   192   90  187 1  
   193   91  188 1  
   194   91  189 1  
   195   92  190 1  
   196   92  191 1  
   197   93  192 1  
   198   94  193 1  
   199   97  194 1  
   200   97  195 1  
   201  100  196 1  
   202  100  197 1  
@<TRIPOS>SUBSTRUCTURE
     1 GLY         1

