1apw_ligand
  -I-interpret- 

 79 78  0  0  0  0  0  0  0  0999 V2000
   16.0840    4.4610   17.7960 C   0  0  0  0  0
   14.8430    3.8580   18.4520 C   0  0  0  0  0
   14.3540    4.8740   19.4690 C   0  0  0  0  0
   13.7470    3.5900   17.4470 C   0  0  0  0  0
   17.2070    4.7150   18.8020 C   0  0  0  0  0
   17.2750    4.0360   19.8570 O   0  0  0  0  0
   18.0800    5.6360   18.4920 N   0  0  0  0  0
   19.2180    5.9090   19.3990 C   0  0  0  0  0
   19.1120    7.2860   20.0730 C   0  0  0  0  0
   18.2720    8.0860   19.6240 O   0  0  0  0  0
   20.4700    5.7770   18.4920 C   0  0  0  0  0
   20.5610    4.4210   17.7960 C   0  0  0  0  0
   20.4440    6.8290   17.3790 C   0  0  0  0  0
   19.9740    7.4100   21.0550 N   0  0  0  0  0
   20.0420    8.6950   21.8260 C   0  0  0  0  0
   21.5340    9.0230   21.9350 C   0  0  0  0  0
   22.1540    8.4020   22.8160 O   0  0  0  0  0
   19.3120    8.6400   23.1800 C   0  0  0  0  0
   19.2610   10.0270   23.8480 C   0  0  0  0  0
   17.9070    8.1110   23.0550 C   0  0  0  0  0
   22.0560    9.9170   21.0780 N   0  0  0  0  0
   23.4740   10.2430   21.0960 C   0  0  0  0  0
   24.1080    9.7490   19.7650 C   0  0  0  0  0
   23.8560    8.2980   19.4030 C   0  0  0  0  0
   24.4200    8.0080   17.9990 C   0  0  0  0  0
   24.4870    7.3210   20.4130 C   0  0  0  0  0
   23.7370   11.7430   21.2650 C   0  0  0  0  0
   22.8880   12.5040   20.3570 O   0  0  0  0  0
   23.4880   12.3710   22.6610 C   0  0  0  0  0
   24.5910   11.9540   23.6870 C   0  0  0  0  0
   24.5680   10.8510   24.2720 O   0  0  0  0  0
   22.3150   11.9820   23.1560 F   0  0  0  0  0
   23.3830   13.7150   22.6590 F   0  0  0  0  0
   25.5250   12.8650   23.8560 N   0  0  0  0  0
   26.6620   12.6360   24.8010 C   0  0  0  0  0
   15.8025    5.4172   17.3550 H   0  0  0  0  0
   16.4504    3.7539   17.0518 H   0  0  0  0  0
   15.0965    2.9020   18.9101 H   0  0  0  0  0
   14.0921    5.8005   18.9580 H   0  0  0  0  0
   13.4765    4.4797   19.9816 H   0  0  0  0  0
   15.1435    5.0685   20.1949 H   0  0  0  0  0
   12.8706    3.1979   17.9630 H   0  0  0  0  0
   13.4862    4.5187   16.9395 H   0  0  0  0  0
   14.0964    2.8608   16.7161 H   0  0  0  0  0
   17.9779    6.1661   17.6266 H   0  0  0  0  0
   19.2520    5.2152   20.2390 H   0  0  0  0  0
   21.3224    5.9066   19.1589 H   0  0  0  0  0
   20.6096    3.6316   18.5460 H   0  0  0  0  0
   19.6806    4.2755   17.1700 H   0  0  0  0  0
   21.4576    4.3913   17.1768 H   0  0  0  0  0
   19.5505    6.6901   16.7703 H   0  0  0  0  0
   20.4321    7.8248   17.8222 H   0  0  0  0  0
   21.3310    6.7181   16.7552 H   0  0  0  0  0
   20.5947    6.6363   21.2928 H   0  0  0  0  0
   19.5069    9.4933   21.3118 H   0  0  0  0  0
   19.8885    7.9538   23.8004 H   0  0  0  0  0
   20.2766   10.3854   24.0163 H   0  0  0  0  0
   18.7319   10.7231   23.1972 H   0  0  0  0  0
   18.7386    9.9506   24.8016 H   0  0  0  0  0
   17.3346    8.7574   22.3897 H   0  0  0  0  0
   17.9355    7.1009   22.6464 H   0  0  0  0  0
   17.4379    8.0933   24.0388 H   0  0  0  0  0
   21.4461   10.3761   20.4015 H   0  0  0  0  0
   23.9225    9.7467   21.9566 H   0  0  0  0  0
   25.1866    9.8504   19.8850 H   0  0  0  0  0
   23.6550   10.3442   18.9721 H   0  0  0  0  0
   22.7771    8.1442   19.4224 H   0  0  0  0  0
   23.9285    8.6534   17.2710 H   0  0  0  0  0
   25.4926    8.2018   17.9926 H   0  0  0  0  0
   24.2365    6.9644   17.7436 H   0  0  0  0  0
   25.5652    7.4780   20.4434 H   0  0  0  0  0
   24.0645    7.4995   21.4018 H   0  0  0  0  0
   24.2762    6.2966   20.1059 H   0  0  0  0  0
   24.8076   11.8038   21.0697 H   0  0  0  0  0
   23.0599   13.4417   20.4703 H   0  0  0  0  0
   25.4732   13.7404   23.3350 H   0  0  0  0  0
   26.2714   12.4825   25.8070 H   0  0  0  0  0
   27.2207   11.7539   24.4882 H   0  0  0  0  0
   27.3194   13.5054   24.7939 H   0  0  0  0  0
  8  7  1  0  0  0
  8 11  1  0  0  0
  9  8  1  0  0  0
  9 10  2  0  0  0
 11 13  1  0  0  0
 11 12  1  0  0  0
 15 14  1  0  0  0
 15 18  1  0  0  0
 16 15  1  0  0  0
 16 17  2  0  0  0
 18 20  1  0  0  0
 18 19  1  0  0  0
 14  9  1  0  0  0
 34 35  1  0  0  0
  1  2  1  0  0  0
  5  1  1  0  0  0
  2  3  1  0  0  0
  2  4  1  0  0  0
  5  6  2  0  0  0
  7  5  1  0  0  0
 21 16  1  0  0  0
 22 21  1  0  0  0
 22 23  1  0  0  0
 27 22  1  0  0  0
 23 24  1  0  0  0
 24 25  1  0  0  0
 24 26  1  0  0  0
 27 28  1  0  0  0
 29 27  1  0  0  0
 30 29  1  0  0  0
 29 32  1  0  0  0
 29 33  1  0  0  0
 30 31  2  0  0  0
 30 34  1  0  0  0
  1 36  1  0  0  0
  1 37  1  0  0  0
  2 38  1  0  0  0
  3 39  1  0  0  0
  3 40  1  0  0  0
  3 41  1  0  0  0
  4 42  1  0  0  0
  4 43  1  0  0  0
  4 44  1  0  0  0
  7 45  1  0  0  0
  8 46  1  0  0  0
 11 47  1  0  0  0
 12 48  1  0  0  0
 12 49  1  0  0  0
 12 50  1  0  0  0
 13 51  1  0  0  0
 13 52  1  0  0  0
 13 53  1  0  0  0
 14 54  1  0  0  0
 15 55  1  0  0  0
 18 56  1  0  0  0
 19 57  1  0  0  0
 19 58  1  0  0  0
 19 59  1  0  0  0
 20 60  1  0  0  0
 20 61  1  0  0  0
 20 62  1  0  0  0
 21 63  1  0  0  0
 22 64  1  0  0  0
 23 65  1  0  0  0
 23 66  1  0  0  0
 24 67  1  0  0  0
 25 68  1  0  0  0
 25 69  1  0  0  0
 25 70  1  0  0  0
 26 71  1  0  0  0
 26 72  1  0  0  0
 26 73  1  0  0  0
 27 74  1  0  0  0
 28 75  1  0  0  0
 34 76  1  0  0  0
 35 77  1  0  0  0
 35 78  1  0  0  0
 35 79  1  0  0  0
M  END
$$$$
