4eev_ligand
  -I-interpret- 

 64 69  0  0  0  0  0  0  0  0999 V2000
    6.3170    3.6700   45.4060 C   0  0  0  0  0
    5.8410    1.4840   44.4820 C   0  0  0  0  0
   12.3690   -0.8040   44.9960 C   0  0  0  0  0
   13.5840   -1.4010   44.6770 C   0  0  0  0  0
    5.8290    4.2570   44.2460 C   0  0  0  0  0
    5.3500    2.0800   43.3360 C   0  0  0  0  0
   14.3930   -4.4460   43.6520 C   0  0  0  0  0
   17.0170   -4.5440   42.4500 C   0  0  0  0  0
   12.2270   -2.0790   46.9960 C   0  0  0  0  0
   13.9150   -6.0950   41.7310 C   0  0  0  0  0
   19.1150   -2.7640   43.5560 C   0  0  0  0  0
   17.8260   -2.4380   45.3380 C   0  0  0  0  0
   14.6750   -5.2370   42.5370 C   0  0  0  0  0
   16.7360   -3.7880   43.5540 C   0  0  0  0  0
   17.8380   -3.0460   44.1040 C   0  0  0  0  0
   15.9440   -5.2600   41.9870 C   0  0  0  0  0
    6.3070    2.2870   45.4770 C   0  0  0  0  0
   11.6860   -1.1450   46.1510 C   0  0  0  0  0
   14.1200   -2.3380   45.5320 C   0  0  0  0  0
   15.4770   -3.7320   44.1290 C   0  0  0  0  0
    5.3530    3.4480   43.2590 C   0  0  0  0  0
   13.4470   -2.6640   46.6850 C   0  0  0  0  0
    7.8580    0.2660   48.7430 C   0  0  0  0  0
    6.5880    0.9170   48.8580 C   0  0  0  0  0
    8.5700    0.2690   47.5960 C   0  0  0  0  0
    6.0930    1.5540   47.7820 C   0  0  0  0  0
    8.0320    0.9810   46.4080 C   0  0  0  0  0
    9.8280   -0.4750   47.6250 C   0  0  0  0  0
    4.7750    2.2530   47.8070 C   0  0  0  0  0
   16.9640   -6.4780   40.0470 C   0  0  0  0  0
   14.6340   -6.6370   40.7550 N   0  0  0  0  0
   19.8340   -2.0300   44.4000 N   0  0  0  0  0
   19.0560   -1.8510   45.4630 N   0  0  0  0  0
   15.8620   -6.1190   40.9340 N   0  0  0  0  0
    6.8210    1.6050   46.5940 N   0  0  0  0  0
   10.4390   -0.5360   46.4070 N   0  0  0  0  0
    8.6710    0.9420   45.3600 O   0  0  0  0  0
   10.1540   -1.0780   48.6300 O   0  0  0  0  0
   15.3590   -2.9220   45.2440 O   0  0  0  0  0
    4.8580    3.9880   42.1280 F   0  0  0  0  0
   13.9540   -3.5870   47.5370 F   0  0  0  0  0
    6.6940    4.2754   46.2303 H   0  0  0  0  0
    5.8547    0.3991   44.5863 H   0  0  0  0  0
   11.9475   -0.0551   44.3255 H   0  0  0  0  0
   14.1066   -1.1300   43.7596 H   0  0  0  0  0
    5.8269    5.3406   44.1280 H   0  0  0  0  0
    4.9692    1.4759   42.5125 H   0  0  0  0  0
   13.4039   -4.3955   44.1073 H   0  0  0  0  0
   18.0011   -4.5744   41.9824 H   0  0  0  0  0
   11.7015   -2.3612   47.9083 H   0  0  0  0  0
   12.8549   -6.2947   41.8873 H   0  0  0  0  0
   19.4594   -3.1020   42.5786 H   0  0  0  0  0
   17.0109   -2.4263   46.0616 H   0  0  0  0  0
    8.2645   -0.2505   49.6126 H   0  0  0  0  0
    6.0346    0.8968   49.7969 H   0  0  0  0  0
    8.9537    0.6935   46.6683 H   0  0  0  0  0
    5.9352    0.8365   48.5872 H   0  0  0  0  0
    3.9894    1.5361   48.0459 H   0  0  0  0  0
    4.7954    3.0372   48.5638 H   0  0  0  0  0
    4.5807    2.6945   46.8295 H   0  0  0  0  0
   17.3404   -5.5807   39.5558 H   0  0  0  0  0
   17.7627   -6.9372   40.6295 H   0  0  0  0  0
   16.6089   -7.1833   39.2956 H   0  0  0  0  0
    9.9557   -0.1070   45.6178 H   0  0  0  0  0
  1  5  4  0  0  0
 17  1  4  0  0  0
  2  6  4  0  0  0
 17  2  4  0  0  0
  3  4  4  0  0  0
 18  3  4  0  0  0
  4 19  4  0  0  0
  5 21  4  0  0  0
  6 21  4  0  0  0
  7 13  4  0  0  0
 20  7  4  0  0  0
 14  8  4  0  0  0
  8 16  4  0  0  0
 18  9  4  0  0  0
  9 22  4  0  0  0
 13 10  4  0  0  0
 10 31  4  0  0  0
 15 11  4  0  0  0
 11 32  4  0  0  0
 15 12  4  0  0  0
 12 33  4  0  0  0
 13 16  4  0  0  0
 14 15  1  0  0  0
 20 14  4  0  0  0
 16 34  4  0  0  0
 35 17  1  0  0  0
 36 18  1  0  0  0
 22 19  4  0  0  0
 19 39  1  0  0  0
 39 20  1  0  0  0
 21 40  1  0  0  0
 22 41  1  0  0  0
 23 24  2  0  0  0
 25 23  1  0  0  0
 24 26  1  0  0  0
 25 27  1  0  0  0
 28 25  1  0  0  0
 26 29  1  0  0  0
 35 26  1  0  0  0
 27 35  1  0  0  0
 27 37  2  0  0  0
 28 36  1  0  0  0
 28 38  2  0  0  0
 34 30  1  0  0  0
 31 34  4  0  0  0
 32 33  4  0  0  0
  1 42  1  0  0  0
  2 43  1  0  0  0
  3 44  1  0  0  0
  4 45  1  0  0  0
  5 46  1  0  0  0
  6 47  1  0  0  0
  7 48  1  0  0  0
  8 49  1  0  0  0
  9 50  1  0  0  0
 10 51  1  0  0  0
 11 52  1  0  0  0
 12 53  1  0  0  0
 23 54  1  0  0  0
 24 55  1  0  0  0
 25 56  1  0  0  0
 26 57  1  0  0  0
 29 58  1  0  0  0
 29 59  1  0  0  0
 29 60  1  0  0  0
 30 61  1  0  0  0
 30 62  1  0  0  0
 30 63  1  0  0  0
 36 64  1  0  0  0
M  END
$$$$
