5ea5_ligand
  -I-interpret- 

 98102  0  0  0  0  0  0  0  0999 V2000
   26.3570   25.8860   27.5260 C   0  0  0  0  0
   25.0060   26.2120   26.9220 C   0  0  0  0  0
   24.9310   25.8530   25.5880 N   0  3  0  0  0
   25.9770   26.3880   24.8530 C   0  0  0  0  0
   27.3360   26.0810   25.4560 C   0  0  0  0  0
   27.4040   26.4300   26.7940 O   0  0  0  0  0
   24.9280   24.5990   25.4860 C   0  0  0  0  0
   23.8400   24.1580   24.4760 C   0  0  0  0  0
   24.4990   23.9250   23.0620 C   0  0  0  0  0
   23.6370   24.5260   22.0330 N   0  0  0  0  0
   23.2080   23.7000   20.9200 C   0  0  0  0  0
   23.6640   23.7710   19.6030 N   0  0  0  0  0
   22.9990   22.8040   18.8680 C   0  0  0  0  0
   22.1480   22.1570   19.7520 C   0  0  0  0  0
   22.2510   22.6900   21.0090 N   0  0  0  0  0
   21.2410   21.0130   19.2110 C   0  0  0  0  0
   21.2310   20.5210   17.8180 C   0  0  0  0  0
   22.1400   21.2030   16.8440 C   0  0  0  0  0
   23.0270   22.3380   17.3480 C   0  0  0  0  0
   21.5290   22.2680   22.1940 C   0  0  0  0  0
   19.9870   22.4430   22.1060 C   0  0  0  0  0
   19.2880   23.4340   23.0070 C   0  0  0  0  0
   17.8130   23.6050   22.9350 C   0  0  0  0  0
   17.0060   22.7950   21.9750 C   0  0  0  0  0
   17.7080   21.7900   21.0710 C   0  0  0  0  0
   19.1790   21.6370   21.1650 N   0  3  0  0  0
   20.0420   24.2120   23.9220 O   0  0  0  0  0
   16.8840   20.9290   20.0590 C   0  0  0  0  0
   20.2680   19.3640   17.5170 C   0  0  0  0  0
   19.5740   19.0060   18.7510 N   0  3  0  0  0
   20.1430   18.1450   19.7750 C   0  0  0  0  0
   20.8720   18.7160   20.9930 C   0  0  0  0  0
   21.5000   17.8390   22.0950 C   0  0  0  0  0
   21.3550   16.3140   21.9530 C   0  0  0  0  0
   20.6150   15.7180   20.7470 C   0  0  0  0  0
   20.0060   16.6000   19.6580 C   0  0  0  0  0
   22.2510   18.4790   23.3090 C   0  0  0  0  0
   19.2800   15.9780   18.4810 C   0  0  0  0  0
   20.1900   14.9590   17.8000 C   0  0  0  0  0
   19.9310   14.9860   16.2950 C   0  0  0  0  0
   19.2790   13.8150   15.9240 O   0  0  0  0  0
   26.4737   24.8023   27.5307 H   0  0  0  0  0
   26.3902   26.3082   28.5304 H   0  0  0  0  0
   24.8532   27.2889   26.9930 H   0  0  0  0  0
   24.2461   25.6524   27.4675 H   0  0  0  0  0
   24.0630   26.2309   25.2083 H   0  0  0  0  0
   25.8551   27.4711   24.8379 H   0  0  0  0  0
   25.9458   25.9462   23.8571 H   0  0  0  0  0
   28.0857   26.6591   24.9157 H   0  0  0  0  0
   27.5085   25.0077   25.3758 H   0  0  0  0  0
   24.7155   24.1585   26.4601 H   0  0  0  0  0
   25.9037   24.2635   25.1344 H   0  0  0  0  0
   23.0794   24.9349   24.3989 H   0  0  0  0  0
   23.3794   23.2317   24.8194 H   0  0  0  0  0
   24.6065   22.8564   22.8760 H   0  0  0  0  0
   25.4857   24.3872   23.0335 H   0  0  0  0  0
   23.3473   25.5017   22.1003 H   0  0  0  0  0
   20.5592   20.5373   19.9160 H   0  0  0  0  0
   21.4781   21.6629   16.1102 H   0  0  0  0  0
   22.8304   20.4292   16.5085 H   0  0  0  0  0
   24.0390   21.9568   17.2118 H   0  0  0  0  0
   22.6677   23.2104   16.8022 H   0  0  0  0  0
   21.8744   22.8931   23.0174 H   0  0  0  0  0
   21.7223   21.2030   22.3228 H   0  0  0  0  0
   20.7576   22.5128   21.3383 H   0  0  0  0  0
   17.3182   24.3254   23.5864 H   0  0  0  0  0
   16.5707   23.5253   21.2929 H   0  0  0  0  0
   16.3498   22.1925   22.6031 H   0  0  0  0  0
   17.2879   21.2677   20.2115 H   0  0  0  0  0
   19.3016   20.6810   21.4988 H   0  0  0  0  0
   19.5117   21.9319   20.2470 H   0  0  0  0  0
   20.9712   23.9835   23.8448 H   0  0  0  0  0
   16.1570   20.3268   20.6039 H   0  0  0  0  0
   16.3638   21.5873   19.3632 H   0  0  0  0  0
   17.5587   20.2748   19.5068 H   0  0  0  0  0
   20.8240   18.5055   17.1403 H   0  0  0  0  0
   19.5462   19.6682   16.7590 H   0  0  0  0  0
   18.7779   18.4640   18.4150 H   0  0  0  0  0
   19.4862   19.9020   19.2305 H   0  0  0  0  0
   20.2434   19.0788   19.2218 H   0  0  0  0  0
   20.0825   19.2481   21.5237 H   0  0  0  0  0
   21.7370   19.2106   20.5510 H   0  0  0  0  0
   22.0850   18.2055   22.9385 H   0  0  0  0  0
   20.7544   16.0176   22.8130 H   0  0  0  0  0
   22.3782   15.9530   21.8486 H   0  0  0  0  0
   19.7506   15.2260   21.1929 H   0  0  0  0  0
   21.3885   15.1577   20.2217 H   0  0  0  0  0
   19.4450   16.1830   18.8217 H   0  0  0  0  0
   23.0927   19.0678   22.9444 H   0  0  0  0  0
   21.5660   19.1240   23.8593 H   0  0  0  0  0
   22.6157   17.6895   23.9662 H   0  0  0  0  0
   19.0109   16.7573   17.7680 H   0  0  0  0  0
   18.3775   15.4792   18.8342 H   0  0  0  0  0
   19.9821   13.9627   18.1903 H   0  0  0  0  0
   21.2326   15.2084   17.9975 H   0  0  0  0  0
   20.8783   15.0629   15.7614 H   0  0  0  0  0
   19.3099   15.8462   16.0454 H   0  0  0  0  0
   19.1141   13.8277   14.9783 H   0  0  0  0  0
  1  2  1  0  0  0
  1  6  1  0  0  0
  2  3  1  0  0  0
  3  4  1  0  0  0
  3  7  1  0  0  0
  4  5  1  0  0  0
  5  6  1  0  0  0
  7  8  1  0  0  0
  8  9  1  0  0  0
  9 10  1  0  0  0
 10 11  1  0  0  0
 11 12  4  0  0  0
 11 15  4  0  0  0
 12 13  4  0  0  0
 13 14  4  0  0  0
 13 19  1  0  0  0
 14 15  4  0  0  0
 14 16  1  0  0  0
 15 20  1  0  0  0
 16 17  2  0  0  0
 17 18  1  0  0  0
 17 29  1  0  0  0
 18 19  1  0  0  0
 20 21  1  0  0  0
 21 22  1  0  0  0
 21 26  1  0  0  0
 22 23  2  0  0  0
 22 27  1  0  0  0
 23 24  1  0  0  0
 24 25  1  0  0  0
 25 26  1  0  0  0
 25 28  1  0  0  0
 29 30  1  0  0  0
 30 31  1  0  0  0
 31 32  1  0  0  0
 31 36  1  0  0  0
 32 33  1  0  0  0
 33 34  1  0  0  0
 33 37  1  0  0  0
 34 35  1  0  0  0
 35 36  1  0  0  0
 36 38  1  0  0  0
 38 39  1  0  0  0
 39 40  1  0  0  0
 40 41  1  0  0  0
  1 42  1  0  0  0
  1 43  1  0  0  0
  2 44  1  0  0  0
  2 45  1  0  0  0
  3 46  1  0  0  0
  4 47  1  0  0  0
  4 48  1  0  0  0
  5 49  1  0  0  0
  5 50  1  0  0  0
  7 51  1  0  0  0
  7 52  1  0  0  0
  8 53  1  0  0  0
  8 54  1  0  0  0
  9 55  1  0  0  0
  9 56  1  0  0  0
 10 57  1  0  0  0
 16 58  1  0  0  0
 18 59  1  0  0  0
 18 60  1  0  0  0
 19 61  1  0  0  0
 19 62  1  0  0  0
 20 63  1  0  0  0
 20 64  1  0  0  0
 21 65  1  0  0  0
 23 66  1  0  0  0
 24 67  1  0  0  0
 24 68  1  0  0  0
 25 69  1  0  0  0
 26 70  1  0  0  0
 26 71  1  0  0  0
 27 72  1  0  0  0
 28 73  1  0  0  0
 28 74  1  0  0  0
 28 75  1  0  0  0
 29 76  1  0  0  0
 29 77  1  0  0  0
 30 78  1  0  0  0
 30 79  1  0  0  0
 31 80  1  0  0  0
 32 81  1  0  0  0
 32 82  1  0  0  0
 33 83  1  0  0  0
 34 84  1  0  0  0
 34 85  1  0  0  0
 35 86  1  0  0  0
 35 87  1  0  0  0
 36 88  1  0  0  0
 37 89  1  0  0  0
 37 90  1  0  0  0
 37 91  1  0  0  0
 38 92  1  0  0  0
 38 93  1  0  0  0
 39 94  1  0  0  0
 39 95  1  0  0  0
 40 96  1  0  0  0
 40 97  1  0  0  0
 41 98  1  0  0  0
M  END
$$$$
