2zg1_ligand
  -I-interpret- 

 40 40  0  0  0  0  0  0  0  0999 V2000
   47.7910   11.0910   48.2000 C   0  0  0  0  0
   48.3010   10.1130   49.2530 C   0  0  0  0  0
   48.2790   10.7830   50.6320 C   0  0  0  0  0
   46.8440   11.0900   51.0650 C   0  0  0  0  0
   45.9880    9.8260   50.9870 C   0  0  0  0  0
   46.0640    9.2530   49.5690 C   0  0  0  0  0
   45.1970    7.9930   49.4390 C   0  0  0  0  0
   45.7030    7.0850   48.3190 C   0  0  0  0  0
   44.7290    5.9390   48.0770 C   0  0  0  0  0
   44.1160    9.8210   52.5320 C   0  0  0  0  0
   45.0770    9.6670   53.7070 C   0  0  0  0  0
   44.6140   10.1400   51.3370 N   0  0  0  0  0
   47.6170   12.2880   48.5210 O   0  0  0  0  0
   47.5710   10.6630   47.0470 O   0  0  0  0  0
   49.5880    9.7090   48.9390 O   0  0  0  0  0
   46.8390   11.5890   52.3940 O   0  0  0  0  0
   47.4450    8.9540   49.2380 O   0  0  0  0  0
   45.1960    7.2740   50.6640 O   0  0  0  0  0
   45.8560    7.8360   47.1280 O   0  0  0  0  0
   45.1860    5.1500   46.9880 O   0  0  0  0  0
   42.9090    9.6650   52.7200 O   0  0  0  0  0
   48.8369   11.7178   50.5772 H   0  0  0  0  0
   48.7278   10.1058   51.3587 H   0  0  0  0  0
   46.4275   11.8422   50.3951 H   0  0  0  0  0
   46.3618    9.0828   51.6913 H   0  0  0  0  0
   45.6800    9.9964   48.8705 H   0  0  0  0  0
   44.1827    8.3097   49.1964 H   0  0  0  0  0
   46.6657    6.6696   48.6168 H   0  0  0  0  0
   43.7438    6.3430   47.8442 H   0  0  0  0  0
   44.6666    5.3205   48.9723 H   0  0  0  0  0
   44.8250   10.3945   54.4786 H   0  0  0  0  0
   44.9925    8.6595   54.1142 H   0  0  0  0  0
   46.0977    9.8374   53.3647 H   0  0  0  0  0
   44.0193   10.6130   50.6565 H   0  0  0  0  0
   47.8428   12.4060   49.4466 H   0  0  0  0  0
   50.1718   10.4711   48.9448 H   0  0  0  0  0
   47.3775   12.3825   52.4387 H   0  0  0  0  0
   44.8782    7.8440   51.3680 H   0  0  0  0  0
   46.1739    7.2617   46.4275 H   0  0  0  0  0
   44.5711    4.4284   46.8369 H   0  0  0  0  0
  2  1  1  0  0  0
  1 13  1  0  0  0
  1 14  2  0  0  0
  3  2  1  0  0  0
  2 15  1  0  0  0
 17  2  1  0  0  0
  4  3  1  0  0  0
  5  4  1  0  0  0
  4 16  1  0  0  0
  5  6  1  0  0  0
 12  5  1  0  0  0
  6  7  1  0  0  0
  6 17  1  0  0  0
  7  8  1  0  0  0
  7 18  1  0  0  0
  8  9  1  0  0  0
  8 19  1  0  0  0
  9 20  1  0  0  0
 10 11  1  0  0  0
 10 12  1  0  0  0
 10 21  2  0  0  0
  3 22  1  0  0  0
  3 23  1  0  0  0
  4 24  1  0  0  0
  5 25  1  0  0  0
  6 26  1  0  0  0
  7 27  1  0  0  0
  8 28  1  0  0  0
  9 29  1  0  0  0
  9 30  1  0  0  0
 11 31  1  0  0  0
 11 32  1  0  0  0
 11 33  1  0  0  0
 12 34  1  0  0  0
 13 35  1  0  0  0
 15 36  1  0  0  0
 16 37  1  0  0  0
 18 38  1  0  0  0
 19 39  1  0  0  0
 20 40  1  0  0  0
M  END
$$$$
