6iam_ligand
  -I-interpret- 

203206  0  0  0  0  0  0  0  0999 V2000
   -8.7350   16.7610  -28.7150 N   0  3  0  0  0
   -8.9920   15.7160  -27.6920 C   0  0  0  0  0
  -10.3990   15.1280  -27.7830 C   0  0  0  0  0
  -11.3810   15.8250  -27.5430 O   0  0  0  0  0
   -8.7770   16.3030  -26.2980 C   0  0  0  0  0
   -9.2800   15.4350  -25.3030 O   0  0  0  0  0
  -10.4820   13.8260  -28.0820 N   0  0  0  0  0
  -11.7750   13.1490  -28.0930 C   0  0  0  0  0
  -12.4630   13.2530  -26.7410 C   0  0  0  0  0
  -13.6930   13.3490  -26.6690 O   0  0  0  0  0
  -11.5980   11.6800  -28.4810 C   0  0  0  0  0
  -11.6850   13.2220  -25.6520 N   0  0  0  0  0
  -12.2780   13.3040  -24.3200 C   0  0  0  0  0
  -12.9710   14.6450  -24.1010 C   0  0  0  0  0
  -14.0630   14.6990  -23.5250 O   0  0  0  0  0
  -11.2140   13.0750  -23.2400 C   0  0  0  0  0
  -11.8130   13.0210  -21.8240 C   0  0  0  0  0
  -10.7420   12.9910  -20.7470 C   0  0  0  0  0
   -9.8380   11.8580  -20.8900 N   0  0  0  0  0
   -9.9920   10.6840  -20.2920 C   0  0  0  0  0
  -11.0390   10.4550  -19.5100 N   0  0  0  0  0
   -9.0980    9.7270  -20.4850 N   0  0  0  0  0
  -12.3720   15.7320  -24.5760 N   0  0  0  0  0
  -12.8870   17.0800  -24.3180 C   0  0  0  0  0
  -13.8970   17.5320  -25.3680 C   0  0  0  0  0
  -14.7770   18.3420  -25.0780 O   0  0  0  0  0
  -11.7230   18.0500  -24.2900 C   0  0  0  0  0
  -19.9630   14.6040  -24.9670 C   0  0  0  0  0
  -20.2300   13.4400  -25.8210 C   0  0  0  0  0
  -19.2790   12.7980  -26.2150 O   0  0  0  0  0
  -18.8510   16.0400  -29.1720 C   0  0  0  0  0
  -18.1190   15.1980  -30.0930 N   0  0  0  0  0
  -19.2450   15.5330  -27.8900 C   0  0  0  0  0
  -20.3950   15.8560  -25.6880 N   0  0  0  0  0
  -19.9470   16.3320  -27.0350 C   0  0  0  0  0
  -16.1340   16.6060  -29.4790 C   0  0  0  0  0
  -16.3370   17.9090  -29.8930 C   0  0  0  0  0
  -15.6890   18.9580  -29.1810 C   0  0  0  0  0
  -14.8550   18.6720  -28.0750 C   0  0  0  0  0
  -14.6970   17.3750  -27.6510 C   0  0  0  0  0
  -15.3020   16.3370  -28.3850 C   0  0  0  0  0
  -17.2320   18.2240  -31.0970 C   0  0  0  0  0
  -20.2600   17.6450  -27.4760 C   0  0  0  0  0
  -19.8710   18.1320  -28.7330 C   0  0  0  0  0
  -19.1620   17.3140  -29.5890 C   0  0  0  0  0
  -18.7270   17.8580  -30.9600 C   0  0  0  0  0
  -16.7270   15.4290  -30.1560 N   0  0  0  0  0
  -13.7770   17.0090  -26.5630 N   0  0  0  0  0
  -21.3770   13.3870  -26.3750 N   0  0  0  0  0
  -21.7500   12.2750  -27.2440 C   0  0  0  0  0
  -21.8530   11.6950  -28.4570 C   0  0  0  0  0
  -21.8480   10.4930  -28.7300 O   0  0  0  0  0
  -23.3310   11.8860  -26.7870 C   0  0  0  0  0
  -23.6240   11.7740  -25.2580 C   0  0  0  0  0
  -24.2960   12.8850  -27.4390 C   0  0  0  0  0
  -21.4760   12.7190  -29.2290 N   0  0  0  0  0
  -21.5520   12.7430  -30.6720 C   0  0  0  0  0
  -20.3650   12.0310  -31.3180 C   0  0  0  0  0
  -20.5610   11.2900  -32.2860 O   0  0  0  0  0
  -21.6670   14.2000  -31.1780 C   0  0  0  0  0
  -22.8630   14.9320  -30.6390 C   0  0  0  0  0
  -24.1580   14.5100  -30.8570 N   0  0  0  0  0
  -22.9580   16.0520  -29.8820 C   0  0  0  0  0
  -24.9970   15.3350  -30.2560 C   0  0  0  0  0
  -24.2950   16.2820  -29.6590 N   0  0  0  0  0
  -19.1380   12.2100  -30.8060 N   0  0  0  0  0
  -17.9820   11.5460  -31.4120 C   0  0  0  0  0
  -18.0020   10.0460  -31.1610 C   0  0  0  0  0
  -17.7070    9.2530  -32.0650 O   0  0  0  0  0
  -16.6770   12.1200  -30.8650 C   0  0  0  0  0
  -15.3870   11.5880  -31.4940 C   0  0  0  0  0
  -15.3770   11.7810  -32.9990 C   0  0  0  0  0
  -14.2260   12.3120  -30.8150 C   0  0  0  0  0
  -18.3060    9.6360  -29.9310 N   0  0  0  0  0
  -18.2600    8.2170  -29.6210 C   0  0  0  0  0
  -19.3890    7.4590  -30.3090 C   0  0  0  0  0
  -19.2700    6.2440  -30.4970 O   0  0  0  0  0
  -18.2750    8.0160  -28.1020 C   0  0  0  0  0
  -19.5730    8.3660  -27.4120 C   0  0  0  0  0
  -20.4070    7.1220  -27.0950 C   0  0  0  0  0
  -21.4280    7.4410  -26.0990 N   0  0  0  0  0
  -22.4170    6.6350  -25.7270 C   0  0  0  0  0
  -22.5500    5.4290  -26.2670 N   0  0  0  0  0
  -23.2820    7.0500  -24.8080 N   0  0  0  0  0
  -20.4500    8.1560  -30.7390 N   0  0  0  0  0
  -21.5600    7.5450  -31.4650 C   0  0  0  0  0
  -21.4840    7.7530  -32.9810 C   0  0  0  0  0
  -22.3700    7.2730  -33.6980 O   0  0  0  0  0
  -22.9030    8.0880  -30.9390 C   0  0  0  0  0
  -23.2560    7.6710  -29.5010 C   0  0  0  0  0
  -24.6810    8.1090  -29.1090 C   0  0  0  0  0
  -25.1540    7.4440  -27.8120 C   0  0  0  0  0
  -26.6260    7.5800  -27.5680 N   0  3  0  0  0
  -20.4520    8.4390  -33.4830 N   0  0  0  0  0
  -20.2930    8.7270  -34.9200 C   0  0  0  0  0
  -19.5760    7.6160  -35.7080 C   0  0  0  0  0
  -19.3960    7.7220  -36.9260 O   0  0  0  0  0
  -19.5220   10.0520  -35.1110 C   0  0  0  0  0
  -18.1250    9.8870  -34.9020 O   0  0  0  0  0
  -19.1680    6.5580  -35.0120 N   0  0  0  0  0
   -8.8790   16.3674  -29.6449 H   0  0  0  0  0
   -9.3767   17.5408  -28.5714 H   0  0  0  0  0
   -7.7734   17.0901  -28.6289 H   0  0  0  0  0
   -8.2904   14.9036  -27.8814 H   0  0  0  0  0
   -9.3048   17.2545  -26.2329 H   0  0  0  0  0
   -7.7078   16.4399  -26.1361 H   0  0  0  0  0
   -9.1342   15.8237  -24.4374 H   0  0  0  0  0
   -9.6350   13.3028  -28.3039 H   0  0  0  0  0
  -12.4065   13.6413  -28.8325 H   0  0  0  0  0
  -11.1538   11.6189  -29.4745 H   0  0  0  0  0
  -10.9444   11.1910  -27.7587 H   0  0  0  0  0
  -12.5701   11.1870  -28.4853 H   0  0  0  0  0
  -10.6733   13.1407  -25.7531 H   0  0  0  0  0
  -13.0304   12.5189  -24.2452 H   0  0  0  0  0
  -10.5129   13.9088  -23.2768 H   0  0  0  0  0
  -10.7343   12.1166  -23.4387 H   0  0  0  0  0
  -12.4029   12.1082  -21.7405 H   0  0  0  0  0
  -12.4160   13.9171  -21.6770 H   0  0  0  0  0
  -11.2392   12.9044  -19.7809 H   0  0  0  0  0
  -10.1529   13.9040  -20.8333 H   0  0  0  0  0
   -9.0256   11.9761  -21.4954 H   0  0  0  0  0
  -11.1515    9.5458  -19.0616 H   0  0  0  0  0
  -11.7315   11.1882  -19.3572 H   0  0  0  0  0
   -8.2950    9.8940  -21.0914 H   0  0  0  0  0
  -11.5274   15.6250  -25.1377 H   0  0  0  0  0
  -13.4053   17.0609  -23.3593 H   0  0  0  0  0
  -11.0299   17.7611  -23.4999 H   0  0  0  0  0
  -11.2098   18.0276  -25.2514 H   0  0  0  0  0
  -12.0950   19.0565  -24.0986 H   0  0  0  0  0
  -18.8973   14.6585  -24.7449 H   0  0  0  0  0
  -20.5183   14.5087  -24.0339 H   0  0  0  0  0
  -18.5779   14.4846  -30.6595 H   0  0  0  0  0
  -18.9852   14.5149  -27.5999 H   0  0  0  0  0
  -21.0700   16.4465  -25.2022 H   0  0  0  0  0
  -15.8372   19.9923  -29.4915 H   0  0  0  0  0
  -14.3376   19.4808  -27.5591 H   0  0  0  0  0
  -15.1190   15.3022  -28.0957 H   0  0  0  0  0
  -16.8491   17.6242  -31.9226 H   0  0  0  0  0
  -17.1968   19.3060  -31.2241 H   0  0  0  0  0
  -20.8244   18.2999  -26.8122 H   0  0  0  0  0
  -20.1268   19.1487  -29.0312 H   0  0  0  0  0
  -18.9155   17.0618  -31.6802 H   0  0  0  0  0
  -19.2847   18.7816  -31.1150 H   0  0  0  0  0
  -16.1276   14.7830  -30.6696 H   0  0  0  0  0
  -13.0321   16.3357  -26.7424 H   0  0  0  0  0
  -22.0478   14.1370  -26.2076 H   0  0  0  0  0
  -20.6708   12.1299  -27.1955 H   0  0  0  0  0
  -23.4799   10.8673  -27.1450 H   0  0  0  0  0
  -22.9951   10.9962  -24.8249 H   0  0  0  0  0
  -23.4074   12.7279  -24.7770 H   0  0  0  0  0
  -24.6734   11.5200  -25.1081 H   0  0  0  0  0
  -24.0527   13.8938  -27.1054 H   0  0  0  0  0
  -24.1999   12.8263  -28.5232 H   0  0  0  0  0
  -25.3185   12.6420  -27.1499 H   0  0  0  0  0
  -21.1060   13.5478  -28.7636 H   0  0  0  0  0
  -22.4486   12.1978  -30.9669 H   0  0  0  0  0
  -21.7689   14.1619  -32.2626 H   0  0  0  0  0
  -20.7783   14.7338  -30.8411 H   0  0  0  0  0
  -22.1285   16.6580  -29.5176 H   0  0  0  0  0
  -26.0836   15.2490  -30.2531 H   0  0  0  0  0
  -19.0098   12.8107  -29.9917 H   0  0  0  0  0
  -18.0416   11.7257  -32.4854 H   0  0  0  0  0
  -16.6396   11.8402  -29.8122 H   0  0  0  0  0
  -16.7015   13.1884  -31.0794 H   0  0  0  0  0
  -15.3007   10.5125  -31.3394 H   0  0  0  0  0
  -16.2197   11.2470  -33.4381 H   0  0  0  0  0
  -15.4591   12.8434  -33.2283 H   0  0  0  0  0
  -14.4450   11.3907  -33.4079 H   0  0  0  0  0
  -14.3217   13.3850  -30.9811 H   0  0  0  0  0
  -14.2466   12.1054  -29.7450 H   0  0  0  0  0
  -13.2841   11.9604  -31.2361 H   0  0  0  0  0
  -18.5686   10.3115  -29.2133 H   0  0  0  0  0
  -17.3294    7.8031  -30.0094 H   0  0  0  0  0
  -17.5165    8.6835  -27.6932 H   0  0  0  0  0
  -18.1079    6.9530  -27.9280 H   0  0  0  0  0
  -20.1525    9.0042  -28.0791 H   0  0  0  0  0
  -19.3360    8.8660  -26.4729 H   0  0  0  0  0
  -19.7531    6.3445  -26.7000 H   0  0  0  0  0
  -20.8933    6.7759  -28.0070 H   0  0  0  0  0
  -21.3773    8.3570  -25.6531 H   0  0  0  0  0
  -21.8887    5.1119  -26.9759 H   0  0  0  0  0
  -24.0480    6.4424  -24.5173 H   0  0  0  0  0
  -23.1801    7.9762  -24.3931 H   0  0  0  0  0
  -20.4836    9.1579  -30.5507 H   0  0  0  0  0
  -21.4870    6.4722  -31.2863 H   0  0  0  0  0
  -23.6811    7.6803  -31.5843 H   0  0  0  0  0
  -22.8246    9.1752  -30.9406 H   0  0  0  0  0
  -22.5516    8.1527  -28.8228 H   0  0  0  0  0
  -23.2028    6.5842  -29.4375 H   0  0  0  0  0
  -25.3593    7.8128  -29.9092 H   0  0  0  0  0
  -24.6739    9.1879  -28.9542 H   0  0  0  0  0
  -24.6398    7.9365  -26.9867 H   0  0  0  0  0
  -24.9338    6.3795  -27.8922 H   0  0  0  0  0
  -26.8685    7.1165  -26.6923 H   0  0  0  0  0
  -26.8698    8.5687  -27.5097 H   0  0  0  0  0
  -27.1382    7.1470  -28.3365 H   0  0  0  0  0
  -19.7385    8.7804  -32.8390 H   0  0  0  0  0
  -21.3044    8.7971  -35.3203 H   0  0  0  0  0
  -19.8941   10.7722  -34.3823 H   0  0  0  0  0
  -19.6767   10.3931  -36.1346 H   0  0  0  0  0
  -17.6819   10.7291  -35.0292 H   0  0  0  0  0
  -18.6854    5.7928  -35.4832 H   0  0  0  0  0
  -19.3378    6.5121  -34.0073 H   0  0  0  0  0
  2  1  1  0  0  0
  3  2  1  0  0  0
  2  5  1  0  0  0
  3  4  2  0  0  0
  7  3  1  0  0  0
  5  6  1  0  0  0
  8  7  1  0  0  0
  9  8  1  0  0  0
  8 11  1  0  0  0
  9 10  2  0  0  0
 12  9  1  0  0  0
 13 12  1  0  0  0
 14 13  1  0  0  0
 13 16  1  0  0  0
 14 15  2  0  0  0
 23 14  1  0  0  0
 16 17  1  0  0  0
 17 18  1  0  0  0
 18 19  1  0  0  0
 19 20  1  0  0  0
 20 21  1  0  0  0
 20 22  2  0  0  0
 24 23  1  0  0  0
 25 24  1  0  0  0
 24 27  1  0  0  0
 25 26  2  0  0  0
 48 25  1  0  0  0
 28 29  1  0  0  0
 34 28  1  0  0  0
 29 30  2  0  0  0
 29 49  1  0  0  0
 32 31  1  0  0  0
 31 33  4  0  0  0
 31 45  4  0  0  0
 47 32  1  0  0  0
 33 35  4  0  0  0
 35 34  1  0  0  0
 35 43  4  0  0  0
 36 37  4  0  0  0
 41 36  4  0  0  0
 36 47  1  0  0  0
 38 37  4  0  0  0
 37 42  1  0  0  0
 39 38  4  0  0  0
 40 39  4  0  0  0
 40 41  4  0  0  0
 40 48  1  0  0  0
 42 46  1  0  0  0
 43 44  4  0  0  0
 44 45  4  0  0  0
 45 46  1  0  0  0
 49 50  1  0  0  0
 50 51  1  0  0  0
 50 53  1  0  0  0
 51 52  2  0  0  0
 51 56  1  0  0  0
 53 54  1  0  0  0
 53 55  1  0  0  0
 56 57  1  0  0  0
 57 58  1  0  0  0
 57 60  1  0  0  0
 58 59  2  0  0  0
 58 66  1  0  0  0
 60 61  1  0  0  0
 61 62  4  0  0  0
 61 63  4  0  0  0
 62 64  4  0  0  0
 63 65  4  0  0  0
 64 65  4  0  0  0
 66 67  1  0  0  0
 67 68  1  0  0  0
 67 70  1  0  0  0
 68 69  2  0  0  0
 68 74  1  0  0  0
 70 71  1  0  0  0
 71 72  1  0  0  0
 71 73  1  0  0  0
 74 75  1  0  0  0
 75 76  1  0  0  0
 75 78  1  0  0  0
 76 77  2  0  0  0
 76 85  1  0  0  0
 78 79  1  0  0  0
 79 80  1  0  0  0
 80 81  1  0  0  0
 81 82  1  0  0  0
 82 83  2  0  0  0
 82 84  1  0  0  0
 85 86  1  0  0  0
 86 87  1  0  0  0
 86 89  1  0  0  0
 87 88  2  0  0  0
 87 94  1  0  0  0
 89 90  1  0  0  0
 90 91  1  0  0  0
 91 92  1  0  0  0
 92 93  1  0  0  0
 94 95  1  0  0  0
 95 96  1  0  0  0
 95 98  1  0  0  0
 96 97  2  0  0  0
 96100  1  0  0  0
 98 99  1  0  0  0
  1101  1  0  0  0
  1102  1  0  0  0
  1103  1  0  0  0
  2104  1  0  0  0
  5105  1  0  0  0
  5106  1  0  0  0
  6107  1  0  0  0
  7108  1  0  0  0
  8109  1  0  0  0
 11110  1  0  0  0
 11111  1  0  0  0
 11112  1  0  0  0
 12113  1  0  0  0
 13114  1  0  0  0
 16115  1  0  0  0
 16116  1  0  0  0
 17117  1  0  0  0
 17118  1  0  0  0
 18119  1  0  0  0
 18120  1  0  0  0
 19121  1  0  0  0
 21122  1  0  0  0
 21123  1  0  0  0
 22124  1  0  0  0
 23125  1  0  0  0
 24126  1  0  0  0
 27127  1  0  0  0
 27128  1  0  0  0
 27129  1  0  0  0
 28130  1  0  0  0
 28131  1  0  0  0
 32132  1  0  0  0
 33133  1  0  0  0
 34134  1  0  0  0
 38135  1  0  0  0
 39136  1  0  0  0
 41137  1  0  0  0
 42138  1  0  0  0
 42139  1  0  0  0
 43140  1  0  0  0
 44141  1  0  0  0
 46142  1  0  0  0
 46143  1  0  0  0
 47144  1  0  0  0
 48145  1  0  0  0
 49146  1  0  0  0
 50147  1  0  0  0
 53148  1  0  0  0
 54149  1  0  0  0
 54150  1  0  0  0
 54151  1  0  0  0
 55152  1  0  0  0
 55153  1  0  0  0
 55154  1  0  0  0
 56155  1  0  0  0
 57156  1  0  0  0
 60157  1  0  0  0
 60158  1  0  0  0
 63159  1  0  0  0
 64160  1  0  0  0
 66161  1  0  0  0
 67162  1  0  0  0
 70163  1  0  0  0
 70164  1  0  0  0
 71165  1  0  0  0
 72166  1  0  0  0
 72167  1  0  0  0
 72168  1  0  0  0
 73169  1  0  0  0
 73170  1  0  0  0
 73171  1  0  0  0
 74172  1  0  0  0
 75173  1  0  0  0
 78174  1  0  0  0
 78175  1  0  0  0
 79176  1  0  0  0
 79177  1  0  0  0
 80178  1  0  0  0
 80179  1  0  0  0
 81180  1  0  0  0
 83181  1  0  0  0
 84182  1  0  0  0
 84183  1  0  0  0
 85184  1  0  0  0
 86185  1  0  0  0
 89186  1  0  0  0
 89187  1  0  0  0
 90188  1  0  0  0
 90189  1  0  0  0
 91190  1  0  0  0
 91191  1  0  0  0
 92192  1  0  0  0
 92193  1  0  0  0
 93194  1  0  0  0
 93195  1  0  0  0
 93196  1  0  0  0
 94197  1  0  0  0
 95198  1  0  0  0
 98199  1  0  0  0
 98200  1  0  0  0
 99201  1  0  0  0
100202  1  0  0  0
100203  1  0  0  0
M  END
$$$$
