### 
### Created by X-TOOL on Mon Aug  2 16:10:52 2021
### 

@<TRIPOS>MOLECULE
6iam_ligand
  206   209     1     0     0
SMALL
GAST_HUCK


@<TRIPOS>ATOM
      1 N          -8.7350   16.7610  -28.7150 N.4       1 SER         0.2396
      2 CA         -8.9920   15.7160  -27.6920 C.3       1 SER         0.0885
      3 C         -10.3990   15.1280  -27.7830 C.2       1 SER         0.2290
      4 O         -11.3810   15.8250  -27.5430 O.2       1 SER        -0.3906
      5 CB         -8.7770   16.3030  -26.2980 C.3       1 SER         0.1041
      6 OG         -9.2800   15.4350  -25.3030 O.3       1 SER        -0.3870
      7 N         -10.4820   13.8260  -28.0820 N.am      1 SER        -0.2612
      8 CA        -11.7750   13.1490  -28.0930 C.3       1 SER         0.1283
      9 C         -12.4630   13.2530  -26.7410 C.2       1 SER         0.2036
     10 O         -13.6930   13.3490  -26.6690 O.2       1 SER        -0.3944
     11 CB        -11.5980   11.6800  -28.4810 C.3       1 SER        -0.0244
     12 N         -11.6850   13.2220  -25.6520 N.am      1 SER        -0.2637
     13 CA        -12.2780   13.3040  -24.3200 C.3       1 SER         0.1311
     14 C         -12.9710   14.6450  -24.1010 C.2       1 SER         0.2039
     15 O         -14.0630   14.6990  -23.5250 O.2       1 SER        -0.3944
     16 CB        -11.2140   13.0750  -23.2400 C.3       1 SER        -0.0092
     17 CG        -11.8130   13.0210  -21.8240 C.3       1 SER        -0.0156
     18 CD        -10.7420   12.9910  -20.7470 C.3       1 SER         0.0627
     19 NE         -9.8380   11.8580  -20.8900 N.pl3     1 SER        -0.2723
     20 CZ         -9.9920   10.6840  -20.2920 C.cat     1 SER         0.2882
     21 NH1       -11.0390   10.4550  -19.5100 N.pl3     1 SER        -0.2849
     22 NH2        -9.0980    9.7270  -20.4850 N.pl3     1 SER        -0.2849
     23 N         -12.3720   15.7320  -24.5760 N.am      1 SER        -0.2635
     24 CA        -12.8870   17.0800  -24.3180 C.3       1 SER         0.1336
     25 C         -13.8970   17.5320  -25.3680 C.2       1 SER         0.2270
     26 O         -14.7770   18.3420  -25.0780 O.2       1 SER        -0.3832
     27 CB        -11.7230   18.0500  -24.2900 C.3       1 SER        -0.0239
     28 CA        -19.9630   14.6040  -24.9670 C.3       1 SER         0.1124
     29 C         -20.2300   13.4400  -25.8210 C.2       1 SER         0.1998
     30 O         -19.2790   12.7980  -26.2150 O.2       1 SER        -0.3948
     31 CB1       -18.8510   16.0400  -29.1720 C.ar      1 SER         0.0514
     32 NB1       -18.1190   15.1980  -30.0930 N.pl3     1 SER        -0.2359
     33 CB2       -19.2450   15.5330  -27.8900 C.ar      1 SER        -0.0321
     34 NB2       -20.3950   15.8560  -25.6880 N.pl3     1 SER        -0.3111
     35 CB3       -19.9470   16.3320  -27.0350 C.ar      1 SER         0.0205
     36 CA1       -16.1340   16.6060  -29.4790 C.ar      1 SER         0.0498
     37 CA2       -16.3370   17.9090  -29.8930 C.ar      1 SER        -0.0359
     38 CA3       -15.6890   18.9580  -29.1810 C.ar      1 SER        -0.0841
     39 CA4       -14.8550   18.6720  -28.0750 C.ar      1 SER        -0.0608
     40 CA5       -14.6970   17.3750  -27.6510 C.ar      1 SER         0.0476
     41 CA6       -15.3020   16.3370  -28.3850 C.ar      1 SER        -0.0290
     42 CA7       -17.2320   18.2240  -31.0970 C.3       1 SER        -0.0230
     43 CB4       -20.2600   17.6450  -27.4760 C.ar      1 SER        -0.0642
     44 CB5       -19.8710   18.1320  -28.7330 C.ar      1 SER        -0.0826
     45 CB6       -19.1620   17.3140  -29.5890 C.ar      1 SER        -0.0342
     46 CB7       -18.7270   17.8580  -30.9600 C.3       1 SER        -0.0225
     47 NA1       -16.7270   15.4290  -30.1560 N.pl3     1 SER        -0.2363
     48 NA2       -13.7770   17.0090  -26.5630 N.am      1 SER        -0.2387
     49 N         -21.3770   13.3870  -26.3750 N.am      1 SER        -0.2638
     50 CA        -21.7500   12.2750  -27.2440 C.3       1 SER         0.1332
     51 C         -21.8530   11.6950  -28.4570 C.2       1 SER         0.2042
     52 O         -21.8480   10.4930  -28.7300 O.2       1 SER        -0.3944
     53 CB        -23.3310   11.8860  -26.7870 C.3       1 SER        -0.0063
     54 CG1       -23.6240   11.7740  -25.2580 C.3       1 SER        -0.0584
     55 CG2       -24.2960   12.8850  -27.4390 C.3       1 SER        -0.0584
     56 N         -21.4760   12.7190  -29.2290 N.am      1 SER        -0.2625
     57 CA        -21.5520   12.7430  -30.6720 C.3       1 SER         0.1369
     58 C         -20.3650   12.0310  -31.3180 C.2       1 SER         0.2054
     59 O         -20.5610   11.2900  -32.2860 O.2       1 SER        -0.3942
     60 CB        -21.6670   14.2000  -31.1780 C.3       1 SER         0.0145
     61 CG        -22.8630   14.9320  -30.6390 C.2       1 SER        -0.0027
     62 ND1       -24.1580   14.5100  -30.8570 N.2       1 SER        -0.3252
     63 CD2       -22.9580   16.0520  -29.8820 C.2       1 SER         0.0291
     64 CE1       -24.9970   15.3350  -30.2560 C.2       1 SER         0.0907
     65 NE2       -24.2950   16.2820  -29.6590 N.pl3     1 SER        -0.2752
     66 N         -19.1380   12.2100  -30.8060 N.am      1 SER        -0.2636
     67 CA        -17.9820   11.5460  -31.4120 C.3       1 SER         0.1312
     68 C         -18.0020   10.0460  -31.1610 C.2       1 SER         0.2039
     69 O         -17.7070    9.2530  -32.0650 O.2       1 SER        -0.3944
     70 CB        -16.6770   12.1200  -30.8650 C.3       1 SER        -0.0101
     71 CG        -15.3870   11.5880  -31.4940 C.3       1 SER        -0.0425
     72 CD1       -15.3770   11.7810  -32.9990 C.3       1 SER        -0.0625
     73 CD2       -14.2260   12.3120  -30.8150 C.3       1 SER        -0.0625
     74 N         -18.3060    9.6360  -29.9310 N.am      1 SER        -0.2637
     75 CA        -18.2600    8.2170  -29.6210 C.3       1 SER         0.1311
     76 C         -19.3890    7.4590  -30.3090 C.2       1 SER         0.2039
     77 O         -19.2700    6.2440  -30.4970 O.2       1 SER        -0.3944
     78 CB        -18.2750    8.0160  -28.1020 C.3       1 SER        -0.0092
     79 CG        -19.5730    8.3660  -27.4120 C.3       1 SER        -0.0156
     80 CD        -20.4070    7.1220  -27.0950 C.3       1 SER         0.0627
     81 NE        -21.4280    7.4410  -26.0990 N.pl3     1 SER        -0.2723
     82 CZ        -22.4170    6.6350  -25.7270 C.cat     1 SER         0.2882
     83 NH1       -22.5500    5.4290  -26.2670 N.pl3     1 SER        -0.2849
     84 NH2       -23.2820    7.0500  -24.8080 N.pl3     1 SER        -0.2849
     85 N         -20.4500    8.1560  -30.7390 N.am      1 SER        -0.2637
     86 CA        -21.5600    7.5450  -31.4650 C.3       1 SER         0.1310
     87 C         -21.4840    7.7530  -32.9810 C.2       1 SER         0.2040
     88 O         -22.3700    7.2730  -33.6980 O.2       1 SER        -0.3944
     89 CB        -22.9030    8.0880  -30.9390 C.3       1 SER        -0.0122
     90 CG        -23.2560    7.6710  -29.5010 C.3       1 SER        -0.0440
     91 CD        -24.6810    8.1090  -29.1090 C.3       1 SER        -0.0124
     92 CE        -25.1540    7.4440  -27.8120 C.3       1 SER        -0.0354
     93 NZ        -26.6260    7.5800  -27.5680 N.4       1 SER         0.2185
     94 N         -20.4520    8.4390  -33.4830 N.am      1 SER        -0.2616
     95 CA        -20.2930    8.7270  -34.9200 C.3       1 SER         0.1536
     96 C         -19.5760    7.6160  -35.7080 C.2       1 SER         0.2015
     97 O         -19.3960    7.7220  -36.9260 O.2       1 SER        -0.3947
     98 CB        -19.5220   10.0520  -35.1110 C.3       1 SER         0.0843
     99 OG        -18.1250    9.8870  -34.9020 O.3       1 SER        -0.3903
    100 N         -19.1680    6.5580  -35.0120 N.am      1 SER        -0.2989
    101 H1         -7.7961   17.1119  -28.6083 H         1 SER         0.2016
    102 H2         -9.3916   17.5165  -28.5959 H         1 SER         0.2016
    103 H3         -8.8427   16.3641  -29.6353 H         1 SER         0.2016
    104 H4         -8.2702   14.9008  -27.8481 H         1 SER         0.1122
    105 H5         -9.2979   17.2694  -26.2298 H         1 SER         0.0640
    106 H6         -7.7000   16.4544  -26.1330 H         1 SER         0.0640
    107 H7         -8.8304   14.5998  -25.3562 H         1 SER         0.2099
    108 H8         -9.6516   13.3131  -28.2996 H         1 SER         0.1884
    109 H9        -12.4138   13.6352  -28.8450 H         1 SER         0.0797
    110 H10       -12.5785   11.1813  -28.4857 H         1 SER         0.0277
    111 H11       -10.9385   11.1853  -27.7528 H         1 SER         0.0277
    112 H12       -11.1498   11.6170  -29.4836 H         1 SER         0.0277
    113 H13       -10.6931   13.1423  -25.7511 H         1 SER         0.1883
    114 H14       -13.0340   12.5096  -24.2338 H         1 SER         0.0800
    115 H15       -10.4849   13.8975  -23.2833 H         1 SER         0.0313
    116 H16       -10.7041   12.1218  -23.4437 H         1 SER         0.0313
    117 H17       -12.4299   12.1147  -21.7350 H         1 SER         0.0301
    118 H18       -12.4430   13.9098  -21.6720 H         1 SER         0.0301
    119 H19       -11.2319   12.9293  -19.7641 H         1 SER         0.0689
    120 H20       -10.1556   13.9197  -20.8068 H         1 SER         0.0689
    121 H21        -9.0176   11.9773  -21.5013 H         1 SER         0.2642
    122 H22       -11.1483    9.5396  -19.0507 H         1 SER         0.2615
    123 H23       -11.7425   11.1927  -19.3622 H         1 SER         0.2615
    124 H24        -8.2829    9.8983  -21.0909 H         1 SER         0.2615
    125 H25        -9.2175    8.8111  -20.0292 H         1 SER         0.2615
    126 H26       -11.5439   15.6271  -25.1267 H         1 SER         0.1883
    127 H27       -13.3825   17.0825  -23.3360 H         1 SER         0.0802
    128 H28       -12.0972   19.0662  -24.0969 H         1 SER         0.0277
    129 H29       -11.2042   18.0284  -25.2597 H         1 SER         0.0277
    130 H30       -11.0227   17.7596  -23.4930 H         1 SER         0.0277
    131 H31       -18.8869   14.6593  -24.7459 H         1 SER         0.0753
    132 H32       -20.5260   14.5078  -24.0269 H         1 SER         0.0753
    133 H33       -18.5824   14.4776  -30.6650 H         1 SER         0.2028
    134 H34       -18.9866   14.5205  -27.6015 H         1 SER         0.0390
    135 H35       -21.0767   16.4523  -25.1974 H         1 SER         0.1761
    136 H36       -15.8364   19.9866  -29.4898 H         1 SER         0.0485
    137 H37       -14.3405   19.4764  -27.5619 H         1 SER         0.0379
    138 H38       -15.1200   15.3078  -28.0973 H         1 SER         0.0377
    139 H39       -16.8320   17.6763  -31.9630 H         1 SER         0.0389
    140 H40       -17.1689   19.3057  -31.2863 H         1 SER         0.0389
    141 H41       -20.8213   18.2963  -26.8159 H         1 SER         0.0389
    142 H42       -20.1254   19.1431  -29.0296 H         1 SER         0.0489
    143 H43       -18.9571   17.0919  -31.7150 H         1 SER         0.0392
    144 H44       -19.3161   18.7639  -31.1655 H         1 SER         0.0392
    145 H45       -16.1217   14.7766  -30.6746 H         1 SER         0.2027
    146 H46       -13.0467   16.3489  -26.7389 H         1 SER         0.2233
    147 H47       -22.0346   14.1223  -26.2109 H         1 SER         0.1883
    148 H48       -21.0751   11.5374  -26.7852 H         1 SER         0.0802
    149 H49       -23.5401   10.8927  -27.2109 H         1 SER         0.0343
    150 H50       -24.6828   11.5177  -25.1054 H         1 SER         0.0234
    151 H51       -23.4058   12.7361  -24.7714 H         1 SER         0.0234
    152 H52       -22.9900   10.9892  -24.8197 H         1 SER         0.0234
    153 H53       -24.0795   12.9549  -28.5152 H         1 SER         0.0234
    154 H54       -24.1690   13.8740  -26.9745 H         1 SER         0.0234
    155 H55       -25.3313   12.5423  -27.2948 H         1 SER         0.0234
    156 H56       -21.1132   13.5315  -28.7727 H         1 SER         0.1885
    157 H57       -22.4651   12.2068  -30.9698 H         1 SER         0.0817
    158 H58       -21.7359   14.1824  -32.2757 H         1 SER         0.0420
    159 H59       -20.7607   14.7454  -30.8762 H         1 SER         0.0420
    160 H60       -22.1292   16.6574  -29.5179 H         1 SER         0.0729
    161 H61       -26.0826   15.2491  -30.2531 H         1 SER         0.1199
    162 H62       -24.6857   17.0647  -29.1153 H         1 SER         0.2361
    163 H63       -19.0123   12.7990  -30.0077 H         1 SER         0.1883
    164 H64       -18.0166   11.7200  -32.4976 H         1 SER         0.0800
    165 H65       -16.6398   11.9010  -29.7877 H         1 SER         0.0315
    166 H66       -16.6999   13.2092  -31.0172 H         1 SER         0.0315
    167 H67       -15.3053   10.5105  -31.2881 H         1 SER         0.0298
    168 H68       -14.4369   11.3874  -33.4129 H         1 SER         0.0232
    169 H69       -15.4597   12.8529  -33.2318 H         1 SER         0.0232
    170 H70       -16.2270   11.2425  -33.4434 H         1 SER         0.0232
    171 H71       -14.2742   12.1442  -29.7289 H         1 SER         0.0232
    172 H72       -14.2943   13.3900  -31.0228 H         1 SER         0.0232
    173 H73       -13.2735   11.9231  -31.2041 H         1 SER         0.0232
    174 H74       -18.5635   10.2983  -29.2274 H         1 SER         0.1883
    175 H75       -17.3101    7.8165  -30.0047 H         1 SER         0.0800
    176 H76       -17.4815    8.6430  -27.6694 H         1 SER         0.0313
    177 H77       -18.0577    6.9571  -27.8981 H         1 SER         0.0313
    178 H78       -20.1572    9.0275  -28.0686 H         1 SER         0.0301
    179 H79       -19.3456    8.8901  -26.4720 H         1 SER         0.0301
    180 H80       -19.7488    6.3335  -26.7013 H         1 SER         0.0689
    181 H81       -20.8947    6.7671  -28.0148 H         1 SER         0.0689
    182 H82       -21.3768    8.3659  -25.6487 H         1 SER         0.2642
    183 H83       -23.3209    4.8139  -25.9700 H         1 SER         0.2615
    184 H84       -21.8822    5.1088  -26.9829 H         1 SER         0.2615
    185 H85       -23.1791    7.9853  -24.3890 H         1 SER         0.2615
    186 H86       -24.0555    6.4365  -24.5145 H         1 SER         0.2615
    187 H87       -20.4830    9.1383  -30.5544 H         1 SER         0.1883
    188 H88       -21.5257    6.4623  -31.2738 H         1 SER         0.0800
    189 H89       -23.7010    7.7267  -31.6043 H         1 SER         0.0312
    190 H90       -22.8644    9.1867  -30.9756 H         1 SER         0.0312
    191 H91       -22.5381    8.1362  -28.8094 H         1 SER         0.0269
    192 H92       -23.1858    6.5762  -29.4208 H         1 SER         0.0269
    193 H93       -25.3717    7.8349  -29.9200 H         1 SER         0.0317
    194 H94       -24.6912    9.2003  -28.9718 H         1 SER         0.0317
    195 H95       -24.6182    7.9056  -26.9695 H         1 SER         0.0813
    196 H96       -24.9075    6.3731  -27.8608 H         1 SER         0.0813
    197 H97       -26.8668    7.1223  -26.7028 H         1 SER         0.1994
    198 H98       -27.1333    7.1524  -28.3268 H         1 SER         0.1994
    199 H99       -26.8682    8.5567  -27.5101 H         1 SER         0.1994
    200 H100      -19.7525    8.7737  -32.8516 H         1 SER         0.1884
    201 H101      -21.2999    8.8438  -35.3472 H         1 SER         0.0823
    202 H102      -19.9040   10.7926  -34.3929 H         1 SER         0.0606
    203 H103      -19.6878   10.4155  -36.1359 H         1 SER         0.0606
    204 H104      -17.9727    9.5783  -34.0166 H         1 SER         0.2097
    205 H105      -18.6967    5.8069  -35.4743 H         1 SER         0.1815
    206 H106      -19.3327    6.5139  -34.0266 H         1 SER         0.1815
@<TRIPOS>BOND
     1    2    1 1  
     2    3    2 1  
     3    2    5 1  
     4    3    4 2  
     5    7    3 am 
     6    5    6 1  
     7    8    7 1  
     8    9    8 1  
     9    8   11 1  
    10    9   10 2  
    11   12    9 am 
    12   13   12 1  
    13   14   13 1  
    14   13   16 1  
    15   14   15 2  
    16   23   14 am 
    17   16   17 1  
    18   17   18 1  
    19   18   19 1  
    20   19   20 ar 
    21   20   21 ar 
    22   20   22 ar 
    23   24   23 1  
    24   25   24 1  
    25   24   27 1  
    26   25   26 2  
    27   48   25 am 
    28   28   29 1  
    29   34   28 1  
    30   29   30 2  
    31   29   49 am 
    32   32   31 1  
    33   31   33 ar 
    34   31   45 ar 
    35   47   32 1  
    36   33   35 ar 
    37   35   34 1  
    38   35   43 ar 
    39   36   37 ar 
    40   41   36 ar 
    41   36   47 1  
    42   38   37 ar 
    43   37   42 1  
    44   39   38 ar 
    45   40   39 ar 
    46   40   41 ar 
    47   40   48 1  
    48   42   46 1  
    49   43   44 ar 
    50   44   45 ar 
    51   45   46 1  
    52   49   50 1  
    53   50   51 1  
    54   50   53 1  
    55   51   52 2  
    56   51   56 am 
    57   53   54 1  
    58   53   55 1  
    59   56   57 1  
    60   57   58 1  
    61   57   60 1  
    62   58   59 2  
    63   58   66 am 
    64   60   61 1  
    65   61   62 1  
    66   61   63 2  
    67   62   64 2  
    68   63   65 1  
    69   64   65 1  
    70   66   67 1  
    71   67   68 1  
    72   67   70 1  
    73   68   69 2  
    74   68   74 am 
    75   70   71 1  
    76   71   72 1  
    77   71   73 1  
    78   74   75 1  
    79   75   76 1  
    80   75   78 1  
    81   76   77 2  
    82   76   85 am 
    83   78   79 1  
    84   79   80 1  
    85   80   81 1  
    86   81   82 ar 
    87   82   83 ar 
    88   82   84 ar 
    89   85   86 1  
    90   86   87 1  
    91   86   89 1  
    92   87   88 2  
    93   87   94 am 
    94   89   90 1  
    95   90   91 1  
    96   91   92 1  
    97   92   93 1  
    98   94   95 1  
    99   95   96 1  
   100   95   98 1  
   101   96   97 2  
   102   96  100 am 
   103   98   99 1  
   104    1  101 1  
   105    1  102 1  
   106    1  103 1  
   107    2  104 1  
   108    5  105 1  
   109    5  106 1  
   110    6  107 1  
   111    7  108 1  
   112    8  109 1  
   113   11  110 1  
   114   11  111 1  
   115   11  112 1  
   116   12  113 1  
   117   13  114 1  
   118   16  115 1  
   119   16  116 1  
   120   17  117 1  
   121   17  118 1  
   122   18  119 1  
   123   18  120 1  
   124   19  121 1  
   125   21  122 1  
   126   21  123 1  
   127   22  124 1  
   128   22  125 1  
   129   23  126 1  
   130   24  127 1  
   131   27  128 1  
   132   27  129 1  
   133   27  130 1  
   134   28  131 1  
   135   28  132 1  
   136   32  133 1  
   137   33  134 1  
   138   34  135 1  
   139   38  136 1  
   140   39  137 1  
   141   41  138 1  
   142   42  139 1  
   143   42  140 1  
   144   43  141 1  
   145   44  142 1  
   146   46  143 1  
   147   46  144 1  
   148   47  145 1  
   149   48  146 1  
   150   49  147 1  
   151   50  148 1  
   152   53  149 1  
   153   54  150 1  
   154   54  151 1  
   155   54  152 1  
   156   55  153 1  
   157   55  154 1  
   158   55  155 1  
   159   56  156 1  
   160   57  157 1  
   161   60  158 1  
   162   60  159 1  
   163   63  160 1  
   164   64  161 1  
   165   65  162 1  
   166   66  163 1  
   167   67  164 1  
   168   70  165 1  
   169   70  166 1  
   170   71  167 1  
   171   72  168 1  
   172   72  169 1  
   173   72  170 1  
   174   73  171 1  
   175   73  172 1  
   176   73  173 1  
   177   74  174 1  
   178   75  175 1  
   179   78  176 1  
   180   78  177 1  
   181   79  178 1  
   182   79  179 1  
   183   80  180 1  
   184   80  181 1  
   185   81  182 1  
   186   83  183 1  
   187   83  184 1  
   188   84  185 1  
   189   84  186 1  
   190   85  187 1  
   191   86  188 1  
   192   89  189 1  
   193   89  190 1  
   194   90  191 1  
   195   90  192 1  
   196   91  193 1  
   197   91  194 1  
   198   92  195 1  
   199   92  196 1  
   200   93  197 1  
   201   93  198 1  
   202   93  199 1  
   203   94  200 1  
   204   95  201 1  
   205   98  202 1  
   206   98  203 1  
   207   99  204 1  
   208  100  205 1  
   209  100  206 1  
@<TRIPOS>SUBSTRUCTURE
     1 SER         1

