1efy_ligand
  -I-interpret- 

 32 34  0  0  0  0  0  0  0  0999 V2000
   40.6790   22.6620   21.8370 C   0  0  0  0  0
   39.9280   22.8690   20.7290 N   0  0  0  0  0
   38.6530   22.4260   20.9470 C   0  0  0  0  0
   38.6030   21.9240   22.2360 N   0  0  0  0  0
   39.8310   22.0570   22.8020 C   0  0  0  0  0
   40.3600   21.7320   24.0480 C   0  0  0  0  0
   42.0330   22.9360   22.1260 C   0  0  0  0  0
   37.5710   22.5070   19.8910 C   0  0  0  0  0
   42.5490   22.5980   23.3900 C   0  0  0  0  0
   41.7080   22.0010   24.3360 C   0  0  0  0  0
   42.8860   23.5850   21.1520 C   0  0  0  0  0
   42.4080   23.9600   19.9530 N   0  0  0  0  0
   44.0640   23.8070   21.4100 O   0  0  0  0  0
   37.9370   22.5990   18.5340 C   0  0  0  0  0
   36.2060   22.5290   20.2400 C   0  0  0  0  0
   36.9460   22.7190   17.5480 C   0  0  0  0  0
   37.2660   22.7800   16.1600 O   0  0  0  0  0
   35.5880   22.7470   17.9180 C   0  0  0  0  0
   35.2060   22.6510   19.2600 C   0  0  0  0  0
   38.5440   22.3580   15.7040 C   0  0  0  0  0
   39.7257   21.2671   24.8028 H   0  0  0  0  0
   43.5930   22.7989   23.6303 H   0  0  0  0  0
   42.1072   21.7396   25.3160 H   0  0  0  0  0
   43.0220   24.4189   19.2800 H   0  0  0  0  0
   41.4313   23.7857   19.7161 H   0  0  0  0  0
   38.9891   22.5770   18.2501 H   0  0  0  0  0
   35.9205   22.4500   21.2890 H   0  0  0  0  0
   34.8232   22.8449   17.1475 H   0  0  0  0  0
   34.1529   22.6704   19.5405 H   0  0  0  0  0
   39.3160   22.9635   16.1789 H   0  0  0  0  0
   38.6926   21.3096   15.9625 H   0  0  0  0  0
   38.6003   22.4783   14.6221 H   0  0  0  0  0
  1  7  4  0  0  0
  1  5  4  0  0  0
  1  2  4  0  0  0
  2  3  4  0  0  0
  3  8  1  0  0  0
  3  4  4  0  0  0
  4  5  4  0  0  0
  5  6  4  0  0  0
  6 10  4  0  0  0
 10  9  4  0  0  0
  9  7  4  0  0  0
  7 11  1  0  0  0
 11 13  2  0  0  0
 11 12  1  0  0  0
  8 15  4  0  0  0
  8 14  4  0  0  0
 14 16  4  0  0  0
 16 18  4  0  0  0
 16 17  1  0  0  0
 17 20  1  0  0  0
 18 19  4  0  0  0
 19 15  4  0  0  0
  6 21  1  0  0  0
  9 22  1  0  0  0
 10 23  1  0  0  0
 12 24  1  0  0  0
 12 25  1  0  0  0
 14 26  1  0  0  0
 15 27  1  0  0  0
 18 28  1  0  0  0
 19 29  1  0  0  0
 20 30  1  0  0  0
 20 31  1  0  0  0
 20 32  1  0  0  0
M  END
$$$$
