1bwb_ligand
  -I-interpret- 

104112  0  0  0  0  0  0  0  0999 V2000
   -9.0420   15.6050   27.8390 C   0  0  0  0  0
   -9.7570   15.0700   30.1070 C   0  0  0  0  0
  -11.0390   16.7710   28.8040 C   0  0  0  0  0
  -10.7870   18.2520   28.5950 C   0  0  0  0  0
  -10.3760   18.4930   27.1600 C   0  0  0  0  0
   -8.9890   17.9470   26.9310 C   0  0  0  0  0
   -8.1860   15.9720   25.6140 C   0  0  0  0  0
   -9.7010   15.8250   31.4220 C   0  0  0  0  0
  -10.4150   15.3240   32.5200 C   0  0  0  0  0
  -10.3120   15.9610   33.7700 C   0  0  0  0  0
   -9.5140   17.1040   33.9160 C   0  0  0  0  0
   -8.8030   17.6200   32.8190 C   0  0  0  0  0
   -8.9000   16.9770   31.5720 C   0  0  0  0  0
  -11.0140   15.4110   34.9690 C   0  0  0  0  0
  -11.6400   13.2390   36.0320 C   0  0  0  0  0
  -12.3590   12.4120   39.4450 C   0  0  0  0  0
  -12.5650   11.1030   39.9270 C   0  0  0  0  0
  -12.5130    9.9800   39.0690 C   0  0  0  0  0
  -12.2520   10.1240   37.6950 C   0  0  0  0  0
  -12.0390   11.4120   37.1680 C   0  0  0  0  0
  -12.0920   12.5980   38.0730 C   0  0  0  0  0
  -12.0980   16.1310   27.8600 C   0  0  0  0  0
  -12.8200   14.9380   28.4540 C   0  0  0  0  0
  -12.4750   13.6180   28.0700 C   0  0  0  0  0
  -13.1300   12.5150   28.6730 C   0  0  0  0  0
  -14.1310   12.7280   29.6550 C   0  0  0  0  0
  -14.4780   14.0460   30.0360 C   0  0  0  0  0
  -13.8230   15.1490   29.4330 C   0  0  0  0  0
   -7.9090   18.5140   27.8840 C   0  0  0  0  0
   -6.4910   18.3410   27.3890 C   0  0  0  0  0
   -6.0290   19.1400   26.3070 C   0  0  0  0  0
   -4.7370   18.9210   25.7860 C   0  0  0  0  0
   -3.9190   17.9200   26.3560 C   0  0  0  0  0
   -4.3740   17.1390   27.4400 C   0  0  0  0  0
   -5.6620   17.3430   27.9640 C   0  0  0  0  0
   -8.8580   16.3270   24.3140 C   0  0  0  0  0
   -8.0340   16.6240   23.2180 C   0  0  0  0  0
   -8.6230   16.9130   21.9660 C   0  0  0  0  0
  -10.0270   16.8840   21.8110 C   0  0  0  0  0
  -10.8540   16.5800   22.9120 C   0  0  0  0  0
  -10.2680   16.3120   24.1630 C   0  0  0  0  0
   -7.7660   17.2930   20.8000 C   0  0  0  0  0
   -5.5670   16.8770   19.7070 C   0  0  0  0  0
   -4.7200   17.2430   16.2300 C   0  0  0  0  0
   -3.6620   16.5680   15.5730 C   0  0  0  0  0
   -2.7970   15.6900   16.2770 C   0  0  0  0  0
   -2.9600   15.4590   17.6660 C   0  0  0  0  0
   -4.0170   16.1140   18.3590 C   0  0  0  0  0
   -4.9240   17.0340   17.6090 C   0  0  0  0  0
   -9.8630   15.8850   28.8860 N   0  0  0  0  0
   -8.8380   16.4740   26.8270 N   0  0  0  0  0
  -11.2370   14.0870   34.9020 N   0  0  0  0  0
  -11.8370   13.6880   37.2870 N   0  0  0  0  0
  -11.7560   11.8990   35.9190 N   0  0  0  0  0
   -6.4940   16.8450   20.8570 N   0  0  0  0  0
   -5.8440   17.4670   18.5190 N   0  0  0  0  0
   -4.4850   16.0880   19.6580 N   0  0  0  0  0
   -8.4620   14.5280   27.8080 O   0  0  0  0  0
  -12.0010   18.9050   28.8790 O   0  0  0  0  0
  -10.3070   19.8600   26.8900 O   0  0  0  0  0
  -11.3210   16.0840   35.9370 O   0  0  0  0  0
   -8.1920   17.9340   19.8560 O   0  0  0  0  0
   -8.8134   14.5300   30.0285 H   0  0  0  0  0
  -10.6623   14.4641   30.1451 H   0  0  0  0  0
  -11.4530   16.8230   29.8110 H   0  0  0  0  0
   -9.9891   18.6242   29.2375 H   0  0  0  0  0
  -11.1140   18.0079   26.5211 H   0  0  0  0  0
   -8.8154   18.3279   25.9246 H   0  0  0  0  0
   -8.2037   14.8843   25.6827 H   0  0  0  0  0
   -7.1971   16.4294   25.5843 H   0  0  0  0  0
  -11.0477   14.4439   32.4053 H   0  0  0  0  0
   -9.4444   17.5957   34.8863 H   0  0  0  0  0
   -8.1830   18.5091   32.9335 H   0  0  0  0  0
   -8.3528   17.3711   30.7157 H   0  0  0  0  0
  -12.4054   13.2655   40.1214 H   0  0  0  0  0
  -12.7694   10.9530   40.9871 H   0  0  0  0  0
  -12.6783    8.9843   39.4806 H   0  0  0  0  0
  -12.2150    9.2492   37.0458 H   0  0  0  0  0
  -11.5684   15.7783   26.9750 H   0  0  0  0  0
  -12.8500   16.8934   27.6567 H   0  0  0  0  0
  -11.7083   13.4515   27.3133 H   0  0  0  0  0
  -12.8634   11.4993   28.3809 H   0  0  0  0  0
  -14.6327   11.8771   30.1159 H   0  0  0  0  0
  -15.2466   14.2125   30.7908 H   0  0  0  0  0
  -14.0920   16.1645   29.7236 H   0  0  0  0  0
   -7.9902   17.9667   28.8231 H   0  0  0  0  0
   -8.0896   19.5853   27.9728 H   0  0  0  0  0
   -6.6681   19.9151   25.8840 H   0  0  0  0  0
   -4.3726   19.5189   24.9507 H   0  0  0  0  0
   -2.9212   17.7482   25.9524 H   0  0  0  0  0
   -3.7255   16.3765   27.8714 H   0  0  0  0  0
   -6.0194   16.7428   28.8007 H   0  0  0  0  0
   -6.9499   16.6318   23.3309 H   0  0  0  0  0
  -10.4716   17.0969   20.8389 H   0  0  0  0  0
  -11.9374   16.5529   22.7951 H   0  0  0  0  0
  -10.9021   16.0914   25.0217 H   0  0  0  0  0
   -5.3706   17.9181   15.6741 H   0  0  0  0  0
   -3.5091   16.7260   14.5054 H   0  0  0  0  0
   -1.9938   15.1849   15.7405 H   0  0  0  0  0
   -2.2845   14.7882   18.1968 H   0  0  0  0  0
  -11.1170   13.6356   33.9952 H   0  0  0  0  0
   -6.1549   16.4643   21.7405 H   0  0  0  0  0
  -12.2453   18.7407   29.7928 H   0  0  0  0  0
  -11.1717   20.2553   27.0226 H   0  0  0  0  0
  1 58  2  0  0  0
  1 51  1  0  0  0
  1 50  1  0  0  0
 50  3  1  0  0  0
 50  2  1  0  0  0
  2  8  1  0  0  0
  8 13  4  0  0  0
  8  9  4  0  0  0
  9 10  4  0  0  0
 10 14  1  0  0  0
 10 11  4  0  0  0
 11 12  4  0  0  0
 12 13  4  0  0  0
 14 61  2  0  0  0
 14 52  1  0  0  0
 52 15  1  0  0  0
 15 53  4  0  0  0
 15 54  4  0  0  0
 54 20  4  0  0  0
 20 21  4  0  0  0
 20 19  4  0  0  0
 19 18  4  0  0  0
 18 17  4  0  0  0
 17 16  4  0  0  0
 16 21  4  0  0  0
 21 53  4  0  0  0
  3 22  1  0  0  0
  3  4  1  0  0  0
  4 59  1  0  0  0
  4  5  1  0  0  0
  5 60  1  0  0  0
  5  6  1  0  0  0
  6 51  1  0  0  0
  6 29  1  0  0  0
 29 30  1  0  0  0
 30 35  4  0  0  0
 30 31  4  0  0  0
 31 32  4  0  0  0
 32 33  4  0  0  0
 33 34  4  0  0  0
 34 35  4  0  0  0
 51  7  1  0  0  0
  7 36  1  0  0  0
 36 41  4  0  0  0
 36 37  4  0  0  0
 37 38  4  0  0  0
 38 42  1  0  0  0
 38 39  4  0  0  0
 39 40  4  0  0  0
 40 41  4  0  0  0
 42 55  1  0  0  0
 42 62  2  0  0  0
 55 43  1  0  0  0
 43 56  4  0  0  0
 43 57  4  0  0  0
 57 48  4  0  0  0
 48 49  4  0  0  0
 48 47  4  0  0  0
 47 46  4  0  0  0
 46 45  4  0  0  0
 45 44  4  0  0  0
 44 49  4  0  0  0
 49 56  4  0  0  0
 22 23  1  0  0  0
 23 28  4  0  0  0
 23 24  4  0  0  0
 24 25  4  0  0  0
 25 26  4  0  0  0
 26 27  4  0  0  0
 27 28  4  0  0  0
  2 63  1  0  0  0
  2 64  1  0  0  0
  3 65  1  0  0  0
  4 66  1  0  0  0
  5 67  1  0  0  0
  6 68  1  0  0  0
  7 69  1  0  0  0
  7 70  1  0  0  0
  9 71  1  0  0  0
 11 72  1  0  0  0
 12 73  1  0  0  0
 13 74  1  0  0  0
 16 75  1  0  0  0
 17 76  1  0  0  0
 18 77  1  0  0  0
 19 78  1  0  0  0
 22 79  1  0  0  0
 22 80  1  0  0  0
 24 81  1  0  0  0
 25 82  1  0  0  0
 26 83  1  0  0  0
 27 84  1  0  0  0
 28 85  1  0  0  0
 29 86  1  0  0  0
 29 87  1  0  0  0
 31 88  1  0  0  0
 32 89  1  0  0  0
 33 90  1  0  0  0
 34 91  1  0  0  0
 35 92  1  0  0  0
 37 93  1  0  0  0
 39 94  1  0  0  0
 40 95  1  0  0  0
 41 96  1  0  0  0
 44 97  1  0  0  0
 45 98  1  0  0  0
 46 99  1  0  0  0
 47100  1  0  0  0
 52101  1  0  0  0
 55102  1  0  0  0
 59103  1  0  0  0
 60104  1  0  0  0
M  END
$$$$
