3h85_ligand
  -I-interpret- 

135139  0  0  0  0  0  0  0  0999 V2000
   63.6780  -11.4690    0.6630 N   0  3  0  0  0
   62.8980  -10.2650    1.0660 C   0  0  0  0  0
   63.3570   -9.0190    0.3160 C   0  0  0  0  0
   64.5410   -8.8590    0.0200 O   0  0  0  0  0
   62.9480  -10.0540    2.5730 C   0  0  0  0  0
   62.3790  -11.1720    3.2410 O   0  0  0  0  0
   62.4060   -8.1300    0.0340 N   0  0  0  0  0
   62.5260   -7.2110   -1.0860 C   0  0  0  0  0
   62.6110   -5.7180   -0.7900 C   0  0  0  0  0
   62.7760   -5.2890    0.3630 O   0  0  0  0  0
   61.3610   -7.4440   -2.0340 C   0  0  0  0  0
   61.7880   -8.0130   -3.3270 C   0  0  0  0  0
   62.3850   -7.3430   -4.3620 C   0  0  0  0  0
   61.6510   -9.3700   -3.7460 C   0  0  0  0  0
   62.6280   -8.2070   -5.3990 N   0  0  0  0  0
   62.1840   -9.4580   -5.0480 C   0  0  0  0  0
   61.1260  -10.5200   -3.1500 C   0  0  0  0  0
   62.2070  -10.6600   -5.7650 C   0  0  0  0  0
   61.1480  -11.7030   -3.8560 C   0  0  0  0  0
   61.6860  -11.7690   -5.1490 C   0  0  0  0  0
   62.4960   -4.9470   -1.8760 N   0  0  0  0  0
   62.4170   -3.4930   -1.8220 C   0  0  0  0  0
   60.9670   -3.0600   -1.5950 C   0  0  0  0  0
   60.0390   -3.6450   -2.1610 O   0  0  0  0  0
   62.9460   -2.8370   -3.1360 C   0  0  0  0  0
   63.9070   -3.7800   -3.8590 C   0  0  0  0  0
   61.7920   -2.4140   -4.0410 C   0  0  0  0  0
   60.7810   -2.0360   -0.7650 N   0  0  0  0  0
   59.4500   -1.5230   -0.4710 C   0  0  0  0  0
   58.8360   -0.7850   -1.6560 C   0  0  0  0  0
   59.5450   -0.2900   -2.5240 O   0  0  0  0  0
   59.5000   -0.6050    0.7440 C   0  0  0  0  0
   59.7020   -1.3300    2.0510 C   0  0  0  0  0
   58.6380   -1.9790    2.6810 C   0  0  0  0  0
   60.9470   -1.3580    2.6690 C   0  0  0  0  0
   58.8110   -2.6430    3.8870 C   0  0  0  0  0
   61.1310   -2.0230    3.8770 C   0  0  0  0  0
   60.0570   -2.6640    4.4800 C   0  0  0  0  0
   60.2250   -3.3160    5.6830 O   0  0  0  0  0
   57.5080   -0.7360   -1.6840 N   0  0  0  0  0
   56.7620    0.0670   -2.6460 C   0  0  0  0  0
   55.8010    0.9690   -1.8960 C   0  0  0  0  0
   55.4270    0.6660   -0.7600 O   0  0  0  0  0
   55.9500   -0.8220   -3.5780 C   0  0  0  0  0
   56.7590   -1.3560   -4.6010 O   0  0  0  0  0
   55.3840    2.0800   -2.5320 N   0  0  0  0  0
   54.3850    2.9330   -1.8990 C   0  0  0  0  0
   53.1330    2.1010   -1.6740 C   0  0  0  0  0
   52.7820    1.2810   -2.5200 O   0  0  0  0  0
   54.1180    4.0180   -2.9480 C   0  0  0  0  0
   55.2170    3.9120   -3.9320 C   0  0  0  0  0
   55.6940    2.5090   -3.9060 C   0  0  0  0  0
   52.4480    2.2960   -0.5690 N   0  0  0  0  0
   51.2650    1.5230   -0.2990 C   0  0  0  0  0
   50.2540    1.7170   -1.3880 C   0  0  0  0  0
   49.6300    0.7750   -1.8290 O   0  0  0  0  0
   50.6630    1.9560    1.0110 C   0  0  0  0  0
   49.6700    0.9830    1.5900 C   0  0  0  0  0
   50.2670   -0.3380    1.4700 C   0  0  0  0  0
   49.4640    1.3120    3.0000 C   0  0  0  0  0
   50.0710    2.9580   -1.8020 N   0  0  0  0  0
   49.1930    3.2650   -2.9140 C   0  0  0  0  0
   49.9680    3.9380   -4.0190 C   0  0  0  0  0
   50.1740    3.3620   -5.0680 O   0  0  0  0  0
   48.0800    4.1920   -2.4750 C   0  0  0  0  0
   47.3590    3.7320   -1.2570 C   0  0  0  0  0
   47.6010    4.2600   -0.0100 N   0  0  0  0  0
   46.3940    2.8050   -1.0940 C   0  0  0  0  0
   46.8200    3.6690    0.8720 C   0  0  0  0  0
   46.0760    2.7840    0.2380 N   0  0  0  0  0
   50.4040    5.0800   -3.8770 O   0  0  0  0  0
   63.6256  -11.5835   -0.3492 H   0  0  0  0  0
   64.6517  -11.3513    0.9431 H   0  0  0  0  0
   63.2888  -12.2935    1.1202 H   0  0  0  0  0
   61.8588  -10.4440    0.7901 H   0  0  0  0  0
   62.3817   -9.1582    2.8281 H   0  0  0  0  0
   63.9864   -9.9413    2.8845 H   0  0  0  0  0
   62.4154  -11.0291    4.1896 H   0  0  0  0  0
   61.5715   -8.0931    0.6194 H   0  0  0  0  0
   63.5031   -7.4499   -1.5059 H   0  0  0  0  0
   60.8898   -6.4809   -2.2301 H   0  0  0  0  0
   60.6813   -8.1540   -1.5627 H   0  0  0  0  0
   62.6304   -6.2810   -4.3615 H   0  0  0  0  0
   60.7066  -10.4817   -2.1446 H   0  0  0  0  0
   62.6220  -10.7124   -6.7716 H   0  0  0  0  0
   60.7393  -12.6050   -3.4005 H   0  0  0  0  0
   61.6903  -12.7229   -5.6764 H   0  0  0  0  0
   62.4618   -5.3998   -2.7894 H   0  0  0  0  0
   63.0445   -3.1596   -0.9954 H   0  0  0  0  0
   63.4986   -1.9358   -2.8701 H   0  0  0  0  0
   64.7533   -4.0025   -3.2092 H   0  0  0  0  0
   63.3869   -4.7045   -4.1097 H   0  0  0  0  0
   64.2638   -3.3032   -4.7720 H   0  0  0  0  0
   61.1971   -3.2892   -4.3021 H   0  0  0  0  0
   61.1668   -1.6914   -3.5166 H   0  0  0  0  0
   62.1909   -1.9604   -4.9483 H   0  0  0  0  0
   61.5907   -1.5998   -0.3240 H   0  0  0  0  0
   58.8134   -2.3820   -0.2587 H   0  0  0  0  0
   58.5395   -0.0930    0.8028 H   0  0  0  0  0
   60.3503    0.0637    0.6098 H   0  0  0  0  0
   57.6522   -1.9636    2.2162 H   0  0  0  0  0
   61.7909   -0.8517    2.2004 H   0  0  0  0  0
   57.9684   -3.1447    4.3629 H   0  0  0  0  0
   62.1138   -2.0408    4.3480 H   0  0  0  0  0
   61.1406   -3.2405    5.9615 H   0  0  0  0  0
   56.9865   -1.2855   -1.0010 H   0  0  0  0  0
   57.4712    0.6510   -3.2326 H   0  0  0  0  0
   55.1617   -0.2225   -4.0334 H   0  0  0  0  0
   55.5313   -1.6449   -2.9986 H   0  0  0  0  0
   56.2244   -1.9112   -5.1733 H   0  0  0  0  0
   54.6937    3.3518   -0.9412 H   0  0  0  0  0
   54.0889    5.0083   -2.4935 H   0  0  0  0  0
   53.1472    3.8775   -3.4234 H   0  0  0  0  0
   56.0260    4.5974   -3.6795 H   0  0  0  0  0
   54.8671    4.1803   -4.9289 H   0  0  0  0  0
   55.2155    1.8858   -4.6615 H   0  0  0  0  0
   56.7528    2.4180   -4.1485 H   0  0  0  0  0
   52.7572    2.9999    0.1013 H   0  0  0  0  0
   51.5433    0.4703   -0.2503 H   0  0  0  0  0
   50.1279    2.8872    0.8252 H   0  0  0  0  0
   51.4809    2.0425    1.7263 H   0  0  0  0  0
   48.7096    1.0214    1.0760 H   0  0  0  0  0
   50.4580   -0.5549    0.4190 H   0  0  0  0  0
   51.2055   -0.3628    2.0238 H   0  0  0  0  0
   49.5833   -1.0827    1.8776 H   0  0  0  0  0
   50.4125    1.2364    3.5317 H   0  0  0  0  0
   49.0800    2.3288    3.0822 H   0  0  0  0  0
   48.7465    0.6151    3.4333 H   0  0  0  0  0
   50.5589    3.7181   -1.3281 H   0  0  0  0  0
   48.7679    2.3277   -3.2730 H   0  0  0  0  0
   47.3532    4.2336   -3.2862 H   0  0  0  0  0
   48.5333    5.1549   -2.2397 H   0  0  0  0  0
   45.9502    2.1881   -1.8754 H   0  0  0  0  0
   46.7937    3.8762    1.9418 H   0  0  0  0  0
   50.1665    5.4060   -3.0058 H   0  0  0  0  0
  1  2  1  0  0  0
  2  3  1  0  0  0
  2  5  1  0  0  0
  3  4  2  0  0  0
  3  7  1  0  0  0
  5  6  1  0  0  0
  7  8  1  0  0  0
  8  9  1  0  0  0
  8 11  1  0  0  0
  9 10  2  0  0  0
  9 21  1  0  0  0
 11 12  1  0  0  0
 12 13  4  0  0  0
 12 14  4  0  0  0
 13 15  4  0  0  0
 14 16  4  0  0  0
 14 17  4  0  0  0
 15 16  4  0  0  0
 16 18  4  0  0  0
 17 19  4  0  0  0
 18 20  4  0  0  0
 19 20  4  0  0  0
 21 22  1  0  0  0
 22 23  1  0  0  0
 22 25  1  0  0  0
 23 24  2  0  0  0
 23 28  1  0  0  0
 25 26  1  0  0  0
 25 27  1  0  0  0
 28 29  1  0  0  0
 29 30  1  0  0  0
 29 32  1  0  0  0
 30 31  2  0  0  0
 30 40  1  0  0  0
 32 33  1  0  0  0
 33 34  4  0  0  0
 33 35  4  0  0  0
 34 36  4  0  0  0
 35 37  4  0  0  0
 36 38  4  0  0  0
 37 38  4  0  0  0
 38 39  1  0  0  0
 40 41  1  0  0  0
 41 42  1  0  0  0
 41 44  1  0  0  0
 42 43  2  0  0  0
 42 46  1  0  0  0
 44 45  1  0  0  0
 46 47  1  0  0  0
 46 52  1  0  0  0
 47 48  1  0  0  0
 47 50  1  0  0  0
 48 49  2  0  0  0
 48 53  1  0  0  0
 50 51  1  0  0  0
 51 52  1  0  0  0
 53 54  1  0  0  0
 54 55  1  0  0  0
 54 57  1  0  0  0
 55 56  2  0  0  0
 55 61  1  0  0  0
 57 58  1  0  0  0
 58 59  1  0  0  0
 58 60  1  0  0  0
 61 62  1  0  0  0
 62 63  1  0  0  0
 62 65  1  0  0  0
 63 64  2  0  0  0
 63 71  1  0  0  0
 65 66  1  0  0  0
 66 67  4  0  0  0
 66 68  4  0  0  0
 67 69  4  0  0  0
 68 70  4  0  0  0
 69 70  4  0  0  0
  1 72  1  0  0  0
  1 73  1  0  0  0
  1 74  1  0  0  0
  2 75  1  0  0  0
  5 76  1  0  0  0
  5 77  1  0  0  0
  6 78  1  0  0  0
  7 79  1  0  0  0
  8 80  1  0  0  0
 11 81  1  0  0  0
 11 82  1  0  0  0
 13 83  1  0  0  0
 17 84  1  0  0  0
 18 85  1  0  0  0
 19 86  1  0  0  0
 20 87  1  0  0  0
 21 88  1  0  0  0
 22 89  1  0  0  0
 25 90  1  0  0  0
 26 91  1  0  0  0
 26 92  1  0  0  0
 26 93  1  0  0  0
 27 94  1  0  0  0
 27 95  1  0  0  0
 27 96  1  0  0  0
 28 97  1  0  0  0
 29 98  1  0  0  0
 32 99  1  0  0  0
 32100  1  0  0  0
 34101  1  0  0  0
 35102  1  0  0  0
 36103  1  0  0  0
 37104  1  0  0  0
 39105  1  0  0  0
 40106  1  0  0  0
 41107  1  0  0  0
 44108  1  0  0  0
 44109  1  0  0  0
 45110  1  0  0  0
 47111  1  0  0  0
 50112  1  0  0  0
 50113  1  0  0  0
 51114  1  0  0  0
 51115  1  0  0  0
 52116  1  0  0  0
 52117  1  0  0  0
 53118  1  0  0  0
 54119  1  0  0  0
 57120  1  0  0  0
 57121  1  0  0  0
 58122  1  0  0  0
 59123  1  0  0  0
 59124  1  0  0  0
 59125  1  0  0  0
 60126  1  0  0  0
 60127  1  0  0  0
 60128  1  0  0  0
 61129  1  0  0  0
 62130  1  0  0  0
 65131  1  0  0  0
 65132  1  0  0  0
 68133  1  0  0  0
 69134  1  0  0  0
 71135  1  0  0  0
M  END
$$$$
