### 
### Created by X-TOOL on Mon Sep 10 21:13:02 2018
### 

@<TRIPOS>MOLECULE
3h85_ligand
  136   140     1     0     0
SMALL
GAST_HUCK


@<TRIPOS>ATOM
      1 N          63.6780  -11.4690    0.6630 N.4       1 SER         0.2396
      2 CA         62.8980  -10.2650    1.0660 C.3       1 SER         0.0885
      3 C          63.3570   -9.0190    0.3160 C.2       1 SER         0.2291
      4 O          64.5410   -8.8590    0.0200 O.2       1 SER        -0.3906
      5 CB         62.9480  -10.0540    2.5730 C.3       1 SER         0.1041
      6 OG         62.3790  -11.1720    3.2410 O.3       1 SER        -0.3870
      7 N          62.4060   -8.1300    0.0340 N.am      1 TRP        -0.2599
      8 CA         62.5260   -7.2110   -1.0860 C.3       1 TRP         0.1353
      9 C          62.6110   -5.7180   -0.7900 C.2       1 TRP         0.2052
     10 O          62.7760   -5.2890    0.3630 O.2       1 TRP        -0.3942
     11 CB         61.3610   -7.4440   -2.0340 C.3       1 TRP         0.0042
     12 CG         61.7880   -8.0130   -3.3270 C.2       1 TRP        -0.0418
     13 CD1        62.3850   -7.3430   -4.3620 C.2       1 TRP         0.0167
     14 CD2        61.6510   -9.3700   -3.7460 C.ar      1 TRP        -0.0214
     15 NE1        62.6280   -8.2070   -5.3990 N.pl3     1 TRP        -0.2890
     16 CE2        62.1840   -9.4580   -5.0480 C.ar      1 TRP         0.0603
     17 CE3        61.1260  -10.5200   -3.1500 C.ar      1 TRP        -0.0747
     18 CZ2        62.2070  -10.6600   -5.7650 C.ar      1 TRP        -0.0443
     19 CZ3        61.1480  -11.7030   -3.8560 C.ar      1 TRP        -0.0792
     20 CH2        61.6860  -11.7690   -5.1490 C.ar      1 TRP        -0.0768
     21 N          62.4960   -4.9470   -1.8760 N.am      1 VAL        -0.2634
     22 CA         62.4170   -3.4930   -1.8220 C.3       1 VAL         0.1333
     23 C          60.9670   -3.0600   -1.5950 C.2       1 VAL         0.2043
     24 O          60.0390   -3.6450   -2.1610 O.2       1 VAL        -0.3944
     25 CB         62.9460   -2.8370   -3.1360 C.3       1 VAL        -0.0063
     26 CG1        63.9070   -3.7800   -3.8590 C.3       1 VAL        -0.0584
     27 CG2        61.7920   -2.4140   -4.0410 C.3       1 VAL        -0.0584
     28 N          60.7810   -2.0360   -0.7650 N.am      1 TYR        -0.2621
     29 CA         59.4500   -1.5230   -0.4710 C.3       1 TYR         0.1390
     30 C          58.8360   -0.7850   -1.6560 C.2       1 TYR         0.2058
     31 O          59.5450   -0.2900   -2.5240 O.2       1 TYR        -0.3942
     32 CB         59.5000   -0.6050    0.7440 C.3       1 TYR         0.0163
     33 CG         59.7020   -1.3300    2.0510 C.ar      1 TYR        -0.0493
     34 CD1        58.6380   -1.9790    2.6810 C.ar      1 TYR        -0.0685
     35 CD2        60.9470   -1.3580    2.6690 C.ar      1 TYR        -0.0685
     36 CE1        58.8110   -2.6430    3.8870 C.ar      1 TYR        -0.0398
     37 CE2        61.1310   -2.0230    3.8770 C.ar      1 TYR        -0.0398
     38 CZ         60.0570   -2.6640    4.4800 C.ar      1 TYR         0.0805
     39 OH         60.2250   -3.3160    5.6830 O.3       1 TYR        -0.3376
     40 N          57.5080   -0.7360   -1.6840 N.am      1 SER        -0.2614
     41 CA         56.7620    0.0670   -2.6460 C.3       1 SER         0.1541
     42 C          55.8010    0.9690   -1.8960 C.2       1 SER         0.2087
     43 O          55.4270    0.6660   -0.7600 O.2       1 SER        -0.3941
     44 CB         55.9500   -0.8220   -3.5780 C.3       1 SER         0.0843
     45 OG         56.7590   -1.3560   -4.6010 O.3       1 SER        -0.3903
     46 N          55.3840    2.0800   -2.5320 N.am      1 PRO        -0.2498
     47 CA         54.3850    2.9330   -1.8990 C.3       1 PRO         0.1338
     48 C          53.1330    2.1010   -1.6740 C.2       1 PRO         0.2041
     49 O          52.7820    1.2810   -2.5200 O.2       1 PRO        -0.3944
     50 CB         54.1180    4.0180   -2.9480 C.3       1 PRO        -0.0104
     51 CG         55.2170    3.9120   -3.9320 C.3       1 PRO        -0.0281
     52 CD         55.6940    2.5090   -3.9060 C.3       1 PRO         0.0369
     53 N          52.4480    2.2960   -0.5690 N.am      1 LEU        -0.2637
     54 CA         51.2650    1.5230   -0.2990 C.3       1 LEU         0.1312
     55 C          50.2540    1.7170   -1.3880 C.2       1 LEU         0.2034
     56 O          49.6300    0.7750   -1.8290 O.2       1 LEU        -0.3944
     57 CB         50.6630    1.9560    1.0110 C.3       1 LEU        -0.0101
     58 CG         49.6700    0.9830    1.5900 C.3       1 LEU        -0.0425
     59 CD1        50.2670   -0.3380    1.4700 C.3       1 LEU        -0.0625
     60 CD2        49.4640    1.3120    3.0000 C.3       1 LEU        -0.0625
     61 N          50.0710    2.9580   -1.8020 N.am      1 HIS        -0.2682
     62 CA         49.1930    3.2650   -2.9140 C.3       1 HIS         0.1004
     63 C          49.9680    3.9380   -4.0190 C.2       1 HIS         0.0615
     64 O          50.1740    3.3620   -5.0680 O.co2     1 HIS        -0.5665
     65 CB         48.0800    4.1920   -2.4750 C.3       1 HIS         0.0090
     66 CG         47.3590    3.7320   -1.2570 C.2       1 HIS        -0.0033
     67 ND1        47.6010    4.2600   -0.0100 N.2       1 HIS        -0.3253
     68 CD2        46.3940    2.8050   -1.0940 C.2       1 HIS         0.0291
     69 CE1        46.8200    3.6690    0.8720 C.2       1 HIS         0.0907
     70 NE2        46.0760    2.7840    0.2380 N.pl3     1 HIS        -0.2752
     71 OXT        50.4040    5.0800   -3.8770 O.co2     1 HIS        -0.5665
     72 H          63.6256  -11.5835   -0.3492 H         1 SER         0.2016
     73 H          64.6517  -11.3513    0.9431 H         1 SER         0.2016
     74 H          63.2888  -12.2935    1.1202 H         1 SER         0.2016
     75 H          61.8588  -10.4440    0.7901 H         1 SER         0.1122
     76 H          62.3817   -9.1582    2.8281 H         1 SER         0.0640
     77 H          63.9864   -9.9413    2.8845 H         1 SER         0.0640
     78 H          62.4154  -11.0291    4.1896 H         1 SER         0.2099
     79 H          61.5715   -8.0931    0.6194 H         1 TRP         0.1886
     80 H          63.5031   -7.4499   -1.5059 H         1 TRP         0.0815
     81 H          60.8898   -6.4809   -2.2301 H         1 TRP         0.0397
     82 H          60.6813   -8.1540   -1.5627 H         1 TRP         0.0397
     83 H          62.6304   -6.2810   -4.3615 H         1 TRP         0.0795
     84 H          63.0669   -7.9605   -6.2861 H         1 TRP         0.2216
     85 H          60.7066  -10.4817   -2.1446 H         1 TRP         0.0540
     86 H          62.6220  -10.7124   -6.7716 H         1 TRP         0.0541
     87 H          60.7393  -12.6050   -3.4005 H         1 TRP         0.0510
     88 H          61.6903  -12.7229   -5.6764 H         1 TRP         0.0530
     89 H          62.4618   -5.3998   -2.7894 H         1 VAL         0.1883
     90 H          63.0445   -3.1596   -0.9954 H         1 VAL         0.0802
     91 H          63.4986   -1.9358   -2.8701 H         1 VAL         0.0343
     92 H          64.7533   -4.0025   -3.2092 H         1 VAL         0.0234
     93 H          63.3869   -4.7045   -4.1097 H         1 VAL         0.0234
     94 H          64.2638   -3.3032   -4.7720 H         1 VAL         0.0234
     95 H          61.1971   -3.2892   -4.3021 H         1 VAL         0.0234
     96 H          61.1668   -1.6914   -3.5166 H         1 VAL         0.0234
     97 H          62.1909   -1.9604   -4.9483 H         1 VAL         0.0234
     98 H          61.5907   -1.5998   -0.3240 H         1 TYR         0.1885
     99 H          58.8134   -2.3820   -0.2587 H         1 TYR         0.0821
    100 H          58.5395   -0.0930    0.8028 H         1 TYR         0.0453
    101 H          60.3503    0.0637    0.6098 H         1 TYR         0.0453
    102 H          57.6522   -1.9636    2.2162 H         1 TYR         0.0530
    103 H          61.7909   -0.8517    2.2004 H         1 TYR         0.0530
    104 H          57.9684   -3.1447    4.3629 H         1 TYR         0.0525
    105 H          62.1138   -2.0408    4.3480 H         1 TYR         0.0525
    106 H          59.3893   -3.7012    5.9563 H         1 TYR         0.2458
    107 H          56.9865   -1.2855   -1.0010 H         1 SER         0.1884
    108 H          57.4712    0.6510   -3.2326 H         1 SER         0.0823
    109 H          55.1617   -0.2225   -4.0334 H         1 SER         0.0606
    110 H          55.5313   -1.6449   -2.9986 H         1 SER         0.0606
    111 H          56.2244   -1.9112   -5.1733 H         1 SER         0.2097
    112 H          54.6937    3.3518   -0.9412 H         1 PRO         0.0802
    113 H          54.0889    5.0083   -2.4935 H         1 PRO         0.0313
    114 H          53.1472    3.8775   -3.4234 H         1 PRO         0.0313
    115 H          56.0260    4.5974   -3.6795 H         1 PRO         0.0287
    116 H          54.8671    4.1803   -4.9289 H         1 PRO         0.0287
    117 H          55.2155    1.8858   -4.6615 H         1 PRO         0.0524
    118 H          56.7528    2.4180   -4.1485 H         1 PRO         0.0524
    119 H          52.7572    2.9999    0.1013 H         1 LEU         0.1883
    120 H          51.5433    0.4703   -0.2503 H         1 LEU         0.0800
    121 H          50.1279    2.8872    0.8252 H         1 LEU         0.0315
    122 H          51.4809    2.0425    1.7263 H         1 LEU         0.0315
    123 H          48.7096    1.0214    1.0760 H         1 LEU         0.0298
    124 H          50.4580   -0.5549    0.4190 H         1 LEU         0.0232
    125 H          51.2055   -0.3628    2.0238 H         1 LEU         0.0232
    126 H          49.5833   -1.0827    1.8776 H         1 LEU         0.0232
    127 H          50.4125    1.2364    3.5317 H         1 LEU         0.0232
    128 H          49.0800    2.3288    3.0822 H         1 LEU         0.0232
    129 H          48.7465    0.6151    3.4333 H         1 LEU         0.0232
    130 H          50.5589    3.7181   -1.3281 H         1 HIS         0.1877
    131 H          48.7679    2.3277   -3.2730 H         1 HIS         0.0743
    132 H          47.3532    4.2336   -3.2862 H         1 HIS         0.0413
    133 H          48.5333    5.1549   -2.2397 H         1 HIS         0.0413
    134 H          45.9502    2.1881   -1.8754 H         1 HIS         0.0729
    135 H          46.7937    3.8762    1.9418 H         1 HIS         0.1199
    136 H          45.3762    2.1808    0.6701 H         1 HIS         0.2361
@<TRIPOS>BOND
     1    1    2 1  
     2    2    3 1  
     3    2    5 1  
     4    3    4 2  
     5    3    7 am 
     6    5    6 1  
     7    7    8 1  
     8    8    9 1  
     9    8   11 1  
    10    9   10 2  
    11    9   21 am 
    12   11   12 1  
    13   12   13 2  
    14   12   14 1  
    15   13   15 1  
    16   14   16 ar 
    17   14   17 ar 
    18   15   16 1  
    19   16   18 ar 
    20   17   19 ar 
    21   18   20 ar 
    22   19   20 ar 
    23   21   22 1  
    24   22   23 1  
    25   22   25 1  
    26   23   24 2  
    27   23   28 am 
    28   25   26 1  
    29   25   27 1  
    30   28   29 1  
    31   29   30 1  
    32   29   32 1  
    33   30   31 2  
    34   30   40 am 
    35   32   33 1  
    36   33   34 ar 
    37   33   35 ar 
    38   34   36 ar 
    39   35   37 ar 
    40   36   38 ar 
    41   37   38 ar 
    42   38   39 1  
    43   40   41 1  
    44   41   42 1  
    45   41   44 1  
    46   42   43 2  
    47   42   46 am 
    48   44   45 1  
    49   46   47 1  
    50   46   52 1  
    51   47   48 1  
    52   47   50 1  
    53   48   49 2  
    54   48   53 am 
    55   50   51 1  
    56   51   52 1  
    57   53   54 1  
    58   54   55 1  
    59   54   57 1  
    60   55   56 2  
    61   55   61 am 
    62   57   58 1  
    63   58   59 1  
    64   58   60 1  
    65   61   62 1  
    66   62   63 1  
    67   62   65 1  
    68   63   64 ar 
    69   63   71 ar 
    70   65   66 1  
    71   66   67 1  
    72   66   68 2  
    73   67   69 2  
    74   68   70 1  
    75   69   70 1  
    76    1   72 1  
    77    1   73 1  
    78    1   74 1  
    79    2   75 1  
    80    5   76 1  
    81    5   77 1  
    82    6   78 1  
    83    7   79 1  
    84    8   80 1  
    85   11   81 1  
    86   11   82 1  
    87   13   83 1  
    88   15   84 1  
    89   17   85 1  
    90   18   86 1  
    91   19   87 1  
    92   20   88 1  
    93   21   89 1  
    94   22   90 1  
    95   25   91 1  
    96   26   92 1  
    97   26   93 1  
    98   26   94 1  
    99   27   95 1  
   100   27   96 1  
   101   27   97 1  
   102   28   98 1  
   103   29   99 1  
   104   32  100 1  
   105   32  101 1  
   106   34  102 1  
   107   35  103 1  
   108   36  104 1  
   109   37  105 1  
   110   39  106 1  
   111   40  107 1  
   112   41  108 1  
   113   44  109 1  
   114   44  110 1  
   115   45  111 1  
   116   47  112 1  
   117   50  113 1  
   118   50  114 1  
   119   51  115 1  
   120   51  116 1  
   121   52  117 1  
   122   52  118 1  
   123   53  119 1  
   124   54  120 1  
   125   57  121 1  
   126   57  122 1  
   127   58  123 1  
   128   59  124 1  
   129   59  125 1  
   130   59  126 1  
   131   60  127 1  
   132   60  128 1  
   133   60  129 1  
   134   61  130 1  
   135   62  131 1  
   136   65  132 1  
   137   65  133 1  
   138   68  134 1  
   139   69  135 1  
   140   70  136 1  
@<TRIPOS>SUBSTRUCTURE
     1 SER         1

