4en4_ligand
  -I-interpret- 

 26 26  0  0  0  0  0  0  0  0999 V2000
   28.7310    8.1240   39.5880 C   0  0  0  0  0
   29.6260    8.8260   38.7490 N   0  0  0  0  0
   30.5670    8.1510   37.9620 C   0  0  0  0  0
   30.6380    6.7330   38.0080 C   0  0  0  0  0
   29.7430    6.0070   38.8580 C   0  0  0  0  0
   28.7760    6.7140   39.6590 C   0  0  0  0  0
   29.8430    4.4610   38.9000 C   0  0  0  0  0
   30.3720    4.0110   40.1770 O   0  0  0  0  0
   31.7940    4.2420   40.2820 C   0  0  0  0  0
   27.7890    5.9660   40.5820 C   0  0  0  0  0
   26.9230    6.8900   41.2710 O   0  0  0  0  0
   31.4980    8.9620   37.0800 C   0  0  0  0  0
   31.5700    6.0480   37.2300 O   0  0  0  0  0
   28.0021    8.6737   40.1835 H   0  0  0  0  0
   30.5135    4.1310   38.1065 H   0  0  0  0  0
   28.8462    4.0411   38.7655 H   0  0  0  0  0
   32.3084    3.7000   39.4885 H   0  0  0  0  0
   31.9956    5.3088   40.1849 H   0  0  0  0  0
   32.1472    3.8909   41.2516 H   0  0  0  0  0
   28.3597    5.4043   41.3216 H   0  0  0  0  0
   27.1766    5.3012   39.9729 H   0  0  0  0  0
   26.3207    6.4013   41.8367 H   0  0  0  0  0
   30.9094    9.5426   36.3697 H   0  0  0  0  0
   32.0890    9.6357   37.7004 H   0  0  0  0  0
   32.1620    8.2882   36.5385 H   0  0  0  0  0
   31.4806    5.1044   37.3824 H   0  0  0  0  0
  1  2  4  0  0  0
  1  6  4  0  0  0
  2  3  4  0  0  0
  3  4  4  0  0  0
  3 12  1  0  0  0
  4  5  4  0  0  0
  4 13  1  0  0  0
  5  6  4  0  0  0
  5  7  1  0  0  0
  6 10  1  0  0  0
  7  8  1  0  0  0
  8  9  1  0  0  0
 10 11  1  0  0  0
  1 14  1  0  0  0
  7 15  1  0  0  0
  7 16  1  0  0  0
  9 17  1  0  0  0
  9 18  1  0  0  0
  9 19  1  0  0  0
 10 20  1  0  0  0
 10 21  1  0  0  0
 11 22  1  0  0  0
 12 23  1  0  0  0
 12 24  1  0  0  0
 12 25  1  0  0  0
 13 26  1  0  0  0
M  END
$$$$
