6mob_ligand
  -I-interpret- 

 54 57  0  0  0  0  0  0  0  0999 V2000
   16.1710  -17.1460    4.7580 C   0  0  0  0  0
   15.8680  -18.5010    4.5210 C   0  0  0  0  0
   14.7570  -19.0690    5.1340 C   0  0  0  0  0
   13.9210  -18.3670    5.9910 C   0  0  0  0  0
   15.3380  -16.4380    5.6320 C   0  0  0  0  0
   14.2030  -17.0350    6.2210 C   0  0  0  0  0
   16.7320  -19.3160    3.6290 C   0  0  0  0  0
   16.2910  -19.6420    2.3570 C   0  0  0  0  0
   17.1380  -20.4350    1.5380 C   0  0  0  0  0
   18.3950  -20.8420    1.9600 C   0  0  0  0  0
   18.0720  -19.7540    4.0470 C   0  0  0  0  0
   19.1980  -21.6320    1.0870 C   0  0  0  0  0
   18.6930  -21.9660   -0.1870 C   0  0  0  0  0
   16.6740  -20.7830    0.2340 C   0  0  0  0  0
   20.2180  -20.8740    3.6550 C   0  0  0  0  0
   18.4950  -19.4480    5.2090 O   0  0  0  0  0
   18.8570  -20.4980    3.2060 N   0  0  0  0  0
   20.4510  -22.2840    4.1620 C   0  0  0  0  0
   17.4860  -21.5340   -0.5680 N   0  0  0  0  0
   19.4020  -22.7010   -1.0850 N   0  0  0  0  0
   20.6070  -23.4630   -0.7180 C   0  0  0  0  0
   14.3160  -20.7500    4.8430 Cl  0  0  0  0  0
   13.3870  -16.2760    7.0260 F   0  0  0  0  0
   15.4640  -15.0640    5.8460 N   0  0  0  0  0
   16.0660  -14.1540    5.0290 C   0  0  0  0  0
   16.7480  -14.5120    4.0480 O   0  0  0  0  0
   15.8970  -12.8620    5.3950 N   0  0  0  0  0
   16.4990  -11.7130    4.8430 C   0  0  0  0  0
   16.5410  -10.5740    5.6630 C   0  0  0  0  0
   17.1530   -9.3790    5.2020 C   0  0  0  0  0
   17.7430   -9.3140    3.9220 C   0  0  0  0  0
   17.6950  -10.4640    3.1070 C   0  0  0  0  0
   17.0980  -11.6580    3.5510 C   0  0  0  0  0
   17.0237  -16.6659    4.2779 H   0  0  0  0  0
   13.0688  -18.8517    6.4674 H   0  0  0  0  0
   15.3215  -19.2997    1.9950 H   0  0  0  0  0
   20.1856  -21.9723    1.3985 H   0  0  0  0  0
   15.6939  -20.4570   -0.1142 H   0  0  0  0  0
   20.4247  -20.2275    4.5079 H   0  0  0  0  0
   20.8450  -20.7836    2.7680 H   0  0  0  0  0
   19.8123  -22.4683    5.0258 H   0  0  0  0  0
   20.2116  -22.9967    3.3728 H   0  0  0  0  0
   21.4960  -22.3969    4.4506 H   0  0  0  0  0
   19.0854  -22.7254   -2.0543 H   0  0  0  0  0
   21.3606  -22.7811   -0.3240 H   0  0  0  0  0
   20.3509  -24.2016    0.0415 H   0  0  0  0  0
   20.9986  -23.9685   -1.6008 H   0  0  0  0  0
   15.0608  -14.7009    6.7097 H   0  0  0  0  0
   15.2522  -12.6990    6.1684 H   0  0  0  0  0
   16.1010  -10.6076    6.6597 H   0  0  0  0  0
   17.1673   -8.4995    5.8457 H   0  0  0  0  0
   18.2229   -8.3998    3.5725 H   0  0  0  0  0
   18.1311  -10.4268    2.1087 H   0  0  0  0  0
   17.0936  -12.5386    2.9086 H   0  0  0  0  0
  1  2  4  0  0  0
  1  5  4  0  0  0
  2  3  4  0  0  0
  2  7  1  0  0  0
  3  4  4  0  0  0
  3 22  1  0  0  0
  4  6  4  0  0  0
  5  6  4  0  0  0
  5 24  1  0  0  0
  6 23  1  0  0  0
  7  8  2  0  0  0
  7 11  1  0  0  0
  8  9  1  0  0  0
  9 10  4  0  0  0
  9 14  4  0  0  0
 10 12  4  0  0  0
 10 17  1  0  0  0
 11 16  2  0  0  0
 11 17  1  0  0  0
 12 13  4  0  0  0
 13 19  4  0  0  0
 13 20  1  0  0  0
 14 19  4  0  0  0
 17 15  1  0  0  0
 15 18  1  0  0  0
 20 21  1  0  0  0
 24 25  1  0  0  0
 25 26  2  0  0  0
 25 27  1  0  0  0
 27 28  1  0  0  0
 28 29  4  0  0  0
 28 33  4  0  0  0
 29 30  4  0  0  0
 30 31  4  0  0  0
 31 32  4  0  0  0
 32 33  4  0  0  0
  1 34  1  0  0  0
  4 35  1  0  0  0
  8 36  1  0  0  0
 12 37  1  0  0  0
 14 38  1  0  0  0
 15 39  1  0  0  0
 15 40  1  0  0  0
 18 41  1  0  0  0
 18 42  1  0  0  0
 18 43  1  0  0  0
 20 44  1  0  0  0
 21 45  1  0  0  0
 21 46  1  0  0  0
 21 47  1  0  0  0
 24 48  1  0  0  0
 27 49  1  0  0  0
 29 50  1  0  0  0
 30 51  1  0  0  0
 31 52  1  0  0  0
 32 53  1  0  0  0
 33 54  1  0  0  0
M  END
$$$$
