4fkk_ligand
  -I-interpret- 

 47 47  0  0  0  0  0  0  0  0999 V2000
   30.9210   15.2510   60.5650 N   0  3  0  0  0
   29.9310   15.7420   59.6260 C   0  0  0  0  0
   30.3210   15.2290   58.2300 C   0  0  0  0  0
   29.3350   14.2790   57.5690 C   0  0  0  0  0
   28.0420   14.6970   57.2070 C   0  0  0  0  0
   29.7170   12.9610   57.2880 C   0  0  0  0  0
   27.1380   13.8210   56.5880 C   0  0  0  0  0
   28.8110   12.0850   56.6730 C   0  0  0  0  0
   27.5220   12.5070   56.3220 C   0  0  0  0  0
   29.7730   17.2900   59.6770 C   0  0  0  0  0
   30.3370   17.9450   60.8420 O   0  0  0  0  0
   28.3050   17.6000   59.6350 C   0  0  0  0  0
   27.6400   17.1160   60.5360 O   0  0  0  0  0
   27.8080   18.3590   58.6330 N   0  0  0  0  0
   26.3640   18.6740   58.5580 C   0  0  0  0  0
   26.1730   20.1520   58.9060 C   0  0  0  0  0
   25.6920   20.2700   60.3480 C   0  0  0  0  0
   25.4860   21.7380   60.6840 C   0  0  0  0  0
   24.4250   19.4570   60.6100 C   0  0  0  0  0
   25.6560   18.3660   57.2530 C   0  0  0  0  0
   25.5330   17.1590   56.9300 O   0  0  0  0  0
   25.1900   19.3090   56.5560 O   0  0  0  0  0
   30.9843   14.2357   60.4906 H   0  0  0  0  0
   31.8275   15.6661   60.3496 H   0  0  0  0  0
   30.6451   15.5071   61.5130 H   0  0  0  0  0
   28.9454   15.3618   59.8947 H   0  0  0  0  0
   31.2471   14.6685   58.3578 H   0  0  0  0  0
   30.3783   16.1069   57.5865 H   0  0  0  0  0
   27.7359   15.7229   57.4116 H   0  0  0  0  0
   30.7181   12.6164   57.5473 H   0  0  0  0  0
   26.1403   14.1657   56.3162 H   0  0  0  0  0
   29.1146   11.0591   56.4647 H   0  0  0  0  0
   26.8266   11.8156   55.8460 H   0  0  0  0  0
   30.3328   17.6759   58.8250 H   0  0  0  0  0
   31.2777   17.7592   60.8881 H   0  0  0  0  0
   28.4383   18.7204   57.9171 H   0  0  0  0  0
   25.8928   17.9994   59.2728 H   0  0  0  0  0
   25.4339   20.5926   58.2369 H   0  0  0  0  0
   27.1199   20.6797   58.7921 H   0  0  0  0  0
   26.4575   19.8498   61.0003 H   0  0  0  0  0
   26.4288   22.2722   60.5661 H   0  0  0  0  0
   24.7401   22.1621   60.0118 H   0  0  0  0  0
   25.1419   21.8288   61.7143 H   0  0  0  0  0
   23.6261   19.8117   59.9588 H   0  0  0  0  0
   24.6215   18.4045   60.4060 H   0  0  0  0  0
   24.1267   19.5770   61.6515 H   0  0  0  0  0
   25.3923   20.1474   56.9777 H   0  0  0  0  0
  1  2  1  0  0  0
  2  3  1  0  0  0
  2 10  1  0  0  0
  3  4  1  0  0  0
  4  5  4  0  0  0
  4  6  4  0  0  0
  5  7  4  0  0  0
  6  8  4  0  0  0
  7  9  4  0  0  0
  8  9  4  0  0  0
 10 11  1  0  0  0
 10 12  1  0  0  0
 12 13  2  0  0  0
 12 14  1  0  0  0
 14 15  1  0  0  0
 15 16  1  0  0  0
 15 20  1  0  0  0
 16 17  1  0  0  0
 17 18  1  0  0  0
 17 19  1  0  0  0
 20 21  2  0  0  0
 20 22  1  0  0  0
  1 23  1  0  0  0
  1 24  1  0  0  0
  1 25  1  0  0  0
  2 26  1  0  0  0
  3 27  1  0  0  0
  3 28  1  0  0  0
  5 29  1  0  0  0
  6 30  1  0  0  0
  7 31  1  0  0  0
  8 32  1  0  0  0
  9 33  1  0  0  0
 10 34  1  0  0  0
 11 35  1  0  0  0
 14 36  1  0  0  0
 15 37  1  0  0  0
 16 38  1  0  0  0
 16 39  1  0  0  0
 17 40  1  0  0  0
 18 41  1  0  0  0
 18 42  1  0  0  0
 18 43  1  0  0  0
 19 44  1  0  0  0
 19 45  1  0  0  0
 19 46  1  0  0  0
 22 47  1  0  0  0
M  END
$$$$
