5e13_ligand
  -I-interpret- 

 51 55  0  0  0  0  0  0  0  0999 V2000
   -8.9610   -9.8900   21.1400 C   0  0  0  0  0
   -8.2350  -16.3640   19.0730 C   0  0  0  0  0
   -9.8440   -9.0680   21.7540 C   0  0  0  0  0
   -9.3950   -7.9040   22.3000 C   0  0  0  0  0
  -10.8910  -10.8330   21.0310 C   0  0  0  0  0
   -7.2070  -16.8310   19.7750 C   0  0  0  0  0
   -8.1040   -7.5570   22.2340 N   0  0  0  0  0
   -7.6570   -9.5710   21.0380 N   0  0  0  0  0
   -6.9240  -18.8900   17.2980 O   0  0  0  0  0
   -5.8190  -18.9410   17.8490 C   0  0  0  0  0
   -4.7470  -19.2970   17.1060 N   0  0  0  0  0
   -3.5090  -19.3850   17.6370 C   0  0  0  0  0
   -2.4970  -19.7360   16.8580 N   0  0  0  0  0
   -3.3030  -19.1140   18.9960 C   0  0  0  0  0
   -4.4040  -18.7540   19.7730 C   0  0  0  0  0
   -5.6840  -18.6670   19.1690 N   0  0  0  0  0
   -6.8560  -18.3080   19.9910 C   0  0  0  0  0
   -6.5140  -15.8370   20.3060 N   0  0  0  0  0
   -7.1060  -14.7100   19.9090 N   0  0  0  0  0
   -8.1680  -15.0290   19.1510 N   0  0  0  0  0
   -9.0760  -14.0220   18.5470 C   0  0  0  0  0
   -9.8910  -13.2800   19.6070 C   0  0  0  0  0
  -10.1380  -14.0880   20.7790 O   0  0  0  0  0
   -8.2760  -12.8660   17.8880 C   0  0  0  0  0
   -8.7510  -12.3520   16.5480 C   0  0  0  0  0
  -10.1420  -12.6340   16.3200 O   0  0  0  0  0
   -8.4850  -11.6740   18.7200 O   0  0  0  0  0
   -8.9680  -12.1200   19.9660 C   0  0  0  0  0
   -9.6160  -10.9680   20.6900 N   0  0  0  0  0
  -11.0290   -9.6830   21.6710 N   0  0  0  0  0
   -7.1920   -8.3960   21.5950 C   0  0  0  0  0
  -10.2200   -7.0460   22.9430 N   0  0  0  0  0
   -8.9832  -16.9509   18.5402 H   0  0  0  0  0
  -11.6877  -11.5465   20.8203 H   0  0  0  0  0
   -4.8774  -19.5050   16.1160 H   0  0  0  0  0
   -2.6586  -19.9356   15.8709 H   0  0  0  0  0
   -2.3077  -19.1827   19.4350 H   0  0  0  0  0
   -4.2816  -18.5414   20.8350 H   0  0  0  0  0
   -7.7045  -18.9270   19.6997 H   0  0  0  0  0
   -6.6235  -18.4737   21.0430 H   0  0  0  0  0
   -9.6896  -14.5916   17.8490 H   0  0  0  0  0
  -10.8780  -12.9902   19.2464 H   0  0  0  0  0
  -10.6507  -13.5815   21.4132 H   0  0  0  0  0
   -7.2756  -13.2851   17.7803 H   0  0  0  0  0
   -8.1722  -12.8493   15.7696 H   0  0  0  0  0
   -8.6175  -11.2703   16.5331 H   0  0  0  0  0
  -10.4002  -12.2915   15.4611 H   0  0  0  0  0
   -8.2099  -12.4709   20.6662 H   0  0  0  0  0
   -6.1364   -8.1306   21.5364 H   0  0  0  0  0
  -11.2129   -7.2624   23.0308 H   0  0  0  0  0
   -9.8491   -6.1828   23.3400 H   0  0  0  0  0
  1  3  4  0  0  0
  1  8  4  0  0  0
 29  1  4  0  0  0
  2  6  4  0  0  0
 20  2  4  0  0  0
  3  4  4  0  0  0
 30  3  4  0  0  0
  4  7  4  0  0  0
  4 32  1  0  0  0
 29  5  4  0  0  0
  5 30  4  0  0  0
  6 17  1  0  0  0
 18  6  4  0  0  0
 31  7  4  0  0  0
  8 31  4  0  0  0
 10  9  2  0  0  0
 10 11  1  0  0  0
 16 10  1  0  0  0
 11 12  1  0  0  0
 12 13  2  0  0  0
 14 12  1  0  0  0
 15 14  2  0  0  0
 16 15  1  0  0  0
 17 16  1  0  0  0
 19 18  4  0  0  0
 20 19  4  0  0  0
 21 20  1  0  0  0
 22 21  1  0  0  0
 24 21  1  0  0  0
 22 23  1  0  0  0
 28 22  1  0  0  0
 24 25  1  0  0  0
 27 24  1  0  0  0
 25 26  1  0  0  0
 28 27  1  0  0  0
 28 29  1  0  0  0
  2 33  1  0  0  0
  5 34  1  0  0  0
 11 35  1  0  0  0
 13 36  1  0  0  0
 14 37  1  0  0  0
 15 38  1  0  0  0
 17 39  1  0  0  0
 17 40  1  0  0  0
 21 41  1  0  0  0
 22 42  1  0  0  0
 23 43  1  0  0  0
 24 44  1  0  0  0
 25 45  1  0  0  0
 25 46  1  0  0  0
 26 47  1  0  0  0
 28 48  1  0  0  0
 31 49  1  0  0  0
 32 50  1  0  0  0
 32 51  1  0  0  0
M  END
$$$$
