1jik_ligand
  -I-interpret- 

 68 69  0  0  0  0  0  0  0  0999 V2000
   28.6480    8.0510   82.2370 C   0  0  0  0  0
   27.3720    7.5900   82.5420 C   0  0  0  0  0
   26.7350    8.0810   83.6600 C   0  0  0  0  0
   27.2470    9.1890   84.3360 C   0  0  0  0  0
   28.4250    9.7960   83.8880 C   0  0  0  0  0
   29.1360    9.2300   82.8380 C   0  0  0  0  0
   30.4440    9.8760   82.3550 C   0  0  0  0  0
   30.5200   11.4120   82.2250 C   0  0  0  0  0
   31.9920   11.8960   82.0800 C   0  0  0  0  0
   32.8000   11.5510   83.0610 N   0  0  0  0  0
   34.1700   12.1250   83.2640 C   0  0  0  0  0
   35.1970   11.4330   82.3150 C   0  0  0  0  0
   34.9510   10.0780   82.1100 O   0  0  0  0  0
   35.8580    9.3140   81.3090 C   0  0  0  0  0
   37.3490    9.7350   81.5760 C   0  0  0  0  0
   38.3720    8.6160   81.2390 C   0  0  0  0  0
   39.1660    8.1520   82.4920 C   0  0  0  0  0
   32.3720   12.5200   81.1050 O   0  0  0  0  0
   29.6360   11.8760   81.1150 N   0  3  0  0  0
   36.1330   12.0620   81.8280 O   0  0  0  0  0
   34.6420   12.2770   84.7310 C   0  0  0  0  0
   33.4670   12.7200   85.6200 N   0  3  0  0  0
   33.7660   13.3850   86.9440 C   0  0  0  0  0
   34.8900   14.4120   86.7870 C   0  0  0  0  0
   36.1290   13.7140   86.2410 C   0  0  0  0  0
   35.8240   13.2950   84.7890 C   0  0  0  0  0
   32.4910   11.7960   85.7130 O   0  0  0  0  0
   34.5180   15.4250   85.8330 O   0  0  0  0  0
   37.1270   14.7170   86.2250 O   0  0  0  0  0
   36.6950   12.5440   87.1440 C   0  0  0  0  0
   36.7400   11.2750   86.4370 O   0  0  0  0  0
   36.9660   12.7130   84.2000 O   0  0  0  0  0
   25.6380    7.4810   84.1120 O   0  0  0  0  0
   29.2718    7.5006   81.5327 H   0  0  0  0  0
   26.8836    6.8516   81.9062 H   0  0  0  0  0
   26.7299    9.5810   85.2118 H   0  0  0  0  0
   28.7835   10.7100   84.3614 H   0  0  0  0  0
   30.5826    9.5022   81.3405 H   0  0  0  0  0
   31.1795    9.6232   83.1187 H   0  0  0  0  0
   30.1486   11.8676   83.1429 H   0  0  0  0  0
   32.4730   10.8488   83.7247 H   0  0  0  0  0
   34.0992   13.1725   82.9710 H   0  0  0  0  0
   35.6294    9.4937   80.2585 H   0  0  0  0  0
   35.7437    8.2605   81.5643 H   0  0  0  0  0
   37.4432    9.9589   82.6386 H   0  0  0  0  0
   37.5706   10.5883   80.9350 H   0  0  0  0  0
   39.0828    9.0126   80.5140 H   0  0  0  0  0
   37.8223    7.7595   80.8487 H   0  0  0  0  0
   39.7127    8.9982   82.9080 H   0  0  0  0  0
   38.4717    7.7644   83.2375 H   0  0  0  0  0
   39.8684    7.3691   82.2061 H   0  0  0  0  0
   29.6937   12.8914   81.0378 H   0  0  0  0  0
   29.9393   11.4495   80.2395 H   0  0  0  0  0
   28.6732   11.6029   81.3120 H   0  0  0  0  0
   34.9965   11.3183   85.1095 H   0  0  0  0  0
   33.1165   13.5092   85.0771 H   0  0  0  0  0
   34.0789   12.6244   87.6594 H   0  0  0  0  0
   32.8683   13.8938   87.2952 H   0  0  0  0  0
   35.0801   14.8636   87.7607 H   0  0  0  0  0
   35.5410   14.1919   84.2380 H   0  0  0  0  0
   31.7896   12.1287   86.2778 H   0  0  0  0  0
   35.2330   16.0598   85.7468 H   0  0  0  0  0
   37.9462   14.3464   85.8886 H   0  0  0  0  0
   36.0340   12.4295   88.0031 H   0  0  0  0  0
   37.7121   12.8044   87.4370 H   0  0  0  0  0
   37.0883   10.5970   87.0206 H   0  0  0  0  0
   37.6952   13.3365   84.2339 H   0  0  0  0  0
   25.3199    7.9429   84.8911 H   0  0  0  0  0
  1  2  4  0  0  0
  1  6  4  0  0  0
  2  3  4  0  0  0
  3  4  4  0  0  0
  3 33  1  0  0  0
  4  5  4  0  0  0
  5  6  4  0  0  0
  6  7  1  0  0  0
  7  8  1  0  0  0
  8  9  1  0  0  0
  8 19  1  0  0  0
  9 10  1  0  0  0
  9 18  2  0  0  0
 10 11  1  0  0  0
 11 12  1  0  0  0
 11 21  1  0  0  0
 12 13  1  0  0  0
 12 20  2  0  0  0
 13 14  1  0  0  0
 14 15  1  0  0  0
 15 16  1  0  0  0
 16 17  1  0  0  0
 21 22  1  0  0  0
 21 26  1  0  0  0
 22 23  1  0  0  0
 22 27  1  0  0  0
 23 24  1  0  0  0
 24 25  1  0  0  0
 24 28  1  0  0  0
 25 26  1  0  0  0
 25 29  1  0  0  0
 25 30  1  0  0  0
 26 32  1  0  0  0
 30 31  1  0  0  0
  1 34  1  0  0  0
  2 35  1  0  0  0
  4 36  1  0  0  0
  5 37  1  0  0  0
  7 38  1  0  0  0
  7 39  1  0  0  0
  8 40  1  0  0  0
 10 41  1  0  0  0
 11 42  1  0  0  0
 14 43  1  0  0  0
 14 44  1  0  0  0
 15 45  1  0  0  0
 15 46  1  0  0  0
 16 47  1  0  0  0
 16 48  1  0  0  0
 17 49  1  0  0  0
 17 50  1  0  0  0
 17 51  1  0  0  0
 19 52  1  0  0  0
 19 53  1  0  0  0
 19 54  1  0  0  0
 21 55  1  0  0  0
 22 56  1  0  0  0
 23 57  1  0  0  0
 23 58  1  0  0  0
 24 59  1  0  0  0
 26 60  1  0  0  0
 27 61  1  0  0  0
 28 62  1  0  0  0
 29 63  1  0  0  0
 30 64  1  0  0  0
 30 65  1  0  0  0
 31 66  1  0  0  0
 32 67  1  0  0  0
 33 68  1  0  0  0
M  END
$$$$
