5yji_ligand
  -I-interpret- 

 23 23  0  0  0  0  0  0  0  0999 V2000
   16.6500   18.0640   15.6090 C   0  0  0  0  0
   16.8520   17.0450   14.7050 C   0  0  0  0  0
   14.6020   18.6160   14.4830 C   0  0  0  0  0
   15.5170   18.8410   15.4870 C   0  0  0  0  0
   15.9150   16.8430   13.7130 C   0  0  0  0  0
   15.3050   19.9360   16.4380 C   0  0  0  0  0
   13.8780   17.3820   12.5700 C   0  0  0  0  0
   17.1040   14.9390   13.1060 C   0  0  0  0  0
   14.8370   17.6230   13.6350 N   0  0  0  0  0
   14.0070   20.3530   16.5710 N   0  0  0  0  0
   16.2700   20.4050   17.0220 O   0  0  0  0  0
   16.0600   15.8380   12.7670 O   0  0  0  0  0
   17.3707   18.2526   16.4046 H   0  0  0  0  0
   17.7355   16.4101   14.7720 H   0  0  0  0  0
   13.7104   19.2357   14.3876 H   0  0  0  0  0
   12.9043   17.1550   13.0041 H   0  0  0  0  0
   13.8000   18.2715   11.9449 H   0  0  0  0  0
   14.2129   16.5394   11.9650 H   0  0  0  0  0
   18.0450   15.4852   13.1717 H   0  0  0  0  0
   16.8840   14.4746   14.0673 H   0  0  0  0  0
   17.1822   14.1690   12.3385 H   0  0  0  0  0
   13.7802   21.1206   17.2032 H   0  0  0  0  0
   13.2673   19.8959   16.0378 H   0  0  0  0  0
  1  2  4  0  0  0
  1  4  4  0  0  0
  2  5  4  0  0  0
  4  3  4  0  0  0
  3  9  4  0  0  0
  4  6  1  0  0  0
  5  9  4  0  0  0
  5 12  1  0  0  0
  6 10  1  0  0  0
  6 11  2  0  0  0
  9  7  1  0  0  0
 12  8  1  0  0  0
  1 13  1  0  0  0
  2 14  1  0  0  0
  3 15  1  0  0  0
  7 16  1  0  0  0
  7 17  1  0  0  0
  7 18  1  0  0  0
  8 19  1  0  0  0
  8 20  1  0  0  0
  8 21  1  0  0  0
 10 22  1  0  0  0
 10 23  1  0  0  0
M  END
$$$$
