3f66_ligand
  -I-interpret- 

 48 51  0  0  0  0  0  0  0  0999 V2000
   -1.2730  -19.8400   31.0320 C   0  0  0  0  0
   -1.3350  -21.2170   30.9190 C   0  0  0  0  0
   -1.3180  -19.0680   29.8830 C   0  0  0  0  0
   -1.4740  -21.8150   29.6760 C   0  0  0  0  0
   -1.4340  -19.6750   28.6330 C   0  0  0  0  0
   -1.5140  -21.0620   28.5160 C   0  0  0  0  0
   -1.5620  -23.2760   29.6370 C   0  0  0  0  0
   -0.8940  -24.0720   28.7190 C   0  0  0  0  0
   -2.4040  -23.8800   30.5600 C   0  0  0  0  0
   -2.5700  -25.2610   30.5600 C   0  0  0  0  0
    0.6150  -24.3380   26.9130 C   0  0  0  0  0
    0.4480  -25.7090   27.0320 C   0  0  0  0  0
    1.4250  -23.7200   25.9600 N   0  0  0  0  0
    3.4040  -23.8820   24.4200 C   0  0  0  0  0
    1.5200  -22.2460   25.9290 C   0  0  0  0  0
   -4.5530  -25.1880   31.8050 F   0  0  0  0  0
   -3.4430  -25.8770   31.6180 C   0  0  0  0  0
   -2.7630  -25.7790   32.7710 F   0  0  0  0  0
   -3.7730  -27.1450   31.3940 F   0  0  0  0  0
   -1.4640  -18.9110   27.5140 O   0  0  0  0  0
   -1.8970  -26.0450   29.6890 C   0  0  0  0  0
   -1.0550  -25.4600   28.7760 C   0  0  0  0  0
   -0.3800  -26.2800   27.9430 N   0  0  0  0  0
   -0.0500  -23.5130   27.7810 N   0  0  0  0  0
    2.7810  -21.6770   25.2400 C   0  0  0  0  0
    3.2360  -22.4640   24.0730 N   0  3  0  0  0
    4.5280  -21.9420   23.6090 C   0  0  0  0  0
    2.0680  -24.4680   24.8500 C   0  0  0  0  0
   -1.1899  -19.3690   32.0115 H   0  0  0  0  0
   -1.2741  -21.8366   31.8137 H   0  0  0  0  0
   -1.2625  -17.9819   29.9561 H   0  0  0  0  0
   -1.6053  -21.5388   27.5401 H   0  0  0  0  0
   -2.9377  -23.2694   31.2883 H   0  0  0  0  0
    1.0089  -26.3599   26.3613 H   0  0  0  0  0
    4.1173  -23.9708   25.2394 H   0  0  0  0  0
    3.7728  -24.4251   23.5498 H   0  0  0  0  0
    1.5562  -21.9147   26.9668 H   0  0  0  0  0
    0.6645  -21.8911   25.3543 H   0  0  0  0  0
   -1.5464  -19.4774   26.7433 H   0  0  0  0  0
   -2.0211  -27.1277   29.7111 H   0  0  0  0  0
    3.5860  -21.6933   25.9747 H   0  0  0  0  0
    2.5301  -20.6795   24.8793 H   0  0  0  0  0
    2.5287  -22.3841   23.3424 H   0  0  0  0  0
    5.2670  -22.0464   24.4034 H   0  0  0  0  0
    4.8522  -22.5042   22.7333 H   0  0  0  0  0
    4.4203  -20.8894   23.3472 H   0  0  0  0  0
    1.3978  -24.4220   23.9916 H   0  0  0  0  0
    2.2527  -25.4830   25.2018 H   0  0  0  0  0
  2  1  4  0  0  0
  1  3  4  0  0  0
  4  2  4  0  0  0
  5  3  4  0  0  0
  4  6  4  0  0  0
  7  4  1  0  0  0
  6  5  4  0  0  0
  5 20  1  0  0  0
  8  7  4  0  0  0
  7  9  4  0  0  0
  8 22  4  0  0  0
 24  8  4  0  0  0
  9 10  4  0  0  0
 10 17  1  0  0  0
 10 21  4  0  0  0
 11 12  4  0  0  0
 13 11  1  0  0  0
 11 24  4  0  0  0
 12 23  4  0  0  0
 13 15  1  0  0  0
 28 13  1  0  0  0
 14 26  1  0  0  0
 14 28  1  0  0  0
 15 25  1  0  0  0
 17 16  1  0  0  0
 17 18  1  0  0  0
 17 19  1  0  0  0
 21 22  4  0  0  0
 22 23  4  0  0  0
 25 26  1  0  0  0
 26 27  1  0  0  0
  1 29  1  0  0  0
  2 30  1  0  0  0
  3 31  1  0  0  0
  6 32  1  0  0  0
  9 33  1  0  0  0
 12 34  1  0  0  0
 14 35  1  0  0  0
 14 36  1  0  0  0
 15 37  1  0  0  0
 15 38  1  0  0  0
 20 39  1  0  0  0
 21 40  1  0  0  0
 25 41  1  0  0  0
 25 42  1  0  0  0
 26 43  1  0  0  0
 27 44  1  0  0  0
 27 45  1  0  0  0
 27 46  1  0  0  0
 28 47  1  0  0  0
 28 48  1  0  0  0
M  END
$$$$
