5kqf_ligand
  -I-interpret- 

 36 38  0  0  0  0  0  0  0  0999 V2000
   21.5750   39.1080   -7.2800 C   0  0  0  0  0
   20.5180   39.3390   -6.4020 C   0  0  0  0  0
   19.2110   39.1590   -6.8140 C   0  0  0  0  0
   18.9190   38.7450   -8.1050 C   0  0  0  0  0
   21.3180   38.6900   -8.5860 C   0  0  0  0  0
   19.9960   38.5060   -8.9970 C   0  0  0  0  0
   15.6230   42.9240  -12.8290 C   0  0  0  0  0
   17.3000   37.0860   -8.9710 C   0  0  0  0  0
   17.4620   38.5320   -8.5130 C   0  0  0  0  0
   17.0960   39.4010   -9.7220 C   0  0  0  0  0
   17.1710   40.8990   -9.4340 C   0  0  0  0  0
   16.1980   41.2960   -7.9640 S   0  0  0  0  0
   15.9360   39.8170   -7.0610 C   0  0  0  0  0
   16.5080   38.7200   -7.3960 N   0  0  0  0  0
   15.2450   39.9280   -5.9180 N   0  0  0  0  0
   16.6150   41.6210  -10.6430 C   0  0  0  0  0
   15.2440   41.6090  -10.9270 C   0  0  0  0  0
   14.7700   42.2620  -12.0190 N   0  0  0  0  0
   16.9490   42.9460  -12.5770 N   0  0  0  0  0
   17.4640   42.3090  -11.5000 C   0  0  0  0  0
   19.7580   38.1070  -10.2550 F   0  0  0  0  0
   22.8290   39.2920   -6.8450 F   0  0  0  0  0
   20.7235   39.6642   -5.3822 H   0  0  0  0  0
   18.3971   39.3453   -6.1133 H   0  0  0  0  0
   22.1403   38.5090   -9.2782 H   0  0  0  0  0
   15.2346   43.4497  -13.7013 H   0  0  0  0  0
   16.2684   36.9176   -9.2802 H   0  0  0  0  0
   17.9681   36.8952   -9.8108 H   0  0  0  0  0
   17.5481   36.4156   -8.1481 H   0  0  0  0  0
   16.0665   39.1691   -9.9948 H   0  0  0  0  0
   17.8118   39.1816  -10.5142 H   0  0  0  0  0
   18.2002   41.2054   -9.2468 H   0  0  0  0  0
   16.2842   37.8956   -6.8386 H   0  0  0  0  0
   14.9023   40.8399   -5.6157 H   0  0  0  0  0
   14.5566   41.0750  -10.2709 H   0  0  0  0  0
   18.5364   42.3356  -11.3067 H   0  0  0  0  0
  2  1  4  0  0  0
  5  1  4  0  0  0
  1 22  1  0  0  0
  3  2  4  0  0  0
  4  3  4  0  0  0
  4  6  4  0  0  0
  9  4  1  0  0  0
  6  5  4  0  0  0
  6 21  1  0  0  0
 18  7  4  0  0  0
  7 19  4  0  0  0
  9  8  1  0  0  0
 10  9  1  0  0  0
  9 14  1  0  0  0
 11 10  1  0  0  0
 11 12  1  0  0  0
 16 11  1  0  0  0
 12 13  1  0  0  0
 13 14  1  0  0  0
 13 15  2  0  0  0
 17 16  4  0  0  0
 16 20  4  0  0  0
 17 18  4  0  0  0
 19 20  4  0  0  0
  2 23  1  0  0  0
  3 24  1  0  0  0
  5 25  1  0  0  0
  7 26  1  0  0  0
  8 27  1  0  0  0
  8 28  1  0  0  0
  8 29  1  0  0  0
 10 30  1  0  0  0
 10 31  1  0  0  0
 11 32  1  0  0  0
 14 33  1  0  0  0
 15 34  1  0  0  0
 17 35  1  0  0  0
 20 36  1  0  0  0
M  END
$$$$
