### 
### Created by X-TOOL on Mon Sep 10 21:13:19 2018
### 

@<TRIPOS>MOLECULE
4c3k_ligand
   39    41     1     0     0
SMALL
GAST_HUCK


@<TRIPOS>ATOM
      1 PB        -16.6530   33.9760  -31.2260 P.3       1 ADP         0.2069
      2 O1B       -15.8360   34.5310  -32.3680 O.co2     1 ADP        -0.5891
      3 O2B       -16.0890   32.6910  -30.6740 O.co2     1 ADP        -0.5891
      4 O3B       -17.0500   34.9980  -30.1880 O.co2     1 ADP        -0.5891
      5 PA        -18.9300   34.6080  -32.6900 P.3       1 ADP         0.3276
      6 O1A       -18.0400   35.3560  -33.6530 O.co2     1 ADP        -0.5556
      7 O2A       -19.7790   35.3590  -31.6930 O.co2     1 ADP        -0.5556
      8 O3A       -18.0400   33.5290  -31.8990 O.3       1 ADP        -0.1548
      9 O5'       -19.8810   33.6590  -33.5660 O.3       1 ADP        -0.2436
     10 C5'       -20.4090   34.1570  -34.7880 C.3       1 ADP         0.1132
     11 C4'       -21.5870   33.2940  -35.2030 C.3       1 ADP         0.1189
     12 O4'       -22.2630   32.7890  -34.0500 O.3       1 ADP        -0.3364
     13 C3'       -22.5890   34.1170  -35.9870 C.3       1 ADP         0.1149
     14 O3'       -22.4640   33.8270  -37.3790 O.3       1 ADP        -0.3864
     15 C2'       -23.9470   33.6980  -35.4650 C.3       1 ADP         0.1385
     16 O2'       -24.5710   32.8500  -36.4290 O.3       1 ADP        -0.3836
     17 C1'       -23.6800   32.9110  -34.1920 C.3       1 ADP         0.2010
     18 N9        -24.2040   33.6520  -33.0180 N.pl3     1 ADP        -0.1919
     19 C8        -23.5000   34.5360  -32.2870 C.2       1 ADP         0.1123
     20 N7        -24.2480   35.0430  -31.2750 N.2       1 ADP        -0.2958
     21 C5        -25.4680   34.4810  -31.3510 C.ar      1 ADP         0.1045
     22 C6        -26.7380   34.5720  -30.5900 C.ar      1 ADP         0.1298
     23 N6        -26.8560   35.3950  -29.5200 N.pl3     1 ADP        -0.3152
     24 N1        -27.7770   33.8130  -31.0020 N.ar      1 ADP        -0.2698
     25 C2        -27.6730   32.9960  -32.0640 C.ar      1 ADP         0.0533
     26 N3        -26.5510   32.8620  -32.7930 N.ar      1 ADP        -0.2714
     27 C4        -25.4340   33.5650  -32.5010 C.ar      1 ADP         0.1613
     28 H         -19.6331   34.1219  -35.5670 H         1 ADP         0.0648
     29 H         -20.7431   35.1959  -34.6497 H         1 ADP         0.0648
     30 H         -21.2252   32.4583  -35.8199 H         1 ADP         0.0651
     31 H         -22.4273   35.1918  -35.8181 H         1 ADP         0.0648
     32 H         -22.6308   32.9033  -37.5251 H         1 ADP         0.2100
     33 H         -24.5796   34.5742  -35.2600 H         1 ADP         0.0676
     34 H         -24.6725   33.3230  -37.2467 H         1 ADP         0.2101
     35 H         -24.1497   31.9182  -34.2526 H         1 ADP         0.0996
     36 H         -22.4641   34.8090  -32.4825 H         1 ADP         0.1349
     37 H         -27.7461   35.4446  -29.0041 H         1 ADP         0.1820
     38 H         -26.0556   35.9710  -29.2226 H         1 ADP         0.1820
     39 H         -28.5414   32.4129  -32.3486 H         1 ADP         0.0996
@<TRIPOS>BOND
     1    1    2 ar 
     2    1    3 ar 
     3    1    4 ar 
     4    8    1 1  
     5    5    6 ar 
     6    5    7 ar 
     7    5    8 1  
     8    5    9 1  
     9    9   10 1  
    10   10   11 1  
    11   11   12 1  
    12   11   13 1  
    13   12   17 1  
    14   13   14 1  
    15   13   15 1  
    16   15   16 1  
    17   15   17 1  
    18   17   18 1  
    19   18   19 1  
    20   18   27 1  
    21   19   20 2  
    22   20   21 1  
    23   21   22 ar 
    24   21   27 ar 
    25   22   23 1  
    26   22   24 ar 
    27   24   25 ar 
    28   25   26 ar 
    29   26   27 ar 
    30   10   28 1  
    31   10   29 1  
    32   11   30 1  
    33   13   31 1  
    34   14   32 1  
    35   15   33 1  
    36   16   34 1  
    37   17   35 1  
    38   19   36 1  
    39   23   37 1  
    40   23   38 1  
    41   25   39 1  
@<TRIPOS>SUBSTRUCTURE
     1 ADP         1

