4c3k_ligand
  -I-interpret- 

 42 44  0  0  0  0  0  0  0  0999 V2000
  -16.6530   33.9760  -31.2260 P   0  0  0  0  0
  -15.8360   34.5310  -32.3680 O   0  0  0  0  0
  -16.0890   32.6910  -30.6740 O   0  0  0  0  0
  -17.0500   34.9980  -30.1880 O   0  0  0  0  0
  -18.9300   34.6080  -32.6900 P   0  0  0  0  0
  -18.0400   35.3560  -33.6530 O   0  0  0  0  0
  -19.7790   35.3590  -31.6930 O   0  0  0  0  0
  -18.0400   33.5290  -31.8990 O   0  0  0  0  0
  -19.8810   33.6590  -33.5660 O   0  0  0  0  0
  -20.4090   34.1570  -34.7880 C   0  0  0  0  0
  -21.5870   33.2940  -35.2030 C   0  0  0  0  0
  -22.2630   32.7890  -34.0500 O   0  0  0  0  0
  -22.5890   34.1170  -35.9870 C   0  0  0  0  0
  -22.4640   33.8270  -37.3790 O   0  0  0  0  0
  -23.9470   33.6980  -35.4650 C   0  0  0  0  0
  -24.5710   32.8500  -36.4290 O   0  0  0  0  0
  -23.6800   32.9110  -34.1920 C   0  0  0  0  0
  -24.2040   33.6520  -33.0180 N   0  0  0  0  0
  -23.5000   34.5360  -32.2870 C   0  0  0  0  0
  -24.2480   35.0430  -31.2750 N   0  0  0  0  0
  -25.4680   34.4810  -31.3510 C   0  0  0  0  0
  -26.7380   34.5720  -30.5900 C   0  0  0  0  0
  -26.8560   35.3950  -29.5200 N   0  0  0  0  0
  -27.7770   33.8130  -31.0020 N   0  0  0  0  0
  -27.6730   32.9960  -32.0640 C   0  0  0  0  0
  -26.5510   32.8620  -32.7930 N   0  0  0  0  0
  -25.4340   33.5650  -32.5010 C   0  0  0  0  0
  -16.2369   35.3453  -32.6807 H   0  0  0  0  0
  -17.3964   35.7791  -30.6257 H   0  0  0  0  0
  -17.5749   34.7281  -34.2107 H   0  0  0  0  0
  -19.6406   34.1275  -35.5605 H   0  0  0  0  0
  -20.7366   35.1880  -34.6547 H   0  0  0  0  0
  -21.2002   32.4758  -35.8105 H   0  0  0  0  0
  -22.4338   35.1894  -35.8685 H   0  0  0  0  0
  -23.1002   34.3501  -37.8721 H   0  0  0  0  0
  -24.5973   34.5525  -35.2780 H   0  0  0  0  0
  -25.4334   32.5797  -36.1052 H   0  0  0  0  0
  -24.1641   31.9360  -34.2476 H   0  0  0  0  0
  -22.4631   34.8092  -32.4827 H   0  0  0  0  0
  -26.0634   35.9654  -29.2255 H   0  0  0  0  0
  -27.7375   35.4441  -29.0091 H   0  0  0  0  0
  -28.5462   32.4097  -32.3502 H   0  0  0  0  0
  1  2  1  0  0  0
  1  3  2  0  0  0
  1  4  1  0  0  0
  8  1  1  0  0  0
  5  6  1  0  0  0
  5  7  2  0  0  0
  5  8  1  0  0  0
  5  9  1  0  0  0
  9 10  1  0  0  0
 10 11  1  0  0  0
 11 12  1  0  0  0
 11 13  1  0  0  0
 12 17  1  0  0  0
 13 14  1  0  0  0
 13 15  1  0  0  0
 15 16  1  0  0  0
 15 17  1  0  0  0
 17 18  1  0  0  0
 18 19  4  0  0  0
 18 27  4  0  0  0
 19 20  4  0  0  0
 20 21  4  0  0  0
 21 22  4  0  0  0
 21 27  4  0  0  0
 22 23  1  0  0  0
 22 24  4  0  0  0
 24 25  4  0  0  0
 25 26  4  0  0  0
 26 27  4  0  0  0
  2 28  1  0  0  0
  4 29  1  0  0  0
  6 30  1  0  0  0
 10 31  1  0  0  0
 10 32  1  0  0  0
 11 33  1  0  0  0
 13 34  1  0  0  0
 14 35  1  0  0  0
 15 36  1  0  0  0
 16 37  1  0  0  0
 17 38  1  0  0  0
 19 39  1  0  0  0
 23 40  1  0  0  0
 23 41  1  0  0  0
 25 42  1  0  0  0
M  END
$$$$
