2fci_ligand
  -I-interpret- 

214217  0  0  0  0  0  0  0  0999 V2000
    9.2710   -8.2010  -13.0800 C   0  0  0  0  0
   10.1850   -8.6430  -13.7380 O   0  0  0  0  0
    8.4620   -9.1280  -12.1600 C   0  0  0  0  0
    8.9180   -6.9310  -13.1260 N   0  0  0  0  0
    9.6290   -5.9240  -13.9820 C   0  0  0  0  0
    9.0360   -4.5390  -13.6520 C   0  0  0  0  0
    8.8460   -4.2590  -12.4890 O   0  0  0  0  0
    9.4100   -6.3800  -15.4470 C   0  0  0  0  0
   10.3410   -5.6030  -16.3850 C   0  0  0  0  0
   11.5270   -5.8820  -16.4090 O   0  0  0  0  0
    9.8220   -4.7570  -17.0880 O   0  0  0  0  0
    8.7550   -3.6680  -14.6260 N   0  0  0  0  0
    8.1750   -2.2980  -14.2740 C   0  0  0  0  0
    6.6490   -2.1870  -14.4640 C   0  0  0  0  0
    6.0900   -1.2440  -13.9900 O   0  0  0  0  0
    8.8720   -1.2390  -15.1380 C   0  0  0  0  0
    8.3520   -1.2560  -16.4640 O   0  0  0  0  0
   10.3730   -1.4700  -15.1390 C   0  0  0  0  0
    5.9630   -3.1140  -15.1200 N   0  0  0  0  0
    4.4640   -2.9440  -15.2590 C   0  0  0  0  0
    3.7160   -4.2910  -15.4670 C   0  0  0  0  0
    3.0310   -4.4700  -16.4600 O   0  0  0  0  0
    4.3330   -2.0330  -16.4830 C   0  0  0  0  0
    4.1330   -0.5700  -16.0310 C   0  0  0  0  0
    2.6730   -0.3060  -15.6590 C   0  0  0  0  0
    1.9890   -1.2390  -15.2780 O   0  0  0  0  0
    2.2560    0.8330  -15.7740 O   0  0  0  0  0
    3.8100   -5.2440  -14.5420 N   0  0  0  0  0
    3.0660   -6.5380  -14.7460 C   0  0  0  0  0
    3.0600   -7.4860  -13.4910 C   0  0  0  0  0
    3.8960   -8.3530  -13.3420 O   0  0  0  0  0
    3.7620   -7.1770  -15.9980 C   0  0  0  0  0
    4.9860   -8.0270  -15.6240 C   0  0  0  0  0
    2.7630   -8.0470  -16.7710 C   0  0  0  0  0
    2.0620   -7.3790  -12.6140 N   0  0  0  0  0
    1.9700   -8.3530  -11.4490 C   0  0  0  0  0
    0.5750   -9.0300  -11.4420 C   0  0  0  0  0
   -0.1010   -9.0750  -12.4520 O   0  0  0  0  0
    2.1650   -7.6310  -10.0960 C   0  0  0  0  0
    2.6020   -6.1900  -10.1950 C   0  0  0  0  0
    3.9590   -5.8680  -10.1800 C   0  0  0  0  0
    1.6390   -5.1750  -10.2020 C   0  0  0  0  0
    4.3590   -4.5260  -10.1690 C   0  0  0  0  0
    2.0370   -3.8370  -10.2080 C   0  0  0  0  0
    3.3990   -3.5100  -10.1860 C   0  0  0  0  0
    3.7860   -2.1780  -10.1670 O   0  0  0  0  0
    4.8540   -1.6840  -11.1930 P   0  0  0  0  0
    5.9200   -0.9830  -10.3100 O   0  0  0  0  0
    4.1010   -0.6020  -12.0000 O   0  0  0  0  0
    5.3570   -2.9450  -12.0160 O   0  0  0  0  0
    0.1370   -9.5450  -10.2980 N   0  0  0  0  0
   -1.2160  -10.2040  -10.2230 C   0  0  0  0  0
   -1.8300  -10.1050   -8.8000 C   0  0  0  0  0
   -2.8390   -9.4680   -8.6160 O   0  0  0  0  0
   -0.9750  -11.6660  -10.6210 C   0  0  0  0  0
   -2.2030  -12.1850  -11.3860 C   0  0  0  0  0
   -3.4070  -12.2800  -10.4440 C   0  0  0  0  0
   -3.2830  -12.9260   -9.4110 O   0  0  0  0  0
   -4.4350  -11.7000  -10.7750 O   0  0  0  0  0
   -1.2430  -10.7350   -7.7990 N   0  0  0  0  0
   -1.8370  -10.6680   -6.4130 C   0  0  0  0  0
   -0.9810   -9.7790   -5.4780 C   0  0  0  0  0
    0.1370  -10.1300   -5.1470 O   0  0  0  0  0
   -1.8770  -12.1220   -5.9480 C   0  0  0  0  0
   -3.1120  -12.7020   -6.3610 O   0  0  0  0  0
   -1.5290   -8.6170   -5.1330 N   0  0  0  0  0
   -0.8000   -7.6130   -4.2940 C   0  0  0  0  0
   -0.9150   -7.8590   -2.7580 C   0  0  0  0  0
   -0.4520   -8.8630   -2.2530 O   0  0  0  0  0
   -1.4540   -6.2920   -4.7310 C   0  0  0  0  0
   -2.8290   -6.6500   -5.2140 C   0  0  0  0  0
   -2.8660   -8.1360   -5.4910 C   0  0  0  0  0
   -1.4730   -6.9260   -2.0060 N   0  0  0  0  0
   -1.5540   -7.0880   -0.5190 C   0  0  0  0  0
   -2.9820   -7.4260   -0.0790 C   0  0  0  0  0
   -3.8620   -6.5880   -0.0860 O   0  0  0  0  0
   -1.1230   -5.7260    0.0240 C   0  0  0  0  0
    0.3040   -5.8060    0.5040 C   0  0  0  0  0
    0.5730   -6.3400    1.7590 C   0  0  0  0  0
    1.3510   -5.3330   -0.2920 C   0  0  0  0  0
    1.8820   -6.4060    2.2340 C   0  0  0  0  0
    2.6700   -5.4030    0.1790 C   0  0  0  0  0
    2.9370   -5.9390    1.4450 C   0  0  0  0  0
    4.2400   -5.9930    1.9130 O   0  0  0  0  0
    4.7860   -7.3080    2.5650 P   0  0  0  0  0
    6.1390   -7.5220    1.8520 O   0  0  0  0  0
    3.8170   -8.4350    2.1100 O   0  0  0  0  0
    4.8670   -7.0710    4.1360 O   0  0  0  0  0
   -3.2120   -8.6610    0.2750 N   0  0  0  0  0
   -4.5860   -9.0950    0.6760 C   0  0  0  0  0
   -4.7630   -9.2720    2.2030 C   0  0  0  0  0
   -5.8200   -8.9740    2.7330 O   0  0  0  0  0
   -4.7550  -10.4370   -0.0390 C   0  0  0  0  0
   -3.7800   -9.7850    2.9080 N   0  0  0  0  0
   -3.9630  -10.0110    4.3850 C   0  0  0  0  0
   -3.0870   -9.0820    5.2370 C   0  0  0  0  0
   -2.0500   -8.6250    4.7890 O   0  0  0  0  0
   -3.4970  -11.4600    4.6430 C   0  0  0  0  0
   -3.9920  -12.4150    3.5560 C   0  0  0  0  0
   -5.0720  -12.9570    3.7170 O   0  0  0  0  0
   -3.2670  -12.6040    2.5910 O   0  0  0  0  0
   -3.4880   -8.9060    6.4830 N   0  0  0  0  0
   -2.6600   -8.1190    7.4260 C   0  0  0  0  0
   -1.4220   -8.9820    7.7270 C   0  0  0  0  0
   -1.4030  -10.1540    7.3920 O   0  0  0  0  0
   -3.5650   -7.9400    8.6520 C   0  0  0  0  0
   -4.5340   -9.0810    8.5850 C   0  0  0  0  0
   -4.7130   -9.4220    7.1230 C   0  0  0  0  0
   -0.3810   -8.4540    8.3120 N   0  0  0  0  0
    0.8220   -9.3190    8.5580 C   0  0  0  0  0
    0.4730  -10.5450    9.4210 C   0  0  0  0  0
    0.6360  -11.6720    9.0000 O   0  0  0  0  0
    1.8430   -8.4440    9.2810 C   0  0  0  0  0
    3.0390   -9.3230    9.6900 C   0  0  0  0  0
    3.8900   -9.7030    8.4680 C   0  0  0  0  0
    5.0610   -9.9720    8.6630 O   0  0  0  0  0
    3.3650   -9.7340    7.3610 O   0  0  0  0  0
    0.0350  -10.3710   10.6340 N   0  0  0  0  0
    7.9996   -9.9154  -12.7553 H   0  0  0  0  0
    9.1266   -9.5733  -11.4197 H   0  0  0  0  0
    7.6878   -8.5507  -11.6546 H   0  0  0  0  0
    8.1303   -6.6209  -12.5570 H   0  0  0  0  0
   10.7028   -5.8518  -13.8092 H   0  0  0  0  0
    8.3751   -6.1883  -15.7305 H   0  0  0  0  0
    9.6289   -7.4448  -15.5269 H   0  0  0  0  0
   11.7043   -6.5759  -15.7698 H   0  0  0  0  0
    8.9268   -3.9163  -15.6003 H   0  0  0  0  0
    8.3561   -2.1427  -13.2104 H   0  0  0  0  0
    8.6772   -0.2542  -14.7133 H   0  0  0  0  0
    8.7983   -0.5885  -16.9901 H   0  0  0  0  0
   10.7501   -1.4041  -14.1184 H   0  0  0  0  0
   10.5868   -2.4593  -15.5436 H   0  0  0  0  0
   10.8556   -0.7118  -15.7557 H   0  0  0  0  0
    6.4348   -3.9239  -15.5222 H   0  0  0  0  0
    4.0108   -2.5326  -14.3571 H   0  0  0  0  0
    3.4729   -2.3472  -17.0743 H   0  0  0  0  0
    5.2410   -2.1031  -17.0819 H   0  0  0  0  0
    4.4095    0.0908  -16.8526 H   0  0  0  0  0
    4.7557   -0.3862  -15.1555 H   0  0  0  0  0
    2.9633    1.4014  -16.0874 H   0  0  0  0  0
    4.3778   -5.1000  -13.7070 H   0  0  0  0  0
    2.0008   -6.3655  -14.9002 H   0  0  0  0  0
    4.1074   -6.3515  -16.6204 H   0  0  0  0  0
    5.7196   -7.4014  -15.1155 H   0  0  0  0  0
    4.6763   -8.8365  -14.9630 H   0  0  0  0  0
    5.4274   -8.4441  -16.5292 H   0  0  0  0  0
    2.3961   -8.8414  -16.1211 H   0  0  0  0  0
    1.9267   -7.4311  -17.1018 H   0  0  0  0  0
    3.2587   -8.4846  -17.6375 H   0  0  0  0  0
    1.3615   -6.6457  -12.7237 H   0  0  0  0  0
    2.7586   -9.0948  -11.5750 H   0  0  0  0  0
    2.9566   -8.1629   -9.5682 H   0  0  0  0  0
    1.1953   -7.6309   -9.5983 H   0  0  0  0  0
    4.7076   -6.6603  -10.1768 H   0  0  0  0  0
    0.5790   -5.4288  -10.2028 H   0  0  0  0  0
    5.4191   -4.2736  -10.1472 H   0  0  0  0  0
    1.2874   -3.0460  -10.2298 H   0  0  0  0  0
    6.3971   -1.6430   -9.8017 H   0  0  0  0  0
    5.8087   -3.5519  -11.4251 H   0  0  0  0  0
    0.7215   -9.4938   -9.4637 H   0  0  0  0  0
   -1.9322   -9.7134  -10.8822 H   0  0  0  0  0
   -0.8168  -12.2692   -9.7270 H   0  0  0  0  0
   -0.0911  -11.7335  -11.2553 H   0  0  0  0  0
   -1.9832  -13.1744  -11.7872 H   0  0  0  0  0
   -2.4368  -11.4961  -12.1977 H   0  0  0  0  0
   -4.2970  -11.2628  -11.6185 H   0  0  0  0  0
   -0.3882  -11.2669   -7.9623 H   0  0  0  0  0
   -2.8276  -10.2133   -6.4024 H   0  0  0  0  0
   -1.7933  -12.1652   -4.8621 H   0  0  0  0  0
   -1.0450  -12.6732   -6.3862 H   0  0  0  0  0
   -3.1466  -13.6171   -6.0730 H   0  0  0  0  0
    0.2786   -7.6471   -4.4475 H   0  0  0  0  0
   -0.8745   -5.8056   -5.5157 H   0  0  0  0  0
   -1.4985   -5.5818   -3.9053 H   0  0  0  0  0
   -3.0610   -6.0953   -6.1232 H   0  0  0  0  0
   -3.5690   -6.3935   -4.4559 H   0  0  0  0  0
   -3.6448   -8.6367   -4.9158 H   0  0  0  0  0
   -3.1084   -8.3487   -6.5322 H   0  0  0  0  0
   -1.8527   -6.0863   -2.4432 H   0  0  0  0  0
   -0.9301   -7.9032   -0.1525 H   0  0  0  0  0
   -1.7706   -5.4440    0.8541 H   0  0  0  0  0
   -1.1996   -4.9788   -0.7659 H   0  0  0  0  0
   -0.2457   -6.7099    2.3763 H   0  0  0  0  0
    1.1430   -4.9112   -1.2753 H   0  0  0  0  0
    2.0829   -6.8220    3.2213 H   0  0  0  0  0
    3.4891   -5.0395   -0.4415 H   0  0  0  0  0
    2.9680   -8.3197    2.5431 H   0  0  0  0  0
    3.9815   -6.9490    4.4861 H   0  0  0  0  0
   -2.4477   -9.3364    0.2782 H   0  0  0  0  0
   -5.3288   -8.3441    0.4069 H   0  0  0  0  0
   -4.6624  -10.2882   -1.1148 H   0  0  0  0  0
   -3.9838  -11.1281    0.3012 H   0  0  0  0  0
   -5.7387  -10.8474    0.1890 H   0  0  0  0  0
   -2.8981  -10.0287    2.4571 H   0  0  0  0  0
   -5.0014   -9.8196    4.6555 H   0  0  0  0  0
   -3.9051  -11.7870    5.5994 H   0  0  0  0  0
   -2.4071  -11.4754    4.6435 H   0  0  0  0  0
   -2.4729  -12.0719    2.6797 H   0  0  0  0  0
   -2.3172   -7.1477    7.0695 H   0  0  0  0  0
   -4.0734   -6.9758    8.6428 H   0  0  0  0  0
   -2.9947   -7.9470    9.5809 H   0  0  0  0  0
   -5.4869   -8.8053    9.0366 H   0  0  0  0  0
   -4.1569   -9.9408    9.1387 H   0  0  0  0  0
   -4.8439  -10.4920    6.9616 H   0  0  0  0  0
   -5.6162   -8.9791    6.7032 H   0  0  0  0  0
   -0.3846   -7.4744    8.5961 H   0  0  0  0  0
    1.2111   -9.7013    7.6143 H   0  0  0  0  0
    1.3896   -7.9980   10.1663 H   0  0  0  0  0
    2.1786   -7.6429    8.6224 H   0  0  0  0  0
    2.6599  -10.2363   10.1486 H   0  0  0  0  0
    3.6613   -8.7625   10.3877 H   0  0  0  0  0
    2.4406   -9.4871    7.4394 H   0  0  0  0  0
   -0.1686  -11.1782   11.2234 H   0  0  0  0  0
   -0.1047   -9.4274   10.9954 H   0  0  0  0  0
  1  2  2  0  0  0
  1  3  1  0  0  0
  1  4  1  0  0  0
  4  5  1  0  0  0
  5  6  1  0  0  0
  5  8  1  0  0  0
  6  7  2  0  0  0
  6 12  1  0  0  0
  8  9  1  0  0  0
  9 10  1  0  0  0
  9 11  2  0  0  0
 12 13  1  0  0  0
 13 14  1  0  0  0
 13 16  1  0  0  0
 14 15  2  0  0  0
 14 19  1  0  0  0
 16 17  1  0  0  0
 16 18  1  0  0  0
 19 20  1  0  0  0
 20 21  1  0  0  0
 20 23  1  0  0  0
 21 22  2  0  0  0
 21 28  1  0  0  0
 23 24  1  0  0  0
 24 25  1  0  0  0
 25 26  2  0  0  0
 25 27  1  0  0  0
 28 29  1  0  0  0
 29 30  1  0  0  0
 29 32  1  0  0  0
 30 31  2  0  0  0
 30 35  1  0  0  0
 32 33  1  0  0  0
 32 34  1  0  0  0
 35 36  1  0  0  0
 36 37  1  0  0  0
 36 39  1  0  0  0
 37 38  2  0  0  0
 37 51  1  0  0  0
 39 40  1  0  0  0
 40 41  4  0  0  0
 40 42  4  0  0  0
 41 43  4  0  0  0
 42 44  4  0  0  0
 43 45  4  0  0  0
 44 45  4  0  0  0
 45 46  1  0  0  0
 46 47  1  0  0  0
 47 48  1  0  0  0
 47 49  2  0  0  0
 47 50  1  0  0  0
 51 52  1  0  0  0
 52 53  1  0  0  0
 52 55  1  0  0  0
 53 54  2  0  0  0
 53 60  1  0  0  0
 55 56  1  0  0  0
 56 57  1  0  0  0
 57 58  2  0  0  0
 57 59  1  0  0  0
 60 61  1  0  0  0
 61 62  1  0  0  0
 61 64  1  0  0  0
 62 63  2  0  0  0
 62 66  1  0  0  0
 64 65  1  0  0  0
 66 67  1  0  0  0
 66 72  1  0  0  0
 67 68  1  0  0  0
 67 70  1  0  0  0
 68 69  2  0  0  0
 68 73  1  0  0  0
 70 71  1  0  0  0
 71 72  1  0  0  0
 73 74  1  0  0  0
 74 75  1  0  0  0
 74 77  1  0  0  0
 75 76  2  0  0  0
 75 89  1  0  0  0
 77 78  1  0  0  0
 78 79  4  0  0  0
 78 80  4  0  0  0
 79 81  4  0  0  0
 80 82  4  0  0  0
 81 83  4  0  0  0
 82 83  4  0  0  0
 83 84  1  0  0  0
 84 85  1  0  0  0
 85 86  2  0  0  0
 85 87  1  0  0  0
 85 88  1  0  0  0
 89 90  1  0  0  0
 90 91  1  0  0  0
 90 93  1  0  0  0
 91 92  2  0  0  0
 91 94  1  0  0  0
 94 95  1  0  0  0
 95 96  1  0  0  0
 95 98  1  0  0  0
 96 97  2  0  0  0
 96102  1  0  0  0
 98 99  1  0  0  0
 99100  2  0  0  0
 99101  1  0  0  0
102103  1  0  0  0
102108  1  0  0  0
103104  1  0  0  0
103106  1  0  0  0
104105  2  0  0  0
104109  1  0  0  0
106107  1  0  0  0
107108  1  0  0  0
109110  1  0  0  0
110111  1  0  0  0
110113  1  0  0  0
111112  2  0  0  0
111118  1  0  0  0
113114  1  0  0  0
114115  1  0  0  0
115116  2  0  0  0
115117  1  0  0  0
  3119  1  0  0  0
  3120  1  0  0  0
  3121  1  0  0  0
  4122  1  0  0  0
  5123  1  0  0  0
  8124  1  0  0  0
  8125  1  0  0  0
 10126  1  0  0  0
 12127  1  0  0  0
 13128  1  0  0  0
 16129  1  0  0  0
 17130  1  0  0  0
 18131  1  0  0  0
 18132  1  0  0  0
 18133  1  0  0  0
 19134  1  0  0  0
 20135  1  0  0  0
 23136  1  0  0  0
 23137  1  0  0  0
 24138  1  0  0  0
 24139  1  0  0  0
 27140  1  0  0  0
 28141  1  0  0  0
 29142  1  0  0  0
 32143  1  0  0  0
 33144  1  0  0  0
 33145  1  0  0  0
 33146  1  0  0  0
 34147  1  0  0  0
 34148  1  0  0  0
 34149  1  0  0  0
 35150  1  0  0  0
 36151  1  0  0  0
 39152  1  0  0  0
 39153  1  0  0  0
 41154  1  0  0  0
 42155  1  0  0  0
 43156  1  0  0  0
 44157  1  0  0  0
 48158  1  0  0  0
 50159  1  0  0  0
 51160  1  0  0  0
 52161  1  0  0  0
 55162  1  0  0  0
 55163  1  0  0  0
 56164  1  0  0  0
 56165  1  0  0  0
 59166  1  0  0  0
 60167  1  0  0  0
 61168  1  0  0  0
 64169  1  0  0  0
 64170  1  0  0  0
 65171  1  0  0  0
 67172  1  0  0  0
 70173  1  0  0  0
 70174  1  0  0  0
 71175  1  0  0  0
 71176  1  0  0  0
 72177  1  0  0  0
 72178  1  0  0  0
 73179  1  0  0  0
 74180  1  0  0  0
 77181  1  0  0  0
 77182  1  0  0  0
 79183  1  0  0  0
 80184  1  0  0  0
 81185  1  0  0  0
 82186  1  0  0  0
 87187  1  0  0  0
 88188  1  0  0  0
 89189  1  0  0  0
 90190  1  0  0  0
 93191  1  0  0  0
 93192  1  0  0  0
 93193  1  0  0  0
 94194  1  0  0  0
 95195  1  0  0  0
 98196  1  0  0  0
 98197  1  0  0  0
101198  1  0  0  0
103199  1  0  0  0
106200  1  0  0  0
106201  1  0  0  0
107202  1  0  0  0
107203  1  0  0  0
108204  1  0  0  0
108205  1  0  0  0
109206  1  0  0  0
110207  1  0  0  0
113208  1  0  0  0
113209  1  0  0  0
114210  1  0  0  0
114211  1  0  0  0
117212  1  0  0  0
118213  1  0  0  0
118214  1  0  0  0
M  END
$$$$
