### 
### Created by X-TOOL on Mon Sep 10 21:12:55 2018
### 

@<TRIPOS>MOLECULE
2fci_ligand
  205   208     1     0     0
SMALL
GAST_HUCK


@<TRIPOS>ATOM
      1 C           9.2710   -8.2010  -13.0800 C.2       1 ACE         0.1752
      2 O          10.1850   -8.6430  -13.7380 O.2       1 ACE        -0.3972
      3 CH3         8.4620   -9.1280  -12.1600 C.3       1 ACE         0.0258
      4 N           8.9180   -6.9310  -13.1260 N.am      1 ASP        -0.2643
      5 CA          9.6290   -5.9240  -13.9820 C.3       1 ASP         0.1422
      6 C           9.0360   -4.5390  -13.6520 C.2       1 ASP         0.2057
      7 O           8.8460   -4.2590  -12.4890 O.2       1 ASP        -0.3943
      8 CB          9.4100   -6.3800  -15.4470 C.3       1 ASP         0.0406
      9 CG         10.3410   -5.6030  -16.3850 C.2       1 ASP         0.0393
     10 OD1        11.5270   -5.8820  -16.4090 O.co2     1 ASP        -0.5688
     11 OD2         9.8220   -4.7570  -17.0880 O.co2     1 ASP        -0.5688
     12 N           8.7550   -3.6680  -14.6260 N.am      1 THR        -0.2612
     13 CA          8.1750   -2.2980  -14.2740 C.3       1 THR         0.1565
     14 C           6.6490   -2.1870  -14.4640 C.2       1 THR         0.2065
     15 O           6.0900   -1.2440  -13.9900 O.2       1 THR        -0.3943
     16 CB          8.8720   -1.2390  -15.1380 C.3       1 THR         0.0924
     17 OG1         8.3520   -1.2560  -16.4640 O.3       1 THR        -0.3874
     18 CG2        10.3730   -1.4700  -15.1390 C.3       1 THR        -0.0346
     19 N           5.9630   -3.1140  -15.1200 N.am      1 GLU        -0.2635
     20 CA          4.4640   -2.9440  -15.2590 C.3       1 GLU         0.1325
     21 C           3.7160   -4.2910  -15.4670 C.2       1 GLU         0.2040
     22 O           3.0310   -4.4700  -16.4600 O.2       1 GLU        -0.3944
     23 CB          4.3330   -2.0330  -16.4830 C.3       1 GLU        -0.0008
     24 CG          4.1330   -0.5700  -16.0310 C.3       1 GLU         0.0044
     25 CD          2.6730   -0.3060  -15.6590 C.2       1 GLU         0.0350
     26 OE1         1.9890   -1.2390  -15.2780 O.co2     1 GLU        -0.5690
     27 OE2         2.2560    0.8330  -15.7740 O.co2     1 GLU        -0.5690
     28 N           3.8100   -5.2440  -14.5420 N.am      1 VAL        -0.2635
     29 CA          3.0660   -6.5380  -14.7460 C.3       1 VAL         0.1333
     30 C           3.0600   -7.4860  -13.4910 C.2       1 VAL         0.2044
     31 O           3.8960   -8.3530  -13.3420 O.2       1 VAL        -0.3944
     32 CB          3.7620   -7.1770  -15.9980 C.3       1 VAL        -0.0063
     33 CG1         4.9860   -8.0270  -15.6240 C.3       1 VAL        -0.0584
     34 CG2         2.7630   -8.0470  -16.7710 C.3       1 VAL        -0.0584
     35 N           2.0620   -7.3790  -12.6140 N.am      1 PTR        -0.2607
     36 CA          1.9700   -8.3530  -11.4490 C.3       1 PTR         0.1468
     37 C           0.5750   -9.0300  -11.4420 C.2       1 PTR         0.2074
     38 O          -0.1010   -9.0750  -12.4520 O.2       1 PTR        -0.3941
     39 CB          2.1650   -7.6310  -10.0960 C.3       1 PTR         0.0400
     40 CG          2.6020   -6.1900  -10.1950 C.ar      1 PTR        -0.0004
     41 CD1         3.9590   -5.8680  -10.1800 C.ar      1 PTR        -0.0239
     42 CD2         1.6390   -5.1750  -10.2020 C.ar      1 PTR        -0.0239
     43 CE1         4.3590   -4.5260  -10.1690 C.ar      1 PTR         0.0115
     44 CE2         2.0370   -3.8370  -10.2080 C.ar      1 PTR         0.0115
     45 CZ          3.3990   -3.5100  -10.1860 C.ar      1 PTR         0.1728
     46 OH          3.7860   -2.1780  -10.1670 O.3       1 PTR        -0.2040
     47 P           4.8540   -1.6840  -11.1930 P.3       1 PTR         0.1348
     48 O1P         5.9200   -0.9830  -10.3100 O.co2     1 PTR        -0.6653
     49 O2P         4.1010   -0.6020  -12.0000 O.co2     1 PTR        -0.6653
     50 O3P         5.3570   -2.9450  -12.0160 O.co2     1 PTR        -0.6653
     51 N           0.1370   -9.5450  -10.2980 N.am      1 GLU        -0.2634
     52 CA         -1.2160  -10.2040  -10.2230 C.3       1 GLU         0.1325
     53 C          -1.8300  -10.1050   -8.8000 C.2       1 GLU         0.2041
     54 O          -2.8390   -9.4680   -8.6160 O.2       1 GLU        -0.3944
     55 CB         -0.9750  -11.6660  -10.6210 C.3       1 GLU        -0.0008
     56 CG         -2.2030  -12.1850  -11.3860 C.3       1 GLU         0.0044
     57 CD         -3.4070  -12.2800  -10.4440 C.2       1 GLU         0.0350
     58 OE1        -3.2830  -12.9260   -9.4110 O.co2     1 GLU        -0.5690
     59 OE2        -4.4350  -11.7000  -10.7750 O.co2     1 GLU        -0.5690
     60 N          -1.2430  -10.7350   -7.7990 N.am      1 SER        -0.2616
     61 CA         -1.8370  -10.6680   -6.4130 C.3       1 SER         0.1541
     62 C          -0.9810   -9.7790   -5.4780 C.2       1 SER         0.2087
     63 O           0.1370  -10.1300   -5.1470 O.2       1 SER        -0.3941
     64 CB         -1.8770  -12.1220   -5.9480 C.3       1 SER         0.0843
     65 OG         -3.1120  -12.7020   -6.3610 O.3       1 SER        -0.3903
     66 N          -1.5290   -8.6170   -5.1330 N.am      1 PRO        -0.2498
     67 CA         -0.8000   -7.6130   -4.2940 C.3       1 PRO         0.1338
     68 C          -0.9150   -7.8590   -2.7580 C.2       1 PRO         0.2043
     69 O          -0.4520   -8.8630   -2.2530 O.2       1 PRO        -0.3944
     70 CB         -1.4540   -6.2920   -4.7310 C.3       1 PRO        -0.0104
     71 CG         -2.8290   -6.6500   -5.2140 C.3       1 PRO        -0.0281
     72 CD         -2.8660   -8.1360   -5.4910 C.3       1 PRO         0.0369
     73 N          -1.4730   -6.9260   -2.0060 N.am      1 PTR        -0.2607
     74 CA         -1.5540   -7.0880   -0.5190 C.3       1 PTR         0.1468
     75 C          -2.9820   -7.4260   -0.0790 C.2       1 PTR         0.2074
     76 O          -3.8620   -6.5880   -0.0860 O.2       1 PTR        -0.3941
     77 CB         -1.1230   -5.7260    0.0240 C.3       1 PTR         0.0400
     78 CG          0.3040   -5.8060    0.5040 C.ar      1 PTR        -0.0004
     79 CD1         0.5730   -6.3400    1.7590 C.ar      1 PTR        -0.0239
     80 CD2         1.3510   -5.3330   -0.2920 C.ar      1 PTR        -0.0239
     81 CE1         1.8820   -6.4060    2.2340 C.ar      1 PTR         0.0115
     82 CE2         2.6700   -5.4030    0.1790 C.ar      1 PTR         0.0115
     83 CZ          2.9370   -5.9390    1.4450 C.ar      1 PTR         0.1728
     84 OH          4.2400   -5.9930    1.9130 O.3       1 PTR        -0.2040
     85 P           4.7860   -7.3080    2.5650 P.3       1 PTR         0.1348
     86 O1P         6.1390   -7.5220    1.8520 O.co2     1 PTR        -0.6653
     87 O2P         3.8170   -8.4350    2.1100 O.co2     1 PTR        -0.6653
     88 O3P         4.8670   -7.0710    4.1360 O.co2     1 PTR        -0.6653
     89 N          -3.2120   -8.6610    0.2750 N.am      1 ALA        -0.2638
     90 CA         -4.5860   -9.0950    0.6760 C.3       1 ALA         0.1282
     91 C          -4.7630   -9.2720    2.2030 C.2       1 ALA         0.2037
     92 O          -5.8200   -8.9740    2.7330 O.2       1 ALA        -0.3944
     93 CB         -4.7550  -10.4370   -0.0390 C.3       1 ALA        -0.0244
     94 N          -3.7800   -9.7850    2.9080 N.am      1 ASP        -0.2622
     95 CA         -3.9630  -10.0110    4.3850 C.3       1 ASP         0.1425
     96 C          -3.0870   -9.0820    5.2370 C.2       1 ASP         0.2081
     97 O          -2.0500   -8.6250    4.7890 O.2       1 ASP        -0.3941
     98 CB         -3.4970  -11.4600    4.6430 C.3       1 ASP         0.0406
     99 CG         -3.9920  -12.4150    3.5560 C.2       1 ASP         0.0393
    100 OD1        -5.0720  -12.9570    3.7170 O.co2     1 ASP        -0.5688
    101 OD2        -3.2670  -12.6040    2.5910 O.co2     1 ASP        -0.5688
    102 N          -3.4880   -8.9060    6.4830 N.am      1 PRO        -0.2497
    103 CA         -2.6600   -8.1190    7.4260 C.3       1 PRO         0.1338
    104 C          -1.4220   -8.9820    7.7270 C.2       1 PRO         0.2041
    105 O          -1.4030  -10.1540    7.3920 O.2       1 PRO        -0.3944
    106 CB         -3.5650   -7.9400    8.6520 C.3       1 PRO        -0.0104
    107 CG         -4.5340   -9.0810    8.5850 C.3       1 PRO        -0.0281
    108 CD         -4.7130   -9.4220    7.1230 C.3       1 PRO         0.0369
    109 N          -0.3810   -8.4540    8.3120 N.am      1 GMA        -0.2636
    110 CA          0.8220   -9.3190    8.5580 C.3       1 GMA         0.1321
    111 C           0.4730  -10.5450    9.4210 C.2       1 GMA         0.1993
    112 O           0.6360  -11.6720    9.0000 O.2       1 GMA        -0.3947
    113 CB          1.8430   -8.4440    9.2810 C.3       1 GMA        -0.0008
    114 CG          3.0390   -9.3230    9.6900 C.3       1 GMA         0.0044
    115 CD          3.8900   -9.7030    8.4680 C.2       1 GMA         0.0350
    116 OE1         5.0610   -9.9720    8.6630 O.co2     1 GMA        -0.5690
    117 OE2         3.3650   -9.7340    7.3610 O.co2     1 GMA        -0.5690
    118 N2          0.0350  -10.3710   10.6340 N.am      1 GMA        -0.2990
    119 H1          7.6803   -8.5466  -11.6493 H         1 ACE         0.0467
    120 H2          9.1316   -9.5780  -11.4123 H         1 ACE         0.0467
    121 H3          7.9948   -9.9231  -12.7596 H         1 ACE         0.0467
    122 H4          8.1457   -6.6269  -12.5682 H         1 ASP         0.1884
    123 H5         10.7064   -5.9154  -13.7606 H         1 ASP         0.0819
    124 H6          8.3649   -6.1923  -15.7342 H         1 ASP         0.0478
    125 H7          9.6254   -7.4555  -15.5294 H         1 ASP         0.0478
    126 H8          8.9235   -3.9115  -15.5812 H         1 THR         0.1884
    127 H9          8.3971   -2.0979  -13.2154 H         1 THR         0.0826
    128 H10         8.6742   -0.2486  -14.7022 H         1 THR         0.0639
    129 H11         8.7937   -0.5954  -16.9847 H         1 THR         0.2101
    130 H12        10.8612   -0.7054  -15.7611 H         1 THR         0.0257
    131 H13        10.5901   -2.4681  -15.5471 H         1 THR         0.0257
    132 H14        10.7549   -1.4037  -14.1096 H         1 THR         0.0257
    133 H15         6.4256   -3.9081  -15.5143 H         1 GLU         0.1883
    134 H16         4.0534   -2.4505  -14.3658 H         1 GLU         0.0801
    135 H17         3.4676   -2.3507  -17.0831 H         1 GLU         0.0330
    136 H18         5.2470   -2.1051  -17.0907 H         1 GLU         0.0330
    137 H19         4.4224    0.1028  -16.8517 H         1 GLU         0.0433
    138 H20         4.7685   -0.3741  -15.1548 H         1 GLU         0.0433
    139 H21         4.3666   -5.1028  -13.7233 H         1 VAL         0.1883
    140 H22         2.0170   -6.3137  -14.9894 H         1 VAL         0.0802
    141 H23         4.0986   -6.3602  -16.6534 H         1 VAL         0.0343
    142 H24         5.4324   -8.4485  -16.5367 H         1 VAL         0.0234
    143 H25         4.6748   -8.8444  -14.9569 H         1 VAL         0.0234
    144 H26         5.7271   -7.3967  -15.1107 H         1 VAL         0.0234
    145 H27         1.8840   -7.4436  -17.0417 H         1 VAL         0.0234
    146 H28         2.4479   -8.8916  -16.1407 H         1 VAL         0.0234
    147 H29         3.2405   -8.4297  -17.6850 H         1 VAL         0.0234
    148 H30         1.3753   -6.6601  -12.7216 H         1 PTR         0.1886
    149 H31         2.7496   -9.1204  -11.5643 H         1 PTR         0.0840
    150 H32         2.9279   -8.1796   -9.5241 H         1 PTR         0.0584
    151 H33         1.2086   -7.6602   -9.5535 H         1 PTR         0.0584
    152 H34         4.7035   -6.6559  -10.1769 H         1 PTR         0.0703
    153 H35         0.5848   -5.4274  -10.2028 H         1 PTR         0.0703
    154 H36         5.4133   -4.2750  -10.1473 H         1 PTR         0.0736
    155 H37         1.2915   -3.0504  -10.2297 H         1 PTR         0.0736
    156 H38         0.7101   -9.4948   -9.4800 H         1 GLU         0.1883
    157 H39        -1.9035   -9.7279  -10.9376 H         1 GLU         0.0801
    158 H40        -0.8196  -12.2735   -9.7173 H         1 GLU         0.0330
    159 H41        -0.0851  -11.7313  -11.2642 H         1 GLU         0.0330
    160 H42        -1.9821  -13.1815  -11.7960 H         1 GLU         0.0433
    161 H43        -2.4382  -11.4939  -12.2088 H         1 GLU         0.0433
    162 H44        -0.4049  -11.2565   -7.9591 H         1 SER         0.1884
    163 H45        -2.8565  -10.2570   -6.4549 H         1 SER         0.0823
    164 H46        -1.7981  -12.1619   -4.8516 H         1 SER         0.0606
    165 H47        -1.0397  -12.6768   -6.3964 H         1 SER         0.0606
    166 H48        -3.1773  -12.6642   -7.3080 H         1 SER         0.2097
    167 H49         0.2683   -7.6126   -4.5559 H         1 PRO         0.0802
    168 H50        -0.8731   -5.8280   -5.5417 H         1 PRO         0.0313
    169 H51        -1.5167   -5.5971   -3.8806 H         1 PRO         0.0313
    170 H52        -3.0551   -6.0946   -6.1361 H         1 PRO         0.0287
    171 H53        -3.5712   -6.3974   -4.4424 H         1 PRO         0.0287
    172 H54        -3.6326   -8.6263   -4.8730 H         1 PRO         0.0524
    173 H55        -3.0747   -8.3269   -6.5540 H         1 PRO         0.0524
    174 H56        -1.8453   -6.1028   -2.4346 H         1 PTR         0.1886
    175 H57        -0.8703   -7.8784   -0.1757 H         1 PTR         0.0840
    176 H58        -1.7764   -5.4417    0.8619 H         1 PTR         0.0584
    177 H59        -1.2001   -4.9721   -0.7733 H         1 PTR         0.0584
    178 H60        -0.2412   -6.7078    2.3729 H         1 PTR         0.0703
    179 H61         1.1442   -4.9136   -1.2699 H         1 PTR         0.0703
    180 H62         2.0818   -6.8197    3.2158 H         1 PTR         0.0736
    181 H63         3.4846   -5.0415   -0.4381 H         1 PTR         0.0736
    182 H64        -2.4627   -9.3232    0.2782 H         1 ALA         0.1883
    183 H65        -5.3295   -8.3676    0.3181 H         1 ALA         0.0797
    184 H66        -5.7475  -10.8522    0.1903 H         1 ALA         0.0277
    185 H67        -3.9773  -11.1355    0.3035 H         1 ALA         0.0277
    186 H68        -4.6618  -10.2882   -1.1249 H         1 ALA         0.0277
    187 H69        -2.9154  -10.0239    2.4660 H         1 ASP         0.1884
    188 H70        -5.0199   -9.8794    4.6598 H         1 ASP         0.0819
    189 H71        -3.8890  -11.7928    5.6154 H         1 ASP         0.0478
    190 H72        -2.3974  -11.4826    4.6637 H         1 ASP         0.0478
    191 H73        -2.3618   -7.1454    7.0100 H         1 PRO         0.0802
    192 H74        -4.0960   -6.9779    8.6040 H         1 PRO         0.0313
    193 H75        -2.9748   -7.9873    9.5791 H         1 PRO         0.0313
    194 H76        -5.4978   -8.7848    9.0247 H         1 PRO         0.0287
    195 H77        -4.1340   -9.9491    9.1293 H         1 PRO         0.0287
    196 H78        -4.7988  -10.5097    6.9830 H         1 PRO         0.0524
    197 H79        -5.6061   -8.9279    6.7129 H         1 PRO         0.0524
    198 H80        -0.3846   -7.4936    8.5905 H         1 GMA         0.1883
    199 H81         1.2338   -9.6629    7.5977 H         1 GMA         0.0801
    200 H82         1.3839   -8.0021   10.1776 H         1 GMA         0.0330
    201 H83         2.1847   -7.6416    8.6106 H         1 GMA         0.0330
    202 H84         2.6640  -10.2410   10.1660 H         1 GMA         0.0433
    203 H85         3.6646   -8.7684   10.4049 H         1 GMA         0.0433
    204 H86        -0.1940  -11.1621   11.2012 H         1 GMA         0.1815
    205 H87        -0.0726   -9.4462   10.9989 H         1 GMA         0.1815
@<TRIPOS>BOND
     1    1    2 2  
     2    1    3 1  
     3    1    4 am 
     4    4    5 1  
     5    5    6 1  
     6    5    8 1  
     7    6    7 2  
     8    6   12 am 
     9    8    9 1  
    10    9   10 ar 
    11    9   11 ar 
    12   12   13 1  
    13   13   14 1  
    14   13   16 1  
    15   14   15 2  
    16   14   19 am 
    17   16   17 1  
    18   16   18 1  
    19   19   20 1  
    20   20   21 1  
    21   20   23 1  
    22   21   22 2  
    23   21   28 am 
    24   23   24 1  
    25   24   25 1  
    26   25   26 ar 
    27   25   27 ar 
    28   28   29 1  
    29   29   30 1  
    30   29   32 1  
    31   30   31 2  
    32   30   35 am 
    33   32   33 1  
    34   32   34 1  
    35   35   36 1  
    36   36   37 1  
    37   36   39 1  
    38   37   38 2  
    39   37   51 am 
    40   39   40 1  
    41   40   41 ar 
    42   40   42 ar 
    43   41   43 ar 
    44   42   44 ar 
    45   43   45 ar 
    46   44   45 ar 
    47   45   46 1  
    48   46   47 1  
    49   47   48 ar 
    50   47   49 ar 
    51   47   50 ar 
    52   51   52 1  
    53   52   53 1  
    54   52   55 1  
    55   53   54 2  
    56   53   60 am 
    57   55   56 1  
    58   56   57 1  
    59   57   58 ar 
    60   57   59 ar 
    61   60   61 1  
    62   61   62 1  
    63   61   64 1  
    64   62   63 2  
    65   62   66 am 
    66   64   65 1  
    67   66   67 1  
    68   66   72 1  
    69   67   68 1  
    70   67   70 1  
    71   68   69 2  
    72   68   73 am 
    73   70   71 1  
    74   71   72 1  
    75   73   74 1  
    76   74   75 1  
    77   74   77 1  
    78   75   76 2  
    79   75   89 am 
    80   77   78 1  
    81   78   79 ar 
    82   78   80 ar 
    83   79   81 ar 
    84   80   82 ar 
    85   81   83 ar 
    86   82   83 ar 
    87   83   84 1  
    88   84   85 1  
    89   85   86 ar 
    90   85   87 ar 
    91   85   88 ar 
    92   89   90 1  
    93   90   91 1  
    94   90   93 1  
    95   91   92 2  
    96   91   94 am 
    97   94   95 1  
    98   95   96 1  
    99   95   98 1  
   100   96   97 2  
   101   96  102 am 
   102   98   99 1  
   103   99  100 ar 
   104   99  101 ar 
   105  102  103 1  
   106  102  108 1  
   107  103  104 1  
   108  103  106 1  
   109  104  105 2  
   110  104  109 am 
   111  106  107 1  
   112  107  108 1  
   113  109  110 1  
   114  110  111 1  
   115  110  113 1  
   116  111  112 2  
   117  111  118 am 
   118  113  114 1  
   119  114  115 1  
   120  115  116 ar 
   121  115  117 ar 
   122    3  119 1  
   123    3  120 1  
   124    3  121 1  
   125    4  122 1  
   126    5  123 1  
   127    8  124 1  
   128    8  125 1  
   129   12  126 1  
   130   13  127 1  
   131   16  128 1  
   132   17  129 1  
   133   18  130 1  
   134   18  131 1  
   135   18  132 1  
   136   19  133 1  
   137   20  134 1  
   138   23  135 1  
   139   23  136 1  
   140   24  137 1  
   141   24  138 1  
   142   28  139 1  
   143   29  140 1  
   144   32  141 1  
   145   33  142 1  
   146   33  143 1  
   147   33  144 1  
   148   34  145 1  
   149   34  146 1  
   150   34  147 1  
   151   35  148 1  
   152   36  149 1  
   153   39  150 1  
   154   39  151 1  
   155   41  152 1  
   156   42  153 1  
   157   43  154 1  
   158   44  155 1  
   159   51  156 1  
   160   52  157 1  
   161   55  158 1  
   162   55  159 1  
   163   56  160 1  
   164   56  161 1  
   165   60  162 1  
   166   61  163 1  
   167   64  164 1  
   168   64  165 1  
   169   65  166 1  
   170   67  167 1  
   171   70  168 1  
   172   70  169 1  
   173   71  170 1  
   174   71  171 1  
   175   72  172 1  
   176   72  173 1  
   177   73  174 1  
   178   74  175 1  
   179   77  176 1  
   180   77  177 1  
   181   79  178 1  
   182   80  179 1  
   183   81  180 1  
   184   82  181 1  
   185   89  182 1  
   186   90  183 1  
   187   93  184 1  
   188   93  185 1  
   189   93  186 1  
   190   94  187 1  
   191   95  188 1  
   192   98  189 1  
   193   98  190 1  
   194  103  191 1  
   195  106  192 1  
   196  106  193 1  
   197  107  194 1  
   198  107  195 1  
   199  108  196 1  
   200  108  197 1  
   201  109  198 1  
   202  110  199 1  
   203  113  200 1  
   204  113  201 1  
   205  114  202 1  
   206  114  203 1  
   207  118  204 1  
   208  118  205 1  
@<TRIPOS>SUBSTRUCTURE
     1 ACE         1

