3ebi_ligand
  -I-interpret- 

 50 51  0  0  0  0  0  0  0  0999 V2000
   12.9260   10.5710   10.5660 O   0  0  0  0  0
   13.6170   11.6920   11.2970 P   0  0  0  0  0
   13.8750   12.8620   10.3840 O   0  0  0  0  0
   12.3310   11.9720   12.5890 C   0  0  0  0  0
   12.8020   11.6650   14.0460 C   0  0  0  0  0
   12.8560   12.8630   14.9980 C   0  0  0  0  0
   12.8450   12.4720   16.4730 C   0  0  0  0  0
   13.9020   12.8630   17.3000 C   0  0  0  0  0
   13.9100   12.5180   18.6570 C   0  0  0  0  0
   12.8490   11.7860   19.1960 C   0  0  0  0  0
   11.7880   11.3930   18.3840 C   0  0  0  0  0
   11.7880   11.7460   17.0280 C   0  0  0  0  0
   11.5970   13.2030   12.3940 N   0  3  0  0  0
   15.1690   11.1320   12.0590 C   0  0  0  0  0
   15.9310   10.0830   11.2430 C   0  0  0  0  0
   16.4800    9.0580   12.1940 C   0  0  0  0  0
   15.8230    8.0170   12.4010 O   0  0  0  0  0
   17.5790    9.2750   12.7460 O   0  0  0  0  0
   17.1040   10.7140   10.4850 C   0  0  0  0  0
   17.6340    9.7710    9.4190 C   0  0  0  0  0
   17.0480    9.7490    8.1560 C   0  0  0  0  0
   17.5260    8.8850    7.1670 C   0  0  0  0  0
   18.5940    8.0320    7.4360 C   0  0  0  0  0
   19.1800    8.0550    8.6990 C   0  0  0  0  0
   18.7110    8.9240    9.6860 C   0  0  0  0  0
   14.3150   13.5592   10.8758 H   0  0  0  0  0
   11.5763   11.2000   12.4391 H   0  0  0  0  0
   13.8224   11.2903   13.9661 H   0  0  0  0  0
   12.0719   10.9726   14.4651 H   0  0  0  0  0
   11.9679   13.4674   14.8134 H   0  0  0  0  0
   13.7904   13.3907   14.8067 H   0  0  0  0  0
   14.7272   13.4415   16.8848 H   0  0  0  0  0
   14.7428   12.8201   19.2920 H   0  0  0  0  0
   12.8517   11.5221   20.2536 H   0  0  0  0  0
   10.9632   10.8148   18.8005 H   0  0  0  0  0
   10.9505   11.4497   16.3964 H   0  0  0  0  0
   11.3442   13.2945   11.4101 H   0  0  0  0  0
   10.7510   13.1869   12.9635 H   0  0  0  0  0
   12.1800   13.9927   12.6714 H   0  0  0  0  0
   14.9096   10.6702   13.0117 H   0  0  0  0  0
   15.8170   12.0043   12.1439 H   0  0  0  0  0
   15.2484    9.6368   10.5198 H   0  0  0  0  0
   17.9193   10.1245   12.4559 H   0  0  0  0  0
   17.9046   10.9259   11.1936 H   0  0  0  0  0
   16.7573   11.6277   10.0023 H   0  0  0  0  0
   16.2100   10.4108    7.9370 H   0  0  0  0  0
   17.0612    8.8785    6.1811 H   0  0  0  0  0
   18.9664    7.3549    6.6673 H   0  0  0  0  0
   20.0133    7.3878    8.9193 H   0  0  0  0  0
   19.1866    8.9411   10.6666 H   0  0  0  0  0
  1  2  2  0  0  0
  2  3  1  0  0  0
  2  4  1  0  0  0
  2 14  1  0  0  0
  4  5  1  0  0  0
  4 13  1  0  0  0
  5  6  1  0  0  0
  6  7  1  0  0  0
  7  8  4  0  0  0
  7 12  4  0  0  0
  8  9  4  0  0  0
  9 10  4  0  0  0
 10 11  4  0  0  0
 11 12  4  0  0  0
 14 15  1  0  0  0
 15 16  1  0  0  0
 15 19  1  0  0  0
 16 17  2  0  0  0
 16 18  1  0  0  0
 19 20  1  0  0  0
 20 21  4  0  0  0
 20 25  4  0  0  0
 21 22  4  0  0  0
 22 23  4  0  0  0
 23 24  4  0  0  0
 24 25  4  0  0  0
  3 26  1  0  0  0
  4 27  1  0  0  0
  5 28  1  0  0  0
  5 29  1  0  0  0
  6 30  1  0  0  0
  6 31  1  0  0  0
  8 32  1  0  0  0
  9 33  1  0  0  0
 10 34  1  0  0  0
 11 35  1  0  0  0
 12 36  1  0  0  0
 13 37  1  0  0  0
 13 38  1  0  0  0
 13 39  1  0  0  0
 14 40  1  0  0  0
 14 41  1  0  0  0
 15 42  1  0  0  0
 18 43  1  0  0  0
 19 44  1  0  0  0
 19 45  1  0  0  0
 21 46  1  0  0  0
 22 47  1  0  0  0
 23 48  1  0  0  0
 24 49  1  0  0  0
 25 50  1  0  0  0
M  END
$$$$
