3tfk_ligand
  -I-interpret- 

143143  0  0  0  0  0  0  0  0999 V2000
   15.0110  -30.4440  -16.0570 N   0  3  0  0  0
   15.3540  -30.7420  -14.6710 C   0  0  0  0  0
   15.8660  -32.1780  -14.5160 C   0  0  0  0  0
   15.5230  -33.0630  -15.3030 O   0  0  0  0  0
   14.1530  -30.4830  -13.7550 C   0  0  0  0  0
   14.3950  -30.8040  -12.2830 C   0  0  0  0  0
   15.5540  -30.0270  -11.6850 C   0  0  0  0  0
   15.5280  -28.7980  -11.6160 O   0  0  0  0  0
   16.5790  -30.7450  -11.2460 N   0  0  0  0  0
   16.6860  -32.3960  -13.4930 N   0  0  0  0  0
   17.3450  -33.6790  -13.2870 C   0  0  0  0  0
   17.1690  -34.2130  -11.8630 C   0  0  0  0  0
   16.4210  -33.6530  -11.0660 O   0  0  0  0  0
   18.8280  -33.5580  -13.6360 C   0  0  0  0  0
   19.4370  -32.2050  -13.2680 C   0  0  0  0  0
   19.4730  -32.0480  -11.7650 C   0  0  0  0  0
   20.8290  -32.0370  -13.8480 C   0  0  0  0  0
   17.8770  -35.2950  -11.5570 N   0  0  0  0  0
   17.7540  -35.9880  -10.2730 C   0  0  0  0  0
   18.0870  -35.1450   -9.0500 C   0  0  0  0  0
   18.6520  -34.0620   -9.1610 O   0  0  0  0  0
   18.6270  -37.2400  -10.2680 C   0  0  0  0  0
   19.0820  -37.5290   -8.9610 O   0  0  0  0  0
   17.7170  -35.6590   -7.8820 N   0  0  0  0  0
   18.0250  -35.0120   -6.6140 C   0  0  0  0  0
   19.3040  -35.6210   -6.0490 C   0  0  0  0  0
   19.7110  -36.7080   -6.4610 O   0  0  0  0  0
   16.8750  -35.2090   -5.6200 C   0  0  0  0  0
   16.8860  -34.1830   -4.5000 C   0  0  0  0  0
   17.8640  -33.4120   -4.4060 O   0  0  0  0  0
   15.9180  -34.1500   -3.7100 O   0  0  0  0  0
   19.9320  -34.9170   -5.1130 N   0  0  0  0  0
   21.0920  -35.4350   -4.3940 C   0  0  0  0  0
   20.9270  -36.9190   -4.0670 C   0  0  0  0  0
   19.8950  -37.3290   -3.5310 O   0  0  0  0  0
   21.3140  -34.6690   -3.0720 C   0  0  0  0  0
   22.1370  -35.4990   -2.1130 C   0  0  0  0  0
   21.9760  -33.3220   -3.3270 C   0  0  0  0  0
   21.9410  -37.7330   -4.3950 N   0  0  0  0  0
   21.8930  -39.1640   -4.0730 C   0  0  0  0  0
   22.0210  -39.3550   -2.5690 C   0  0  0  0  0
   22.5760  -38.4860   -1.8990 O   0  0  0  0  0
   23.1380  -39.7280   -4.7720 C   0  0  0  0  0
   23.6040  -38.6510   -5.7130 C   0  0  0  0  0
   23.1950  -37.3630   -5.0700 C   0  0  0  0  0
   21.5170  -40.4610   -2.0370 N   0  0  0  0  0
   21.6980  -40.7200   -0.6150 C   0  0  0  0  0
   23.1760  -40.9710   -0.3380 C   0  0  0  0  0
   23.8650  -41.6010   -1.1400 O   0  0  0  0  0
   20.8430  -41.9000   -0.1490 C   0  0  0  0  0
   19.3480  -41.6670   -0.2980 C   0  0  0  0  0
   18.3500  -42.6450    0.8420 S   0  0  0  0  0
   19.0800  -44.2630    0.6290 C   0  0  0  0  0
   23.6600  -40.4620    0.7910 N   0  0  0  0  0
   25.0720  -40.5880    1.1490 C   0  0  0  0  0
   25.6070  -42.0100    1.0450 C   0  0  0  0  0
   24.8860  -42.9820    1.2690 O   0  0  0  0  0
   25.3230  -40.0450    2.5520 C   0  0  0  0  0
   25.2860  -38.5440    2.5970 C   0  0  0  0  0
   25.3710  -37.9290    1.5140 O   0  0  0  0  0
   25.1800  -37.9740    3.7030 O   0  0  0  0  0
   26.8850  -42.1170    0.7000 N   0  0  0  0  0
   27.5530  -43.4050    0.6210 C   0  0  0  0  0
   27.8990  -43.8790    2.0260 C   0  0  0  0  0
   28.0690  -43.0610    2.9320 O   0  0  0  0  0
   28.8180  -43.2870   -0.2270 C   0  0  0  0  0
   28.5980  -42.7920   -1.6590 C   0  0  0  0  0
   29.8890  -42.2550   -2.2550 C   0  0  0  0  0
   28.0110  -43.8950   -2.5270 C   0  0  0  0  0
   28.0080  -45.0770    2.2910 O   0  0  0  0  0
   15.8202  -30.6215  -16.6520 H   0  0  0  0  0
   14.2355  -31.0385  -16.3495 H   0  0  0  0  0
   14.7382  -29.4643  -16.1354 H   0  0  0  0  0
   16.1636  -30.0754  -14.3738 H   0  0  0  0  0
   13.3480  -31.1349  -14.0943 H   0  0  0  0  0
   13.9309  -29.4176  -13.8157 H   0  0  0  0  0
   14.6360  -31.8646  -12.2112 H   0  0  0  0  0
   13.4947  -30.5306  -11.7327 H   0  0  0  0  0
   17.3870  -30.2803  -10.8317 H   0  0  0  0  0
   16.5594  -31.7619  -11.3226 H   0  0  0  0  0
   16.8597  -31.6403  -12.8303 H   0  0  0  0  0
   16.8684  -34.4014  -13.9496 H   0  0  0  0  0
   18.9193  -33.6738  -14.7160 H   0  0  0  0  0
   19.3601  -34.3206  -13.0673 H   0  0  0  0  0
   18.8070  -31.4269  -13.6989 H   0  0  0  0  0
   18.4585  -32.1053  -11.3706 H   0  0  0  0  0
   20.0780  -32.8447  -11.3321 H   0  0  0  0  0
   19.9084  -31.0812  -11.5123 H   0  0  0  0  0
   21.4793  -32.8220  -13.4619 H   0  0  0  0  0
   20.7793  -32.1064  -14.9347 H   0  0  0  0  0
   21.2249  -31.0624  -13.5626 H   0  0  0  0  0
   18.5348  -35.6587  -12.2465 H   0  0  0  0  0
   16.6965  -36.2380  -10.1881 H   0  0  0  0  0
   19.4903  -37.0693  -10.9112 H   0  0  0  0  0
   18.0363  -38.0820  -10.6289 H   0  0  0  0  0
   19.6280  -38.3184   -8.9807 H   0  0  0  0  0
   17.1990  -36.5376   -7.8730 H   0  0  0  0  0
   18.1604  -33.9428   -6.7772 H   0  0  0  0  0
   16.9862  -36.1959   -5.1709 H   0  0  0  0  0
   15.9381  -35.0984   -6.1660 H   0  0  0  0  0
   15.2799  -34.8225   -3.9593 H   0  0  0  0  0
   19.5915  -33.9819   -4.8891 H   0  0  0  0  0
   21.9525  -35.2991   -5.0491 H   0  0  0  0  0
   20.3407  -34.4822   -2.6182 H   0  0  0  0  0
   21.6138  -36.4312   -1.9000 H   0  0  0  0  0
   23.1050  -35.7188   -2.5632 H   0  0  0  0  0
   22.2834  -34.9432   -1.1868 H   0  0  0  0  0
   22.9417  -33.4784   -3.8077 H   0  0  0  0  0
   21.3383  -32.7223   -3.9765 H   0  0  0  0  0
   22.1203  -32.8042   -2.3788 H   0  0  0  0  0
   20.9666  -39.6454   -4.3863 H   0  0  0  0  0
   22.9087  -40.6496   -5.3070 H   0  0  0  0  0
   23.9136  -39.9873   -4.0514 H   0  0  0  0  0
   23.1623  -38.7638   -6.7031 H   0  0  0  0  0
   24.6812  -38.6958   -5.8731 H   0  0  0  0  0
   23.9476  -36.9662   -4.3886 H   0  0  0  0  0
   23.0735  -36.5476   -5.7831 H   0  0  0  0  0
   21.0066  -41.1249   -2.6193 H   0  0  0  0  0
   21.3684  -39.8474   -0.0511 H   0  0  0  0  0
   21.0455  -42.0509    0.9113 H   0  0  0  0  0
   21.1031  -42.7568   -0.7705 H   0  0  0  0  0
   19.0702  -41.9599   -1.3105 H   0  0  0  0  0
   19.1572  -40.6159   -0.0814 H   0  0  0  0  0
   18.9807  -44.5708   -0.4119 H   0  0  0  0  0
   20.1355  -44.2223    0.8981 H   0  0  0  0  0
   18.5673  -44.9789    1.2714 H   0  0  0  0  0
   23.0293  -39.9705    1.4243 H   0  0  0  0  0
   25.6161  -39.9934    0.4151 H   0  0  0  0  0
   26.3149  -40.3686    2.8676 H   0  0  0  0  0
   24.5373  -40.4225    3.2065 H   0  0  0  0  0
   25.1297  -38.6340    4.3983 H   0  0  0  0  0
   27.4126  -41.2711    0.4844 H   0  0  0  0  0
   26.8898  -44.1313    0.1512 H   0  0  0  0  0
   27.9545  -42.1731    2.5855 H   0  0  0  0  0
   29.2386  -44.2897   -0.3033 H   0  0  0  0  0
   29.4567  -42.5525    0.2637 H   0  0  0  0  0
   27.8812  -41.9715   -1.6267 H   0  0  0  0  0
   30.2493  -41.4237   -1.6490 H   0  0  0  0  0
   30.6379  -43.0469   -2.2697 H   0  0  0  0  0
   29.7024  -41.9106   -3.2722 H   0  0  0  0  0
   28.6965  -44.7422   -2.5486 H   0  0  0  0  0
   27.0537  -44.2110   -2.1126 H   0  0  0  0  0
   27.8638  -43.5192   -3.5395 H   0  0  0  0  0
  1  2  1  0  0  0
  2  3  1  0  0  0
  2  5  1  0  0  0
  3  4  2  0  0  0
  3 10  1  0  0  0
  5  6  1  0  0  0
  6  7  1  0  0  0
  7  8  2  0  0  0
  7  9  1  0  0  0
 10 11  1  0  0  0
 11 12  1  0  0  0
 11 14  1  0  0  0
 12 13  2  0  0  0
 12 18  1  0  0  0
 14 15  1  0  0  0
 15 16  1  0  0  0
 15 17  1  0  0  0
 18 19  1  0  0  0
 19 20  1  0  0  0
 19 22  1  0  0  0
 20 21  2  0  0  0
 20 24  1  0  0  0
 22 23  1  0  0  0
 24 25  1  0  0  0
 25 26  1  0  0  0
 25 28  1  0  0  0
 26 27  2  0  0  0
 26 32  1  0  0  0
 28 29  1  0  0  0
 29 30  2  0  0  0
 29 31  1  0  0  0
 32 33  1  0  0  0
 33 34  1  0  0  0
 33 36  1  0  0  0
 34 35  2  0  0  0
 34 39  1  0  0  0
 36 37  1  0  0  0
 36 38  1  0  0  0
 39 40  1  0  0  0
 39 45  1  0  0  0
 40 41  1  0  0  0
 40 43  1  0  0  0
 41 42  2  0  0  0
 41 46  1  0  0  0
 43 44  1  0  0  0
 44 45  1  0  0  0
 46 47  1  0  0  0
 47 48  1  0  0  0
 47 50  1  0  0  0
 48 49  2  0  0  0
 48 54  1  0  0  0
 50 51  1  0  0  0
 51 52  1  0  0  0
 52 53  1  0  0  0
 54 55  1  0  0  0
 55 56  1  0  0  0
 55 58  1  0  0  0
 56 57  2  0  0  0
 56 62  1  0  0  0
 58 59  1  0  0  0
 59 60  2  0  0  0
 59 61  1  0  0  0
 62 63  1  0  0  0
 63 64  1  0  0  0
 63 66  1  0  0  0
 64 65  1  0  0  0
 64 70  2  0  0  0
 66 67  1  0  0  0
 67 68  1  0  0  0
 67 69  1  0  0  0
  1 71  1  0  0  0
  1 72  1  0  0  0
  1 73  1  0  0  0
  2 74  1  0  0  0
  5 75  1  0  0  0
  5 76  1  0  0  0
  6 77  1  0  0  0
  6 78  1  0  0  0
  9 79  1  0  0  0
  9 80  1  0  0  0
 10 81  1  0  0  0
 11 82  1  0  0  0
 14 83  1  0  0  0
 14 84  1  0  0  0
 15 85  1  0  0  0
 16 86  1  0  0  0
 16 87  1  0  0  0
 16 88  1  0  0  0
 17 89  1  0  0  0
 17 90  1  0  0  0
 17 91  1  0  0  0
 18 92  1  0  0  0
 19 93  1  0  0  0
 22 94  1  0  0  0
 22 95  1  0  0  0
 23 96  1  0  0  0
 24 97  1  0  0  0
 25 98  1  0  0  0
 28 99  1  0  0  0
 28100  1  0  0  0
 31101  1  0  0  0
 32102  1  0  0  0
 33103  1  0  0  0
 36104  1  0  0  0
 37105  1  0  0  0
 37106  1  0  0  0
 37107  1  0  0  0
 38108  1  0  0  0
 38109  1  0  0  0
 38110  1  0  0  0
 40111  1  0  0  0
 43112  1  0  0  0
 43113  1  0  0  0
 44114  1  0  0  0
 44115  1  0  0  0
 45116  1  0  0  0
 45117  1  0  0  0
 46118  1  0  0  0
 47119  1  0  0  0
 50120  1  0  0  0
 50121  1  0  0  0
 51122  1  0  0  0
 51123  1  0  0  0
 53124  1  0  0  0
 53125  1  0  0  0
 53126  1  0  0  0
 54127  1  0  0  0
 55128  1  0  0  0
 58129  1  0  0  0
 58130  1  0  0  0
 61131  1  0  0  0
 62132  1  0  0  0
 63133  1  0  0  0
 65134  1  0  0  0
 66135  1  0  0  0
 66136  1  0  0  0
 67137  1  0  0  0
 68138  1  0  0  0
 68139  1  0  0  0
 68140  1  0  0  0
 69141  1  0  0  0
 69142  1  0  0  0
 69143  1  0  0  0
M  END
$$$$
