### 
### Created by X-TOOL on Mon Sep 10 21:13:08 2018
### 

@<TRIPOS>MOLECULE
3tfk_ligand
  140   140     1     0     0
SMALL
GAST_HUCK


@<TRIPOS>ATOM
      1 N          15.0110  -30.4440  -16.0570 N.4       1 GLN         0.2380
      2 CA         15.3540  -30.7420  -14.6710 C.3       1 GLN         0.0671
      3 C          15.8660  -32.1780  -14.5160 C.2       1 GLN         0.2269
      4 O          15.5230  -33.0630  -15.3030 O.2       1 GLN        -0.3907
      5 CB         14.1530  -30.4830  -13.7550 C.3       1 GLN         0.0247
      6 CG         14.3950  -30.8040  -12.2830 C.3       1 GLN         0.0443
      7 CD         15.5540  -30.0270  -11.6850 C.2       1 GLN         0.1738
      8 OE1        15.5280  -28.7980  -11.6160 O.2       1 GLN        -0.3973
      9 NE2        16.5790  -30.7450  -11.2460 N.am      1 GLN        -0.3009
     10 N          16.6860  -32.3960  -13.4930 N.am      1 LEU        -0.2610
     11 CA         17.3450  -33.6790  -13.2870 C.3       1 LEU         0.1313
     12 C          17.1690  -34.2130  -11.8630 C.2       1 LEU         0.2040
     13 O          16.4210  -33.6530  -11.0660 O.2       1 LEU        -0.3944
     14 CB         18.8280  -33.5580  -13.6360 C.3       1 LEU        -0.0101
     15 CG         19.4370  -32.2050  -13.2680 C.3       1 LEU        -0.0425
     16 CD1        19.4730  -32.0480  -11.7650 C.3       1 LEU        -0.0625
     17 CD2        20.8290  -32.0370  -13.8480 C.3       1 LEU        -0.0625
     18 N          17.8770  -35.2950  -11.5570 N.am      1 SER        -0.2616
     19 CA         17.7540  -35.9880  -10.2730 C.3       1 SER         0.1539
     20 C          18.0870  -35.1450   -9.0500 C.2       1 SER         0.2063
     21 O          18.6520  -34.0620   -9.1610 O.2       1 SER        -0.3943
     22 CB         18.6270  -37.2400  -10.2680 C.3       1 SER         0.0843
     23 OG         19.0820  -37.5290   -8.9610 O.3       1 SER        -0.3903
     24 N          17.7170  -35.6590   -7.8820 N.am      1 ASP        -0.2621
     25 CA         18.0250  -35.0120   -6.6140 C.3       1 ASP         0.1423
     26 C          19.3040  -35.6210   -6.0490 C.2       1 ASP         0.2056
     27 O          19.7110  -36.7080   -6.4610 O.2       1 ASP        -0.3943
     28 CB         16.8750  -35.2090   -5.6200 C.3       1 ASP         0.0406
     29 CG         16.8860  -34.1830   -4.5000 C.2       1 ASP         0.0393
     30 OD1        17.8640  -33.4120   -4.4060 O.co2     1 ASP        -0.5688
     31 OD2        15.9180  -34.1500   -3.7100 O.co2     1 ASP        -0.5688
     32 N          19.9320  -34.9170   -5.1130 N.am      1 VAL        -0.2634
     33 CA         21.0920  -35.4350   -4.3940 C.3       1 VAL         0.1334
     34 C          20.9270  -36.9190   -4.0670 C.2       1 VAL         0.2066
     35 O          19.8950  -37.3290   -3.5310 O.2       1 VAL        -0.3942
     36 CB         21.3140  -34.6690   -3.0720 C.3       1 VAL        -0.0062
     37 CG1        22.1370  -35.4990   -2.1130 C.3       1 VAL        -0.0584
     38 CG2        21.9760  -33.3220   -3.3270 C.3       1 VAL        -0.0584
     39 N          21.9410  -37.7330   -4.3950 N.am      1 PRO        -0.2498
     40 CA         21.8930  -39.1640   -4.0730 C.3       1 PRO         0.1338
     41 C          22.0210  -39.3550   -2.5690 C.2       1 PRO         0.2041
     42 O          22.5760  -38.4860   -1.8990 O.2       1 PRO        -0.3944
     43 CB         23.1380  -39.7280   -4.7720 C.3       1 PRO        -0.0104
     44 CG         23.6040  -38.6510   -5.7130 C.3       1 PRO        -0.0281
     45 CD         23.1950  -37.3630   -5.0700 C.3       1 PRO         0.0369
     46 N          21.5170  -40.4610   -2.0370 N.am      1 MET        -0.2637
     47 CA         21.6980  -40.7200   -0.6150 C.3       1 MET         0.1317
     48 C          23.1760  -40.9710   -0.3380 C.2       1 MET         0.2040
     49 O          23.8650  -41.6010   -1.1400 O.2       1 MET        -0.3944
     50 CB         20.8430  -41.9000   -0.1490 C.3       1 MET        -0.0034
     51 CG         19.3480  -41.6670   -0.2980 C.3       1 MET        -0.0024
     52 SD         18.3500  -42.6450    0.8420 S.3       1 MET        -0.1639
     53 CE         19.0800  -44.2630    0.6290 C.3       1 MET        -0.0181
     54 N          23.6600  -40.4620    0.7910 N.am      1 ASP        -0.2622
     55 CA         25.0720  -40.5880    1.1490 C.3       1 ASP         0.1423
     56 C          25.6070  -42.0100    1.0450 C.2       1 ASP         0.2050
     57 O          24.8860  -42.9820    1.2690 O.2       1 ASP        -0.3943
     58 CB         25.3230  -40.0450    2.5520 C.3       1 ASP         0.0406
     59 CG         25.2860  -38.5440    2.5970 C.2       1 ASP         0.0393
     60 OD1        25.3710  -37.9290    1.5140 O.co2     1 ASP        -0.5688
     61 OD2        25.1800  -37.9740    3.7030 O.co2     1 ASP        -0.5688
     62 N          26.8850  -42.1170    0.7000 N.am      1 LEU        -0.2694
     63 CA         27.5530  -43.4050    0.6210 C.3       1 LEU         0.0946
     64 C          27.8990  -43.8790    2.0260 C.2       1 LEU         0.0601
     65 O          28.0690  -43.0610    2.9320 O.co2     1 LEU        -0.5666
     66 CB         28.8180  -43.2870   -0.2270 C.3       1 LEU        -0.0156
     67 CG         28.5980  -42.7920   -1.6590 C.3       1 LEU        -0.0431
     68 CD1        29.8890  -42.2550   -2.2550 C.3       1 LEU        -0.0625
     69 CD2        28.0110  -43.8950   -2.5270 C.3       1 LEU        -0.0625
     70 OXT        28.0080  -45.0770    2.2910 O.co2     1 LEU        -0.5666
     71 H          15.8202  -30.6215  -16.6520 H         1 GLN         0.2015
     72 H          14.2355  -31.0385  -16.3495 H         1 GLN         0.2015
     73 H          14.7382  -29.4643  -16.1354 H         1 GLN         0.2015
     74 H          16.1636  -30.0754  -14.3738 H         1 GLN         0.1100
     75 H          13.3480  -31.1349  -14.0943 H         1 GLN         0.0370
     76 H          13.9309  -29.4176  -13.8157 H         1 GLN         0.0370
     77 H          14.6360  -31.8646  -12.2112 H         1 GLN         0.0506
     78 H          13.4947  -30.5306  -11.7327 H         1 GLN         0.0506
     79 H          17.3870  -30.2803  -10.8317 H         1 GLN         0.1814
     80 H          16.5594  -31.7619  -11.3226 H         1 GLN         0.1814
     81 H          16.8597  -31.6403  -12.8303 H         1 LEU         0.1884
     82 H          16.8684  -34.4014  -13.9496 H         1 LEU         0.0800
     83 H          18.9193  -33.6738  -14.7160 H         1 LEU         0.0315
     84 H          19.3601  -34.3206  -13.0673 H         1 LEU         0.0315
     85 H          18.8070  -31.4269  -13.6989 H         1 LEU         0.0298
     86 H          18.4585  -32.1053  -11.3706 H         1 LEU         0.0232
     87 H          20.0780  -32.8447  -11.3321 H         1 LEU         0.0232
     88 H          19.9084  -31.0812  -11.5123 H         1 LEU         0.0232
     89 H          21.4793  -32.8220  -13.4619 H         1 LEU         0.0232
     90 H          20.7793  -32.1064  -14.9347 H         1 LEU         0.0232
     91 H          21.2249  -31.0624  -13.5626 H         1 LEU         0.0232
     92 H          18.5348  -35.6587  -12.2465 H         1 SER         0.1884
     93 H          16.6965  -36.2380  -10.1881 H         1 SER         0.0823
     94 H          19.4903  -37.0693  -10.9112 H         1 SER         0.0606
     95 H          18.0363  -38.0820  -10.6289 H         1 SER         0.0606
     96 H          19.5984  -36.7895   -8.6323 H         1 SER         0.2097
     97 H          17.1990  -36.5376   -7.8730 H         1 ASP         0.1884
     98 H          18.1604  -33.9428   -6.7772 H         1 ASP         0.0819
     99 H          16.9862  -36.1959   -5.1709 H         1 ASP         0.0478
    100 H          15.9381  -35.0984   -6.1660 H         1 ASP         0.0478
    101 H          19.5915  -33.9819   -4.8891 H         1 VAL         0.1883
    102 H          21.9525  -35.2991   -5.0491 H         1 VAL         0.0803
    103 H          20.3407  -34.4822   -2.6182 H         1 VAL         0.0343
    104 H          21.6138  -36.4312   -1.9000 H         1 VAL         0.0234
    105 H          23.1050  -35.7188   -2.5632 H         1 VAL         0.0234
    106 H          22.2834  -34.9432   -1.1868 H         1 VAL         0.0234
    107 H          22.9417  -33.4784   -3.8077 H         1 VAL         0.0234
    108 H          21.3383  -32.7223   -3.9765 H         1 VAL         0.0234
    109 H          22.1203  -32.8042   -2.3788 H         1 VAL         0.0234
    110 H          20.9666  -39.6454   -4.3863 H         1 PRO         0.0802
    111 H          22.9087  -40.6496   -5.3070 H         1 PRO         0.0313
    112 H          23.9136  -39.9873   -4.0514 H         1 PRO         0.0313
    113 H          23.1623  -38.7638   -6.7031 H         1 PRO         0.0287
    114 H          24.6812  -38.6958   -5.8731 H         1 PRO         0.0287
    115 H          23.9476  -36.9662   -4.3886 H         1 PRO         0.0524
    116 H          23.0735  -36.5476   -5.7831 H         1 PRO         0.0524
    117 H          21.0066  -41.1249   -2.6193 H         1 MET         0.1883
    118 H          21.3684  -39.8474   -0.0511 H         1 MET         0.0800
    119 H          21.0455  -42.0509    0.9113 H         1 MET         0.0320
    120 H          21.1031  -42.7568   -0.7705 H         1 MET         0.0320
    121 H          19.0702  -41.9599   -1.3105 H         1 MET         0.0378
    122 H          19.1572  -40.6159   -0.0814 H         1 MET         0.0378
    123 H          18.9807  -44.5708   -0.4119 H         1 MET         0.0340
    124 H          20.1355  -44.2223    0.8981 H         1 MET         0.0340
    125 H          18.5673  -44.9789    1.2714 H         1 MET         0.0340
    126 H          23.0293  -39.9705    1.4243 H         1 ASP         0.1884
    127 H          25.6161  -39.9934    0.4151 H         1 ASP         0.0819
    128 H          26.3149  -40.3686    2.8676 H         1 ASP         0.0478
    129 H          24.5373  -40.4225    3.2065 H         1 ASP         0.0478
    130 H          27.4126  -41.2711    0.4844 H         1 LEU         0.1875
    131 H          26.8898  -44.1313    0.1512 H         1 LEU         0.0726
    132 H          29.2386  -44.2897   -0.3033 H         1 LEU         0.0308
    133 H          29.4567  -42.5525    0.2637 H         1 LEU         0.0308
    134 H          27.8812  -41.9715   -1.6267 H         1 LEU         0.0297
    135 H          30.2493  -41.4237   -1.6490 H         1 LEU         0.0232
    136 H          30.6379  -43.0469   -2.2697 H         1 LEU         0.0232
    137 H          29.7024  -41.9106   -3.2722 H         1 LEU         0.0232
    138 H          28.6965  -44.7422   -2.5486 H         1 LEU         0.0232
    139 H          27.0537  -44.2110   -2.1126 H         1 LEU         0.0232
    140 H          27.8638  -43.5192   -3.5395 H         1 LEU         0.0232
@<TRIPOS>BOND
     1    1    2 1  
     2    2    3 1  
     3    2    5 1  
     4    3    4 2  
     5    3   10 am 
     6    5    6 1  
     7    6    7 1  
     8    7    8 2  
     9    7    9 am 
    10   10   11 1  
    11   11   12 1  
    12   11   14 1  
    13   12   13 2  
    14   12   18 am 
    15   14   15 1  
    16   15   16 1  
    17   15   17 1  
    18   18   19 1  
    19   19   20 1  
    20   19   22 1  
    21   20   21 2  
    22   20   24 am 
    23   22   23 1  
    24   24   25 1  
    25   25   26 1  
    26   25   28 1  
    27   26   27 2  
    28   26   32 am 
    29   28   29 1  
    30   29   30 ar 
    31   29   31 ar 
    32   32   33 1  
    33   33   34 1  
    34   33   36 1  
    35   34   35 2  
    36   34   39 am 
    37   36   37 1  
    38   36   38 1  
    39   39   40 1  
    40   39   45 1  
    41   40   41 1  
    42   40   43 1  
    43   41   42 2  
    44   41   46 am 
    45   43   44 1  
    46   44   45 1  
    47   46   47 1  
    48   47   48 1  
    49   47   50 1  
    50   48   49 2  
    51   48   54 am 
    52   50   51 1  
    53   51   52 1  
    54   52   53 1  
    55   54   55 1  
    56   55   56 1  
    57   55   58 1  
    58   56   57 2  
    59   56   62 am 
    60   58   59 1  
    61   59   60 ar 
    62   59   61 ar 
    63   62   63 1  
    64   63   64 1  
    65   63   66 1  
    66   64   65 ar 
    67   64   70 ar 
    68   66   67 1  
    69   67   68 1  
    70   67   69 1  
    71    1   71 1  
    72    1   72 1  
    73    1   73 1  
    74    2   74 1  
    75    5   75 1  
    76    5   76 1  
    77    6   77 1  
    78    6   78 1  
    79    9   79 1  
    80    9   80 1  
    81   10   81 1  
    82   11   82 1  
    83   14   83 1  
    84   14   84 1  
    85   15   85 1  
    86   16   86 1  
    87   16   87 1  
    88   16   88 1  
    89   17   89 1  
    90   17   90 1  
    91   17   91 1  
    92   18   92 1  
    93   19   93 1  
    94   22   94 1  
    95   22   95 1  
    96   23   96 1  
    97   24   97 1  
    98   25   98 1  
    99   28   99 1  
   100   28  100 1  
   101   32  101 1  
   102   33  102 1  
   103   36  103 1  
   104   37  104 1  
   105   37  105 1  
   106   37  106 1  
   107   38  107 1  
   108   38  108 1  
   109   38  109 1  
   110   40  110 1  
   111   43  111 1  
   112   43  112 1  
   113   44  113 1  
   114   44  114 1  
   115   45  115 1  
   116   45  116 1  
   117   46  117 1  
   118   47  118 1  
   119   50  119 1  
   120   50  120 1  
   121   51  121 1  
   122   51  122 1  
   123   53  123 1  
   124   53  124 1  
   125   53  125 1  
   126   54  126 1  
   127   55  127 1  
   128   58  128 1  
   129   58  129 1  
   130   62  130 1  
   131   63  131 1  
   132   66  132 1  
   133   66  133 1  
   134   67  134 1  
   135   68  135 1  
   136   68  136 1  
   137   68  137 1  
   138   69  138 1  
   139   69  139 1  
   140   69  140 1  
@<TRIPOS>SUBSTRUCTURE
     1 GLN         1

