4nyj_ligand
  -I-interpret- 

 44 46  0  0  0  0  0  0  0  0999 V2000
  -29.7330   33.1380  -64.1800 C   0  0  0  0  0
  -30.0160   34.0350  -63.2100 C   0  0  0  0  0
  -30.2500   35.4150  -63.5360 C   0  0  0  0  0
  -30.1940   35.8180  -64.8360 C   0  0  0  0  0
  -29.9020   34.8920  -65.8610 C   0  0  0  0  0
  -29.6670   33.5640  -65.5530 C   0  0  0  0  0
  -29.4110   32.8890  -66.7180 N   0  0  0  0  0
  -29.4680   33.7260  -67.7600 C   0  0  0  0  0
  -29.7700   35.0190  -67.3100 C   0  0  0  0  0
  -29.9140   36.2930  -68.1610 C   0  0  0  0  0
  -28.8690   36.4360  -68.7450 N   0  3  0  0  0
  -27.6610   36.5280  -67.9350 C   0  0  0  0  0
  -26.6670   37.6120  -68.3670 C   0  0  0  0  0
  -28.9110   36.9970  -70.0670 C   0  0  0  0  0
  -28.0230   38.2150  -70.2850 C   0  0  0  0  0
  -27.2730   38.6640  -69.0980 C   0  0  0  0  0
  -26.2070   39.6800  -69.4930 N   0  0  0  0  0
  -25.1260   39.4160  -70.3630 C   0  0  0  0  0
  -24.9690   38.3450  -70.8620 O   0  0  0  0  0
  -24.1050   40.5590  -70.6810 C   0  0  0  0  0
  -24.5600   41.8240  -70.1220 N   0  3  0  0  0
  -29.5550   32.0938  -63.9231 H   0  0  0  0  0
  -30.0673   33.7091  -62.1711 H   0  0  0  0  0
  -30.4709   36.1348  -62.7478 H   0  0  0  0  0
  -30.3760   36.8630  -65.0868 H   0  0  0  0  0
  -29.3045   33.4454  -68.8005 H   0  0  0  0  0
  -30.1316   37.1578  -67.5342 H   0  0  0  0  0
  -30.7431   36.2013  -68.8626 H   0  0  0  0  0
  -28.6800   35.4924  -69.0832 H   0  0  0  0  0
  -27.1449   35.5729  -68.0329 H   0  0  0  0  0
  -27.9804   36.7811  -66.9240 H   0  0  0  0  0
  -25.9266   37.1427  -69.0149 H   0  0  0  0  0
  -26.2344   38.0430  -67.4641 H   0  0  0  0  0
  -29.9370   37.3244  -70.2349 H   0  0  0  0  0
  -28.5524   36.2235  -70.7461 H   0  0  0  0  0
  -28.6813   39.0361  -70.5688 H   0  0  0  0  0
  -27.2837   37.9336  -71.0349 H   0  0  0  0  0
  -28.0135   39.1200  -68.4408 H   0  0  0  0  0
  -26.2798   40.6186  -69.1004 H   0  0  0  0  0
  -24.0168   40.6625  -71.7625 H   0  0  0  0  0
  -23.1415   40.3044  -70.2395 H   0  0  0  0  0
  -23.8819   42.5542  -70.3400 H   0  0  0  0  0
  -25.4647   42.0669  -70.5257 H   0  0  0  0  0
  -24.6510   41.7340  -69.1101 H   0  0  0  0  0
  1  2  4  0  0  0
  1  6  4  0  0  0
  2  3  4  0  0  0
  3  4  4  0  0  0
  4  5  4  0  0  0
  5  6  4  0  0  0
  5  9  4  0  0  0
  6  7  4  0  0  0
  7  8  4  0  0  0
  8  9  4  0  0  0
  9 10  1  0  0  0
 10 11  1  0  0  0
 11 12  1  0  0  0
 11 14  1  0  0  0
 12 13  1  0  0  0
 13 16  1  0  0  0
 14 15  1  0  0  0
 15 16  1  0  0  0
 16 17  1  0  0  0
 17 18  1  0  0  0
 18 19  2  0  0  0
 18 20  1  0  0  0
 20 21  1  0  0  0
  1 22  1  0  0  0
  2 23  1  0  0  0
  3 24  1  0  0  0
  4 25  1  0  0  0
  8 26  1  0  0  0
 10 27  1  0  0  0
 10 28  1  0  0  0
 11 29  1  0  0  0
 12 30  1  0  0  0
 12 31  1  0  0  0
 13 32  1  0  0  0
 13 33  1  0  0  0
 14 34  1  0  0  0
 14 35  1  0  0  0
 15 36  1  0  0  0
 15 37  1  0  0  0
 16 38  1  0  0  0
 17 39  1  0  0  0
 20 40  1  0  0  0
 20 41  1  0  0  0
 21 42  1  0  0  0
 21 43  1  0  0  0
 21 44  1  0  0  0
M  END
$$$$
