4cfe_ligand
  -I-interpret- 

 48 52  0  0  0  0  0  0  0  0999 V2000
  511.4860   45.8110 1051.4520 C   0  0  0  0  0
  512.5260   45.6400 1050.5010 C   0  0  0  0  0
  510.3600   44.9360 1051.4700 C   0  0  0  0  0
  509.5620   45.3840 1052.4950 N   0  0  0  0  0
  510.2950   43.8960 1050.5330 C   0  0  0  0  0
  511.3370   43.7440 1049.6100 C   0  0  0  0  0
  512.4330   44.5860 1049.5820 C   0  0  0  0  0
  508.2980   44.7730 1052.8669 C   0  0  0  0  0
  513.5010   44.3400 1048.5420 C   0  0  0  0  0
  514.8260   44.0270 1048.9110 C   0  0  0  0  0
  515.7950   43.7950 1047.9160 C   0  0  0  0  0
  515.4510   43.8630 1046.5640 C   0  0  0  0  0
  514.1070   44.1740 1046.1980 C   0  0  0  0  0
  513.1580   44.4050 1047.1870 C   0  0  0  0  0
  516.1530   43.6910 1045.3970 N   0  0  0  0  0
  514.0450   44.1780 1044.8110 N   0  0  0  0  0
  515.2700   43.8910 1044.4260 C   0  0  0  0  0
  515.6380   43.7910 1043.0740 O   0  0  0  0  0
  514.8140   44.5710 1042.2419 C   0  0  0  0  0
  515.0810   45.8970 1042.0551 C   0  0  0  0  0
  514.2870   46.6710 1041.2340 C   0  0  0  0  0
  513.1790   46.1100 1040.5630 C   0  0  0  0  0
  512.8980   44.7170 1040.7531 C   0  0  0  0  0
  513.7350   43.9740 1041.5959 C   0  0  0  0  0
  512.3080   46.9600 1039.6639 C   0  0  0  0  0
  515.2790   43.9370 1050.5840 Cl  0  0  0  0  0
  511.2990   46.7570 1052.4860 C   0  0  0  0  0
  510.0940   46.4370 1053.0920 C   0  0  0  0  0
  511.7540   44.0740 1040.0790 C   0  0  0  0  0
  510.6400   43.9820 1040.6720 O   0  0  0  0  0
  511.8910   43.6220 1038.9270 O   0  0  0  0  0
  513.3810   46.3159 1050.4858 H   0  0  0  0  0
  509.4445   43.2143 1050.5228 H   0  0  0  0  0
  511.2818   42.9309 1048.8861 H   0  0  0  0  0
  507.6145   44.8102 1052.0187 H   0  0  0  0  0
  508.4679   43.7350 1053.1530 H   0  0  0  0  0
  507.8663   45.3168 1053.7071 H   0  0  0  0  0
  516.8202   43.5608 1048.2027 H   0  0  0  0  0
  512.1322   44.6401 1046.9030 H   0  0  0  0  0
  515.9331   46.3503 1042.5616 H   0  0  0  0  0
  514.5180   47.7280 1041.1019 H   0  0  0  0  0
  513.5384   42.9127 1041.7480 H   0  0  0  0  0
  511.8719   47.7724 1040.2451 H   0  0  0  0  0
  512.9143   47.3731 1038.8577 H   0  0  0  0  0
  511.5126   46.3447 1039.2434 H   0  0  0  0  0
  511.9685   47.5746 1052.7532 H   0  0  0  0  0
  509.6523   46.9720 1053.9327 H   0  0  0  0  0
  510.7092   44.3779 1041.5438 H   0  0  0  0  0
  1  2  4  0  0  0
  1  3  4  0  0  0
  1 27  4  0  0  0
  2  7  4  0  0  0
  3  4  4  0  0  0
  3  5  4  0  0  0
  4  8  1  0  0  0
  4 28  4  0  0  0
  5  6  4  0  0  0
  6  7  4  0  0  0
  7  9  1  0  0  0
  9 10  4  0  0  0
  9 14  4  0  0  0
 10 11  4  0  0  0
 10 26  1  0  0  0
 11 12  4  0  0  0
 12 13  4  0  0  0
 12 15  4  0  0  0
 13 14  4  0  0  0
 13 16  4  0  0  0
 15 17  4  0  0  0
 16 17  4  0  0  0
 17 18  1  0  0  0
 18 19  1  0  0  0
 19 20  4  0  0  0
 19 24  4  0  0  0
 20 21  4  0  0  0
 21 22  4  0  0  0
 22 23  4  0  0  0
 22 25  1  0  0  0
 23 24  4  0  0  0
 23 29  1  0  0  0
 27 28  4  0  0  0
 29 30  1  0  0  0
 29 31  2  0  0  0
  2 32  1  0  0  0
  5 33  1  0  0  0
  6 34  1  0  0  0
  8 35  1  0  0  0
  8 36  1  0  0  0
  8 37  1  0  0  0
 11 38  1  0  0  0
 14 39  1  0  0  0
 20 40  1  0  0  0
 21 41  1  0  0  0
 24 42  1  0  0  0
 25 43  1  0  0  0
 25 44  1  0  0  0
 25 45  1  0  0  0
 27 46  1  0  0  0
 28 47  1  0  0  0
 30 48  1  0  0  0
M  END
$$$$
