3fr2_ligand
  -I-interpret- 

 38 41  0  0  0  0  0  0  0  0999 V2000
   17.6020    5.1640    1.0550 O   0  0  0  0  0
   18.0400    6.0880    1.7230 C   0  0  0  0  0
   17.4000    7.2540    1.6380 O   0  0  0  0  0
   19.1460    5.8400    2.7000 C   0  0  0  0  0
   18.8430    6.0320    4.0380 C   0  0  0  0  0
   19.7700    5.8230    5.0530 C   0  0  0  0  0
   21.0780    5.4000    4.8290 C   0  0  0  0  0
   21.4790    5.1670    3.5260 C   0  0  0  0  0
   22.7360    4.7430    2.8940 C   0  0  0  0  0
   24.0410    4.3600    3.5350 C   0  0  0  0  0
   25.1090    4.1730    2.4650 C   0  0  0  0  0
   24.6450    3.6030    1.1230 C   0  0  0  0  0
   23.4830    4.3450    0.4410 C   0  0  0  0  0
   22.4230    4.7350    1.4440 C   0  0  0  0  0
   21.1190    5.1000    1.2200 N   0  0  0  0  0
   20.5320    5.3720    2.4010 C   0  0  0  0  0
   20.5110    5.2600   -0.1000 C   0  0  0  0  0
   20.1900    4.0500   -0.9260 C   0  0  0  0  0
   20.2980    2.7770   -0.4000 C   0  0  0  0  0
   19.9970    1.6790   -1.2080 C   0  0  0  0  0
   19.5660    1.8730   -2.5200 C   0  0  0  0  0
   19.4610    3.1610   -3.0410 C   0  0  0  0  0
   19.7700    4.2570   -2.2390 C   0  0  0  0  0
   17.8335    7.8976    2.2032 H   0  0  0  0  0
   17.8385    6.3598    4.3056 H   0  0  0  0  0
   19.4555    6.0001    6.0815 H   0  0  0  0  0
   21.7685    5.2562    5.6600 H   0  0  0  0  0
   24.1993    4.2348    4.6061 H   0  0  0  0  0
   26.1520    4.4324    2.6464 H   0  0  0  0  0
   25.1100    2.7238    0.6770 H   0  0  0  0  0
   23.4312    4.5611   -0.6261 H   0  0  0  0  0
   21.2589    5.7983   -0.6823 H   0  0  0  0  0
   19.5432    5.7204    0.0985 H   0  0  0  0  0
   20.6143    2.6318    0.6329 H   0  0  0  0  0
   20.0990    0.6684   -0.8127 H   0  0  0  0  0
   19.3103    1.0139   -3.1402 H   0  0  0  0  0
   19.1385    3.3102   -4.0715 H   0  0  0  0  0
   19.6841    5.2689   -2.6350 H   0  0  0  0  0
  1  2  2  0  0  0
  2  3  1  0  0  0
  2  4  1  0  0  0
  4  5  4  0  0  0
  4 16  4  0  0  0
  5  6  4  0  0  0
  6  7  4  0  0  0
  7  8  4  0  0  0
  8  9  4  0  0  0
  8 16  4  0  0  0
  9 10  4  0  0  0
  9 14  4  0  0  0
 10 11  4  0  0  0
 11 12  4  0  0  0
 12 13  4  0  0  0
 13 14  4  0  0  0
 14 15  4  0  0  0
 15 16  4  0  0  0
 15 17  1  0  0  0
 17 18  1  0  0  0
 18 19  4  0  0  0
 18 23  4  0  0  0
 19 20  4  0  0  0
 20 21  4  0  0  0
 21 22  4  0  0  0
 22 23  4  0  0  0
  3 24  1  0  0  0
  5 25  1  0  0  0
  6 26  1  0  0  0
  7 27  1  0  0  0
 10 28  1  0  0  0
 11 29  1  0  0  0
 12 30  1  0  0  0
 13 31  1  0  0  0
 17 32  1  0  0  0
 17 33  1  0  0  0
 19 34  1  0  0  0
 20 35  1  0  0  0
 21 36  1  0  0  0
 22 37  1  0  0  0
 23 38  1  0  0  0
M  END
$$$$
