4euc_ligand
  -I-interpret- 

 91 93  0  0  0  0  0  0  0  0999 V2000
   16.5040  -20.9920   38.1990 O   0  0  0  0  0
   18.2570  -22.8630   37.9760 O   0  0  0  0  0
   18.2230  -21.4010   39.9800 O   0  0  0  0  0
   16.4320  -23.1240   39.6190 O   0  0  0  0  0
   15.3390  -19.3090   36.1320 O   0  0  0  0  0
   13.5690  -21.2630   35.1610 O   0  0  0  0  0
   11.1880  -22.1480   35.1930 O   0  0  0  0  0
   13.0830  -23.7070   34.8090 O   0  0  0  0  0
   12.2390  -22.0730   33.0240 O   0  0  0  0  0
   14.1570  -23.1950   31.7280 O   0  0  0  0  0
   12.2090  -22.0290   30.6590 O   0  0  0  0  0
   14.0840  -20.7220   31.7810 O   0  0  0  0  0
   15.8680  -18.4730   31.9930 C   0  0  0  0  0
   14.0860  -17.0160   31.0320 C   0  0  0  0  0
   13.5790  -19.4530   31.5900 C   0  0  0  0  0
   15.1260  -18.9540   29.7110 C   0  0  0  0  0
   14.6610  -18.4530   31.0830 C   0  0  0  0  0
   14.6880  -19.1110   37.3490 C   0  0  0  0  0
   14.3200  -20.4800   37.8410 C   0  0  0  0  0
   15.3960  -21.2620   37.3600 C   0  0  0  0  0
   14.9850  -21.3670   35.0260 C   0  0  0  0  0
   17.3700  -22.1340   38.9520 P   0  0  0  0  0
   12.5510  -22.3140   34.5630 P   0  0  0  0  0
   13.1940  -22.0230   31.7710 P   0  0  0  0  0
   15.5340  -18.1100   21.2240 C   0  0  0  0  0
   15.0300  -17.8990   22.6530 C   0  0  0  0  0
   16.4460  -16.3020   27.2310 C   0  0  0  0  0
   16.9370  -16.7640   25.8930 C   0  0  0  0  0
   15.7610  -17.1080   25.0120 C   0  0  0  0  0
   16.0800  -17.9910   29.0490 C   0  0  0  0  0
   15.7420  -20.6670   36.0670 C   0  0  0  0  0
   14.0220  -19.0770   28.8540 O   0  0  0  0  0
   17.2160  -17.8090   29.4980 O   0  0  0  0  0
   14.6300  -17.0140   25.4500 O   0  0  0  0  0
   15.5910  -17.2620   27.9000 N   0  0  0  0  0
   16.0490  -17.5350   23.6620 N   0  0  0  0  0
   14.2750  -20.5030   39.2330 O   0  0  0  0  0
   13.4510  -15.5690   39.6710 C   0  0  0  0  0
   11.5510  -15.5840   38.3510 C   0  0  0  0  0
   12.0360  -16.7000   37.6670 C   0  0  0  0  0
   13.2670  -17.2270   38.0430 C   0  0  0  0  0
   12.4800  -18.4440   36.4120 C   0  0  0  0  0
   10.2830  -15.0030   38.0070 N   0  0  0  0  0
   12.2750  -15.0370   39.3450 N   0  0  0  0  0
   13.9400  -16.6430   39.0430 N   0  0  0  0  0
   13.5100  -18.2960   37.2520 N   0  0  0  0  0
   11.5750  -17.4720   36.6530 N   0  0  0  0  0
   16.6060  -19.1920   21.0810 C   0  0  0  0  0
   17.8630  -18.6830   21.7100 C   0  0  0  0  0
   17.9360  -17.5010   21.9520 O   0  0  0  0  0
   18.9710  -19.6360   22.0430 C   0  0  0  0  0
   17.6513  -20.9393   40.5978 H   0  0  0  0  0
   15.8672  -22.6590   40.2406 H   0  0  0  0  0
   13.9482  -23.7943   34.4024 H   0  0  0  0  0
   14.7652  -23.1353   32.4684 H   0  0  0  0  0
   16.6239  -17.7892   31.6069 H   0  0  0  0  0
   15.5716  -18.1610   32.9945 H   0  0  0  0  0
   16.2757  -19.4831   32.0315 H   0  0  0  0  0
   13.7936  -16.7072   32.0356 H   0  0  0  0  0
   14.8459  -16.3354   30.6480 H   0  0  0  0  0
   13.2152  -16.9975   30.3766 H   0  0  0  0  0
   13.2073  -19.0903   32.5483 H   0  0  0  0  0
   12.7947  -19.5123   30.8354 H   0  0  0  0  0
   15.6242  -19.9088   29.8792 H   0  0  0  0  0
   15.3505  -18.5726   38.0267 H   0  0  0  0  0
   13.3411  -20.8248   37.5078 H   0  0  0  0  0
   15.1575  -22.3246   37.3139 H   0  0  0  0  0
   15.2511  -20.9097   34.0730 H   0  0  0  0  0
   15.2379  -22.4246   35.1013 H   0  0  0  0  0
   15.9848  -17.1708   20.9034 H   0  0  0  0  0
   14.6785  -18.4286   20.6284 H   0  0  0  0  0
   14.6154  -18.8552   22.9723 H   0  0  0  0  0
   14.3348  -17.0607   22.6084 H   0  0  0  0  0
   15.8578  -15.3988   27.0686 H   0  0  0  0  0
   17.3200  -16.1471   27.8636 H   0  0  0  0  0
   17.5626  -17.6472   26.0224 H   0  0  0  0  0
   17.5180  -15.9685   25.4265 H   0  0  0  0  0
   16.8061  -20.7426   35.8433 H   0  0  0  0  0
   14.3176  -19.3909   27.9963 H   0  0  0  0  0
   14.6431  -17.4236   27.5599 H   0  0  0  0  0
   17.0288  -17.5896   23.3836 H   0  0  0  0  0
   14.0385  -21.3848   39.5299 H   0  0  0  0  0
   14.0324  -15.1154   40.4737 H   0  0  0  0  0
   12.3865  -19.2231   35.6555 H   0  0  0  0  0
    9.7247  -15.4060   37.2544 H   0  0  0  0  0
    9.9410  -14.1875   38.5153 H   0  0  0  0  0
   16.7761  -19.4168   20.0281 H   0  0  0  0  0
   16.2832  -20.1093   21.5734 H   0  0  0  0  0
   19.8769  -19.3363   21.5161 H   0  0  0  0  0
   19.1520  -19.6195   23.1177 H   0  0  0  0  0
   18.6870  -20.6427   21.7365 H   0  0  0  0  0
 20  1  1  0  0  0
  1 22  1  0  0  0
 22  2  2  0  0  0
 22  3  1  0  0  0
 22  4  1  0  0  0
 18  5  1  0  0  0
  5 31  1  0  0  0
 21  6  1  0  0  0
  6 23  1  0  0  0
 23  7  2  0  0  0
 23  8  1  0  0  0
 23  9  1  0  0  0
  9 24  1  0  0  0
 24 10  1  0  0  0
 24 11  2  0  0  0
 12 15  1  0  0  0
 24 12  1  0  0  0
 17 13  1  0  0  0
 17 14  1  0  0  0
 15 17  1  0  0  0
 17 16  1  0  0  0
 16 30  1  0  0  0
 16 32  1  0  0  0
 18 19  1  0  0  0
 46 18  1  0  0  0
 19 20  1  0  0  0
 19 37  1  0  0  0
 20 31  1  0  0  0
 31 21  1  0  0  0
 26 25  1  0  0  0
 25 48  1  0  0  0
 36 26  1  0  0  0
 27 28  1  0  0  0
 35 27  1  0  0  0
 28 29  1  0  0  0
 29 34  2  0  0  0
 29 36  1  0  0  0
 30 33  2  0  0  0
 30 35  1  0  0  0
 38 44  4  0  0  0
 45 38  4  0  0  0
 40 39  4  0  0  0
 39 43  1  0  0  0
 39 44  4  0  0  0
 41 40  4  0  0  0
 40 47  4  0  0  0
 41 45  4  0  0  0
 41 46  4  0  0  0
 46 42  4  0  0  0
 42 47  4  0  0  0
 48 49  1  0  0  0
 49 50  2  0  0  0
 49 51  1  0  0  0
  3 52  1  0  0  0
  4 53  1  0  0  0
  8 54  1  0  0  0
 10 55  1  0  0  0
 13 56  1  0  0  0
 13 57  1  0  0  0
 13 58  1  0  0  0
 14 59  1  0  0  0
 14 60  1  0  0  0
 14 61  1  0  0  0
 15 62  1  0  0  0
 15 63  1  0  0  0
 16 64  1  0  0  0
 18 65  1  0  0  0
 19 66  1  0  0  0
 20 67  1  0  0  0
 21 68  1  0  0  0
 21 69  1  0  0  0
 25 70  1  0  0  0
 25 71  1  0  0  0
 26 72  1  0  0  0
 26 73  1  0  0  0
 27 74  1  0  0  0
 27 75  1  0  0  0
 28 76  1  0  0  0
 28 77  1  0  0  0
 31 78  1  0  0  0
 32 79  1  0  0  0
 35 80  1  0  0  0
 36 81  1  0  0  0
 37 82  1  0  0  0
 38 83  1  0  0  0
 42 84  1  0  0  0
 43 85  1  0  0  0
 43 86  1  0  0  0
 48 87  1  0  0  0
 48 88  1  0  0  0
 51 89  1  0  0  0
 51 90  1  0  0  0
 51 91  1  0  0  0
M  END
$$$$
