### 
### Created by X-TOOL on Mon Sep 10 21:13:09 2018
### 

@<TRIPOS>MOLECULE
4euc_ligand
   87    89     1     0     0
SMALL
GAST_HUCK


@<TRIPOS>ATOM
      1 O3B        16.5040  -20.9920   38.1990 O.3       1 0RQ        -0.2674
      2 O7A        18.2570  -22.8630   37.9760 O.co2     1 0RQ        -0.5537
      3 O8A        18.2230  -21.4010   39.9800 O.co2     1 0RQ        -0.5537
      4 O9A        16.4320  -23.1240   39.6190 O.co2     1 0RQ        -0.5537
      5 O4B        15.3390  -19.3090   36.1320 O.3       1 0RQ        -0.3360
      6 O5B        13.5690  -21.2630   35.1610 O.3       1 0RQ        -0.2476
      7 O1A        11.1880  -22.1480   35.1930 O.co2     1 0RQ        -0.6127
      8 O2A        13.0830  -23.7070   34.8090 O.co2     1 0RQ        -0.6127
      9 O3A        12.2390  -22.0730   33.0240 O.3       1 0RQ        -0.1319
     10 O4A        14.1570  -23.1950   31.7280 O.co2     1 0RQ        -0.6127
     11 O5A        12.2090  -22.0290   30.6590 O.co2     1 0RQ        -0.6127
     12 O6A        14.0840  -20.7220   31.7810 O.3       1 0RQ        -0.2496
     13 CDP        15.8680  -18.4730   31.9930 C.3       1 0RQ        -0.0528
     14 CEP        14.0860  -17.0160   31.0320 C.3       1 0RQ        -0.0528
     15 CCP        13.5790  -19.4530   31.5900 C.3       1 0RQ         0.0936
     16 CAP        15.1260  -18.9540   29.7110 C.3       1 0RQ         0.1510
     17 CBP        14.6610  -18.4530   31.0830 C.3       1 0RQ         0.0367
     18 C1B        14.6880  -19.1110   37.3490 C.3       1 0RQ         0.2013
     19 C2B        14.3200  -20.4800   37.8410 C.3       1 0RQ         0.1432
     20 C3B        15.3960  -21.2620   37.3600 C.3       1 0RQ         0.1487
     21 C5B        14.9850  -21.3670   35.0260 C.3       1 0RQ         0.1131
     22 P3B        17.3700  -22.1340   38.9520 P.3       1 0RQ         0.2013
     23 P1A        12.5510  -22.3140   34.5630 P.3       1 0RQ         0.2972
     24 P2A        13.1940  -22.0230   31.7710 P.3       1 0RQ         0.2971
     25 C2P        15.5340  -18.1100   21.2240 C.3       1 0RQ        -0.0169
     26 C3P        15.0300  -17.8990   22.6530 C.3       1 0RQ         0.0330
     27 C7P        16.4460  -16.3020   27.2310 C.3       1 0RQ         0.0477
     28 C6P        16.9370  -16.7640   25.8930 C.3       1 0RQ         0.0574
     29 C5P        15.7610  -17.1080   25.0120 C.2       1 0RQ         0.1779
     30 C9P        16.0800  -17.9910   29.0490 C.2       1 0RQ         0.2057
     31 C4B        15.7420  -20.6670   36.0670 C.3       1 0RQ         0.1235
     32 OAP        14.0220  -19.0770   28.8540 O.3       1 0RQ        -0.3708
     33 O9P        17.2160  -17.8090   29.4980 O.2       1 0RQ        -0.3942
     34 O5P        14.6300  -17.0140   25.4500 O.2       1 0RQ        -0.3970
     35 N8P        15.5910  -17.2620   27.9000 N.am      1 0RQ        -0.2826
     36 N4P        16.0490  -17.5350   23.6620 N.am      1 0RQ        -0.2867
     37 O2B        14.2750  -20.5030   39.2330 O.3       1 0RQ        -0.3832
     38 C2A        13.4510  -15.5690   39.6710 C.ar      1 0RQ         0.0533
     39 C6A        11.5510  -15.5840   38.3510 C.ar      1 0RQ         0.1298
     40 C5M        12.0360  -16.7000   37.6670 C.ar      1 0RQ         0.1045
     41 C4A        13.2670  -17.2270   38.0430 C.ar      1 0RQ         0.1613
     42 C8A        12.4800  -18.4440   36.4120 C.2       1 0RQ         0.1123
     43 N6A        10.2830  -15.0030   38.0070 N.pl3     1 0RQ        -0.3152
     44 N1A        12.2750  -15.0370   39.3450 N.ar      1 0RQ        -0.2698
     45 N3A        13.9400  -16.6430   39.0430 N.ar      1 0RQ        -0.2714
     46 N9A        13.5100  -18.2960   37.2520 N.pl3     1 0RQ        -0.1919
     47 N7A        11.5750  -17.4720   36.6530 N.2       1 0RQ        -0.2958
     48 C1P        16.6060  -19.1920   21.0810 C.3       1 0RQ         0.0226
     49 C          17.8630  -18.6830   21.7100 C.2       1 0RQ         0.1020
     50 O          17.9360  -17.5010   21.9520 O.2       1 0RQ        -0.3919
     51 CH3        18.9710  -19.6360   22.0430 C.3       1 0RQ         0.0094
     52 H          16.6239  -17.7892   31.6069 H         1 0RQ         0.0238
     53 H          15.5716  -18.1610   32.9945 H         1 0RQ         0.0238
     54 H          16.2757  -19.4831   32.0315 H         1 0RQ         0.0238
     55 H          13.7936  -16.7072   32.0356 H         1 0RQ         0.0238
     56 H          14.8459  -16.3354   30.6480 H         1 0RQ         0.0238
     57 H          13.2152  -16.9975   30.3766 H         1 0RQ         0.0238
     58 H          13.2073  -19.0903   32.5483 H         1 0RQ         0.0628
     59 H          12.7947  -19.5123   30.8354 H         1 0RQ         0.0628
     60 H          15.6242  -19.9088   29.8792 H         1 0RQ         0.0844
     61 H          15.3505  -18.5726   38.0267 H         1 0RQ         0.0996
     62 H          13.3411  -20.8248   37.5078 H         1 0RQ         0.0680
     63 H          15.1575  -22.3246   37.3139 H         1 0RQ         0.0704
     64 H          15.2511  -20.9097   34.0730 H         1 0RQ         0.0648
     65 H          15.2379  -22.4246   35.1013 H         1 0RQ         0.0648
     66 H          15.9848  -17.1708   20.9034 H         1 0RQ         0.0310
     67 H          14.6785  -18.4286   20.6284 H         1 0RQ         0.0310
     68 H          14.6154  -18.8552   22.9723 H         1 0RQ         0.0521
     69 H          14.3348  -17.0607   22.6084 H         1 0RQ         0.0521
     70 H          15.8578  -15.3988   27.0686 H         1 0RQ         0.0545
     71 H          17.3200  -16.1471   27.8636 H         1 0RQ         0.0545
     72 H          17.5626  -17.6472   26.0224 H         1 0RQ         0.0522
     73 H          17.5180  -15.9685   25.4265 H         1 0RQ         0.0522
     74 H          16.8061  -20.7426   35.8433 H         1 0RQ         0.0654
     75 H          14.3142  -19.4138   28.0039 H         1 0RQ         0.2133
     76 H          14.6431  -17.4236   27.5599 H         1 0RQ         0.1853
     77 H          17.0288  -17.5896   23.3836 H         1 0RQ         0.1851
     78 H          13.5389  -19.9670   39.5372 H         1 0RQ         0.2101
     79 H          14.0324  -15.1154   40.4737 H         1 0RQ         0.0996
     80 H          12.3865  -19.2231   35.6555 H         1 0RQ         0.1349
     81 H           9.7247  -15.4060   37.2544 H         1 0RQ         0.1820
     82 H           9.9410  -14.1875   38.5153 H         1 0RQ         0.1820
     83 H          16.7761  -19.4168   20.0281 H         1 0RQ         0.0495
     84 H          16.2832  -20.1093   21.5734 H         1 0RQ         0.0495
     85 H          19.8769  -19.3363   21.5161 H         1 0RQ         0.0458
     86 H          19.1520  -19.6195   23.1177 H         1 0RQ         0.0458
     87 H          18.6870  -20.6427   21.7365 H         1 0RQ         0.0458
@<TRIPOS>BOND
     1   20    1 1  
     2    1   22 1  
     3   22    2 ar 
     4   22    3 ar 
     5   22    4 ar 
     6   18    5 1  
     7    5   31 1  
     8   21    6 1  
     9    6   23 1  
    10   23    7 ar 
    11   23    8 ar 
    12   23    9 1  
    13    9   24 1  
    14   24   10 ar 
    15   24   11 ar 
    16   12   15 1  
    17   24   12 1  
    18   17   13 1  
    19   17   14 1  
    20   15   17 1  
    21   17   16 1  
    22   16   30 1  
    23   16   32 1  
    24   18   19 1  
    25   46   18 1  
    26   19   20 1  
    27   19   37 1  
    28   20   31 1  
    29   31   21 1  
    30   26   25 1  
    31   25   48 1  
    32   36   26 1  
    33   27   28 1  
    34   35   27 1  
    35   28   29 1  
    36   29   34 2  
    37   29   36 am 
    38   30   33 2  
    39   30   35 am 
    40   38   44 ar 
    41   45   38 ar 
    42   40   39 ar 
    43   39   43 1  
    44   39   44 ar 
    45   41   40 ar 
    46   40   47 1  
    47   41   45 ar 
    48   41   46 1  
    49   46   42 1  
    50   42   47 2  
    51   48   49 1  
    52   49   50 2  
    53   49   51 1  
    54   13   52 1  
    55   13   53 1  
    56   13   54 1  
    57   14   55 1  
    58   14   56 1  
    59   14   57 1  
    60   15   58 1  
    61   15   59 1  
    62   16   60 1  
    63   18   61 1  
    64   19   62 1  
    65   20   63 1  
    66   21   64 1  
    67   21   65 1  
    68   25   66 1  
    69   25   67 1  
    70   26   68 1  
    71   26   69 1  
    72   27   70 1  
    73   27   71 1  
    74   28   72 1  
    75   28   73 1  
    76   31   74 1  
    77   32   75 1  
    78   35   76 1  
    79   36   77 1  
    80   37   78 1  
    81   38   79 1  
    82   42   80 1  
    83   43   81 1  
    84   43   82 1  
    85   48   83 1  
    86   48   84 1  
    87   51   85 1  
    88   51   86 1  
    89   51   87 1  
@<TRIPOS>SUBSTRUCTURE
     1 0RQ         1

