2w3i_ligand
  -I-interpret- 

 62 66  0  0  0  0  0  0  0  0999 V2000
   -0.9210    7.9840   26.6140 F   0  0  0  0  0
    0.2260    7.8330   25.9210 C   0  0  0  0  0
    1.0840    8.9090   25.7100 C   0  0  0  0  0
    2.2740    8.7330   24.9980 C   0  0  0  0  0
    3.0580    9.8100   24.8240 F   0  0  0  0  0
    2.6240    7.4770   24.4910 C   0  0  0  0  0
    1.7450    6.4090   24.7160 C   0  0  0  0  0
    0.5610    6.5840   25.4270 C   0  0  0  0  0
    3.9000    7.2200   23.7120 C   0  0  0  0  0
    4.0340    5.8300   23.4060 O   0  0  0  0  0
    5.1570    7.5710   24.4740 C   0  0  0  0  0
    6.1300    7.9890   23.4740 N   0  0  0  0  0
    7.4530    8.1580   23.6880 C   0  0  0  0  0
    8.1810    8.4770   22.7690 O   0  0  0  0  0
    7.9550    7.8080   24.8800 N   0  0  0  0  0
    9.2820    7.7630   25.2280 C   0  0  0  0  0
    9.6120    7.2830   26.4910 C   0  0  0  0  0
   10.9390    7.2250   26.9070 C   0  0  0  0  0
   11.9450    7.6660   26.0510 C   0  0  0  0  0
   13.6580    7.5930   26.5330 Cl  0  0  0  0  0
   11.6340    8.1560   24.7950 C   0  0  0  0  0
   10.3170    8.2080   24.3850 C   0  0  0  0  0
    5.4610    8.2640   22.1890 C   0  0  0  0  0
    3.9740    8.0070   22.4260 C   0  0  0  0  0
    5.9940    7.4120   21.0570 C   0  0  0  0  0
    6.1700    7.9540   19.9920 O   0  0  0  0  0
    6.2730    6.1220   21.2860 N   0  0  0  0  0
    6.7840    5.2150   20.3930 C   0  0  0  0  0
    7.1110    5.5230   19.0710 C   0  0  0  0  0
    7.6240    4.5490   18.2290 C   0  0  0  0  0
    7.8110    3.2520   18.6830 C   0  0  0  0  0
    7.4750    2.9730   20.0080 C   0  0  0  0  0
    6.9770    3.9400   20.8130 N   0  0  0  0  0
    8.3200    2.3210   17.8430 N   0  0  0  0  0
    9.4590    1.6850   18.1590 C   0  0  0  0  0
   10.0360    0.7330   17.3230 C   0  0  0  0  0
    9.4270    0.4260   16.1110 C   0  0  0  0  0
    8.2490    1.0750   15.7580 C   0  0  0  0  0
    7.6910    2.0250   16.6120 C   0  0  0  0  0
    6.6380    2.6070   16.2770 O   0  0  0  0  0
    0.8266    9.8931   26.1018 H   0  0  0  0  0
    1.9933    5.4217   24.3266 H   0  0  0  0  0
   -0.1033    5.7363   25.5950 H   0  0  0  0  0
    3.2624    5.5354   22.9168 H   0  0  0  0  0
    5.5218    6.7187   25.0473 H   0  0  0  0  0
    4.9707    8.3636   25.1987 H   0  0  0  0  0
    7.2828    7.5487   25.6021 H   0  0  0  0  0
    8.8219    6.9482   27.1631 H   0  0  0  0  0
   11.1887    6.8376   27.8947 H   0  0  0  0  0
   12.4270    8.5001   24.1310 H   0  0  0  0  0
   10.0759    8.5985   23.3963 H   0  0  0  0  0
    5.6487    9.2913   21.8769 H   0  0  0  0  0
    3.4139    8.9395   22.4959 H   0  0  0  0  0
    3.5264    7.4594   21.5966 H   0  0  0  0  0
    6.0849    5.7766   22.2271 H   0  0  0  0  0
    6.9618    6.5365   18.6986 H   0  0  0  0  0
    7.8826    4.8045   17.2014 H   0  0  0  0  0
    7.6151    1.9652   20.3990 H   0  0  0  0  0
    9.9493    1.9222   19.1032 H   0  0  0  0  0
   10.9585    0.2318   17.6163 H   0  0  0  0  0
    9.8684   -0.3154   15.4449 H   0  0  0  0  0
    7.7611    0.8405   14.8119 H   0  0  0  0  0
  1  2  1  0  0  0
  2  3  4  0  0  0
  2  8  4  0  0  0
  3  4  4  0  0  0
  4  5  1  0  0  0
  4  6  4  0  0  0
  6  7  4  0  0  0
  6  9  1  0  0  0
  7  8  4  0  0  0
  9 10  1  0  0  0
  9 11  1  0  0  0
  9 24  1  0  0  0
 11 12  1  0  0  0
 12 13  1  0  0  0
 12 23  1  0  0  0
 13 14  2  0  0  0
 13 15  1  0  0  0
 15 16  1  0  0  0
 16 17  4  0  0  0
 16 22  4  0  0  0
 17 18  4  0  0  0
 18 19  4  0  0  0
 19 20  1  0  0  0
 19 21  4  0  0  0
 21 22  4  0  0  0
 23 24  1  0  0  0
 23 25  1  0  0  0
 25 26  2  0  0  0
 25 27  1  0  0  0
 27 28  1  0  0  0
 28 29  4  0  0  0
 28 33  4  0  0  0
 29 30  4  0  0  0
 30 31  4  0  0  0
 31 32  4  0  0  0
 31 34  1  0  0  0
 32 33  4  0  0  0
 34 35  1  0  0  0
 34 39  1  0  0  0
 35 36  2  0  0  0
 36 37  1  0  0  0
 37 38  2  0  0  0
 38 39  1  0  0  0
 39 40  2  0  0  0
  3 41  1  0  0  0
  7 42  1  0  0  0
  8 43  1  0  0  0
 10 44  1  0  0  0
 11 45  1  0  0  0
 11 46  1  0  0  0
 15 47  1  0  0  0
 17 48  1  0  0  0
 18 49  1  0  0  0
 21 50  1  0  0  0
 22 51  1  0  0  0
 23 52  1  0  0  0
 24 53  1  0  0  0
 24 54  1  0  0  0
 27 55  1  0  0  0
 29 56  1  0  0  0
 30 57  1  0  0  0
 32 58  1  0  0  0
 35 59  1  0  0  0
 36 60  1  0  0  0
 37 61  1  0  0  0
 38 62  1  0  0  0
M  END
$$$$
