3fnm_ligand
  -I-interpret- 

 19 19  0  0  0  0  0  0  0  0999 V2000
   45.0830   -1.4820   39.1060 C   0  0  0  0  0
   44.6650   -2.3250   39.8460 O   0  0  0  0  0
   44.5320   -0.4360   38.8630 O   0  0  0  0  0
   46.3900   -1.7600   38.4730 C   0  0  0  0  0
   47.1520   -2.6210   39.3430 N   0  3  0  0  0
   46.0370   -2.5610   37.2640 C   0  0  0  0  0
   45.3550   -1.7940   36.3640 O   0  0  0  0  0
   45.5240   -2.3000   35.1240 N   0  0  0  0  0
   46.5110   -3.0600   35.0710 C   0  0  0  0  0
   47.1900   -3.0340   36.4170 C   0  0  0  0  0
   45.0638    0.0680   38.2427 H   0  0  0  0  0
   46.9572   -0.8537   38.2607 H   0  0  0  0  0
   47.4131   -2.1070   40.1845 H   0  0  0  0  0
   46.5863   -3.4302   39.5992 H   0  0  0  0  0
   47.9938   -2.9328   38.8587 H   0  0  0  0  0
   45.4996   -3.4008   37.7044 H   0  0  0  0  0
   46.8272   -3.6408   34.2045 H   0  0  0  0  0
   47.6246   -3.9842   36.7273 H   0  0  0  0  0
   48.0803   -2.4071   36.4670 H   0  0  0  0  0
  1  2  2  0  0  0
  1  3  1  0  0  0
  1  4  1  0  0  0
  4  5  1  0  0  0
  4  6  1  0  0  0
  6  7  1  0  0  0
  6 10  1  0  0  0
  7  8  1  0  0  0
  8  9  2  0  0  0
  9 10  1  0  0  0
  3 11  1  0  0  0
  4 12  1  0  0  0
  5 13  1  0  0  0
  5 14  1  0  0  0
  5 15  1  0  0  0
  6 16  1  0  0  0
  9 17  1  0  0  0
 10 18  1  0  0  0
 10 19  1  0  0  0
M  END
$$$$
