3t3i_ligand
  -I-interpret- 

 36 37  0  0  0  0  0  0  0  0999 V2000
   38.4630   25.0800   29.9080 F   0  0  0  0  0
   34.1360   23.5760   29.0840 N   0  0  0  0  0
   33.4320   24.4210   29.9760 C   0  0  0  0  0
   38.0880   23.6760   31.4960 F   0  0  0  0  0
   32.2030   24.5150   29.8800 O   0  0  0  0  0
   38.1470   22.9950   29.5230 F   0  0  0  0  0
   34.1260   25.1690   30.9520 N   0  0  0  0  0
   35.5350   25.0470   31.0260 C   0  0  0  0  0
   36.1460   25.6910   31.8730 O   0  0  0  0  0
   36.2370   24.2020   30.1390 C   0  0  0  0  0
   35.5320   23.4710   29.1690 C   0  0  0  0  0
   37.7740   24.0210   30.2480 C   0  0  0  0  0
   33.3590   22.8260   28.0450 C   0  0  0  0  0
   33.8120   23.0720   26.5670 C   0  0  0  0  0
   34.0130   24.4840   26.3240 O   0  0  0  0  0
   32.7760   22.4310   25.5950 C   0  0  0  0  0
   33.1630   22.5040   24.2090 O   0  0  0  0  0
   32.5270   20.9550   25.9730 C   0  0  0  0  0
   31.3750   20.4920   25.2400 O   0  0  0  0  0
   32.3290   20.7520   27.5130 C   0  0  0  0  0
   33.3170   21.4150   28.3100 O   0  0  0  0  0
   32.4490   19.3460   28.0630 C   0  0  0  0  0
   33.0860   18.4500   27.1620 O   0  0  0  0  0
   33.6227   25.7847   31.5908 H   0  0  0  0  0
   36.0711   22.8204   28.4804 H   0  0  0  0  0
   32.3561   23.2443   28.1305 H   0  0  0  0  0
   34.7736   22.5913   26.3870 H   0  0  0  0  0
   34.2900   24.6147   25.4142 H   0  0  0  0  0
   31.8627   23.0155   25.7055 H   0  0  0  0  0
   32.4854   22.0937   23.6667 H   0  0  0  0  0
   33.4088   20.3719   25.7073 H   0  0  0  0  0
   31.2036   19.5739   25.4620 H   0  0  0  0  0
   31.3106   21.1338   27.5855 H   0  0  0  0  0
   31.4410   18.9733   28.2450 H   0  0  0  0  0
   33.0549   19.3939   28.9678 H   0  0  0  0  0
   33.1347   17.5780   27.5605 H   0  0  0  0  0
 12  1  1  0  0  0
  2  3  1  0  0  0
 11  2  1  0  0  0
  2 13  1  0  0  0
  3  5  2  0  0  0
  7  3  1  0  0  0
 12  4  1  0  0  0
 12  6  1  0  0  0
  8  7  1  0  0  0
  8  9  2  0  0  0
 10  8  1  0  0  0
 10 11  2  0  0  0
 10 12  1  0  0  0
 13 14  1  0  0  0
 13 21  1  0  0  0
 14 15  1  0  0  0
 14 16  1  0  0  0
 16 17  1  0  0  0
 16 18  1  0  0  0
 18 19  1  0  0  0
 18 20  1  0  0  0
 20 21  1  0  0  0
 20 22  1  0  0  0
 22 23  1  0  0  0
  7 24  1  0  0  0
 11 25  1  0  0  0
 13 26  1  0  0  0
 14 27  1  0  0  0
 15 28  1  0  0  0
 16 29  1  0  0  0
 17 30  1  0  0  0
 18 31  1  0  0  0
 19 32  1  0  0  0
 20 33  1  0  0  0
 22 34  1  0  0  0
 22 35  1  0  0  0
 23 36  1  0  0  0
M  END
$$$$
