4mss_ligand
  -I-interpret- 

 31 31  0  0  0  0  0  0  0  0999 V2000
   68.3050   -9.2640    2.7750 N   0  3  0  0  0
   67.5930   -8.0090    2.6690 C   0  0  0  0  0
   69.0590   -6.3810    3.6610 N   0  0  0  0  0
   67.7830   -7.0440    3.7880 C   0  0  0  0  0
   67.7990   -7.6970    5.1730 C   0  0  0  0  0
   67.6650   -6.7080    6.1710 O   0  0  0  0  0
   66.6520   -8.6420    5.4080 C   0  0  0  0  0
   66.6590   -8.8410    6.8250 O   0  0  0  0  0
   66.6470   -9.9680    4.6480 C   0  0  0  0  0
   65.5510   -9.9890    3.7230 O   0  0  0  0  0
   67.8130  -10.2660    3.7420 C   0  0  0  0  0
   69.1680   -4.9520    3.5580 C   0  0  0  0  0
   68.1730   -4.2590    3.5090 O   0  0  0  0  0
   70.5500   -4.3200    3.4630 C   0  0  0  0  0
   69.2406   -9.0161    3.0970 H   0  0  0  0  0
   68.2112   -9.7046    1.8599 H   0  0  0  0  0
   66.5327   -8.2617    2.6636 H   0  0  0  0  0
   67.9779   -7.5168    1.7758 H   0  0  0  0  0
   69.9092   -6.9442    3.6439 H   0  0  0  0  0
   66.9345   -6.3636    3.7157 H   0  0  0  0  0
   68.7431   -8.2400    5.2178 H   0  0  0  0  0
   68.3719   -6.0650    6.0797 H   0  0  0  0  0
   65.7437   -8.1918    5.0075 H   0  0  0  0  0
   66.6620   -7.9887    7.2667 H   0  0  0  0  0
   66.6326  -10.6855    5.4684 H   0  0  0  0  0
   65.5509  -10.8230    3.2476 H   0  0  0  0  0
   68.6498  -10.4036    4.4269 H   0  0  0  0  0
   67.4568  -11.0836    3.1153 H   0  0  0  0  0
   70.6437   -3.7955    2.5121 H   0  0  0  0  0
   70.6826   -3.6144    4.2832 H   0  0  0  0  0
   71.3096   -5.0992    3.5260 H   0  0  0  0  0
  1  2  1  0  0  0
  1 11  1  0  0  0
  2  4  1  0  0  0
  4  3  1  0  0  0
  3 12  1  0  0  0
  4  5  1  0  0  0
  5  6  1  0  0  0
  5  7  1  0  0  0
  7  8  1  0  0  0
  7  9  1  0  0  0
  9 10  1  0  0  0
  9 11  1  0  0  0
 12 13  2  0  0  0
 12 14  1  0  0  0
  1 15  1  0  0  0
  1 16  1  0  0  0
  2 17  1  0  0  0
  2 18  1  0  0  0
  3 19  1  0  0  0
  4 20  1  0  0  0
  5 21  1  0  0  0
  6 22  1  0  0  0
  7 23  1  0  0  0
  8 24  1  0  0  0
  9 25  1  0  0  0
 10 26  1  0  0  0
 11 27  1  0  0  0
 11 28  1  0  0  0
 14 29  1  0  0  0
 14 30  1  0  0  0
 14 31  1  0  0  0
M  END
$$$$
