1mqd_ligand
  -I-interpret- 

 21 21  0  0  0  0  0  0  0  0999 V2000
   72.8180   43.7880   43.0640 O   0  0  0  0  0
   74.0130   43.5010   42.3310 N   0  0  0  0  0
   72.5970   45.1230   42.9880 C   0  0  0  0  0
   73.6060   45.7530   42.3780 C   0  0  0  0  0
   74.4540   44.6770   41.8760 C   0  0  0  0  0
   75.4660   44.7740   41.1220 O   0  0  0  0  0
   73.8890   47.2110   42.1980 C   0  0  0  0  0
   74.7350   47.8530   43.3240 C   0  0  0  0  0
   74.0510   47.6890   44.6610 N   0  3  0  0  0
   74.9640   49.3460   42.9290 C   0  0  0  0  0
   74.7360   50.1900   43.8440 O   0  0  0  0  0
   75.3660   49.6150   41.7590 O   0  0  0  0  0
   74.4403   42.5863   42.1858 H   0  0  0  0  0
   71.7080   45.6206   43.3756 H   0  0  0  0  0
   72.9262   47.7219   42.1957 H   0  0  0  0  0
   74.4623   47.3102   41.2763 H   0  0  0  0  0
   75.7021   47.3620   43.4323 H   0  0  0  0  0
   74.6227   48.1176   45.3889 H   0  0  0  0  0
   73.1381   48.1431   44.6325 H   0  0  0  0  0
   73.9320   46.6959   44.8611 H   0  0  0  0  0
   75.4615   48.8007   41.2595 H   0  0  0  0  0
  1  2  1  0  0  0
  1  3  1  0  0  0
  2  5  1  0  0  0
  3  4  2  0  0  0
  4  5  1  0  0  0
  4  7  1  0  0  0
  5  6  2  0  0  0
  7  8  1  0  0  0
  8  9  1  0  0  0
  8 10  1  0  0  0
 10 11  2  0  0  0
 10 12  1  0  0  0
  2 13  1  0  0  0
  3 14  1  0  0  0
  7 15  1  0  0  0
  7 16  1  0  0  0
  8 17  1  0  0  0
  9 18  1  0  0  0
  9 19  1  0  0  0
  9 20  1  0  0  0
 12 21  1  0  0  0
M  END
$$$$
