1x81_ligand
  -I-interpret- 

 57 61  0  0  0  0  0  0  0  0999 V2000
   51.5410   44.5160   -0.5580 C   0  0  0  0  0
   51.3260   45.2670   -1.7800 N   0  0  0  0  0
   51.6250   44.8100   -3.0300 C   0  0  0  0  0
   51.3400   45.6300   -4.0050 N   0  0  0  0  0
   50.8100   46.7230   -3.3830 C   0  0  0  0  0
   50.7670   46.5350   -2.0130 C   0  0  0  0  0
   50.2870   47.4180   -0.8210 C   0  0  0  0  0
   51.5020   47.7410    0.1710 C   0  0  0  0  0
   52.8180   48.1590   -0.3160 C   0  0  0  0  0
   53.8970   48.4250    0.5960 C   0  0  0  0  0
   53.6760   48.3460    1.9980 C   0  0  0  0  0
   54.9500   48.6960    3.0650 Cl  0  0  0  0  0
   52.3950   47.9350    2.5030 C   0  0  0  0  0
   51.3390   47.6640    1.6120 C   0  0  0  0  0
   49.2200   46.6040   -0.1510 N   0  3  0  0  0
   49.7090   48.7410   -1.4140 C   0  0  0  0  0
   50.3200   49.9780   -1.1790 C   0  0  0  0  0
   49.8670   51.2050   -1.6710 C   0  0  0  0  0
   48.4970   48.7410   -2.1990 C   0  0  0  0  0
   47.9540   49.9320   -2.7740 C   0  0  0  0  0
   48.5400   51.1900   -2.5180 C   0  0  0  0  0
   48.0720   52.4010   -3.0620 N   0  0  0  0  0
   46.8360   52.3850   -3.8840 C   0  0  0  0  0
   48.7240   53.6590   -2.7900 C   0  0  0  0  0
   48.2980   54.7250   -3.2510 O   0  0  0  0  0
   49.8960   53.6500   -2.0050 C   0  0  0  0  0
   50.4750   52.4610   -1.4430 C   0  0  0  0  0
   51.7150   52.6450   -0.6430 C   0  0  0  0  0
   52.8940   51.9350   -0.9720 C   0  0  0  0  0
   54.1110   52.1220   -0.2140 C   0  0  0  0  0
   55.5220   51.2860   -0.6240 Cl  0  0  0  0  0
   54.1170   53.0090    0.9320 C   0  0  0  0  0
   52.9040   53.7230    1.2670 C   0  0  0  0  0
   51.7070   53.5280    0.4820 C   0  0  0  0  0
   50.9663   43.5906   -0.5959 H   0  0  0  0  0
   52.6011   44.2830   -0.4580 H   0  0  0  0  0
   51.2166   45.1120    0.2950 H   0  0  0  0  0
   52.0701   43.8301   -3.2025 H   0  0  0  0  0
   50.4672   47.6217   -3.8957 H   0  0  0  0  0
   52.9823   48.2703   -1.3878 H   0  0  0  0  0
   54.8833   48.6869    0.2129 H   0  0  0  0  0
   52.2406   47.8329    3.5772 H   0  0  0  0  0
   50.3660   47.3870    2.0176 H   0  0  0  0  0
   48.4671   46.4206   -0.8143 H   0  0  0  0  0
   49.6176   45.7201    0.1668 H   0  0  0  0  0
   48.8523   47.1198    0.6485 H   0  0  0  0  0
   51.2199   49.9849   -0.5639 H   0  0  0  0  0
   47.9763   47.7969   -2.3593 H   0  0  0  0  0
   47.0768   49.8676   -3.4179 H   0  0  0  0  0
   46.9826   51.7336   -4.7456 H   0  0  0  0  0
   46.0062   52.0133   -3.2829 H   0  0  0  0  0
   46.6149   53.3964   -4.2250 H   0  0  0  0  0
   50.3919   54.6016   -1.8133 H   0  0  0  0  0
   52.8846   51.2369   -1.8091 H   0  0  0  0  0
   55.0190   53.1360    1.5307 H   0  0  0  0  0
   52.8933   54.4096    2.1135 H   0  0  0  0  0
   50.7921   54.0571    0.7488 H   0  0  0  0  0
  1  2  1  0  0  0
  2  3  4  0  0  0
  2  6  4  0  0  0
  3  4  4  0  0  0
  4  5  4  0  0  0
  5  6  4  0  0  0
  6  7  1  0  0  0
  7  8  1  0  0  0
  7 15  1  0  0  0
  7 16  1  0  0  0
  8  9  4  0  0  0
  8 14  4  0  0  0
  9 10  4  0  0  0
 10 11  4  0  0  0
 11 12  1  0  0  0
 11 13  4  0  0  0
 13 14  4  0  0  0
 16 17  4  0  0  0
 16 19  4  0  0  0
 17 18  4  0  0  0
 18 21  4  0  0  0
 18 27  1  0  0  0
 19 20  4  0  0  0
 20 21  4  0  0  0
 21 22  1  0  0  0
 22 23  1  0  0  0
 22 24  1  0  0  0
 24 25  2  0  0  0
 24 26  1  0  0  0
 26 27  2  0  0  0
 27 28  1  0  0  0
 28 29  4  0  0  0
 28 34  4  0  0  0
 29 30  4  0  0  0
 30 31  1  0  0  0
 30 32  4  0  0  0
 32 33  4  0  0  0
 33 34  4  0  0  0
  1 35  1  0  0  0
  1 36  1  0  0  0
  1 37  1  0  0  0
  3 38  1  0  0  0
  5 39  1  0  0  0
  9 40  1  0  0  0
 10 41  1  0  0  0
 13 42  1  0  0  0
 14 43  1  0  0  0
 15 44  1  0  0  0
 15 45  1  0  0  0
 15 46  1  0  0  0
 17 47  1  0  0  0
 19 48  1  0  0  0
 20 49  1  0  0  0
 23 50  1  0  0  0
 23 51  1  0  0  0
 23 52  1  0  0  0
 26 53  1  0  0  0
 29 54  1  0  0  0
 32 55  1  0  0  0
 33 56  1  0  0  0
 34 57  1  0  0  0
M  END
$$$$
