### 
### Created by X-TOOL on Mon Sep 10 21:13:12 2018
### 

@<TRIPOS>MOLECULE
4dhm_ligand
   36    37     1     0     0
SMALL
GAST_HUCK


@<TRIPOS>ATOM
      1 OAW        20.9030   14.7030   -9.7870 O.co2     1 0KB        -0.5643
      2 PAV        21.9380   13.6540  -10.3520 P.3       1 0KB         0.0783
      3 OAY        21.6940   13.1780  -11.8190 O.co2     1 0KB        -0.5643
      4 OAX        21.9420   12.5000   -9.3650 O.co2     1 0KB        -0.5643
      5 CAQ        23.5700   14.4750  -10.3600 C.ar      1 0KB         0.0641
      6 CAR        23.6610   15.8380  -10.0700 C.ar      1 0KB        -0.0499
      7 CAS        24.9740   16.4260  -10.0960 C.ar      1 0KB        -0.0681
      8 CAT        26.1190   15.6950  -10.4080 C.ar      1 0KB        -0.0672
      9 CAU        25.9870   14.3270  -10.7140 C.ar      1 0KB        -0.0277
     10 CAP        24.7040   13.7470  -10.7140 C.ar      1 0KB         0.1159
     11 OAO        24.5340   12.4050  -11.0080 O.3       1 0KB        -0.2925
     12 CAA        25.6220   11.4480  -10.8170 C.3       1 0KB         0.1660
     13 CAB        24.9900   10.0360  -10.5610 C.2       1 0KB         0.2349
     14 OAD        25.6960    9.0270  -10.6210 O.2       1 0KB        -0.3820
     15 NAC        23.6530   10.0670  -10.2750 N.am      1 0KB        -0.2259
     16 CAE        22.9550    8.9570   -9.9680 C.ar      1 0KB         0.0951
     17 CAF        23.0020    7.7760  -10.7050 C.ar      1 0KB        -0.0124
     18 CAG        22.2330    6.6560  -10.2970 C.ar      1 0KB         0.0335
     19 CAK        22.3040    5.4510  -11.0140 C.3       1 0KB         0.3727
     20 FAM        22.3700    4.3640  -10.2150 F         1 0KB        -0.2209
     21 FAN        23.5250    5.3430  -11.7280 F         1 0KB        -0.2209
     22 FAL        21.1890    5.3960  -11.8170 F         1 0KB        -0.2209
     23 CAH        21.3850    6.7580   -9.1830 C.ar      1 0KB        -0.0451
     24 CAI        21.3440    7.9250   -8.4490 C.ar      1 0KB        -0.0433
     25 CAJ        22.1230    9.0230   -8.8480 C.ar      1 0KB        -0.0112
     26 H1         22.7816   16.4269   -9.8357 H         1 0KB         0.0634
     27 H2         25.0768   17.4798   -9.8636 H         1 0KB         0.0533
     28 H3         27.0930   16.1708  -10.4149 H         1 0KB         0.0616
     29 H4         26.8607   13.7289  -10.9463 H         1 0KB         0.0552
     30 H5         26.2326   11.7455   -9.9517 H         1 0KB         0.0867
     31 H6         26.2529   11.4162  -11.7175 H         1 0KB         0.0867
     32 H7         23.1763   10.9459  -10.2946 H         1 0KB         0.2260
     33 H8         23.6256    7.7128  -11.5894 H         1 0KB         0.0711
     34 H9         20.7613    5.9181   -8.8991 H         1 0KB         0.0741
     35 H10        20.7142    7.9941   -7.5694 H         1 0KB         0.0664
     36 H11        22.0777    9.9417   -8.2744 H         1 0KB         0.0759
@<TRIPOS>BOND
     1    1    2 ar 
     2    2    3 ar 
     3    2    4 ar 
     4    2    5 1  
     5    5    6 ar 
     6    5   10 ar 
     7    6    7 ar 
     8    7    8 ar 
     9    8    9 ar 
    10    9   10 ar 
    11   10   11 1  
    12   11   12 1  
    13   12   13 1  
    14   13   14 2  
    15   13   15 am 
    16   15   16 1  
    17   16   17 ar 
    18   16   25 ar 
    19   17   18 ar 
    20   18   19 1  
    21   18   23 ar 
    22   19   20 1  
    23   19   21 1  
    24   19   22 1  
    25   23   24 ar 
    26   24   25 ar 
    27    6   26 1  
    28    7   27 1  
    29    8   28 1  
    30    9   29 1  
    31   12   30 1  
    32   12   31 1  
    33   15   32 1  
    34   17   33 1  
    35   23   34 1  
    36   24   35 1  
    37   25   36 1  
@<TRIPOS>SUBSTRUCTURE
     1 0KB         1

