3g2v_ligand
  -I-interpret- 

142141  0  0  0  0  0  0  0  0999 V2000
   -9.8880   -4.6760    1.6610 N   0  3  0  0  0
  -10.7770   -5.2080    0.5910 C   0  0  0  0  0
  -10.4940   -6.6800    0.2850 C   0  0  0  0  0
   -9.3520   -7.1410    0.3420 O   0  0  0  0  0
  -10.6670   -4.3470   -0.6630 C   0  0  0  0  0
  -11.5070   -4.8600   -1.8060 C   0  0  0  0  0
  -12.6660   -4.4030   -1.9480 O   0  0  0  0  0
  -10.9640   -5.6300   -2.6280 O   0  0  0  0  0
  -11.5570   -7.4060   -0.0370 N   0  0  0  0  0
  -11.5990   -8.8630    0.0480 C   0  0  0  0  0
  -11.4340   -9.4760   -1.3430 C   0  0  0  0  0
  -11.2400  -10.6850   -1.4910 O   0  0  0  0  0
  -12.9630   -9.2820    0.6220 C   0  0  0  0  0
  -14.1420   -8.6570   -0.1420 C   0  0  0  0  0
  -14.1030   -7.4350   -0.4320 O   0  0  0  0  0
  -15.0910   -9.3970   -0.4910 O   0  0  0  0  0
  -11.6000   -8.6450   -2.3640 N   0  0  0  0  0
  -11.5870   -9.1230   -3.7360 C   0  0  0  0  0
  -12.3110   -8.1380   -4.6630 C   0  0  0  0  0
  -13.5780   -7.7980   -4.1150 O   0  0  0  0  0
  -10.1710   -9.3810   -4.2270 C   0  0  0  0  0
   -9.2000   -8.7910   -3.7370 O   0  0  0  0  0
  -14.7390   -7.7420   -5.2310 P   0  0  0  0  0
  -16.1340   -7.5310   -4.4540 O   0  0  0  0  0
  -14.8250   -9.1060   -6.0790 O   0  0  0  0  0
  -14.4340   -6.5310   -6.2490 O   0  0  0  0  0
  -10.0720  -10.2070   -5.2530 N   0  0  0  0  0
   -8.7930  -10.7690   -5.6450 C   0  0  0  0  0
   -8.9730  -11.4460   -7.0000 C   0  0  0  0  0
  -10.1060  -11.7080   -7.4280 O   0  0  0  0  0
   -8.3460  -11.7820   -4.5840 C   0  0  0  0  0
   -6.8460  -12.0180   -4.5830 C   0  0  0  0  0
   -6.1350  -11.4160   -5.4230 O   0  0  0  0  0
   -6.3910  -12.8380   -3.7560 O   0  0  0  0  0
   -7.8600  -11.7430   -7.6610 N   0  0  0  0  0
   -7.8750  -12.5970   -8.8460 C   0  0  0  0  0
   -8.0960  -14.0480   -8.4510 C   0  0  0  0  0
   -7.9820  -14.4050   -7.2780 O   0  0  0  0  0
   -6.5520  -12.4610   -9.6100 C   0  0  0  0  0
   -6.3070  -11.0870  -10.1770 C   0  0  0  0  0
   -4.9610  -10.9630  -10.8800 C   0  0  0  0  0
   -4.2800  -12.0020  -11.0990 O   0  0  0  0  0
   -4.5980   -9.8140  -11.2410 O   0  0  0  0  0
   -8.4020  -14.8890   -9.4320 N   0  0  0  0  0
   -8.2860  -16.3310   -9.2620 C   0  0  0  0  0
   -6.8030  -16.7090   -9.1480 C   0  0  0  0  0
   -5.9690  -16.1740   -9.8730 O   0  0  0  0  0
   -8.8750  -17.0600  -10.4670 C   0  0  0  0  0
  -10.3580  -16.7600  -10.6820 C   0  0  0  0  0
  -10.8020  -16.8630  -11.8460 O   0  0  0  0  0
  -11.0750  -16.4490   -9.7020 O   0  0  0  0  0
   -6.5060  -17.7110   -8.3250 N   0  0  0  0  0
   -5.2010  -18.3680   -8.3580 C   0  0  0  0  0
   -4.8750  -18.8430   -9.7760 C   0  0  0  0  0
   -5.6620  -19.5690  -10.3890 O   0  0  0  0  0
   -5.1870  -19.5540   -7.4000 C   0  0  0  0  0
   -3.9660  -20.4710   -7.4420 C   0  0  0  0  0
   -2.6960  -19.6930   -7.1300 C   0  0  0  0  0
   -4.1390  -21.6150   -6.4680 C   0  0  0  0  0
   -3.7390  -18.3880  -10.3020 N   0  0  0  0  0
   -3.2470  -18.8140  -11.6100 C   0  0  0  0  0
   -2.7610  -20.2550  -11.5690 C   0  0  0  0  0
   -1.6840  -20.5440  -11.0570 O   0  0  0  0  0
   -2.1150  -17.8980  -12.0730 C   0  0  0  0  0
   -1.5630  -18.1320  -13.4760 C   0  0  0  0  0
   -2.6870  -17.9710  -14.5090 C   0  0  0  0  0
   -0.4260  -17.1590  -13.7520 C   0  0  0  0  0
   -3.5870  -21.1670  -12.0630 N   0  0  0  0  0
   -3.1920  -22.5600  -12.1640 C   0  0  0  0  0
   -2.9280  -22.9420  -13.6220 C   0  0  0  0  0
   -2.0430  -22.3770  -14.2930 O   0  0  0  0  0
   -4.2560  -23.4560  -11.5310 C   0  0  0  0  0
   -4.3400  -23.3090  -10.0200 C   0  0  0  0  0
   -5.6020  -23.8990   -9.4270 C   0  0  0  0  0
   -5.5020  -24.9310   -8.7230 O   0  0  0  0  0
   -6.6880  -23.3110   -9.6300 O   0  0  0  0  0
   -3.6110  -23.8110  -14.1680 O   0  0  0  0  0
   -9.9715   -5.2606    2.4927 H   0  0  0  0  0
   -8.9219   -4.6840    1.3339 H   0  0  0  0  0
  -10.1639   -3.7203    1.8867 H   0  0  0  0  0
  -11.8029   -5.1594    0.9560 H   0  0  0  0  0
   -9.6255   -4.3601   -0.9844 H   0  0  0  0  0
  -11.0228   -3.3478   -0.4119 H   0  0  0  0  0
  -12.8789   -3.8365   -1.2028 H   0  0  0  0  0
  -12.3919   -6.9187   -0.3623 H   0  0  0  0  0
  -10.7901   -9.2130    0.6893 H   0  0  0  0  0
  -13.0124   -8.9384    1.6552 H   0  0  0  0  0
  -13.0445  -10.3656    0.5371 H   0  0  0  0  0
  -13.3000   -7.0481   -0.0755 H   0  0  0  0  0
  -11.7395   -7.6511   -2.1821 H   0  0  0  0  0
  -12.1208  -10.0731   -3.7564 H   0  0  0  0  0
  -12.4547   -8.6025   -5.6385 H   0  0  0  0  0
  -11.7103   -7.2344   -4.7662 H   0  0  0  0  0
  -16.0950   -6.7189   -3.9435 H   0  0  0  0  0
  -14.3794   -5.7078   -5.7581 H   0  0  0  0  0
  -10.9100  -10.4543   -5.7793 H   0  0  0  0  0
   -8.0292   -9.9954   -5.7245 H   0  0  0  0  0
   -8.8313  -12.7322   -4.8071 H   0  0  0  0  0
   -8.6197  -11.3824   -3.6075 H   0  0  0  0  0
   -6.6885  -10.8384   -5.9537 H   0  0  0  0  0
   -6.9714  -11.3649   -7.3326 H   0  0  0  0  0
   -8.6943  -12.2801   -9.4913 H   0  0  0  0  0
   -6.5924  -13.1540  -10.4504 H   0  0  0  0  0
   -5.7486  -12.6656   -8.9023 H   0  0  0  0  0
   -6.3143  -10.3799   -9.3475 H   0  0  0  0  0
   -7.0854  -10.8887  -10.9138 H   0  0  0  0  0
   -4.7391  -12.7655  -10.7413 H   0  0  0  0  0
   -8.7256  -14.5168  -10.3248 H   0  0  0  0  0
   -8.8283  -16.6191   -8.3614 H   0  0  0  0  0
   -8.7759  -18.1306  -10.2877 H   0  0  0  0  0
   -8.3369  -16.7239  -11.3533 H   0  0  0  0  0
  -10.5368  -16.4270   -8.9074 H   0  0  0  0  0
   -7.2061  -18.0285   -7.6546 H   0  0  0  0  0
   -4.4444  -17.6476   -8.0472 H   0  0  0  0  0
   -6.0345  -20.1764   -7.6872 H   0  0  0  0  0
   -5.2007  -19.1252   -6.3980 H   0  0  0  0  0
   -3.8752  -20.8789   -8.4487 H   0  0  0  0  0
   -2.5668  -18.9003   -7.8669 H   0  0  0  0  0
   -2.7744  -19.2561   -6.1345 H   0  0  0  0  0
   -1.8403  -20.3673   -7.1659 H   0  0  0  0  0
   -4.2533  -21.2177   -5.4595 H   0  0  0  0  0
   -5.0262  -22.1883   -6.7368 H   0  0  0  0  0
   -3.2617  -22.2606   -6.5083 H   0  0  0  0  0
   -3.1895  -17.7138   -9.7692 H   0  0  0  0  0
   -4.0737  -18.7498  -12.3175 H   0  0  0  0  0
   -1.2846  -18.0843  -11.3920 H   0  0  0  0  0
   -2.5323  -16.8911  -12.0819 H   0  0  0  0  0
   -1.1710  -19.1464  -13.5497 H   0  0  0  0  0
   -3.4737  -18.6972  -14.3042 H   0  0  0  0  0
   -3.0959  -16.9626  -14.4449 H   0  0  0  0  0
   -2.2867  -18.1393  -15.5088 H   0  0  0  0  0
   -0.7975  -16.1371  -13.6762 H   0  0  0  0  0
    0.3680  -17.3134  -13.0214 H   0  0  0  0  0
   -0.0369  -17.3320  -14.7554 H   0  0  0  0  0
   -4.5155  -20.8850  -12.3773 H   0  0  0  0  0
   -2.2613  -22.7048  -11.6154 H   0  0  0  0  0
   -1.5933  -21.7286  -13.7462 H   0  0  0  0  0
   -3.9891  -24.4903  -11.7482 H   0  0  0  0  0
   -5.2215  -23.1662  -11.9455 H   0  0  0  0  0
   -4.3380  -22.2428   -9.7932 H   0  0  0  0  0
   -3.4937  -23.8450   -9.5904 H   0  0  0  0  0
   -4.5850  -25.2144   -8.7010 H   0  0  0  0  0
  1  2  1  0  0  0
  2  3  1  0  0  0
  2  5  1  0  0  0
  3  4  2  0  0  0
  3  9  1  0  0  0
  5  6  1  0  0  0
  6  7  1  0  0  0
  6  8  2  0  0  0
  9 10  1  0  0  0
 10 11  1  0  0  0
 10 13  1  0  0  0
 11 12  2  0  0  0
 11 17  1  0  0  0
 13 14  1  0  0  0
 14 15  1  0  0  0
 14 16  2  0  0  0
 17 18  1  0  0  0
 18 19  1  0  0  0
 18 21  1  0  0  0
 19 20  1  0  0  0
 20 23  1  0  0  0
 21 22  2  0  0  0
 21 27  1  0  0  0
 23 24  1  0  0  0
 23 25  2  0  0  0
 23 26  1  0  0  0
 27 28  1  0  0  0
 28 29  1  0  0  0
 28 31  1  0  0  0
 29 30  2  0  0  0
 29 35  1  0  0  0
 31 32  1  0  0  0
 32 33  1  0  0  0
 32 34  2  0  0  0
 35 36  1  0  0  0
 36 37  1  0  0  0
 36 39  1  0  0  0
 37 38  2  0  0  0
 37 44  1  0  0  0
 39 40  1  0  0  0
 40 41  1  0  0  0
 41 42  1  0  0  0
 41 43  2  0  0  0
 44 45  1  0  0  0
 45 46  1  0  0  0
 45 48  1  0  0  0
 46 47  2  0  0  0
 46 52  1  0  0  0
 48 49  1  0  0  0
 49 50  2  0  0  0
 49 51  1  0  0  0
 52 53  1  0  0  0
 53 54  1  0  0  0
 53 56  1  0  0  0
 54 55  2  0  0  0
 54 60  1  0  0  0
 56 57  1  0  0  0
 57 58  1  0  0  0
 57 59  1  0  0  0
 60 61  1  0  0  0
 61 62  1  0  0  0
 61 64  1  0  0  0
 62 63  2  0  0  0
 62 68  1  0  0  0
 64 65  1  0  0  0
 65 66  1  0  0  0
 65 67  1  0  0  0
 68 69  1  0  0  0
 69 70  1  0  0  0
 69 72  1  0  0  0
 70 71  1  0  0  0
 70 77  2  0  0  0
 72 73  1  0  0  0
 73 74  1  0  0  0
 74 75  1  0  0  0
 74 76  2  0  0  0
  1 78  1  0  0  0
  1 79  1  0  0  0
  1 80  1  0  0  0
  2 81  1  0  0  0
  5 82  1  0  0  0
  5 83  1  0  0  0
  7 84  1  0  0  0
  9 85  1  0  0  0
 10 86  1  0  0  0
 13 87  1  0  0  0
 13 88  1  0  0  0
 15 89  1  0  0  0
 17 90  1  0  0  0
 18 91  1  0  0  0
 19 92  1  0  0  0
 19 93  1  0  0  0
 24 94  1  0  0  0
 26 95  1  0  0  0
 27 96  1  0  0  0
 28 97  1  0  0  0
 31 98  1  0  0  0
 31 99  1  0  0  0
 33100  1  0  0  0
 35101  1  0  0  0
 36102  1  0  0  0
 39103  1  0  0  0
 39104  1  0  0  0
 40105  1  0  0  0
 40106  1  0  0  0
 42107  1  0  0  0
 44108  1  0  0  0
 45109  1  0  0  0
 48110  1  0  0  0
 48111  1  0  0  0
 51112  1  0  0  0
 52113  1  0  0  0
 53114  1  0  0  0
 56115  1  0  0  0
 56116  1  0  0  0
 57117  1  0  0  0
 58118  1  0  0  0
 58119  1  0  0  0
 58120  1  0  0  0
 59121  1  0  0  0
 59122  1  0  0  0
 59123  1  0  0  0
 60124  1  0  0  0
 61125  1  0  0  0
 64126  1  0  0  0
 64127  1  0  0  0
 65128  1  0  0  0
 66129  1  0  0  0
 66130  1  0  0  0
 66131  1  0  0  0
 67132  1  0  0  0
 67133  1  0  0  0
 67134  1  0  0  0
 68135  1  0  0  0
 69136  1  0  0  0
 71137  1  0  0  0
 72138  1  0  0  0
 72139  1  0  0  0
 73140  1  0  0  0
 73141  1  0  0  0
 75142  1  0  0  0
M  END
$$$$
