### 
### Created by X-TOOL on Mon Sep 10 21:13:01 2018
### 

@<TRIPOS>MOLECULE
3g2v_ligand
  133   132     1     0     0
SMALL
GAST_HUCK


@<TRIPOS>ATOM
      1 N          -9.8880   -4.6760    1.6610 N.4       1 ASP         0.2391
      2 CA        -10.7770   -5.2080    0.5910 C.3       1 ASP         0.0764
      3 C         -10.4940   -6.6800    0.2850 C.2       1 ASP         0.2285
      4 O          -9.3520   -7.1410    0.3420 O.2       1 ASP        -0.3906
      5 CB        -10.6670   -4.3470   -0.6630 C.3       1 ASP         0.0607
      6 CG        -11.5070   -4.8600   -1.8060 C.2       1 ASP         0.0425
      7 OD1       -12.6660   -4.4030   -1.9480 O.co2     1 ASP        -0.5686
      8 OD2       -10.9640   -5.6300   -2.6280 O.co2     1 ASP        -0.5686
      9 N         -11.5570   -7.4060   -0.0370 N.am      1 ASP        -0.2594
     10 CA        -11.5990   -8.8630    0.0480 C.3       1 ASP         0.1424
     11 C         -11.4340   -9.4760   -1.3430 C.2       1 ASP         0.2057
     12 O         -11.2400  -10.6850   -1.4910 O.2       1 ASP        -0.3943
     13 CB        -12.9630   -9.2820    0.6220 C.3       1 ASP         0.0406
     14 CG        -14.1420   -8.6570   -0.1420 C.2       1 ASP         0.0393
     15 OD1       -14.1030   -7.4350   -0.4320 O.co2     1 ASP        -0.5688
     16 OD2       -15.0910   -9.3970   -0.4910 O.co2     1 ASP        -0.5688
     17 N         -11.6000   -8.6450   -2.3640 N.am      1 SEP        -0.2612
     18 CA        -11.5870   -9.1230   -3.7360 C.3       1 SEP         0.1586
     19 CB        -12.3110   -8.1380   -4.6630 C.3       1 SEP         0.1184
     20 OG        -13.5780   -7.7980   -4.1150 O.3       1 SEP        -0.2714
     21 C         -10.1710   -9.3810   -4.2270 C.2       1 SEP         0.2066
     22 O          -9.2000   -8.7910   -3.7370 O.2       1 SEP        -0.3943
     23 P         -14.7390   -7.7420   -5.2310 P.3       1 SEP         0.2010
     24 O1P       -16.1340   -7.5310   -4.4540 O.co2     1 SEP        -0.5537
     25 O2P       -14.8250   -9.1060   -6.0790 O.co2     1 SEP        -0.5537
     26 O3P       -14.4340   -6.5310   -6.2490 O.co2     1 SEP        -0.5537
     27 N         -10.0720  -10.2070   -5.2530 N.am      1 ASP        -0.2621
     28 CA         -8.7930  -10.7690   -5.6450 C.3       1 ASP         0.1423
     29 C          -8.9730  -11.4460   -7.0000 C.2       1 ASP         0.2056
     30 O         -10.1060  -11.7080   -7.4280 O.2       1 ASP        -0.3943
     31 CB         -8.3460  -11.7820   -4.5840 C.3       1 ASP         0.0406
     32 CG         -6.8460  -12.0180   -4.5830 C.2       1 ASP         0.0393
     33 OD1        -6.1350  -11.4160   -5.4230 O.co2     1 ASP        -0.5688
     34 OD2        -6.3910  -12.8380   -3.7560 O.co2     1 ASP        -0.5688
     35 N          -7.8600  -11.7430   -7.6610 N.am      1 GLU        -0.2635
     36 CA         -7.8750  -12.5970   -8.8460 C.3       1 GLU         0.1325
     37 C          -8.0960  -14.0480   -8.4510 C.2       1 GLU         0.2041
     38 O          -7.9820  -14.4050   -7.2780 O.2       1 GLU        -0.3944
     39 CB         -6.5520  -12.4610   -9.6100 C.3       1 GLU        -0.0008
     40 CG         -6.3070  -11.0870  -10.1770 C.3       1 GLU         0.0044
     41 CD         -4.9610  -10.9630  -10.8800 C.2       1 GLU         0.0350
     42 OE1        -4.2800  -12.0020  -11.0990 O.co2     1 GLU        -0.5690
     43 OE2        -4.5980   -9.8140  -11.2410 O.co2     1 GLU        -0.5690
     44 N          -8.4020  -14.8890   -9.4320 N.am      1 ASP        -0.2622
     45 CA         -8.2860  -16.3310   -9.2620 C.3       1 ASP         0.1423
     46 C          -6.8030  -16.7090   -9.1480 C.2       1 ASP         0.2056
     47 O          -5.9690  -16.1740   -9.8730 O.2       1 ASP        -0.3943
     48 CB         -8.8750  -17.0600  -10.4670 C.3       1 ASP         0.0406
     49 CG        -10.3580  -16.7600  -10.6820 C.2       1 ASP         0.0393
     50 OD1       -10.8020  -16.8630  -11.8460 O.co2     1 ASP        -0.5688
     51 OD2       -11.0750  -16.4490   -9.7020 O.co2     1 ASP        -0.5688
     52 N          -6.5060  -17.7110   -8.3250 N.am      1 LEU        -0.2636
     53 CA         -5.2010  -18.3680   -8.3580 C.3       1 LEU         0.1312
     54 C          -4.8750  -18.8430   -9.7760 C.2       1 LEU         0.2039
     55 O          -5.6620  -19.5690  -10.3890 O.2       1 LEU        -0.3944
     56 CB         -5.1870  -19.5540   -7.4000 C.3       1 LEU        -0.0101
     57 CG         -3.9660  -20.4710   -7.4420 C.3       1 LEU        -0.0425
     58 CD1        -2.6960  -19.6930   -7.1300 C.3       1 LEU        -0.0625
     59 CD2        -4.1390  -21.6150   -6.4680 C.3       1 LEU        -0.0625
     60 N          -3.7390  -18.3880  -10.3020 N.am      1 LEU        -0.2637
     61 CA         -3.2470  -18.8140  -11.6100 C.3       1 LEU         0.1312
     62 C          -2.7610  -20.2550  -11.5690 C.2       1 LEU         0.2034
     63 O          -1.6840  -20.5440  -11.0570 O.2       1 LEU        -0.3944
     64 CB         -2.1150  -17.8980  -12.0730 C.3       1 LEU        -0.0101
     65 CG         -1.5630  -18.1320  -13.4760 C.3       1 LEU        -0.0425
     66 CD1        -2.6870  -17.9710  -14.5090 C.3       1 LEU        -0.0625
     67 CD2        -0.4260  -17.1590  -13.7520 C.3       1 LEU        -0.0625
     68 N          -3.5870  -21.1670  -12.0630 N.am      1 GLU        -0.2694
     69 CA         -3.1920  -22.5600  -12.1640 C.3       1 GLU         0.0959
     70 C          -2.9280  -22.9420  -13.6220 C.2       1 GLU         0.0602
     71 O          -2.0430  -22.3770  -14.2930 O.co2     1 GLU        -0.5666
     72 CB         -4.2560  -23.4560  -11.5310 C.3       1 GLU        -0.0064
     73 CG         -4.3400  -23.3090  -10.0200 C.3       1 GLU         0.0038
     74 CD         -5.6020  -23.8990   -9.4270 C.2       1 GLU         0.0350
     75 OE1        -5.5020  -24.9310   -8.7230 O.co2     1 GLU        -0.5690
     76 OE2        -6.6880  -23.3110   -9.6300 O.co2     1 GLU        -0.5690
     77 OXT        -3.6110  -23.8110  -14.1680 O.co2     1 GLU        -0.5666
     78 H1        -10.1081   -3.7069    1.8297 H         1 ASP         0.2016
     79 H2         -8.9264   -4.7563    1.3697 H         1 ASP         0.2016
     80 H3        -10.0279   -5.2046    2.5078 H         1 ASP         0.2016
     81 H4        -11.8130   -5.1409    0.9545 H         1 ASP         0.1117
     82 H5         -9.6148   -4.3266   -0.9830 H         1 ASP         0.0512
     83 H6        -10.9954   -3.3263   -0.4173 H         1 ASP         0.0512
     84 H7        -12.3756   -6.9283   -0.3559 H         1 ASP         0.1886
     85 H8        -10.7918   -9.2185    0.7053 H         1 ASP         0.0819
     86 H9        -13.0159   -8.9634    1.6735 H         1 ASP         0.0478
     87 H10       -13.0476  -10.3773    0.5660 H         1 ASP         0.0478
     88 H11       -11.7367   -7.6706   -2.1857 H         1 SEP         0.1884
     89 H12       -12.1317  -10.0782   -3.7640 H         1 SEP         0.0827
     90 H13       -12.4536   -8.6034   -5.6494 H         1 SEP         0.0662
     91 H14       -11.7045   -7.2268   -4.7717 H         1 SEP         0.0662
     92 H15       -10.8936  -10.4494   -5.7690 H         1 ASP         0.1884
     93 H16        -8.0409   -9.9706   -5.7279 H         1 ASP         0.0819
     94 H17        -8.8512  -12.7395   -4.7788 H         1 ASP         0.0478
     95 H18        -8.6422  -11.4059   -3.5936 H         1 ASP         0.0478
     96 H19        -6.9889  -11.3723   -7.3390 H         1 GLU         0.1883
     97 H20        -8.6989  -12.2783   -9.5015 H         1 GLU         0.0801
     98 H21        -6.5575  -13.1816  -10.4411 H         1 GLU         0.0330
     99 H22        -5.7290  -12.7020   -8.9211 H         1 GLU         0.0330
    100 H23        -6.3411  -10.3574   -9.3545 H         1 GLU         0.0433
    101 H24        -7.1028  -10.8601  -10.9017 H         1 GLU         0.0433
    102 H25        -8.7193  -14.5241  -10.3073 H         1 ASP         0.1884
    103 H26        -8.8200  -16.6355   -8.3498 H         1 ASP         0.0819
    104 H27        -8.7553  -18.1427  -10.3142 H         1 ASP         0.0478
    105 H28        -8.3216  -16.7532  -11.3668 H         1 ASP         0.0478
    106 H29        -7.1924  -18.0223   -7.6677 H         1 LEU         0.1883
    107 H30        -4.4340  -17.6459   -8.0413 H         1 LEU         0.0800
    108 H31        -6.0710  -20.1697   -7.6226 H         1 LEU         0.0315
    109 H32        -5.2660  -19.1549   -6.3780 H         1 LEU         0.0315
    110 H33        -3.8777  -20.8868   -8.4565 H         1 LEU         0.0298
    111 H34        -1.8317  -20.3724   -7.1660 H         1 LEU         0.0232
    112 H35        -2.7738  -19.2516   -6.1255 H         1 LEU         0.0232
    113 H36        -2.5644  -18.8927   -7.8730 H         1 LEU         0.0232
    114 H37        -5.0607  -22.1652   -6.7086 H         1 LEU         0.0232
    115 H38        -4.2056  -21.2181   -5.4443 H         1 LEU         0.0232
    116 H39        -3.2767  -22.2938   -6.5428 H         1 LEU         0.0232
    117 H40        -3.2003  -17.7270   -9.7796 H         1 LEU         0.1883
    118 H41        -4.0739  -18.7447  -12.3321 H         1 LEU         0.0800
    119 H42        -1.2817  -18.0166  -11.3648 H         1 LEU         0.0315
    120 H43        -2.4872  -16.8637  -12.0314 H         1 LEU         0.0315
    121 H44        -1.1713  -19.1580  -13.5385 H         1 LEU         0.0298
    122 H45        -2.2843  -18.1406  -15.5185 H         1 LEU         0.0232
    123 H46        -3.1005  -16.9537  -14.4454 H         1 LEU         0.0232
    124 H47        -3.4816  -18.7034  -14.3035 H         1 LEU         0.0232
    125 H48         0.3641  -17.2953  -12.9989 H         1 LEU         0.0232
    126 H49        -0.8057  -16.1278  -13.7025 H         1 LEU         0.0232
    127 H50        -0.0145  -17.3506  -14.7540 H         1 LEU         0.0232
    128 H51        -4.4973  -20.8905  -12.3711 H         1 GLU         0.1875
    129 H52        -2.2553  -22.6942  -11.6031 H         1 GLU         0.0727
    130 H53        -4.0173  -24.5033  -11.7677 H         1 GLU         0.0323
    131 H54        -5.2339  -23.1962  -11.9625 H         1 GLU         0.0323
    132 H55        -4.3059  -22.2380   -9.7715 H         1 GLU         0.0432
    133 H56        -3.4736  -23.8172   -9.5716 H         1 GLU         0.0432
@<TRIPOS>BOND
     1    1    2 1  
     2    2    3 1  
     3    2    5 1  
     4    3    4 2  
     5    3    9 am 
     6    5    6 1  
     7    6    7 ar 
     8    6    8 ar 
     9    9   10 1  
    10   10   11 1  
    11   10   13 1  
    12   11   12 2  
    13   11   17 am 
    14   13   14 1  
    15   14   15 ar 
    16   14   16 ar 
    17   17   18 1  
    18   18   19 1  
    19   18   21 1  
    20   19   20 1  
    21   20   23 1  
    22   21   22 2  
    23   21   27 am 
    24   23   24 ar 
    25   23   25 ar 
    26   23   26 ar 
    27   27   28 1  
    28   28   29 1  
    29   28   31 1  
    30   29   30 2  
    31   29   35 am 
    32   31   32 1  
    33   32   33 ar 
    34   32   34 ar 
    35   35   36 1  
    36   36   37 1  
    37   36   39 1  
    38   37   38 2  
    39   37   44 am 
    40   39   40 1  
    41   40   41 1  
    42   41   42 ar 
    43   41   43 ar 
    44   44   45 1  
    45   45   46 1  
    46   45   48 1  
    47   46   47 2  
    48   46   52 am 
    49   48   49 1  
    50   49   50 ar 
    51   49   51 ar 
    52   52   53 1  
    53   53   54 1  
    54   53   56 1  
    55   54   55 2  
    56   54   60 am 
    57   56   57 1  
    58   57   58 1  
    59   57   59 1  
    60   60   61 1  
    61   61   62 1  
    62   61   64 1  
    63   62   63 2  
    64   62   68 am 
    65   64   65 1  
    66   65   66 1  
    67   65   67 1  
    68   68   69 1  
    69   69   70 1  
    70   69   72 1  
    71   70   71 ar 
    72   70   77 ar 
    73   72   73 1  
    74   73   74 1  
    75   74   75 ar 
    76   74   76 ar 
    77    1   78 1  
    78    1   79 1  
    79    1   80 1  
    80    2   81 1  
    81    5   82 1  
    82    5   83 1  
    83    9   84 1  
    84   10   85 1  
    85   13   86 1  
    86   13   87 1  
    87   17   88 1  
    88   18   89 1  
    89   19   90 1  
    90   19   91 1  
    91   27   92 1  
    92   28   93 1  
    93   31   94 1  
    94   31   95 1  
    95   35   96 1  
    96   36   97 1  
    97   39   98 1  
    98   39   99 1  
    99   40  100 1  
   100   40  101 1  
   101   44  102 1  
   102   45  103 1  
   103   48  104 1  
   104   48  105 1  
   105   52  106 1  
   106   53  107 1  
   107   56  108 1  
   108   56  109 1  
   109   57  110 1  
   110   58  111 1  
   111   58  112 1  
   112   58  113 1  
   113   59  114 1  
   114   59  115 1  
   115   59  116 1  
   116   60  117 1  
   117   61  118 1  
   118   64  119 1  
   119   64  120 1  
   120   65  121 1  
   121   66  122 1  
   122   66  123 1  
   123   66  124 1  
   124   67  125 1  
   125   67  126 1  
   126   67  127 1  
   127   68  128 1  
   128   69  129 1  
   129   72  130 1  
   130   72  131 1  
   131   73  132 1  
   132   73  133 1  
@<TRIPOS>SUBSTRUCTURE
     1 ASP         1

