6pz4_ligand
  -I-interpret- 

 53 56  0  0  0  0  0  0  0  0999 V2000
   64.5310   49.0930   10.4070 C   0  0  0  0  0
   64.7410   47.6900   10.1890 O   0  0  0  0  0
   65.9410   47.2030   10.8440 C   0  0  0  0  0
   67.1050   47.3960    9.9030 C   0  0  0  0  0
   67.8610   48.6950   10.0740 C   0  0  0  0  0
   68.5280   47.3590   10.4580 C   0  0  0  0  0
   66.9320   46.7240    8.2280 S   0  0  0  0  0
   66.6830   48.1950    7.3230 C   0  0  0  0  0
   65.8650   48.2070    6.2870 N   0  0  0  0  0
   67.3160   49.3670    7.7080 N   0  0  0  0  0
   68.3160   49.4360    8.8060 C   0  0  0  0  0
   68.4240   50.9450    9.0980 C   0  0  0  0  0
   69.7010   48.9570    8.3180 C   0  0  0  0  0
   69.9090   48.4440    7.0380 C   0  0  0  0  0
   70.8120   49.0750    9.1590 C   0  0  0  0  0
   70.6860   49.5630   10.4050 F   0  0  0  0  0
   72.0630   48.6700    8.7330 C   0  0  0  0  0
   73.1020   48.7910    9.5940 F   0  0  0  0  0
   72.2610   48.1520    7.4550 C   0  0  0  0  0
   71.1680   48.0360    6.5790 C   0  0  0  0  0
   71.2590   47.4850    5.3530 N   0  0  0  0  0
   72.3440   46.9280    4.7810 C   0  0  0  0  0
   73.4980   46.9440    5.2260 O   0  0  0  0  0
   72.0750   46.2630    3.4260 C   0  0  0  0  0
   72.9940   45.3820    2.8670 C   0  0  0  0  0
   72.7420   44.8010    1.7000 N   0  0  0  0  0
   70.9320   46.5080    2.7720 N   0  0  0  0  0
   70.6740   45.9350    1.6110 C   0  0  0  0  0
   71.5900   45.0600    1.0450 C   0  0  0  0  0
   71.2600   44.5170   -0.1560 O   0  0  0  0  0
   72.2360   43.6860   -0.8150 C   0  0  0  0  0
   73.3430   44.5010   -1.3240 C   0  0  0  0  0
   74.2050   45.1590   -1.7240 C   0  0  0  0  0
   64.4329   49.2826   11.4759 H   0  0  0  0  0
   65.3805   49.6516   10.0141 H   0  0  0  0  0
   63.6207   49.4065    9.8960 H   0  0  0  0  0
   65.8304   46.1471   11.0907 H   0  0  0  0  0
   66.1122   47.7538   11.7689 H   0  0  0  0  0
   67.6878   49.6364   10.5955 H   0  0  0  0  0
   69.4647   46.8267   10.2928 H   0  0  0  0  0
   69.0780   46.9204   11.2906 H   0  0  0  0  0
   65.7022   49.0745    5.7757 H   0  0  0  0  0
   67.0833   50.2272    7.2117 H   0  0  0  0  0
   68.7566   51.4647    8.1995 H   0  0  0  0  0
   67.4484   51.3261    9.3996 H   0  0  0  0  0
   69.1432   51.1079    9.9007 H   0  0  0  0  0
   69.0553   48.3568    6.3659 H   0  0  0  0  0
   73.2555   47.8392    7.1370 H   0  0  0  0  0
   70.4069   47.4902    4.7924 H   0  0  0  0  0
   73.9262   45.1672    3.3895 H   0  0  0  0  0
   69.7381   46.1501    1.0953 H   0  0  0  0  0
   71.7592   43.1740   -1.6509 H   0  0  0  0  0
   72.6277   42.9635   -0.0990 H   0  0  0  0  0
  1  2  1  0  0  0
  2  3  1  0  0  0
  3  4  1  0  0  0
  4  5  1  0  0  0
  4  6  1  0  0  0
  4  7  1  0  0  0
  5  6  1  0  0  0
  5 11  1  0  0  0
  7  8  1  0  0  0
  8  9  2  0  0  0
  8 10  1  0  0  0
 10 11  1  0  0  0
 11 12  1  0  0  0
 11 13  1  0  0  0
 13 14  4  0  0  0
 13 15  4  0  0  0
 14 20  4  0  0  0
 15 16  1  0  0  0
 15 17  4  0  0  0
 17 18  1  0  0  0
 17 19  4  0  0  0
 19 20  4  0  0  0
 20 21  1  0  0  0
 21 22  1  0  0  0
 22 23  2  0  0  0
 22 24  1  0  0  0
 24 25  4  0  0  0
 24 27  4  0  0  0
 25 26  4  0  0  0
 26 29  4  0  0  0
 27 28  4  0  0  0
 28 29  4  0  0  0
 29 30  1  0  0  0
 30 31  1  0  0  0
 31 32  1  0  0  0
 32 33  3  0  0  0
  1 34  1  0  0  0
  1 35  1  0  0  0
  1 36  1  0  0  0
  3 37  1  0  0  0
  3 38  1  0  0  0
  5 39  1  0  0  0
  6 40  1  0  0  0
  6 41  1  0  0  0
  9 42  1  0  0  0
 10 43  1  0  0  0
 12 44  1  0  0  0
 12 45  1  0  0  0
 12 46  1  0  0  0
 14 47  1  0  0  0
 19 48  1  0  0  0
 21 49  1  0  0  0
 25 50  1  0  0  0
 28 51  1  0  0  0
 31 52  1  0  0  0
 31 53  1  0  0  0
M  END
$$$$
