3jzi_ligand
  -I-interpret- 

 59 62  0  0  0  0  0  0  0  0999 V2000
  -15.1330   -2.0860   -1.8480 N   0  0  0  0  0
  -15.2760   -1.9930   -0.4970 C   0  0  0  0  0
  -16.1540   -2.5870    0.1130 O   0  0  0  0  0
  -14.3240   -1.1100    0.2190 C   0  0  0  0  0
  -14.5980   -0.8590    1.5810 C   0  0  0  0  0
  -13.7900   -0.0110    2.3630 C   0  0  0  0  0
  -14.1360    0.1790    3.7150 N   0  0  0  0  0
  -12.6730    0.5530    1.6860 C   0  0  0  0  0
  -11.6900    1.3960    2.0710 N   0  0  0  0  0
  -11.5940    1.9870    3.3740 C   0  0  0  0  0
  -10.7160    1.3160    4.3720 C   0  0  0  0  0
  -10.6120    1.8320    5.8020 C   0  0  0  0  0
  -10.6320    0.6870    6.7860 C   0  0  0  0  0
  -11.4110   -0.4950    6.2780 C   0  0  0  0  0
  -10.6190   -1.4790    5.4190 C   0  0  0  0  0
   -9.6120   -0.9610    4.3690 C   0  0  0  0  0
   -9.5550    0.4880    3.8840 C   0  0  0  0  0
   -8.3060    1.1370    4.2190 O   0  0  0  0  0
  -10.8460    1.6360    1.0130 C   0  0  0  0  0
   -9.7810    2.4690    1.1850 N   0  0  0  0  0
   -9.0000    2.9530    0.1020 C   0  0  0  0  0
   -9.6430    4.1030   -0.6160 C   0  0  0  0  0
  -10.4530    5.0780    0.0580 C   0  0  0  0  0
  -11.0300    6.1410   -0.6710 C   0  0  0  0  0
  -10.8070    6.2610   -2.0600 C   0  0  0  0  0
  -10.0090    5.3020   -2.7340 C   0  0  0  0  0
   -9.4260    4.2290   -2.0100 C   0  0  0  0  0
   -8.4580    3.0750   -2.8710 Cl  0  0  0  0  0
  -11.2410    0.9590   -0.0370 N   0  0  0  0  0
  -12.3640    0.3050    0.3500 C   0  0  0  0  0
  -13.1850   -0.5440   -0.4020 C   0  0  0  0  0
  -15.7721   -2.6678   -2.3896 H   0  0  0  0  0
  -14.3868   -1.5738   -2.3183 H   0  0  0  0  0
  -15.4625   -1.3368    2.0420 H   0  0  0  0  0
  -14.9532   -0.2920    4.1033 H   0  0  0  0  0
  -13.5694    0.7876    4.3058 H   0  0  0  0  0
  -12.5999    1.9410    3.7912 H   0  0  0  0  0
  -11.1578    2.9735    3.2167 H   0  0  0  0  0
  -11.4908    0.5692    4.5450 H   0  0  0  0  0
  -11.4616    2.4844    6.0036 H   0  0  0  0  0
   -9.6736    2.3753    5.9129 H   0  0  0  0  0
  -11.1107    1.0376    7.7004 H   0  0  0  0  0
   -9.6032    0.3665    6.9502 H   0  0  0  0  0
  -12.2044   -0.0971    5.6454 H   0  0  0  0  0
  -11.7473   -1.0474    7.1554 H   0  0  0  0  0
  -11.3778   -1.9974    4.8328 H   0  0  0  0  0
  -10.0058   -2.0284    6.1333 H   0  0  0  0  0
   -9.9004   -1.5050    3.4696 H   0  0  0  0  0
   -8.6534   -1.0843    4.8730 H   0  0  0  0  0
   -9.6243    0.4254    2.7980 H   0  0  0  0  0
   -7.5740    0.6018    3.9039 H   0  0  0  0  0
   -9.5344    2.7571    2.1319 H   0  0  0  0  0
   -8.8827    2.1387   -0.6130 H   0  0  0  0  0
   -8.0508    3.3034    0.5074 H   0  0  0  0  0
  -10.6225    4.9979    1.1317 H   0  0  0  0  0
  -11.6521    6.8742   -0.1576 H   0  0  0  0  0
  -11.2478    7.0900   -2.6137 H   0  0  0  0  0
   -9.8432    5.3887   -3.8078 H   0  0  0  0  0
  -12.9519   -0.7644   -1.4437 H   0  0  0  0  0
  1  2  1  0  0  0
  2  3  2  0  0  0
  2  4  1  0  0  0
  4  5  4  0  0  0
  4 31  4  0  0  0
  5  6  4  0  0  0
  6  7  1  0  0  0
  6  8  4  0  0  0
  8  9  4  0  0  0
  8 30  4  0  0  0
  9 10  1  0  0  0
  9 19  4  0  0  0
 10 11  1  0  0  0
 11 12  1  0  0  0
 11 17  1  0  0  0
 12 13  1  0  0  0
 13 14  1  0  0  0
 14 15  1  0  0  0
 15 16  1  0  0  0
 16 17  1  0  0  0
 17 18  1  0  0  0
 19 20  1  0  0  0
 19 29  4  0  0  0
 20 21  1  0  0  0
 21 22  1  0  0  0
 22 23  4  0  0  0
 22 27  4  0  0  0
 23 24  4  0  0  0
 24 25  4  0  0  0
 25 26  4  0  0  0
 26 27  4  0  0  0
 27 28  1  0  0  0
 29 30  4  0  0  0
 30 31  4  0  0  0
  1 32  1  0  0  0
  1 33  1  0  0  0
  5 34  1  0  0  0
  7 35  1  0  0  0
  7 36  1  0  0  0
 10 37  1  0  0  0
 10 38  1  0  0  0
 11 39  1  0  0  0
 12 40  1  0  0  0
 12 41  1  0  0  0
 13 42  1  0  0  0
 13 43  1  0  0  0
 14 44  1  0  0  0
 14 45  1  0  0  0
 15 46  1  0  0  0
 15 47  1  0  0  0
 16 48  1  0  0  0
 16 49  1  0  0  0
 17 50  1  0  0  0
 18 51  1  0  0  0
 20 52  1  0  0  0
 21 53  1  0  0  0
 21 54  1  0  0  0
 23 55  1  0  0  0
 24 56  1  0  0  0
 25 57  1  0  0  0
 26 58  1  0  0  0
 31 59  1  0  0  0
M  END
$$$$
