5jfr_ligand
  -I-interpret- 

 32 36  0  0  0  0  0  0  0  0999 V2000
   14.0430  -32.1660  -17.7460 N   0  0  0  0  0
   13.2410  -32.7960  -16.9000 C   0  0  0  0  0
   11.6440  -33.8550  -15.7980 C   0  0  0  0  0
   14.9430  -32.5990  -15.1700 C   0  0  0  0  0
   17.0450  -31.4690  -15.7180 N   0  0  0  0  0
   17.4590  -30.1290  -15.5950 C   0  0  0  0  0
   20.4240  -32.0590  -14.7080 C   0  0  0  0  0
   20.5040  -33.4330  -14.6770 C   0  0  0  0  0
   18.2200  -33.6890  -15.3520 C   0  0  0  0  0
   16.0290  -31.0290  -18.4940 C   0  0  0  0  0
   15.2450  -31.7340  -17.4060 C   0  0  0  0  0
   11.9650  -33.3240  -17.0130 N   0  0  0  0  0
   12.6380  -33.6910  -14.9630 N   0  0  0  0  0
   13.6620  -33.0360  -15.5740 C   0  0  0  0  0
   15.7470  -31.9230  -16.0970 C   0  0  0  0  0
   17.0260  -28.7880  -15.7330 C   0  0  0  0  0
   18.0250  -27.9820  -15.4340 N   0  0  0  0  0
   19.1660  -28.7630  -15.1090 N   0  0  0  0  0
   18.7960  -30.0850  -15.2070 C   0  0  0  0  0
   19.2150  -31.4790  -15.0760 C   0  0  0  0  0
   21.6680  -33.9880  -14.3290 F   0  0  0  0  0
   19.4320  -34.2470  -15.0030 C   0  0  0  0  0
   18.0950  -32.2990  -15.3910 C   0  0  0  0  0
   10.6995  -34.3435  -15.5584 H   0  0  0  0  0
   15.2991  -32.7841  -14.1566 H   0  0  0  0  0
   21.2853  -31.4423  -14.4510 H   0  0  0  0  0
   17.3694  -34.3259  -15.5946 H   0  0  0  0  0
   16.1769  -31.7095  -19.3325 H   0  0  0  0  0
   15.4749  -30.1523  -18.8293 H   0  0  0  0  0
   16.9972  -30.7198  -18.1002 H   0  0  0  0  0
   16.0278  -28.4732  -16.0373 H   0  0  0  0  0
   19.5464  -35.3308  -14.9837 H   0  0  0  0  0
  2  1  4  0  0  0
  1 11  4  0  0  0
  2 12  4  0  0  0
 14  2  4  0  0  0
 12  3  4  0  0  0
  3 13  4  0  0  0
  4 14  4  0  0  0
 15  4  4  0  0  0
  5  6  4  0  0  0
  5 15  1  0  0  0
 23  5  4  0  0  0
  6 16  4  0  0  0
  6 19  4  0  0  0
  8  7  4  0  0  0
  7 20  4  0  0  0
  8 21  1  0  0  0
 22  8  4  0  0  0
  9 22  4  0  0  0
  9 23  4  0  0  0
 11 10  1  0  0  0
 11 15  4  0  0  0
 13 14  4  0  0  0
 16 17  4  0  0  0
 17 18  4  0  0  0
 18 19  4  0  0  0
 19 20  4  0  0  0
 20 23  4  0  0  0
  3 24  1  0  0  0
  4 25  1  0  0  0
  7 26  1  0  0  0
  9 27  1  0  0  0
 10 28  1  0  0  0
 10 29  1  0  0  0
 10 30  1  0  0  0
 16 31  1  0  0  0
 22 32  1  0  0  0
M  END
$$$$
