4pp7_ligand
  -I-interpret- 

 49 51  0  0  0  0  0  0  0  0999 V2000
   13.5180  -26.0540   -2.4870 N   0  0  0  0  0
   13.0190  -27.3170   -2.6230 C   0  0  0  0  0
   12.6660  -27.7970   -3.9040 C   0  0  0  0  0
   12.1410  -29.0970   -4.0660 C   0  0  0  0  0
   11.9580  -29.9470   -2.9550 C   0  0  0  0  0
   12.3080  -29.4790   -1.6700 C   0  0  0  0  0
   12.8290  -28.1720   -1.5080 C   0  0  0  0  0
   13.1550  -27.7420   -0.2680 F   0  0  0  0  0
   12.8320  -27.0080   -4.9920 F   0  0  0  0  0
   11.8330  -29.4860   -5.3060 N   0  0  0  0  0
   11.1200  -30.9330   -5.9050 S   0  0  0  0  0
   12.4670  -31.6730   -6.9260 C   0  0  0  0  0
   14.6470  -32.5910   -5.9730 C   0  0  0  0  0
   13.1660  -32.8580   -6.2460 C   0  0  0  0  0
   14.7310  -25.7250   -1.9560 C   0  0  0  0  0
   15.7380  -26.7110   -1.8070 C   0  0  0  0  0
   16.9980  -26.3820   -1.2550 C   0  0  0  0  0
   17.2670  -25.0560   -0.8440 C   0  0  0  0  0
   16.2700  -24.0620   -0.9890 C   0  0  0  0  0
   15.0110  -24.3980   -1.5420 C   0  0  0  0  0
   18.5220  -24.7250   -0.2930 N   0  0  0  0  0
   18.7600  -23.4990    0.0810 C   0  0  0  0  0
   17.8510  -22.4570   -0.0180 N   0  0  0  0  0
   16.5790  -22.6520   -0.5450 C   0  0  0  0  0
   18.2590  -21.1240    0.4460 C   0  0  0  0  0
   15.7390  -21.7590   -0.6570 O   0  0  0  0  0
   10.7910  -31.7940   -4.7600 O   0  0  0  0  0
   10.0630  -30.4540   -6.8010 O   0  0  0  0  0
   12.5430  -24.9720   -2.6660 C   0  0  0  0  0
   11.5524  -30.9501   -3.0869 H   0  0  0  0  0
   12.1771  -30.1243   -0.8014 H   0  0  0  0  0
   12.0615  -28.8024   -6.0277 H   0  0  0  0  0
   13.2171  -30.8995   -7.0909 H   0  0  0  0  0
   12.0162  -32.0420   -7.8473 H   0  0  0  0  0
   15.1593  -32.3957   -6.9151 H   0  0  0  0  0
   14.7441  -31.7246   -5.3187 H   0  0  0  0  0
   15.0893  -33.4630   -5.4913 H   0  0  0  0  0
   13.0980  -33.7158   -6.9150 H   0  0  0  0  0
   12.6750  -33.0321   -5.2886 H   0  0  0  0  0
   15.5391  -27.7355   -2.1217 H   0  0  0  0  0
   17.7624  -27.1514   -1.1463 H   0  0  0  0  0
   14.2477  -23.6275   -1.6509 H   0  0  0  0  0
   19.7415  -23.2780    0.5005 H   0  0  0  0  0
   18.5145  -21.1716    1.5046 H   0  0  0  0  0
   19.1268  -20.7922   -0.1240 H   0  0  0  0  0
   17.4373  -20.4228    0.3004 H   0  0  0  0  0
   12.3228  -24.5194   -1.6992 H   0  0  0  0  0
   12.9574  -24.2183   -3.3355 H   0  0  0  0  0
   11.6271  -25.3774   -3.0959 H   0  0  0  0  0
  1  2  1  0  0  0
  1 15  1  0  0  0
  1 29  1  0  0  0
  2  3  4  0  0  0
  2  7  4  0  0  0
  3  4  4  0  0  0
  3  9  1  0  0  0
  4  5  4  0  0  0
  4 10  1  0  0  0
  5  6  4  0  0  0
  6  7  4  0  0  0
  7  8  1  0  0  0
 10 11  1  0  0  0
 11 12  1  0  0  0
 11 27  2  0  0  0
 11 28  2  0  0  0
 12 14  1  0  0  0
 14 13  1  0  0  0
 15 16  4  0  0  0
 15 20  4  0  0  0
 16 17  4  0  0  0
 17 18  4  0  0  0
 18 19  4  0  0  0
 18 21  1  0  0  0
 19 20  4  0  0  0
 19 24  1  0  0  0
 21 22  2  0  0  0
 22 23  1  0  0  0
 23 24  1  0  0  0
 23 25  1  0  0  0
 24 26  2  0  0  0
  5 30  1  0  0  0
  6 31  1  0  0  0
 10 32  1  0  0  0
 12 33  1  0  0  0
 12 34  1  0  0  0
 13 35  1  0  0  0
 13 36  1  0  0  0
 13 37  1  0  0  0
 14 38  1  0  0  0
 14 39  1  0  0  0
 16 40  1  0  0  0
 17 41  1  0  0  0
 20 42  1  0  0  0
 22 43  1  0  0  0
 25 44  1  0  0  0
 25 45  1  0  0  0
 25 46  1  0  0  0
 29 47  1  0  0  0
 29 48  1  0  0  0
 29 49  1  0  0  0
M  END
$$$$
