2vnf_ligand
  -I-interpret- 

 51 50  0  0  0  0  0  0  0  0999 V2000
   -2.7400  -16.7790   15.5900 N   0  3  0  0  0
   -2.3720  -16.7760   14.1400 C   0  0  0  0  0
   -1.9840  -18.1580   13.6070 C   0  0  0  0  0
   -1.5400  -19.0460   14.3580 O   0  0  0  0  0
   -1.2720  -15.7460   13.8650 C   0  0  0  0  0
   -2.1720  -18.3650   12.3150 N   0  0  0  0  0
   -1.8100  -19.6410   11.7230 C   0  0  0  0  0
   -0.3780  -19.6010   11.2080 C   0  0  0  0  0
   -0.0160  -18.7210   10.4100 O   0  0  0  0  0
   -2.7640  -19.9760   10.5720 C   0  0  0  0  0
   -4.2100  -20.0640   11.0490 C   0  0  0  0  0
   -5.1590  -20.1790    9.8840 C   0  0  0  0  0
   -5.1170  -18.9470    9.1030 N   0  0  0  0  0
   -4.5450  -18.8560    7.9010 C   0  0  0  0  0
   -3.9710  -19.9150    7.3370 N   0  0  0  0  0
   -4.5490  -17.6920    7.2710 N   0  0  0  0  0
    0.4360  -20.5580   11.6630 N   0  0  0  0  0
    1.8340  -20.5740   11.2730 C   0  0  0  0  0
    2.2260  -22.0010   10.9350 C   0  0  0  0  0
    1.5410  -22.9550   11.3320 O   0  0  0  0  0
    2.7190  -20.0590   12.4110 C   0  0  0  0  0
    2.6990  -21.0120   13.4860 O   0  0  0  0  0
    2.1840  -18.7030   12.9080 C   0  0  0  0  0
    3.3146  -22.2300   10.2061 O   0  0  0  0  0
   -2.9864  -15.8323   15.8790 H   0  0  0  0  0
   -3.5369  -17.3986   15.7360 H   0  0  0  0  0
   -1.9467  -17.1081   16.1402 H   0  0  0  0  0
   -3.2701  -16.4886   13.5933 H   0  0  0  0  0
   -0.3503  -16.0613   14.3541 H   0  0  0  0  0
   -1.1071  -15.6706   12.7902 H   0  0  0  0  0
   -1.5786  -14.7757   14.2558 H   0  0  0  0  0
   -2.5715  -17.6283   11.7335 H   0  0  0  0  0
   -1.8873  -20.4121   12.4895 H   0  0  0  0  0
   -2.4783  -20.9431   10.1583 H   0  0  0  0  0
   -2.6950  -19.1843    9.8259 H   0  0  0  0  0
   -4.4495  -19.1582   11.6061 H   0  0  0  0  0
   -4.3176  -20.9495   11.6755 H   0  0  0  0  0
   -6.1715  -20.3421   10.2533 H   0  0  0  0  0
   -4.8643  -21.0193    9.2554 H   0  0  0  0  0
   -5.5480  -18.1107    9.4971 H   0  0  0  0  0
   -3.5341  -19.8299    6.4193 H   0  0  0  0  0
   -3.9677  -20.8122    7.8222 H   0  0  0  0  0
   -4.9857  -16.8787    7.7049 H   0  0  0  0  0
    0.0738  -21.2796   12.2864 H   0  0  0  0  0
    1.9729  -19.9249   10.4084 H   0  0  0  0  0
    3.7409  -19.9293   12.0547 H   0  0  0  0  0
    3.2524  -20.6950   14.2035 H   0  0  0  0  0
    2.1952  -17.9864   12.0868 H   0  0  0  0  0
    1.1633  -18.8271   13.2697 H   0  0  0  0  0
    2.8162  -18.3392   13.7180 H   0  0  0  0  0
    3.7290  -21.3939    9.9805 H   0  0  0  0  0
  2  1  1  0  0  0
  2  5  1  0  0  0
  3  2  1  0  0  0
  3  4  2  0  0  0
  7  6  1  0  0  0
  7 10  1  0  0  0
  8  7  1  0  0  0
  8  9  2  0  0  0
 10 11  1  0  0  0
 11 12  1  0  0  0
 12 13  1  0  0  0
 13 14  1  0  0  0
 14 16  2  0  0  0
 14 15  1  0  0  0
  6  3  1  0  0  0
 17 18  1  0  0  0
 18 21  1  0  0  0
 18 19  1  0  0  0
 19 20  2  0  0  0
 21 23  1  0  0  0
 21 22  1  0  0  0
  8 17  1  0  0  0
 19 24  1  0  0  0
  1 25  1  0  0  0
  1 26  1  0  0  0
  1 27  1  0  0  0
  2 28  1  0  0  0
  5 29  1  0  0  0
  5 30  1  0  0  0
  5 31  1  0  0  0
  6 32  1  0  0  0
  7 33  1  0  0  0
 10 34  1  0  0  0
 10 35  1  0  0  0
 11 36  1  0  0  0
 11 37  1  0  0  0
 12 38  1  0  0  0
 12 39  1  0  0  0
 13 40  1  0  0  0
 15 41  1  0  0  0
 15 42  1  0  0  0
 16 43  1  0  0  0
 17 44  1  0  0  0
 18 45  1  0  0  0
 21 46  1  0  0  0
 22 47  1  0  0  0
 23 48  1  0  0  0
 23 49  1  0  0  0
 23 50  1  0  0  0
 24 51  1  0  0  0
M  END
$$$$
