5cf4_ligand
  -I-interpret- 

 60 64  0  0  0  0  0  0  0  0999 V2000
    0.5860   45.5980    1.1590 C   0  0  0  0  0
   -0.3220   46.7010    1.5730 C   0  0  0  0  0
   -0.8930   48.5330   -0.9790 C   0  0  0  0  0
   -0.8180   47.5360   -3.3850 C   0  0  0  0  0
   -0.0070   49.8470   -2.7750 C   0  0  0  0  0
   -0.5870   46.0990   -3.0820 C   0  0  0  0  0
   -1.9650   46.5910   -3.3640 C   0  0  0  0  0
   -0.8250   51.0930   -2.7710 C   0  0  0  0  0
   -6.7000   44.4280    0.1240 C   0  0  0  0  0
   -3.5810   43.1820    5.7800 C   0  0  0  0  0
   -3.6700   46.3530    0.1020 C   0  0  0  0  0
   -2.7240   46.1200    1.1100 C   0  0  0  0  0
   -2.8630   45.3750    2.2140 N   0  0  0  0  0
   -4.0220   44.7160    2.3820 C   0  0  0  0  0
   -5.0170   44.7640    1.3750 C   0  0  0  0  0
   -4.8460   45.5810    0.2560 C   0  0  0  0  0
   -3.0910   47.2900   -0.7990 C   0  0  0  0  0
   -1.8210   47.5600   -0.3520 C   0  0  0  0  0
   -1.5820   46.8290    0.8100 N   0  0  0  0  0
   -6.2000   44.0490    1.2750 N   0  0  0  0  0
   -5.9480   45.3500   -0.5400 N   0  0  0  0  0
   -4.2040   44.0450    3.5310 N   0  0  0  0  0
   -6.2710   45.9690   -1.8200 C   0  0  0  0  0
   -0.4660   49.4190   -0.2500 O   0  0  0  0  0
   -0.6150   48.5560   -2.3130 N   0  0  0  0  0
   -0.4460   50.4520   -4.0640 C   0  0  0  0  0
   -3.2710   44.1350    4.6410 C   0  0  0  0  0
   -3.0540   43.6660    7.1060 C   0  0  0  0  0
   -3.8500   44.7770    7.5060 O   0  0  0  0  0
   -3.4270   45.3460    8.7400 C   0  0  0  0  0
    0.0696   44.6442    1.2668 H   0  0  0  0  0
    0.8766   45.7397    0.1180 H   0  0  0  0  0
    1.4749   45.6047    1.7898 H   0  0  0  0  0
    0.2290   47.6271    1.4091 H   0  0  0  0  0
   -0.6095   46.4888    2.6028 H   0  0  0  0  0
   -0.4432   48.2534   -4.1150 H   0  0  0  0  0
    0.9526   49.5540   -2.3490 H   0  0  0  0  0
   -0.0711   45.4923   -2.3378 H   0  0  0  0  0
    0.0744   45.2922   -3.3978 H   0  0  0  0  0
   -2.8168   46.3243   -3.9896 H   0  0  0  0  0
   -2.9623   46.5245   -2.9293 H   0  0  0  0  0
   -0.8075   52.0815   -2.3120 H   0  0  0  0  0
   -1.7175   51.4840   -2.2825 H   0  0  0  0  0
   -7.6389   44.0381   -0.2690 H   0  0  0  0  0
   -3.1011   42.2289    5.5578 H   0  0  0  0  0
   -4.6649   43.1003    5.8613 H   0  0  0  0  0
   -3.5681   47.7153   -1.6819 H   0  0  0  0  0
   -5.0272   43.4506    3.6279 H   0  0  0  0  0
   -6.3593   45.1964   -2.5838 H   0  0  0  0  0
   -7.2154   46.5065   -1.7342 H   0  0  0  0  0
   -5.4789   46.6653   -2.0956 H   0  0  0  0  0
   -0.9234   50.1402   -4.9930 H   0  0  0  0  0
   -0.0129   50.7381   -5.0225 H   0  0  0  0  0
   -2.2843   43.8742    4.2583 H   0  0  0  0  0
   -3.3350   45.1480    5.0382 H   0  0  0  0  0
   -2.0085   43.9604    7.0151 H   0  0  0  0  0
   -3.1090   42.8713    7.8500 H   0  0  0  0  0
   -3.4882   44.5930    9.5257 H   0  0  0  0  0
   -2.3975   45.6914    8.6454 H   0  0  0  0  0
   -4.0725   46.1878    8.9907 H   0  0  0  0  0
  2  1  1  0  0  0
 19  2  1  0  0  0
 18  3  1  0  0  0
  3 24  2  0  0  0
  3 25  1  0  0  0
  4  6  1  0  0  0
  4  7  1  0  0  0
 25  4  1  0  0  0
  5  8  1  0  0  0
 25  5  1  0  0  0
  5 26  1  0  0  0
  7  6  1  0  0  0
 26  8  1  0  0  0
 20  9  4  0  0  0
  9 21  4  0  0  0
 27 10  1  0  0  0
 10 28  1  0  0  0
 12 11  4  0  0  0
 16 11  4  0  0  0
 11 17  4  0  0  0
 13 12  4  0  0  0
 12 19  4  0  0  0
 14 13  4  0  0  0
 14 15  4  0  0  0
 22 14  1  0  0  0
 15 16  4  0  0  0
 15 20  4  0  0  0
 16 21  4  0  0  0
 17 18  4  0  0  0
 19 18  4  0  0  0
 21 23  1  0  0  0
 22 27  1  0  0  0
 28 29  1  0  0  0
 29 30  1  0  0  0
  1 31  1  0  0  0
  1 32  1  0  0  0
  1 33  1  0  0  0
  2 34  1  0  0  0
  2 35  1  0  0  0
  4 36  1  0  0  0
  5 37  1  0  0  0
  6 38  1  0  0  0
  6 39  1  0  0  0
  7 40  1  0  0  0
  7 41  1  0  0  0
  8 42  1  0  0  0
  8 43  1  0  0  0
  9 44  1  0  0  0
 10 45  1  0  0  0
 10 46  1  0  0  0
 17 47  1  0  0  0
 22 48  1  0  0  0
 23 49  1  0  0  0
 23 50  1  0  0  0
 23 51  1  0  0  0
 26 52  1  0  0  0
 26 53  1  0  0  0
 27 54  1  0  0  0
 27 55  1  0  0  0
 28 56  1  0  0  0
 28 57  1  0  0  0
 30 58  1  0  0  0
 30 59  1  0  0  0
 30 60  1  0  0  0
M  END
$$$$
