5lgo_ligand
  -I-interpret- 

 75 79  0  0  0  0  0  0  0  0999 V2000
   45.5550   23.5710   47.0200 C   0  0  0  0  0
   44.4900   24.6270   47.3950 C   0  0  0  0  0
   43.6500   23.9100   48.4570 C   0  0  0  0  0
   46.6730   20.3330   51.7290 C   0  0  0  0  0
   46.6250   21.2050   50.6300 C   0  0  0  0  0
   46.3570   20.6710   49.3580 C   0  0  0  0  0
   46.1640   19.3140   49.1940 C   0  0  0  0  0
   46.3000   21.5610   48.1410 C   0  0  0  0  0
   47.1620   22.1510   53.3070 C   0  0  0  0  0
   46.4680   18.0110   52.7580 C   0  0  0  0  0
   48.3700   24.8640   44.8020 C   0  0  0  0  0
   41.8180   25.5220   48.4710 C   0  0  0  0  0
   41.5850   25.0670   51.4220 C   0  0  0  0  0
   42.1820   24.1060   50.3930 C   0  0  0  0  0
   40.7680   26.1390   50.6850 C   0  0  0  0  0
   40.8490   26.3230   49.2990 C   0  0  0  0  0
   39.1980   27.9660   49.3740 C   0  0  0  0  0
   44.7410   23.1590   49.2770 C   0  0  0  0  0
   45.6430   22.7450   48.2140 N   0  0  0  0  0
   46.8580   24.2380   46.6430 C   0  0  0  0  0
   47.1850   24.1880   45.3410 N   0  0  0  0  0
   47.5490   24.7850   47.5140 O   0  0  0  0  0
   46.1900   18.4750   50.2950 C   0  0  0  0  0
   46.4370   18.9740   51.5680 C   0  0  0  0  0
   46.8160   21.2220   47.0930 O   0  0  0  0  0
   46.8590   20.7790   53.0250 O   0  0  0  0  0
   47.7410   18.0820   53.5050 N   0  3  0  0  0
   42.8580   24.8380   49.2970 N   0  3  0  0  0
   40.0580   27.2260   48.6720 N   0  0  0  0  0
   39.0900   27.8420   50.7190 N   0  0  0  0  0
   39.8620   26.9430   51.3500 C   0  0  0  0  0
   39.7470   26.7280   52.6680 O   0  0  0  0  0
   38.7780   27.4700   53.4270 C   0  0  0  0  0
   38.6010   26.7980   54.7960 C   0  0  0  0  0
   37.8530   25.4690   54.6030 C   0  0  0  0  0
   38.0060   24.4700   55.7630 C   0  0  0  0  0
   38.6990   24.2160   54.4050 C   0  0  0  0  0
   45.3037   22.9725   46.1444 H   0  0  0  0  0
   43.8991   24.9525   46.5389 H   0  0  0  0  0
   44.9276   25.5562   47.7600 H   0  0  0  0  0
   42.8888   23.2570   48.0301 H   0  0  0  0  0
   46.7921   22.2742   50.7605 H   0  0  0  0  0
   45.9914   18.9036   48.1991 H   0  0  0  0  0
   48.0938   22.4250   52.8124 H   0  0  0  0  0
   46.3541   22.7833   52.9388 H   0  0  0  0  0
   47.2677   22.2845   54.3836 H   0  0  0  0  0
   46.3573   16.9966   52.3747 H   0  0  0  0  0
   45.6617   18.2875   53.4374 H   0  0  0  0  0
   48.2923   25.9350   44.9892 H   0  0  0  0  0
   49.2631   24.4725   45.2891 H   0  0  0  0  0
   48.4320   24.6850   43.7286 H   0  0  0  0  0
   42.3272   26.2092   47.7953 H   0  0  0  0  0
   41.2516   24.7539   47.9445 H   0  0  0  0  0
   42.3845   25.5399   51.9923 H   0  0  0  0  0
   40.9397   24.5184   52.1081 H   0  0  0  0  0
   41.3744   23.5118   49.9654 H   0  0  0  0  0
   42.9177   23.4766   50.8937 H   0  0  0  0  0
   38.5677   28.6870   48.8535 H   0  0  0  0  0
   44.3554   22.3348   49.8771 H   0  0  0  0  0
   45.2139   23.7680   50.0474 H   0  0  0  0  0
   46.5876   23.6608   44.7041 H   0  0  0  0  0
   46.0142   17.4076   50.1612 H   0  0  0  0  0
   47.7133   17.4251   54.2848 H   0  0  0  0  0
   48.5127   17.8410   52.8831 H   0  0  0  0  0
   47.8726   19.0288   53.8609 H   0  0  0  0  0
   43.4994   25.5260   49.6915 H   0  0  0  0  0
   37.8258   27.4839   52.8967 H   0  0  0  0  0
   39.1210   28.4959   53.5610 H   0  0  0  0  0
   38.0300   27.4505   55.4565 H   0  0  0  0  0
   39.5767   26.6108   55.2443 H   0  0  0  0  0
   37.0205   25.9116   54.0560 H   0  0  0  0  0
   37.3805   23.9389   56.4805 H   0  0  0  0  0
   38.2512   24.4724   56.8251 H   0  0  0  0  0
   39.6870   23.9489   54.0300 H   0  0  0  0  0
   38.8045   23.4082   53.6808 H   0  0  0  0  0
  1  2  1  0  0  0
  1 19  1  0  0  0
 20  1  1  0  0  0
  2  3  1  0  0  0
 18  3  1  0  0  0
  3 28  1  0  0  0
  5  4  4  0  0  0
  4 24  4  0  0  0
  4 26  1  0  0  0
  6  5  4  0  0  0
  6  7  4  0  0  0
  8  6  1  0  0  0
  7 23  4  0  0  0
 19  8  1  0  0  0
  8 25  2  0  0  0
 26  9  1  0  0  0
 24 10  1  0  0  0
 10 27  1  0  0  0
 21 11  1  0  0  0
 12 16  1  0  0  0
 28 12  1  0  0  0
 14 13  1  0  0  0
 13 15  1  0  0  0
 28 14  1  0  0  0
 16 15  4  0  0  0
 15 31  4  0  0  0
 16 29  4  0  0  0
 29 17  4  0  0  0
 17 30  4  0  0  0
 19 18  1  0  0  0
 20 21  1  0  0  0
 20 22  2  0  0  0
 23 24  4  0  0  0
 30 31  4  0  0  0
 31 32  1  0  0  0
 32 33  1  0  0  0
 33 34  1  0  0  0
 34 35  1  0  0  0
 35 36  1  0  0  0
 35 37  1  0  0  0
 36 37  1  0  0  0
  1 38  1  0  0  0
  2 39  1  0  0  0
  2 40  1  0  0  0
  3 41  1  0  0  0
  5 42  1  0  0  0
  7 43  1  0  0  0
  9 44  1  0  0  0
  9 45  1  0  0  0
  9 46  1  0  0  0
 10 47  1  0  0  0
 10 48  1  0  0  0
 11 49  1  0  0  0
 11 50  1  0  0  0
 11 51  1  0  0  0
 12 52  1  0  0  0
 12 53  1  0  0  0
 13 54  1  0  0  0
 13 55  1  0  0  0
 14 56  1  0  0  0
 14 57  1  0  0  0
 17 58  1  0  0  0
 18 59  1  0  0  0
 18 60  1  0  0  0
 21 61  1  0  0  0
 23 62  1  0  0  0
 27 63  1  0  0  0
 27 64  1  0  0  0
 27 65  1  0  0  0
 28 66  1  0  0  0
 33 67  1  0  0  0
 33 68  1  0  0  0
 34 69  1  0  0  0
 34 70  1  0  0  0
 35 71  1  0  0  0
 36 72  1  0  0  0
 36 73  1  0  0  0
 37 74  1  0  0  0
 37 75  1  0  0  0
M  END
$$$$
