2ax6_ligand
  -I-interpret- 

 31 31  0  0  0  0  0  0  0  0999 V2000
   23.7050    2.4100    4.2940 F   0  0  0  0  0
   23.8630    3.7240    4.4200 C   0  0  0  0  0
   23.4930    4.0350    5.6590 F   0  0  0  0  0
   23.0170    4.2710    3.5520 F   0  0  0  0  0
   25.3210    4.1520    4.1660 C   0  0  0  0  0
   26.3200    3.1750    4.1560 C   0  0  0  0  0
   25.6930    5.4710    3.8920 C   0  0  0  0  0
   24.8750    6.5160    4.0200 N   0  0  0  0  0
   25.3250    7.8050    3.6280 O   0  0  0  0  0
   23.5390    6.4050    4.4870 O   0  0  0  0  0
   27.0210    5.7700    3.5990 C   0  0  0  0  0
   27.9990    4.7820    3.5890 C   0  0  0  0  0
   27.6520    3.4670    3.8750 C   0  0  0  0  0
   28.6290    2.5590    3.8920 N   0  0  0  0  0
   28.5070    1.2640    4.1760 C   0  0  0  0  0
   27.4530    0.7050    4.4780 O   0  0  0  0  0
   29.8200    0.4790    4.1130 C   0  0  0  0  0
   30.1840    0.0020    5.5200 C   0  0  0  0  0
   29.6390   -0.7210    3.1810 C   0  0  0  0  0
   30.8470    1.3380    3.6120 O   0  0  0  0  0
   26.0456    2.1435    4.3769 H   0  0  0  0  0
   27.2994    6.7993    3.3729 H   0  0  0  0  0
   29.0331    5.0375    3.3579 H   0  0  0  0  0
   29.5661    2.8910    3.6639 H   0  0  0  0  0
   30.3023    0.8648    6.1755 H   0  0  0  0  0
   29.3897   -0.6396    5.9016 H   0  0  0  0  0
   31.1184   -0.5579    5.4820 H   0  0  0  0  0
   28.8453   -1.3615    3.5654 H   0  0  0  0  0
   29.3727   -0.3686    2.1845 H   0  0  0  0  0
   30.5706   -1.2847    3.1315 H   0  0  0  0  0
   31.6748    0.8538    3.5690 H   0  0  0  0  0
  1  2  1  0  0  0
  2  3  1  0  0  0
  2  4  1  0  0  0
  2  5  1  0  0  0
  5  6  4  0  0  0
  5  7  4  0  0  0
  6 13  4  0  0  0
  7  8  1  0  0  0
  7 11  4  0  0  0
  8  9  2  0  0  0
  8 10  2  0  0  0
 11 12  4  0  0  0
 12 13  4  0  0  0
 13 14  1  0  0  0
 14 15  1  0  0  0
 15 16  2  0  0  0
 15 17  1  0  0  0
 17 18  1  0  0  0
 17 19  1  0  0  0
 17 20  1  0  0  0
  6 21  1  0  0  0
 11 22  1  0  0  0
 12 23  1  0  0  0
 14 24  1  0  0  0
 18 25  1  0  0  0
 18 26  1  0  0  0
 18 27  1  0  0  0
 19 28  1  0  0  0
 19 29  1  0  0  0
 19 30  1  0  0  0
 20 31  1  0  0  0
M  END
$$$$
