3a6t_ligand
  -I-interpret- 

 36 38  0  0  0  0  0  0  0  0999 V2000
  -11.5280    0.5380   23.4170 O   0  0  0  0  0
  -10.0750    0.8260   23.4770 P   0  0  0  0  0
   -9.8920    1.9880   24.3750 O   0  0  0  0  0
   -9.5930    0.9350   22.0860 O   0  0  0  0  0
   -9.3790   -0.4630   24.1370 O   0  0  0  0  0
   -8.0490   -0.4020   24.6690 C   0  0  0  0  0
   -7.9530   -1.1440   26.0070 C   0  0  0  0  0
   -6.5840   -1.4900   26.3070 O   0  0  0  0  0
   -8.4570   -0.3030   27.1750 C   0  0  0  0  0
   -9.1880   -1.1330   28.0930 O   0  0  0  0  0
   -7.2130    0.2580   27.7860 C   0  0  0  0  0
   -6.1800   -0.8320   27.5250 C   0  0  0  0  0
   -4.8200   -0.2560   27.3800 N   0  0  0  0  0
   -3.8150   -0.4280   28.2990 C   0  0  0  0  0
   -2.7150    0.1400   28.0140 N   0  0  0  0  0
   -2.9300    0.7760   26.7870 C   0  0  0  0  0
   -2.0810    1.5770   25.9570 C   0  0  0  0  0
   -0.9130    1.8940   26.1520 O   0  0  0  0  0
   -2.7430    2.0110   24.7880 N   0  0  0  0  0
   -4.0680    1.7190   24.4490 C   0  0  0  0  0
   -4.5220    2.2160   23.2950 N   0  0  0  0  0
   -4.8790    0.9690   25.2300 N   0  0  0  0  0
   -4.2580    0.5310   26.3760 C   0  0  0  0  0
   -4.0320   -1.1020   29.3220 O   0  0  0  0  0
  -11.8748    0.4606   24.3088 H   0  0  0  0  0
  -10.2484    1.7803   25.2419 H   0  0  0  0  0
   -7.7866    0.6434   24.8312 H   0  0  0  0  0
   -7.3685   -0.8735   23.9599 H   0  0  0  0  0
   -8.5733   -2.0331   25.8942 H   0  0  0  0  0
   -9.1445    0.4894   26.8792 H   0  0  0  0  0
   -9.5024   -0.5981   28.8255 H   0  0  0  0  0
   -7.3286    0.4849   28.8458 H   0  0  0  0  0
   -6.9292    1.2196   27.3582 H   0  0  0  0  0
   -6.1352   -1.5320   28.3593 H   0  0  0  0  0
   -2.2099    2.5860   24.1356 H   0  0  0  0  0
   -3.9090    2.7800   22.7063 H   0  0  0  0  0
  1  2  1  0  0  0
  2  3  1  0  0  0
  2  4  2  0  0  0
  2  5  1  0  0  0
  5  6  1  0  0  0
  6  7  1  0  0  0
  7  8  1  0  0  0
  7  9  1  0  0  0
  8 12  1  0  0  0
  9 10  1  0  0  0
  9 11  1  0  0  0
 11 12  1  0  0  0
 12 13  1  0  0  0
 13 14  1  0  0  0
 13 23  1  0  0  0
 14 15  1  0  0  0
 14 24  2  0  0  0
 15 16  2  0  0  0
 16 17  1  0  0  0
 16 23  1  0  0  0
 17 18  2  0  0  0
 17 19  1  0  0  0
 19 20  1  0  0  0
 20 21  2  0  0  0
 20 22  1  0  0  0
 22 23  2  0  0  0
  1 25  1  0  0  0
  3 26  1  0  0  0
  6 27  1  0  0  0
  6 28  1  0  0  0
  7 29  1  0  0  0
  9 30  1  0  0  0
 10 31  1  0  0  0
 11 32  1  0  0  0
 11 33  1  0  0  0
 12 34  1  0  0  0
 19 35  1  0  0  0
 21 36  1  0  0  0
M  END
$$$$
