### 
### Created by X-TOOL on Mon Sep 10 21:12:47 2018
### 

@<TRIPOS>MOLECULE
1f3j_ligand
  229   231     1     0     0
SMALL
GAST_HUCK


@<TRIPOS>ATOM
      1 N          23.7960   73.7540    3.8570 N.4       1 ALA         0.2377
      2 CA         22.8420   74.4080    4.7950 C.3       1 ALA         0.0621
      3 C          23.2020   74.0340    6.2130 C.2       1 ALA         0.2264
      4 O          24.3600   73.7110    6.5120 O.2       1 ALA        -0.3907
      5 CB         21.4070   73.9640    4.5060 C.3       1 ALA        -0.0040
      6 N          22.1860   74.0780    7.0720 N.am      1 MET        -0.2610
      7 CA         22.3430   73.7490    8.4750 C.3       1 MET         0.1318
      8 C          22.9120   72.3530    8.6060 C.2       1 MET         0.2039
      9 O          22.6290   71.4650    7.7900 O.2       1 MET        -0.3944
     10 CB         21.0050   73.8390    9.2230 C.3       1 MET        -0.0034
     11 CG         20.4240   75.2450    9.3130 C.3       1 MET        -0.0024
     12 SD         21.6230   76.4410    9.9730 S.3       1 MET        -0.1639
     13 CE         20.8070   76.9950   11.4180 C.3       1 MET        -0.0181
     14 N          23.7270   72.1790    9.6420 N.am      1 LYS        -0.2637
     15 CA         24.3770   70.9100    9.9180 C.3       1 LYS         0.1310
     16 C          24.0570   70.4770   11.3440 C.2       1 LYS         0.2039
     17 O          23.7540   71.3010   12.2150 O.2       1 LYS        -0.3944
     18 CB         25.9010   71.0440    9.7230 C.3       1 LYS        -0.0122
     19 CG         26.2950   71.5830    8.3450 C.3       1 LYS        -0.0440
     20 CD         27.7940   71.5110    8.0650 C.3       1 LYS        -0.0124
     21 CE         28.1190   72.0050    6.6410 C.3       1 LYS        -0.0354
     22 NZ         27.3850   71.2610    5.5630 N.4       1 LYS         0.2185
     23 N          24.1070   69.1710   11.5680 N.am      1 ARG        -0.2637
     24 CA         23.8370   68.6310   12.8830 C.3       1 ARG         0.1311
     25 C          25.0500   68.8350   13.8060 C.2       1 ARG         0.2040
     26 O          26.2070   68.6600   13.3980 O.2       1 ARG        -0.3944
     27 CB         23.4880   67.1440   12.7730 C.3       1 ARG        -0.0092
     28 CG         22.1000   66.8670   12.2250 C.3       1 ARG        -0.0156
     29 CD         21.8450   65.3570   12.1040 C.3       1 ARG         0.0627
     30 NE         20.5420   65.0430   11.5060 N.pl3     1 ARG        -0.2723
     31 CZ         19.4540   64.7000   12.1940 C.cat     1 ARG         0.2882
     32 NH1        19.5000   64.6180   13.5190 N.pl3     1 ARG        -0.2849
     33 NH2        18.3170   64.4400   11.5550 N.pl3     1 ARG        -0.2849
     34 N          24.7770   69.2380   15.0420 N.am      1 HIS        -0.2625
     35 CA         25.8260   69.4430   16.0170 C.3       1 HIS         0.1369
     36 C          25.7960   68.2890   17.0090 C.2       1 HIS         0.2052
     37 O          24.7370   67.7610   17.3280 O.2       1 HIS        -0.3942
     38 CB         25.6230   70.7620   16.7670 C.3       1 HIS         0.0145
     39 CG         25.8420   71.9870   15.9360 C.2       1 HIS        -0.0027
     40 ND1        26.1150   73.2170   16.4930 N.2       1 HIS        -0.3252
     41 CD2        25.7900   72.1820   14.5980 C.2       1 HIS         0.0291
     42 CE1        26.2230   74.1170   15.5340 C.2       1 HIS         0.0907
     43 NE2        26.0300   73.5150   14.3750 N.pl3     1 HIS        -0.2752
     44 N          26.9690   67.9010   17.4870 N.am      1 GLY        -0.2663
     45 CA         27.0590   66.8220   18.4500 C.3       1 GLY         0.1201
     46 C          27.6450   67.3280   19.7550 C.2       1 GLY         0.2007
     47 O          28.7000   67.9800   19.7750 O.2       1 GLY        -0.3947
     48 N          26.9570   67.0390   20.8540 N.am      1 LEU        -0.2640
     49 CA         27.4130   67.4780   22.1670 C.3       1 LEU         0.1312
     50 C          28.8940   67.1600   22.3570 C.2       1 LEU         0.2040
     51 O          29.3630   66.0880   21.9650 O.2       1 LEU        -0.3944
     52 CB         26.5590   66.8130   23.2460 C.3       1 LEU        -0.0101
     53 CG         25.0890   67.2430   23.2240 C.3       1 LEU        -0.0425
     54 CD1        24.2040   66.1450   23.7700 C.3       1 LEU        -0.0625
     55 CD2        24.9300   68.5140   24.0300 C.3       1 LEU        -0.0625
     56 N          29.6190   68.1000   22.9560 N.am      1 ASP        -0.2622
     57 CA         31.0530   67.9590   23.1730 C.3       1 ASP         0.1423
     58 C          31.3810   67.0850   24.3650 C.2       1 ASP         0.2057
     59 O          30.8610   67.2860   25.4670 O.2       1 ASP        -0.3943
     60 CB         31.6870   69.3370   23.3710 C.3       1 ASP         0.0406
     61 CG         33.0820   69.4260   22.8150 C.2       1 ASP         0.0393
     62 OD1        33.9150   68.5380   23.1080 O.co2     1 ASP        -0.5688
     63 OD2        33.3380   70.4030   22.0840 O.co2     1 ASP        -0.5688
     64 N          32.2440   66.1070   24.1180 N.am      1 ASN        -0.2615
     65 CA         32.7060   65.1860   25.1420 C.3       1 ASN         0.1476
     66 C          33.9110   65.8900   25.7400 C.2       1 ASN         0.2064
     67 O          34.9190   66.1100   25.0590 O.2       1 ASN        -0.3942
     68 CB         33.0990   63.8490   24.4940 C.3       1 ASN         0.0773
     69 CG         33.6220   62.8260   25.4910 C.2       1 ASN         0.1780
     70 OD1        33.1800   62.7600   26.6360 O.2       1 ASN        -0.3970
     71 ND2        34.5550   62.0020   25.0430 N.am      1 ASN        -0.3007
     72 N          33.7960   66.2730   27.0040 N.am      1 TYR        -0.2620
     73 CA         34.8730   66.9860   27.6680 C.3       1 TYR         0.1390
     74 C          35.9000   66.0950   28.3070 C.2       1 TYR         0.2057
     75 O          35.5560   65.1340   28.9800 O.2       1 TYR        -0.3942
     76 CB         34.2890   67.9090   28.7040 C.3       1 TYR         0.0163
     77 CG         33.4490   68.9590   28.0660 C.ar      1 TYR        -0.0493
     78 CD1        34.0320   69.9620   27.3120 C.ar      1 TYR        -0.0685
     79 CD2        32.0670   68.9380   28.1900 C.ar      1 TYR        -0.0685
     80 CE1        33.2710   70.9240   26.6980 C.ar      1 TYR        -0.0398
     81 CE2        31.2850   69.8940   27.5810 C.ar      1 TYR        -0.0398
     82 CZ         31.8980   70.8910   26.8340 C.ar      1 TYR         0.0805
     83 OH         31.1350   71.8630   26.2270 O.3       1 TYR        -0.3376
     84 N          37.1680   66.4230   28.0980 N.am      1 ARG        -0.2636
     85 CA         38.2600   65.6390   28.6530 C.3       1 ARG         0.1311
     86 C          38.3550   65.7700   30.1730 C.2       1 ARG         0.2037
     87 O          37.9340   66.7710   30.7390 O.2       1 ARG        -0.3944
     88 CB         39.5780   66.0890   28.0330 C.3       1 ARG        -0.0092
     89 CG         39.7240   65.7800   26.5650 C.3       1 ARG        -0.0156
     90 CD         41.0110   66.3710   26.0260 C.3       1 ARG         0.0627
     91 NE         41.2690   66.0250   24.6250 N.pl3     1 ARG        -0.2723
     92 CZ         41.7060   64.8380   24.2110 C.cat     1 ARG         0.2882
     93 NH1        41.9350   63.8760   25.0870 N.pl3     1 ARG        -0.2849
     94 NH2        41.9300   64.6160   22.9240 N.pl3     1 ARG        -0.2849
     95 N          38.9050   64.7540   30.8280 N.am      1 GLY        -0.2664
     96 CA         39.0670   64.8040   32.2710 C.3       1 GLY         0.1201
     97 C          40.4410   65.3830   32.5620 C.2       1 GLY         0.2009
     98 O          41.2090   65.6190   31.6330 O.2       1 GLY        -0.3947
     99 N          40.7700   65.6090   33.8300 N.am      1 TYR        -0.2624
    100 CA         42.0750   66.1800   34.1760 C.3       1 TYR         0.1390
    101 C          43.2480   65.2160   34.0140 C.2       1 TYR         0.2053
    102 O          43.2170   64.0870   34.5150 O.2       1 TYR        -0.3942
    103 CB         42.0480   66.7320   35.5990 C.3       1 TYR         0.0163
    104 CG         41.4340   65.8000   36.6090 C.ar      1 TYR        -0.0493
    105 CD1        42.1210   64.6740   37.0530 C.ar      1 TYR        -0.0685
    106 CD2        40.1670   66.0550   37.1370 C.ar      1 TYR        -0.0685
    107 CE1        41.5640   63.8200   38.0090 C.ar      1 TYR        -0.0398
    108 CE2        39.5980   65.2160   38.0900 C.ar      1 TYR        -0.0398
    109 CZ         40.2980   64.0990   38.5270 C.ar      1 TYR         0.0805
    110 OH         39.7500   63.2710   39.4940 O.3       1 TYR        -0.3376
    111 N          44.2880   65.6920   33.3210 N.am      1 SER        -0.2671
    112 CA         45.5060   64.9180   33.0170 C.3       1 SER         0.1173
    113 C          46.5270   64.7540   34.1590 C.2       1 SER         0.0623
    114 O          46.6950   63.6090   34.6500 O.co2     1 SER        -0.5665
    115 CB         46.2150   65.5450   31.8080 C.3       1 SER         0.0789
    116 OG         45.2950   65.8260   30.7650 O.3       1 SER        -0.3910
    117 OXT        47.1630   65.7650   34.5400 O.co2     1 SER        -0.5665
    118 H1         23.5584   74.0017    2.9092 H         1 ALA         0.2015
    119 H2         23.7421   72.7534    3.9663 H         1 ALA         0.2015
    120 H3         24.7332   74.0642    4.0604 H         1 ALA         0.2015
    121 H4         22.9118   75.4993    4.6761 H         1 ALA         0.1095
    122 H5         20.7214   74.4588    5.2096 H         1 ALA         0.0310
    123 H6         21.3297   72.8732    4.6246 H         1 ALA         0.0310
    124 H7         21.1379   74.2408    3.4760 H         1 ALA         0.0310
    125 H8         21.2829   74.3474    6.7377 H         1 MET         0.1884
    126 H9         23.0456   74.4645    8.9272 H         1 MET         0.0800
    127 H10        21.1574   73.4643   10.2459 H         1 MET         0.0320
    128 H11        20.2770   73.1992    8.7028 H         1 MET         0.0320
    129 H12        19.5446   75.2235    9.9735 H         1 MET         0.0378
    130 H13        20.1190   75.5676    8.3066 H         1 MET         0.0378
    131 H14        21.4334   77.7404   11.9298 H         1 MET         0.0340
    132 H15        20.6302   76.1417   12.0893 H         1 MET         0.0340
    133 H16        19.8445   77.4513   11.1435 H         1 MET         0.0340
    134 H17        23.8988   72.9509   10.2541 H         1 LYS         0.1883
    135 H18        23.9948   70.1510    9.2195 H         1 LYS         0.0800
    136 H19        26.3572   70.0515    9.8521 H         1 LYS         0.0312
    137 H20        26.2913   71.7295   10.4896 H         1 LYS         0.0312
    138 H21        25.9795   72.6348    8.2800 H         1 LYS         0.0269
    139 H22        25.7697   70.9945    7.5784 H         1 LYS         0.0269
    140 H23        28.1287   70.4683    8.1682 H         1 LYS         0.0317
    141 H24        28.3259   72.1407    8.7934 H         1 LYS         0.0317
    142 H25        29.1993   71.8874    6.4705 H         1 LYS         0.0813
    143 H26        27.8507   73.0696    6.5728 H         1 LYS         0.0813
    144 H27        27.6430   71.6332    4.6625 H         1 LYS         0.1994
    145 H28        26.3917   71.3668    5.6982 H         1 LYS         0.1994
    146 H29        27.6275   70.2835    5.6045 H         1 LYS         0.1994
    147 H30        24.3345   68.5505   10.8175 H         1 ARG         0.1883
    148 H31        22.9762   69.1638   13.3132 H         1 ARG         0.0800
    149 H32        23.5573   66.6987   13.7764 H         1 ARG         0.0313
    150 H33        24.2225   66.6660   12.1082 H         1 ARG         0.0313
    151 H34        22.0077   67.3278   11.2305 H         1 ARG         0.0301
    152 H35        21.3521   67.3045   12.9027 H         1 ARG         0.0301
    153 H36        21.8857   64.9127   13.1094 H         1 ARG         0.0689
    154 H37        22.6341   64.9171   11.4764 H         1 ARG         0.0689
    155 H38        20.4630   65.0913   10.4802 H         1 ARG         0.2642
    156 H39        18.6571   64.3525   14.0481 H         1 ARG         0.2615
    157 H40        20.3786   64.8199   14.0173 H         1 ARG         0.2615
    158 H41        18.2777   64.5026   10.5277 H         1 ARG         0.2615
    159 H42        17.4757   64.1760   12.0875 H         1 ARG         0.2615
    160 H43        23.8262   69.4032   15.3041 H         1 HIS         0.1885
    161 H44        26.7994   69.4650   15.5052 H         1 HIS         0.0817
    162 H45        26.3272   70.7892   17.6116 H         1 HIS         0.0420
    163 H46        24.5916   70.7853   17.1486 H         1 HIS         0.0420
    164 H47        25.5946   71.4242   13.8407 H         1 HIS         0.0729
    165 H48        26.4352   75.1758   15.6746 H         1 HIS         0.1199
    166 H49        26.0554   73.9719   13.4522 H         1 HIS         0.2361
    167 H50        27.8032   68.3587   17.1793 H         1 GLY         0.1881
    168 H51        27.7045   66.0281   18.0462 H         1 GLY         0.0763
    169 H52        26.0533   66.4174   18.6367 H         1 GLY         0.0763
    170 H53        26.1112   66.5108   20.7792 H         1 LEU         0.1883
    171 H54        27.2821   68.5678   22.2393 H         1 LEU         0.0800
    172 H55        26.9806   67.0697   24.2290 H         1 LEU         0.0315
    173 H56        26.6037   65.7235   23.1010 H         1 LEU         0.0315
    174 H57        24.7937   67.4442   22.1837 H         1 LEU         0.0298
    175 H58        23.1545   66.4737   23.7454 H         1 LEU         0.0232
    176 H59        24.4941   65.9220   24.8073 H         1 LEU         0.0232
    177 H60        24.3195   65.2407   23.1544 H         1 LEU         0.0232
    178 H61        25.5825   69.2959   23.6141 H         1 LEU         0.0232
    179 H62        25.2091   68.3219   25.0765 H         1 LEU         0.0232
    180 H63        23.8829   68.8481   23.9851 H         1 LEU         0.0232
    181 H64        29.1638   68.9336   23.2688 H         1 ASP         0.1884
    182 H65        31.4893   67.4946   22.2764 H         1 ASP         0.0819
    183 H66        31.7244   69.5544   24.4486 H         1 ASP         0.0478
    184 H67        31.0600   70.0873   22.8671 H         1 ASP         0.0478
    185 H68        32.5912   65.9996   23.1864 H         1 ASN         0.1885
    186 H69        31.9322   65.0157   25.9050 H         1 ASN         0.0826
    187 H70        33.8834   64.0406   23.7470 H         1 ASN         0.0551
    188 H71        32.2128   63.4290   23.9958 H         1 ASN         0.0551
    189 H72        34.9403   61.3061   25.6490 H         1 ASN         0.1814
    190 H73        34.8749   62.0751   24.0984 H         1 ASN         0.1814
    191 H74        32.9563   66.0682   27.5070 H         1 TYR         0.1885
    192 H75        35.3878   67.5934   26.9090 H         1 TYR         0.0821
    193 H76        35.1071   68.3906   29.2596 H         1 TYR         0.0453
    194 H77        33.6684   67.3241   29.3988 H         1 TYR         0.0453
    195 H78        35.1103   69.9881   27.2045 H         1 TYR         0.0530
    196 H79        31.5957   68.1568   28.7754 H         1 TYR         0.0530
    197 H80        33.7438   71.7032   26.1112 H         1 TYR         0.0525
    198 H81        30.2061   69.8685   27.6834 H         1 TYR         0.0525
    199 H82        30.5319   71.4553   25.6165 H         1 TYR         0.2458
    200 H83        37.3784   67.2293   27.5452 H         1 ARG         0.1883
    201 H84        38.0890   64.5813   28.4041 H         1 ARG         0.0800
    202 H85        40.3973   65.5897   28.5709 H         1 ARG         0.0313
    203 H86        39.6635   67.1779   28.1636 H         1 ARG         0.0313
    204 H87        38.8714   66.2086   26.0179 H         1 ARG         0.0301
    205 H88        39.7392   64.6892   26.4240 H         1 ARG         0.0301
    206 H89        41.8475   66.0000   26.6364 H         1 ARG         0.0689
    207 H90        40.9535   67.4663   26.1096 H         1 ARG         0.0689
    208 H91        41.1007   66.7497   23.9127 H         1 ARG         0.2642
    209 H92        42.2732   62.9574   24.7665 H         1 ARG         0.2615
    210 H93        41.7753   64.0445   26.0905 H         1 ARG         0.2615
    211 H94        41.7540   65.3608   22.2347 H         1 ARG         0.2615
    212 H95        42.2801   63.6986   22.6129 H         1 ARG         0.2615
    213 H96        39.2106   63.9467   30.3231 H         1 GLY         0.1881
    214 H97        38.9908   63.7906   32.6919 H         1 GLY         0.0763
    215 H98        38.2895   65.4441   32.7133 H         1 GLY         0.0763
    216 H99        40.1196   65.3869   34.5564 H         1 TYR         0.1885
    217 H100       42.2509   67.0215   33.4897 H         1 TYR         0.0821
    218 H101       41.4691   67.6673   35.5956 H         1 TYR         0.0453
    219 H102       43.0827   66.9423   35.9075 H         1 TYR         0.0453
    220 H103       43.1038   64.4558   36.6510 H         1 TYR         0.0530
    221 H104       39.6154   66.9243   36.7976 H         1 TYR         0.0530
    222 H105       42.1113   62.9470   38.3459 H         1 TYR         0.0525
    223 H106       38.6138   65.4330   38.4891 H         1 TYR         0.0525
    224 H107       40.3520   62.5596   39.6782 H         1 TYR         0.2458
    225 H108       44.2365   66.6333   32.9875 H         1 SER         0.1876
    226 H109       45.1762   63.9064   32.7378 H         1 SER         0.0749
    227 H110       46.9772   64.8447   31.4356 H         1 SER         0.0599
    228 H111       46.6994   66.4815   32.1216 H         1 SER         0.0599
    229 H112       45.7583   66.2122   30.0311 H         1 SER         0.2096
@<TRIPOS>BOND
     1    1    2 1  
     2    2    3 1  
     3    2    5 1  
     4    3    4 2  
     5    3    6 am 
     6    6    7 1  
     7    7    8 1  
     8    7   10 1  
     9    8    9 2  
    10    8   14 am 
    11   10   11 1  
    12   11   12 1  
    13   12   13 1  
    14   14   15 1  
    15   15   16 1  
    16   15   18 1  
    17   16   17 2  
    18   16   23 am 
    19   18   19 1  
    20   19   20 1  
    21   20   21 1  
    22   21   22 1  
    23   23   24 1  
    24   24   25 1  
    25   24   27 1  
    26   25   26 2  
    27   25   34 am 
    28   27   28 1  
    29   28   29 1  
    30   29   30 1  
    31   30   31 ar 
    32   31   32 ar 
    33   31   33 ar 
    34   34   35 1  
    35   35   36 1  
    36   35   38 1  
    37   36   37 2  
    38   36   44 am 
    39   38   39 1  
    40   39   40 1  
    41   39   41 2  
    42   40   42 2  
    43   41   43 1  
    44   42   43 1  
    45   44   45 1  
    46   45   46 1  
    47   46   47 2  
    48   46   48 am 
    49   48   49 1  
    50   49   50 1  
    51   49   52 1  
    52   50   51 2  
    53   50   56 am 
    54   52   53 1  
    55   53   54 1  
    56   53   55 1  
    57   56   57 1  
    58   57   58 1  
    59   57   60 1  
    60   58   59 2  
    61   58   64 am 
    62   60   61 1  
    63   61   62 ar 
    64   61   63 ar 
    65   64   65 1  
    66   65   66 1  
    67   65   68 1  
    68   66   67 2  
    69   66   72 am 
    70   68   69 1  
    71   69   70 2  
    72   69   71 am 
    73   72   73 1  
    74   73   74 1  
    75   73   76 1  
    76   74   75 2  
    77   74   84 am 
    78   76   77 1  
    79   77   78 ar 
    80   77   79 ar 
    81   78   80 ar 
    82   79   81 ar 
    83   80   82 ar 
    84   81   82 ar 
    85   82   83 1  
    86   84   85 1  
    87   85   86 1  
    88   85   88 1  
    89   86   87 2  
    90   86   95 am 
    91   88   89 1  
    92   89   90 1  
    93   90   91 1  
    94   91   92 ar 
    95   92   93 ar 
    96   92   94 ar 
    97   95   96 1  
    98   96   97 1  
    99   97   98 2  
   100   97   99 am 
   101   99  100 1  
   102  100  101 1  
   103  100  103 1  
   104  101  102 2  
   105  101  111 am 
   106  103  104 1  
   107  104  105 ar 
   108  104  106 ar 
   109  105  107 ar 
   110  106  108 ar 
   111  107  109 ar 
   112  108  109 ar 
   113  109  110 1  
   114  111  112 1  
   115  112  113 1  
   116  112  115 1  
   117  113  114 ar 
   118  113  117 ar 
   119  115  116 1  
   120    1  118 1  
   121    1  119 1  
   122    1  120 1  
   123    2  121 1  
   124    5  122 1  
   125    5  123 1  
   126    5  124 1  
   127    6  125 1  
   128    7  126 1  
   129   10  127 1  
   130   10  128 1  
   131   11  129 1  
   132   11  130 1  
   133   13  131 1  
   134   13  132 1  
   135   13  133 1  
   136   14  134 1  
   137   15  135 1  
   138   18  136 1  
   139   18  137 1  
   140   19  138 1  
   141   19  139 1  
   142   20  140 1  
   143   20  141 1  
   144   21  142 1  
   145   21  143 1  
   146   22  144 1  
   147   22  145 1  
   148   22  146 1  
   149   23  147 1  
   150   24  148 1  
   151   27  149 1  
   152   27  150 1  
   153   28  151 1  
   154   28  152 1  
   155   29  153 1  
   156   29  154 1  
   157   30  155 1  
   158   32  156 1  
   159   32  157 1  
   160   33  158 1  
   161   33  159 1  
   162   34  160 1  
   163   35  161 1  
   164   38  162 1  
   165   38  163 1  
   166   41  164 1  
   167   42  165 1  
   168   43  166 1  
   169   44  167 1  
   170   45  168 1  
   171   45  169 1  
   172   48  170 1  
   173   49  171 1  
   174   52  172 1  
   175   52  173 1  
   176   53  174 1  
   177   54  175 1  
   178   54  176 1  
   179   54  177 1  
   180   55  178 1  
   181   55  179 1  
   182   55  180 1  
   183   56  181 1  
   184   57  182 1  
   185   60  183 1  
   186   60  184 1  
   187   64  185 1  
   188   65  186 1  
   189   68  187 1  
   190   68  188 1  
   191   71  189 1  
   192   71  190 1  
   193   72  191 1  
   194   73  192 1  
   195   76  193 1  
   196   76  194 1  
   197   78  195 1  
   198   79  196 1  
   199   80  197 1  
   200   81  198 1  
   201   83  199 1  
   202   84  200 1  
   203   85  201 1  
   204   88  202 1  
   205   88  203 1  
   206   89  204 1  
   207   89  205 1  
   208   90  206 1  
   209   90  207 1  
   210   91  208 1  
   211   93  209 1  
   212   93  210 1  
   213   94  211 1  
   214   94  212 1  
   215   95  213 1  
   216   96  214 1  
   217   96  215 1  
   218   99  216 1  
   219  100  217 1  
   220  103  218 1  
   221  103  219 1  
   222  105  220 1  
   223  106  221 1  
   224  107  222 1  
   225  108  223 1  
   226  110  224 1  
   227  111  225 1  
   228  112  226 1  
   229  115  227 1  
   230  115  228 1  
   231  116  229 1  
@<TRIPOS>SUBSTRUCTURE
     1 ALA         1

