1f3j_ligand
  -I-interpret- 

228230  0  0  0  0  0  0  0  0999 V2000
   23.7960   73.7540    3.8570 N   0  3  0  0  0
   22.8420   74.4080    4.7950 C   0  0  0  0  0
   23.2020   74.0340    6.2130 C   0  0  0  0  0
   24.3600   73.7110    6.5120 O   0  0  0  0  0
   21.4070   73.9640    4.5060 C   0  0  0  0  0
   22.1860   74.0780    7.0720 N   0  0  0  0  0
   22.3430   73.7490    8.4750 C   0  0  0  0  0
   22.9120   72.3530    8.6060 C   0  0  0  0  0
   22.6290   71.4650    7.7900 O   0  0  0  0  0
   21.0050   73.8390    9.2230 C   0  0  0  0  0
   20.4240   75.2450    9.3130 C   0  0  0  0  0
   21.6230   76.4410    9.9730 S   0  0  0  0  0
   20.8070   76.9950   11.4180 C   0  0  0  0  0
   23.7270   72.1790    9.6420 N   0  0  0  0  0
   24.3770   70.9100    9.9180 C   0  0  0  0  0
   24.0570   70.4770   11.3440 C   0  0  0  0  0
   23.7540   71.3010   12.2150 O   0  0  0  0  0
   25.9010   71.0440    9.7230 C   0  0  0  0  0
   26.2950   71.5830    8.3450 C   0  0  0  0  0
   27.7940   71.5110    8.0650 C   0  0  0  0  0
   28.1190   72.0050    6.6410 C   0  0  0  0  0
   27.3850   71.2610    5.5630 N   0  3  0  0  0
   24.1070   69.1710   11.5680 N   0  0  0  0  0
   23.8370   68.6310   12.8830 C   0  0  0  0  0
   25.0500   68.8350   13.8060 C   0  0  0  0  0
   26.2070   68.6600   13.3980 O   0  0  0  0  0
   23.4880   67.1440   12.7730 C   0  0  0  0  0
   22.1000   66.8670   12.2250 C   0  0  0  0  0
   21.8450   65.3570   12.1040 C   0  0  0  0  0
   20.5420   65.0430   11.5060 N   0  0  0  0  0
   19.4540   64.7000   12.1940 C   0  0  0  0  0
   19.5000   64.6180   13.5190 N   0  0  0  0  0
   18.3170   64.4400   11.5550 N   0  0  0  0  0
   24.7770   69.2380   15.0420 N   0  0  0  0  0
   25.8260   69.4430   16.0170 C   0  0  0  0  0
   25.7960   68.2890   17.0090 C   0  0  0  0  0
   24.7370   67.7610   17.3280 O   0  0  0  0  0
   25.6230   70.7620   16.7670 C   0  0  0  0  0
   25.8420   71.9870   15.9360 C   0  0  0  0  0
   26.1150   73.2170   16.4930 N   0  0  0  0  0
   25.7900   72.1820   14.5980 C   0  0  0  0  0
   26.2230   74.1170   15.5340 C   0  0  0  0  0
   26.0300   73.5150   14.3750 N   0  0  0  0  0
   26.9690   67.9010   17.4870 N   0  0  0  0  0
   27.0590   66.8220   18.4500 C   0  0  0  0  0
   27.6450   67.3280   19.7550 C   0  0  0  0  0
   28.7000   67.9800   19.7750 O   0  0  0  0  0
   26.9570   67.0390   20.8540 N   0  0  0  0  0
   27.4130   67.4780   22.1670 C   0  0  0  0  0
   28.8940   67.1600   22.3570 C   0  0  0  0  0
   29.3630   66.0880   21.9650 O   0  0  0  0  0
   26.5590   66.8130   23.2460 C   0  0  0  0  0
   25.0890   67.2430   23.2240 C   0  0  0  0  0
   24.2040   66.1450   23.7700 C   0  0  0  0  0
   24.9300   68.5140   24.0300 C   0  0  0  0  0
   29.6190   68.1000   22.9560 N   0  0  0  0  0
   31.0530   67.9590   23.1730 C   0  0  0  0  0
   31.3810   67.0850   24.3650 C   0  0  0  0  0
   30.8610   67.2860   25.4670 O   0  0  0  0  0
   31.6870   69.3370   23.3710 C   0  0  0  0  0
   33.0820   69.4260   22.8150 C   0  0  0  0  0
   33.9150   68.5380   23.1080 O   0  0  0  0  0
   33.3380   70.4030   22.0840 O   0  0  0  0  0
   32.2440   66.1070   24.1180 N   0  0  0  0  0
   32.7060   65.1860   25.1420 C   0  0  0  0  0
   33.9110   65.8900   25.7400 C   0  0  0  0  0
   34.9190   66.1100   25.0590 O   0  0  0  0  0
   33.0990   63.8490   24.4940 C   0  0  0  0  0
   33.6220   62.8260   25.4910 C   0  0  0  0  0
   33.1800   62.7600   26.6360 O   0  0  0  0  0
   34.5550   62.0020   25.0430 N   0  0  0  0  0
   33.7960   66.2730   27.0040 N   0  0  0  0  0
   34.8730   66.9860   27.6680 C   0  0  0  0  0
   35.9000   66.0950   28.3070 C   0  0  0  0  0
   35.5560   65.1340   28.9800 O   0  0  0  0  0
   34.2890   67.9090   28.7040 C   0  0  0  0  0
   33.4490   68.9590   28.0660 C   0  0  0  0  0
   34.0320   69.9620   27.3120 C   0  0  0  0  0
   32.0670   68.9380   28.1900 C   0  0  0  0  0
   33.2710   70.9240   26.6980 C   0  0  0  0  0
   31.2850   69.8940   27.5810 C   0  0  0  0  0
   31.8980   70.8910   26.8340 C   0  0  0  0  0
   31.1350   71.8630   26.2270 O   0  0  0  0  0
   37.1680   66.4230   28.0980 N   0  0  0  0  0
   38.2600   65.6390   28.6530 C   0  0  0  0  0
   38.3550   65.7700   30.1730 C   0  0  0  0  0
   37.9340   66.7710   30.7390 O   0  0  0  0  0
   39.5780   66.0890   28.0330 C   0  0  0  0  0
   39.7240   65.7800   26.5650 C   0  0  0  0  0
   41.0110   66.3710   26.0260 C   0  0  0  0  0
   41.2690   66.0250   24.6250 N   0  0  0  0  0
   41.7060   64.8380   24.2110 C   0  0  0  0  0
   41.9350   63.8760   25.0870 N   0  0  0  0  0
   41.9300   64.6160   22.9240 N   0  0  0  0  0
   38.9050   64.7540   30.8280 N   0  0  0  0  0
   39.0670   64.8040   32.2710 C   0  0  0  0  0
   40.4410   65.3830   32.5620 C   0  0  0  0  0
   41.2090   65.6190   31.6330 O   0  0  0  0  0
   40.7700   65.6090   33.8300 N   0  0  0  0  0
   42.0750   66.1800   34.1760 C   0  0  0  0  0
   43.2480   65.2160   34.0140 C   0  0  0  0  0
   43.2170   64.0870   34.5150 O   0  0  0  0  0
   42.0480   66.7320   35.5990 C   0  0  0  0  0
   41.4340   65.8000   36.6090 C   0  0  0  0  0
   42.1210   64.6740   37.0530 C   0  0  0  0  0
   40.1670   66.0550   37.1370 C   0  0  0  0  0
   41.5640   63.8200   38.0090 C   0  0  0  0  0
   39.5980   65.2160   38.0900 C   0  0  0  0  0
   40.2980   64.0990   38.5270 C   0  0  0  0  0
   39.7500   63.2710   39.4940 O   0  0  0  0  0
   44.2880   65.6920   33.3210 N   0  0  0  0  0
   45.5060   64.9180   33.0170 C   0  0  0  0  0
   46.5270   64.7540   34.1590 C   0  0  0  0  0
   46.6950   63.6090   34.6500 O   0  0  0  0  0
   46.2150   65.5450   31.8080 C   0  0  0  0  0
   45.2950   65.8260   30.7650 O   0  0  0  0  0
   47.1630   65.7650   34.5400 O   0  0  0  0  0
   24.7446   74.0640    4.0677 H   0  0  0  0  0
   23.7362   72.7414    3.9643 H   0  0  0  0  0
   23.5583   74.0102    2.8987 H   0  0  0  0  0
   22.9073   75.4879    4.6621 H   0  0  0  0  0
   21.3302   72.8839    4.6306 H   0  0  0  0  0
   20.7279   74.4602    5.1993 H   0  0  0  0  0
   21.1440   74.2326    3.4829 H   0  0  0  0  0
   21.2648   74.3528    6.7310 H   0  0  0  0  0
   23.0269   74.4707    8.9216 H   0  0  0  0  0
   21.1873   73.5034   10.2439 H   0  0  0  0  0
   20.2885   73.2328    8.6687 H   0  0  0  0  0
   19.5675   75.2160    9.9866 H   0  0  0  0  0
   20.1459   75.5624    8.3080 H   0  0  0  0  0
   19.8535   77.4468   11.1447 H   0  0  0  0  0
   20.6323   76.1486   12.0822 H   0  0  0  0  0
   21.4286   77.7335   11.9242 H   0  0  0  0  0
   23.9023   72.9663   10.2663 H   0  0  0  0  0
   24.0073   70.1535    9.2258 H   0  0  0  0  0
   26.3328   70.0480    9.8211 H   0  0  0  0  0
   26.2658   71.7510   10.4681 H   0  0  0  0  0
   26.0067   72.6336    8.3108 H   0  0  0  0  0
   25.7935   70.9675    7.5982 H   0  0  0  0  0
   28.1156   70.4735    8.1554 H   0  0  0  0  0
   28.3129   72.1479    8.7813 H   0  0  0  0  0
   29.1853   71.8492    6.4770 H   0  0  0  0  0
   27.8153   73.0501    6.5809 H   0  0  0  0  0
   27.6468   71.6385    4.6523 H   0  0  0  0  0
   27.6312   70.2721    5.6060 H   0  0  0  0  0
   26.3801   71.3688    5.7009 H   0  0  0  0  0
   24.3391   68.5381   10.8025 H   0  0  0  0  0
   22.9875   69.1597   13.3154 H   0  0  0  0  0
   23.5231   66.7309   13.7811 H   0  0  0  0  0
   24.2013   66.6976   12.0802 H   0  0  0  0  0
   22.0201   67.3149   11.2345 H   0  0  0  0  0
   21.3641   67.2916   12.9078 H   0  0  0  0  0
   21.8598   64.9356   13.1091 H   0  0  0  0  0
   22.6169   64.9401   11.4571 H   0  0  0  0  0
   20.4638   65.0909   10.4901 H   0  0  0  0  0
   20.3700   64.8179   14.0124 H   0  0  0  0  0
   17.4839   64.1786   12.0823 H   0  0  0  0  0
   18.2781   64.5020   10.5376 H   0  0  0  0  0
   23.8072   69.4065   15.3093 H   0  0  0  0  0
   26.7871   69.4849   15.5046 H   0  0  0  0  0
   26.3565   70.7874   17.5729 H   0  0  0  0  0
   24.5855   70.7835   17.1004 H   0  0  0  0  0
   25.5944   71.4235   13.8401 H   0  0  0  0  0
   26.4354   75.1768   15.6748 H   0  0  0  0  0
   27.8198   68.3678   17.1731 H   0  0  0  0  0
   27.7047   66.0406   18.0494 H   0  0  0  0  0
   26.0600   66.4283   18.6376 H   0  0  0  0  0
   26.0942   66.5003   20.7777 H   0  0  0  0  0
   27.3003   68.5592   22.2475 H   0  0  0  0  0
   26.9691   67.1073   24.2121 H   0  0  0  0  0
   26.5859   65.7384   23.0651 H   0  0  0  0  0
   24.7837   67.4322   22.1949 H   0  0  0  0  0
   24.3194   65.2496   23.1592 H   0  0  0  0  0
   24.4925   65.9249   24.7978 H   0  0  0  0  0
   23.1645   66.4718   23.7451 H   0  0  0  0  0
   25.2432   68.3323   25.0581 H   0  0  0  0  0
   25.5479   69.2989   23.5939 H   0  0  0  0  0
   23.8848   68.8229   24.0165 H   0  0  0  0  0
   29.1547   68.9503   23.2751 H   0  0  0  0  0
   31.4607   67.4736   22.2863 H   0  0  0  0  0
   31.7435   69.5261   24.4430 H   0  0  0  0  0
   31.0714   70.0653   22.8430 H   0  0  0  0  0
   33.5002   67.8878   23.6797 H   0  0  0  0  0
   32.5982   65.9974   23.1678 H   0  0  0  0  0
   31.9539   64.9518   25.8954 H   0  0  0  0  0
   33.8981   64.0515   23.7809 H   0  0  0  0  0
   32.2039   63.4312   24.0332 H   0  0  0  0  0
   34.9337   61.2792   25.6550 H   0  0  0  0  0
   34.8957   62.0895   24.0856 H   0  0  0  0  0
   32.9395   66.0641   27.5171 H   0  0  0  0  0
   35.3998   67.5423   26.8927 H   0  0  0  0  0
   35.1042   68.3916   29.2432 H   0  0  0  0  0
   33.6662   67.3257   29.3822 H   0  0  0  0  0
   35.1163   69.9882   27.2039 H   0  0  0  0  0
   31.5931   68.1525   28.7786 H   0  0  0  0  0
   33.7464   71.7075   26.1079 H   0  0  0  0  0
   30.2002   69.8684   27.6839 H   0  0  0  0  0
   30.2071   71.7029   26.4139 H   0  0  0  0  0
   37.3826   67.2454   27.5341 H   0  0  0  0  0
   38.0601   64.5934   28.4188 H   0  0  0  0  0
   40.3715   65.5498   28.5503 H   0  0  0  0  0
   39.6213   67.1735   28.1340 H   0  0  0  0  0
   38.8815   66.2129   26.0257 H   0  0  0  0  0
   39.7463   64.6986   26.4304 H   0  0  0  0  0
   41.8314   65.9685   26.6202 H   0  0  0  0  0
   40.9246   67.4559   26.0858 H   0  0  0  0  0
   41.1023   66.7427   23.9196 H   0  0  0  0  0
   41.7769   64.0429   26.0808 H   0  0  0  0  0
   42.2767   63.7075   22.6160 H   0  0  0  0  0
   41.7557   65.3536   22.2413 H   0  0  0  0  0
   39.2167   63.9306   30.3130 H   0  0  0  0  0
   38.9785   63.8048   32.6974 H   0  0  0  0  0
   38.2912   65.4253   32.7184 H   0  0  0  0  0
   40.1066   65.3824   34.5709 H   0  0  0  0  0
   42.2450   66.9823   33.4580 H   0  0  0  0  0
   41.4389   67.6358   35.5825 H   0  0  0  0  0
   43.0824   66.8973   35.9002 H   0  0  0  0  0
   43.1092   64.4546   36.6487 H   0  0  0  0  0
   39.6123   66.9291   36.7957 H   0  0  0  0  0
   42.1143   62.9422   38.3478 H   0  0  0  0  0
   38.6084   65.4342   38.4914 H   0  0  0  0  0
   38.8826   63.5999   39.7411 H   0  0  0  0  0
   44.2355   66.6522   32.9808 H   0  0  0  0  0
   45.1417   63.9094   32.8218 H   0  0  0  0  0
   46.1092   62.9859   34.2139 H   0  0  0  0  0
   46.9590   64.8405   31.4362 H   0  0  0  0  0
   46.6810   66.4787   32.1228 H   0  0  0  0  0
   45.7632   66.2163   30.0233 H   0  0  0  0  0
  1  2  1  0  0  0
  2  3  1  0  0  0
  2  5  1  0  0  0
  3  4  2  0  0  0
  3  6  1  0  0  0
  6  7  1  0  0  0
  7  8  1  0  0  0
  7 10  1  0  0  0
  8  9  2  0  0  0
  8 14  1  0  0  0
 10 11  1  0  0  0
 11 12  1  0  0  0
 12 13  1  0  0  0
 14 15  1  0  0  0
 15 16  1  0  0  0
 15 18  1  0  0  0
 16 17  2  0  0  0
 16 23  1  0  0  0
 18 19  1  0  0  0
 19 20  1  0  0  0
 20 21  1  0  0  0
 21 22  1  0  0  0
 23 24  1  0  0  0
 24 25  1  0  0  0
 24 27  1  0  0  0
 25 26  2  0  0  0
 25 34  1  0  0  0
 27 28  1  0  0  0
 28 29  1  0  0  0
 29 30  1  0  0  0
 30 31  1  0  0  0
 31 32  2  0  0  0
 31 33  1  0  0  0
 34 35  1  0  0  0
 35 36  1  0  0  0
 35 38  1  0  0  0
 36 37  2  0  0  0
 36 44  1  0  0  0
 38 39  1  0  0  0
 39 40  4  0  0  0
 39 41  4  0  0  0
 40 42  4  0  0  0
 41 43  4  0  0  0
 42 43  4  0  0  0
 44 45  1  0  0  0
 45 46  1  0  0  0
 46 47  2  0  0  0
 46 48  1  0  0  0
 48 49  1  0  0  0
 49 50  1  0  0  0
 49 52  1  0  0  0
 50 51  2  0  0  0
 50 56  1  0  0  0
 52 53  1  0  0  0
 53 54  1  0  0  0
 53 55  1  0  0  0
 56 57  1  0  0  0
 57 58  1  0  0  0
 57 60  1  0  0  0
 58 59  2  0  0  0
 58 64  1  0  0  0
 60 61  1  0  0  0
 61 62  1  0  0  0
 61 63  2  0  0  0
 64 65  1  0  0  0
 65 66  1  0  0  0
 65 68  1  0  0  0
 66 67  2  0  0  0
 66 72  1  0  0  0
 68 69  1  0  0  0
 69 70  2  0  0  0
 69 71  1  0  0  0
 72 73  1  0  0  0
 73 74  1  0  0  0
 73 76  1  0  0  0
 74 75  2  0  0  0
 74 84  1  0  0  0
 76 77  1  0  0  0
 77 78  4  0  0  0
 77 79  4  0  0  0
 78 80  4  0  0  0
 79 81  4  0  0  0
 80 82  4  0  0  0
 81 82  4  0  0  0
 82 83  1  0  0  0
 84 85  1  0  0  0
 85 86  1  0  0  0
 85 88  1  0  0  0
 86 87  2  0  0  0
 86 95  1  0  0  0
 88 89  1  0  0  0
 89 90  1  0  0  0
 90 91  1  0  0  0
 91 92  1  0  0  0
 92 93  2  0  0  0
 92 94  1  0  0  0
 95 96  1  0  0  0
 96 97  1  0  0  0
 97 98  2  0  0  0
 97 99  1  0  0  0
 99100  1  0  0  0
100101  1  0  0  0
100103  1  0  0  0
101102  2  0  0  0
101111  1  0  0  0
103104  1  0  0  0
104105  4  0  0  0
104106  4  0  0  0
105107  4  0  0  0
106108  4  0  0  0
107109  4  0  0  0
108109  4  0  0  0
109110  1  0  0  0
111112  1  0  0  0
112113  1  0  0  0
112115  1  0  0  0
113114  1  0  0  0
113117  2  0  0  0
115116  1  0  0  0
  1118  1  0  0  0
  1119  1  0  0  0
  1120  1  0  0  0
  2121  1  0  0  0
  5122  1  0  0  0
  5123  1  0  0  0
  5124  1  0  0  0
  6125  1  0  0  0
  7126  1  0  0  0
 10127  1  0  0  0
 10128  1  0  0  0
 11129  1  0  0  0
 11130  1  0  0  0
 13131  1  0  0  0
 13132  1  0  0  0
 13133  1  0  0  0
 14134  1  0  0  0
 15135  1  0  0  0
 18136  1  0  0  0
 18137  1  0  0  0
 19138  1  0  0  0
 19139  1  0  0  0
 20140  1  0  0  0
 20141  1  0  0  0
 21142  1  0  0  0
 21143  1  0  0  0
 22144  1  0  0  0
 22145  1  0  0  0
 22146  1  0  0  0
 23147  1  0  0  0
 24148  1  0  0  0
 27149  1  0  0  0
 27150  1  0  0  0
 28151  1  0  0  0
 28152  1  0  0  0
 29153  1  0  0  0
 29154  1  0  0  0
 30155  1  0  0  0
 32156  1  0  0  0
 33157  1  0  0  0
 33158  1  0  0  0
 34159  1  0  0  0
 35160  1  0  0  0
 38161  1  0  0  0
 38162  1  0  0  0
 41163  1  0  0  0
 42164  1  0  0  0
 44165  1  0  0  0
 45166  1  0  0  0
 45167  1  0  0  0
 48168  1  0  0  0
 49169  1  0  0  0
 52170  1  0  0  0
 52171  1  0  0  0
 53172  1  0  0  0
 54173  1  0  0  0
 54174  1  0  0  0
 54175  1  0  0  0
 55176  1  0  0  0
 55177  1  0  0  0
 55178  1  0  0  0
 56179  1  0  0  0
 57180  1  0  0  0
 60181  1  0  0  0
 60182  1  0  0  0
 62183  1  0  0  0
 64184  1  0  0  0
 65185  1  0  0  0
 68186  1  0  0  0
 68187  1  0  0  0
 71188  1  0  0  0
 71189  1  0  0  0
 72190  1  0  0  0
 73191  1  0  0  0
 76192  1  0  0  0
 76193  1  0  0  0
 78194  1  0  0  0
 79195  1  0  0  0
 80196  1  0  0  0
 81197  1  0  0  0
 83198  1  0  0  0
 84199  1  0  0  0
 85200  1  0  0  0
 88201  1  0  0  0
 88202  1  0  0  0
 89203  1  0  0  0
 89204  1  0  0  0
 90205  1  0  0  0
 90206  1  0  0  0
 91207  1  0  0  0
 93208  1  0  0  0
 94209  1  0  0  0
 94210  1  0  0  0
 95211  1  0  0  0
 96212  1  0  0  0
 96213  1  0  0  0
 99214  1  0  0  0
100215  1  0  0  0
103216  1  0  0  0
103217  1  0  0  0
105218  1  0  0  0
106219  1  0  0  0
107220  1  0  0  0
108221  1  0  0  0
110222  1  0  0  0
111223  1  0  0  0
112224  1  0  0  0
114225  1  0  0  0
115226  1  0  0  0
115227  1  0  0  0
116228  1  0  0  0
M  END
$$$$
