3lpj_ligand
  -I-interpret- 

 90 93  0  0  0  0  0  0  0  0999 V2000
   26.7720   15.5390   24.4530 C   0  0  0  0  0
   26.9440   10.6810   19.1230 F   0  0  0  0  0
   28.5590   13.6580   21.9190 N   0  0  0  0  0
   29.0830   13.6710   24.1490 O   0  0  0  0  0
   26.9290   14.3350   23.7270 C   0  0  0  0  0
   23.0960   13.2670   18.3770 F   0  0  0  0  0
   23.5450   11.7420   23.3740 N   0  0  0  0  0
   22.1960   13.5700   23.4630 O   0  0  0  0  0
   25.7920   13.5270   23.4410 C   0  0  0  0  0
   21.0310    9.9670   26.5070 N   0  3  0  0  0
   21.0520    8.9800   23.8390 O   0  0  0  0  0
   24.5060   13.9100   23.8610 C   0  0  0  0  0
   19.1270   12.0900   25.8760 N   0  3  0  0  0
   24.3550   15.1240   24.5830 C   0  0  0  0  0
   25.4830   15.9430   24.8850 C   0  0  0  0  0
   28.2510   13.8790   23.2810 C   0  0  0  0  0
   29.9260   13.1710   21.6120 C   0  0  0  0  0
   27.6510   13.8710   20.7530 C   0  0  0  0  0
   28.1530   15.0140   19.8450 C   0  0  0  0  0
   28.3630   16.3380   20.6070 C   0  0  0  0  0
   29.8900   11.6850   21.1180 C   0  0  0  0  0
   29.1420   10.7020   22.0620 C   0  0  0  0  0
   25.3110   17.2320   25.6540 C   0  0  0  0  0
   23.3210   13.0860   23.5540 C   0  0  0  0  0
   22.4770   10.7660   23.0390 C   0  0  0  0  0
   21.9870    9.9670   24.2620 C   0  0  0  0  0
   23.0260    9.8400   21.9260 C   0  0  0  0  0
   23.7140   10.5970   20.8090 C   0  0  0  0  0
   25.0500   10.2850   20.4690 C   0  0  0  0  0
   25.6900   10.9910   19.4260 C   0  0  0  0  0
   25.0520   12.0090   18.6980 C   0  0  0  0  0
   23.7240   12.3130   19.0440 C   0  0  0  0  0
   23.0390   11.6330   20.0790 C   0  0  0  0  0
   21.2770   10.8240   25.3240 C   0  0  0  0  0
   19.9330   11.4310   24.8060 C   0  0  0  0  0
   19.0160   11.2530   27.1140 C   0  0  0  0  0
   20.3750   10.7170   27.5990 C   0  0  0  0  0
   17.7620   12.5170   25.3410 C   0  0  0  0  0
   16.7650   11.3810   25.0270 C   0  0  0  0  0
   15.7970   10.9700   25.9950 C   0  0  0  0  0
   14.8860    9.9250   25.7120 C   0  0  0  0  0
   14.9250    9.2740   24.4530 C   0  0  0  0  0
   15.8770    9.6690   23.4830 C   0  0  0  0  0
   16.7850   10.7120   23.7670 C   0  0  0  0  0
   27.6414   16.1559   24.6803 H   0  0  0  0  0
   24.4988   11.3953   23.4763 H   0  0  0  0  0
   25.9206   12.5967   22.8877 H   0  0  0  0  0
   21.9292    9.6238   26.8474 H   0  0  0  0  0
   20.4161    9.2026   26.2277 H   0  0  0  0  0
   20.7469    8.4824   24.6012 H   0  0  0  0  0
   19.6278   12.9327   26.1578 H   0  0  0  0  0
   23.3628   15.4341   24.9109 H   0  0  0  0  0
   30.5299   13.2255   22.5178 H   0  0  0  0  0
   30.3517   13.7927   20.8244 H   0  0  0  0  0
   26.6634   14.1378   21.1292 H   0  0  0  0  0
   27.6213   12.9526   20.1667 H   0  0  0  0  0
   27.3969   15.1871   19.0792 H   0  0  0  0  0
   29.1151   14.7121   19.4311 H   0  0  0  0  0
   27.4185   16.6550   21.0491 H   0  0  0  0  0
   29.1023   16.1894   21.3940 H   0  0  0  0  0
   28.7161   17.1022   19.9146 H   0  0  0  0  0
   30.9241   11.3450   21.0622 H   0  0  0  0  0
   29.3553   11.6802   20.1682 H   0  0  0  0  0
   29.6271   10.6976   23.0381 H   0  0  0  0  0
   28.1060   11.0226   22.1712 H   0  0  0  0  0
   29.1703    9.6990   21.6362 H   0  0  0  0  0
   25.8942   17.1855   26.5737 H   0  0  0  0  0
   25.6577   18.0664   25.0443 H   0  0  0  0  0
   24.2575   17.3709   25.8969 H   0  0  0  0  0
   21.5951   11.3021   22.6883 H   0  0  0  0  0
   22.8833    9.5386   24.7105 H   0  0  0  0  0
   22.1805    9.3060   21.4924 H   0  0  0  0  0
   23.7629    9.1774   22.3799 H   0  0  0  0  0
   25.5841    9.5032   21.0091 H   0  0  0  0  0
   25.5658   12.5414   17.8976 H   0  0  0  0  0
   22.0083   11.8933   20.3198 H   0  0  0  0  0
   21.9160   11.6701   25.5767 H   0  0  0  0  0
   20.1805   12.1921   24.0660 H   0  0  0  0  0
   19.3368   10.6121   24.4036 H   0  0  0  0  0
   18.3843   10.3959   26.8807 H   0  0  0  0  0
   18.6046   11.8808   27.9044 H   0  0  0  0  0
   21.0087   11.5527   27.8959 H   0  0  0  0  0
   20.2199   10.0548   28.4508 H   0  0  0  0  0
   17.9517   13.0246   24.3952 H   0  0  0  0  0
   17.3019   13.1164   26.1266 H   0  0  0  0  0
   15.7601   11.4681   26.9638 H   0  0  0  0  0
   14.1550    9.6207   26.4611 H   0  0  0  0  0
   14.2226    8.4702   24.2324 H   0  0  0  0  0
   15.9091    9.1674   22.5158 H   0  0  0  0  0
   17.5124   11.0107   23.0122 H   0  0  0  0  0
  5  1  4  0  0  0
 15  1  4  0  0  0
 30  2  1  0  0  0
 16  3  1  0  0  0
  3 17  1  0  0  0
  3 18  1  0  0  0
 16  4  2  0  0  0
  9  5  4  0  0  0
  5 16  1  0  0  0
 32  6  1  0  0  0
  7 24  1  0  0  0
 25  7  1  0  0  0
 24  8  2  0  0  0
 12  9  4  0  0  0
 34 10  1  0  0  0
 10 37  1  0  0  0
 26 11  1  0  0  0
 12 14  4  0  0  0
 24 12  1  0  0  0
 35 13  1  0  0  0
 13 36  1  0  0  0
 13 38  1  0  0  0
 14 15  4  0  0  0
 15 23  1  0  0  0
 17 21  1  0  0  0
 18 19  1  0  0  0
 19 20  1  0  0  0
 21 22  1  0  0  0
 26 25  1  0  0  0
 25 27  1  0  0  0
 34 26  1  0  0  0
 27 28  1  0  0  0
 28 29  4  0  0  0
 28 33  4  0  0  0
 29 30  4  0  0  0
 30 31  4  0  0  0
 32 31  4  0  0  0
 33 32  4  0  0  0
 34 35  1  0  0  0
 36 37  1  0  0  0
 38 39  1  0  0  0
 39 40  4  0  0  0
 39 44  4  0  0  0
 40 41  4  0  0  0
 41 42  4  0  0  0
 42 43  4  0  0  0
 43 44  4  0  0  0
  1 45  1  0  0  0
  7 46  1  0  0  0
  9 47  1  0  0  0
 10 48  1  0  0  0
 10 49  1  0  0  0
 11 50  1  0  0  0
 13 51  1  0  0  0
 14 52  1  0  0  0
 17 53  1  0  0  0
 17 54  1  0  0  0
 18 55  1  0  0  0
 18 56  1  0  0  0
 19 57  1  0  0  0
 19 58  1  0  0  0
 20 59  1  0  0  0
 20 60  1  0  0  0
 20 61  1  0  0  0
 21 62  1  0  0  0
 21 63  1  0  0  0
 22 64  1  0  0  0
 22 65  1  0  0  0
 22 66  1  0  0  0
 23 67  1  0  0  0
 23 68  1  0  0  0
 23 69  1  0  0  0
 25 70  1  0  0  0
 26 71  1  0  0  0
 27 72  1  0  0  0
 27 73  1  0  0  0
 29 74  1  0  0  0
 31 75  1  0  0  0
 33 76  1  0  0  0
 34 77  1  0  0  0
 35 78  1  0  0  0
 35 79  1  0  0  0
 36 80  1  0  0  0
 36 81  1  0  0  0
 37 82  1  0  0  0
 37 83  1  0  0  0
 38 84  1  0  0  0
 38 85  1  0  0  0
 40 86  1  0  0  0
 41 87  1  0  0  0
 42 88  1  0  0  0
 43 89  1  0  0  0
 44 90  1  0  0  0
M  END
$$$$
