1lgw_ligand
  -I-interpret- 

 14 14  0  0  0  0  0  0  0  0999 V2000
   26.0520    5.6090    5.5940 C   0  0  0  0  0
   26.7970    6.7770    5.7660 C   0  0  0  0  0
   26.1130    5.0130    4.3400 C   0  0  0  0  0
   27.5720    7.3600    4.7520 C   0  0  0  0  0
   26.9300    5.5430    3.3420 C   0  0  0  0  0
   27.6380    6.7380    3.5080 C   0  0  0  0  0
   28.4580    7.2140    2.5000 N   0  0  0  0  0
   26.9420    4.9350    2.2100 F   0  0  0  0  0
   25.4536    5.1865    6.4012 H   0  0  0  0  0
   26.7755    7.2627    6.7416 H   0  0  0  0  0
   25.5171    4.1237    4.1349 H   0  0  0  0  0
   28.1150    8.2871    4.9356 H   0  0  0  0  0
   29.0340    8.0407    2.6588 H   0  0  0  0  0
   28.4864    6.7382    1.5982 H   0  0  0  0  0
  1  3  4  0  0  0
  1  2  4  0  0  0
  2  4  4  0  0  0
  4  6  4  0  0  0
  6  7  1  0  0  0
  6  5  4  0  0  0
  5  3  4  0  0  0
  5  8  1  0  0  0
  1  9  1  0  0  0
  2 10  1  0  0  0
  3 11  1  0  0  0
  4 12  1  0  0  0
  7 13  1  0  0  0
  7 14  1  0  0  0
M  END
$$$$
