### 
### Created by X-TOOL on Wed Jan  1 15:39:36 2020
### 

@<TRIPOS>MOLECULE
6fx1_ligand
  148   153     1     0     0
SMALL
GAST_HUCK


@<TRIPOS>ATOM
      1 C1         12.5560  -35.0530   -1.1860 C.3       1 FUC         0.1879
      2 C2         12.7940  -33.6580   -0.6450 C.3       1 FUC         0.1341
      3 C3         14.1150  -33.6340    0.1230 C.3       1 FUC         0.1140
      4 C4         15.2490  -34.1570   -0.7760 C.3       1 FUC         0.1095
      5 C5         14.8970  -35.5720   -1.2340 C.3       1 FUC         0.0873
      6 C6         15.8900  -36.2430   -2.1770 C.3       1 FUC        -0.0361
      7 O2         11.6660  -33.2920    0.1680 O.3       1 FUC        -0.3841
      8 O3         14.3660  -32.3160    0.6050 O.3       1 FUC        -0.3864
      9 O4         15.4340  -33.3290   -1.9430 O.3       1 FUC        -0.3866
     10 O5         13.6700  -35.5090   -1.9430 O.3       1 FUC        -0.3431
     11 C2          9.4350  -37.2290    3.1070 C.3       1 C4W         0.1388
     12 C3          8.5950  -37.0680    1.8220 C.3       1 C4W         0.1145
     13 C4          9.5170  -36.7490    0.5970 C.3       1 C4W         0.1184
     14 C5         10.7820  -37.6450    0.5180 C.3       1 C4W         0.1164
     15 C6         11.8380  -37.2020   -0.4810 C.3       1 C4W         0.0797
     16 C7          8.8260  -37.5700    5.6650 C.2       1 C4W         0.1734
     17 C8          8.3520  -38.7060    6.5910 C.3       1 C4W         0.0257
     18 N2          8.9060  -37.8130    4.3250 N.am      1 C4W        -0.2737
     19 O3          7.6010  -36.0490    2.0060 O.3       1 C4W        -0.3865
     20 O4          8.8310  -37.0000   -0.6240 O.3       1 C4W        -0.3404
     21 O5         11.4510  -37.6680    1.7910 O.3       1 C4W        -0.3272
     22 O6         12.3120  -35.9090   -0.0640 O.3       1 C4W        -0.3460
     23 C1         10.5990  -38.2160    2.8010 C.3       1 C4W         0.1080
     24 O7          9.0840  -36.4290    6.0910 O.2       1 C4W        -0.3974
     25 N1         11.4310  -38.6110    3.9800 N.4       1 C4W         0.2428
     26 C1          8.4310  -35.8070   -1.2700 C.3       1 NAG         0.1854
     27 C2          8.0870  -36.1500   -2.7050 C.3       1 NAG         0.1210
     28 C3          7.5010  -34.9420   -3.4110 C.3       1 NAG         0.1114
     29 C4          6.4160  -34.2890   -2.5770 C.3       1 NAG         0.1181
     30 C5          6.9800  -33.9690   -1.2030 C.3       1 NAG         0.1134
     31 C6          5.9890  -33.1880   -0.3530 C.3       1 NAG         0.0730
     32 C7          9.6640  -37.7880   -3.6120 C.2       1 NAG         0.1733
     33 C8         10.9450  -37.9850   -4.3600 C.3       1 NAG         0.0257
     34 N2          9.2900  -36.5310   -3.4070 N.am      1 NAG        -0.2766
     35 O3          7.0020  -35.4140   -4.6540 O.3       1 NAG        -0.3867
     36 O4          5.9520  -33.0500   -3.1550 O.3       1 NAG        -0.3401
     37 O5          7.3630  -35.1880   -0.5620 O.3       1 NAG        -0.3408
     38 O6          6.5780  -33.1090    0.9490 O.3       1 NAG        -0.3924
     39 O7          9.0260  -38.7430   -3.2270 O.2       1 NAG        -0.3974
     40 C1          4.7240  -33.3030   -3.8520 C.3       1 BMA         0.1884
     41 C2          3.8880  -32.0470   -4.0860 C.3       1 BMA         0.1341
     42 C3          2.6150  -32.4860   -4.8350 C.3       1 BMA         0.1141
     43 C4          3.0350  -33.1590   -6.1510 C.3       1 BMA         0.1119
     44 C5          3.7950  -34.4260   -5.7700 C.3       1 BMA         0.1134
     45 C6          4.1390  -35.3320   -6.9530 C.3       1 BMA         0.0796
     46 O2          4.6330  -31.0730   -4.8400 O.3       1 BMA        -0.3841
     47 O3          1.7100  -31.3880   -5.0250 O.3       1 BMA        -0.3864
     48 O4          1.9560  -33.4440   -7.0460 O.3       1 BMA        -0.3865
     49 O5          4.9900  -33.9350   -5.1160 O.3       1 BMA        -0.3405
     50 O6          4.9070  -34.5570   -7.8940 O.3       1 BMA        -0.3460
     51 C1          4.9680  -35.2130   -9.1800 C.3       1 MAN         0.1884
     52 C2          6.1640  -34.6770   -9.9720 C.3       1 MAN         0.1406
     53 C3          6.0300  -33.2040  -10.3310 C.3       1 MAN         0.1144
     54 C4          4.7140  -32.9850  -11.0630 C.3       1 MAN         0.1119
     55 C5          3.5450  -33.5920  -10.2770 C.3       1 MAN         0.1130
     56 C6          2.2570  -33.4520  -11.0830 C.3       1 MAN         0.0730
     57 O2          6.1750  -35.3860  -11.2090 O.3       1 MAN        -0.3380
     58 O3          7.0950  -32.8100  -11.2070 O.3       1 MAN        -0.3864
     59 O4          4.5340  -31.5820  -11.2810 O.3       1 MAN        -0.3865
     60 O5          3.7790  -34.9880   -9.9550 O.3       1 MAN        -0.3405
     61 O6          1.2120  -34.1420  -10.3730 O.3       1 MAN        -0.3924
     62 C1          7.4330  -35.9900  -11.5340 C.3       1 NAG         0.1855
     63 C2          7.1480  -37.2990  -12.2760 C.3       1 NAG         0.1210
     64 C3          8.4480  -37.9060  -12.7840 C.3       1 NAG         0.1111
     65 C4          9.2700  -36.8650  -13.5470 C.3       1 NAG         0.1116
     66 C5          9.4680  -35.5930  -12.7070 C.3       1 NAG         0.1130
     67 C6         10.2180  -34.4810  -13.4490 C.3       1 NAG         0.0730
     68 C7          5.1360  -38.2870  -11.2200 C.2       1 NAG         0.1733
     69 C8          4.6340  -39.1910  -10.1220 C.3       1 NAG         0.0257
     70 N2          6.4750  -38.1590  -11.3120 N.am      1 NAG        -0.2766
     71 O3          8.2230  -39.0550  -13.6210 O.3       1 NAG        -0.3867
     72 O4         10.5250  -37.4660  -13.8710 O.3       1 NAG        -0.3865
     73 O5          8.2020  -35.0550  -12.2950 O.3       1 NAG        -0.3408
     74 O6          9.3690  -33.7000  -14.3090 O.3       1 NAG        -0.3924
     75 O7          4.3470  -37.7160  -11.9690 O.2       1 NAG        -0.3974
     76 H1         11.6697  -35.0443   -1.8374 H         1 FUC         0.0937
     77 H2         12.8668  -32.9495   -1.4833 H         1 FUC         0.0671
     78 H3         14.0298  -34.3049    0.9906 H         1 FUC         0.0648
     79 H4         16.1847  -34.1767   -0.1980 H         1 FUC         0.0646
     80 H5         14.7860  -36.2023   -0.3394 H         1 FUC         0.0621
     81 H6         15.5289  -37.2498   -2.4337 H         1 FUC         0.0255
     82 H7         16.8700  -36.3197   -1.6834 H         1 FUC         0.0255
     83 H8         15.9873  -35.6435   -3.0941 H         1 FUC         0.0255
     84 H9         10.8750  -33.3236   -0.3572 H         1 FUC         0.2101
     85 H10        15.1685  -32.3134    1.1134 H         1 FUC         0.2100
     86 H11        15.6536  -32.4455   -1.6715 H         1 FUC         0.2100
     87 H12         9.8215  -36.2292    3.3537 H         1 FUC         0.0667
     88 H13         8.0795  -38.0193    1.6237 H         1 FUC         0.0646
     89 H14         9.8167  -35.6922    0.6546 H         1 FUC         0.0650
     90 H15        10.4544  -38.6612    0.2534 H         1 FUC         0.0648
     91 H16        11.3984  -37.1344   -1.4871 H         1 FUC         0.0587
     92 H17        12.6700  -37.9214   -0.4920 H         1 FUC         0.0587
     93 H18         8.3433  -38.3509    7.6321 H         1 FUC         0.0467
     94 H19         9.0369  -39.5621    6.5014 H         1 FUC         0.0467
     95 H20         7.3373  -39.0163    6.3009 H         1 FUC         0.0467
     96 H21         8.4504  -38.6775    4.1126 H         1 FUC         0.1858
     97 H22         7.0603  -35.9913    1.2270 H         1 FUC         0.2100
     98 H23        10.1435  -39.1352    2.4042 H         1 FUC         0.1210
     99 H24        12.1538  -39.2477    3.6829 H         1 FUC         0.2022
    100 H25        10.8475  -39.0621    4.6670 H         1 FUC         0.2022
    101 H26        11.8523  -37.7894    4.3843 H         1 FUC         0.2022
    102 H27         9.2784  -35.1056   -1.2772 H         1 FUC         0.0935
    103 H28         7.3634  -36.9784   -2.7211 H         1 FUC         0.0633
    104 H29         8.2935  -34.2010   -3.5923 H         1 FUC         0.0645
    105 H30         5.5693  -34.9848   -2.4827 H         1 FUC         0.0650
    106 H31         7.8778  -33.3469   -1.3335 H         1 FUC         0.0647
    107 H32         5.0242  -33.7143   -0.3067 H         1 FUC         0.0584
    108 H33         5.8376  -32.1805   -0.7678 H         1 FUC         0.0584
    109 H34        11.1460  -39.0613   -4.4657 H         1 FUC         0.0467
    110 H35        11.7692  -37.5107   -3.8071 H         1 FUC         0.0467
    111 H36        10.8614  -37.5280   -5.3571 H         1 FUC         0.0467
    112 H37         9.8775  -35.8031   -3.7605 H         1 FUC         0.1857
    113 H38         7.7089  -35.8151   -5.1460 H         1 FUC         0.2100
    114 H39         6.7109  -33.9860    1.2890 H         1 FUC         0.2095
    115 H40         4.1286  -33.9933   -3.2364 H         1 FUC         0.0938
    116 H41         3.6087  -31.6049   -3.1183 H         1 FUC         0.0671
    117 H42         2.0952  -33.2365   -4.2214 H         1 FUC         0.0648
    118 H43         3.7220  -32.4801   -6.6775 H         1 FUC         0.0647
    119 H44         3.1930  -35.0117   -5.0597 H         1 FUC         0.0647
    120 H45         3.2152  -35.6911   -7.4301 H         1 FUC         0.0587
    121 H46         4.7306  -36.1919   -6.6059 H         1 FUC         0.0587
    122 H47         4.8884  -31.4481   -5.6747 H         1 FUC         0.2101
    123 H48         0.9212  -31.6996   -5.4530 H         1 FUC         0.2100
    124 H49         1.5045  -32.6368   -7.2631 H         1 FUC         0.2100
    125 H50         5.0903  -36.2942   -9.0189 H         1 FUC         0.0938
    126 H51         7.0929  -34.8430   -9.4068 H         1 FUC         0.0675
    127 H52         6.0568  -32.5968   -9.4142 H         1 FUC         0.0648
    128 H53         4.7664  -33.4866  -12.0406 H         1 FUC         0.0647
    129 H54         3.4344  -33.0345   -9.3352 H         1 FUC         0.0647
    130 H55         2.3895  -33.8988  -12.0794 H         1 FUC         0.0584
    131 H56         1.9968  -32.3886  -11.1896 H         1 FUC         0.0584
    132 H57         7.0661  -33.3380  -11.9963 H         1 FUC         0.2100
    133 H58         5.2743  -31.2409  -11.7690 H         1 FUC         0.2100
    134 H59         1.4447  -35.0584  -10.2814 H         1 FUC         0.2095
    135 H60         7.9818  -36.2226  -10.6095 H         1 FUC         0.0935
    136 H61         6.4844  -37.1123  -13.1332 H         1 FUC         0.0633
    137 H62         9.0304  -38.2320  -11.9097 H         1 FUC         0.0645
    138 H63         8.7448  -36.5949  -14.4750 H         1 FUC         0.0647
    139 H64        10.0482  -35.8674  -11.8136 H         1 FUC         0.0647
    140 H65        11.0078  -34.9405  -14.0614 H         1 FUC         0.0584
    141 H66        10.6738  -33.8106  -12.7055 H         1 FUC         0.0584
    142 H67         3.5345  -39.2181  -10.1434 H         1 FUC         0.0467
    143 H68         4.9724  -38.8078   -9.1480 H         1 FUC         0.0467
    144 H69         5.0288  -40.2064  -10.2738 H         1 FUC         0.0467
    145 H70         7.0412  -38.6872  -10.6792 H         1 FUC         0.1857
    146 H71         9.0584  -39.4330  -13.8693 H         1 FUC         0.2100
    147 H72        10.3759  -38.2482  -14.3890 H         1 FUC         0.2100
    148 H73         8.6865  -33.2899  -13.7908 H         1 FUC         0.2095
@<TRIPOS>BOND
     1    1    2 1  
     2    1   10 1  
     3   22    1 1  
     4    2    3 1  
     5    2    7 1  
     6    3    4 1  
     7    3    8 1  
     8    5    4 1  
     9    4    9 1  
    10    5    6 1  
    11   10    5 1  
    12   12   11 1  
    13   11   18 1  
    14   11   23 1  
    15   13   12 1  
    16   12   19 1  
    17   13   14 1  
    18   20   13 1  
    19   14   15 1  
    20   14   21 1  
    21   15   22 1  
    22   16   17 1  
    23   18   16 am 
    24   16   24 2  
    25   26   20 1  
    26   21   23 1  
    27   23   25 1  
    28   27   26 1  
    29   37   26 1  
    30   28   27 1  
    31   27   34 1  
    32   29   28 1  
    33   28   35 1  
    34   29   30 1  
    35   36   29 1  
    36   30   31 1  
    37   30   37 1  
    38   31   38 1  
    39   32   33 1  
    40   34   32 am 
    41   32   39 2  
    42   40   36 1  
    43   40   41 1  
    44   49   40 1  
    45   42   41 1  
    46   41   46 1  
    47   43   42 1  
    48   42   47 1  
    49   44   43 1  
    50   43   48 1  
    51   45   44 1  
    52   44   49 1  
    53   50   45 1  
    54   51   50 1  
    55   52   51 1  
    56   51   60 1  
    57   52   53 1  
    58   57   52 1  
    59   53   54 1  
    60   53   58 1  
    61   54   55 1  
    62   54   59 1  
    63   55   56 1  
    64   60   55 1  
    65   56   61 1  
    66   62   57 1  
    67   63   62 1  
    68   62   73 1  
    69   63   64 1  
    70   70   63 1  
    71   64   65 1  
    72   64   71 1  
    73   65   66 1  
    74   65   72 1  
    75   66   67 1  
    76   73   66 1  
    77   67   74 1  
    78   68   69 1  
    79   68   70 am 
    80   68   75 2  
    81    1   76 1  
    82    2   77 1  
    83    3   78 1  
    84    4   79 1  
    85    5   80 1  
    86    6   81 1  
    87    6   82 1  
    88    6   83 1  
    89    7   84 1  
    90    8   85 1  
    91    9   86 1  
    92   11   87 1  
    93   12   88 1  
    94   13   89 1  
    95   14   90 1  
    96   15   91 1  
    97   15   92 1  
    98   17   93 1  
    99   17   94 1  
   100   17   95 1  
   101   18   96 1  
   102   19   97 1  
   103   23   98 1  
   104   25   99 1  
   105   25  100 1  
   106   25  101 1  
   107   26  102 1  
   108   27  103 1  
   109   28  104 1  
   110   29  105 1  
   111   30  106 1  
   112   31  107 1  
   113   31  108 1  
   114   33  109 1  
   115   33  110 1  
   116   33  111 1  
   117   34  112 1  
   118   35  113 1  
   119   38  114 1  
   120   40  115 1  
   121   41  116 1  
   122   42  117 1  
   123   43  118 1  
   124   44  119 1  
   125   45  120 1  
   126   45  121 1  
   127   46  122 1  
   128   47  123 1  
   129   48  124 1  
   130   51  125 1  
   131   52  126 1  
   132   53  127 1  
   133   54  128 1  
   134   55  129 1  
   135   56  130 1  
   136   56  131 1  
   137   58  132 1  
   138   59  133 1  
   139   61  134 1  
   140   62  135 1  
   141   63  136 1  
   142   64  137 1  
   143   65  138 1  
   144   66  139 1  
   145   67  140 1  
   146   67  141 1  
   147   69  142 1  
   148   69  143 1  
   149   69  144 1  
   150   70  145 1  
   151   71  146 1  
   152   72  147 1  
   153   74  148 1  
@<TRIPOS>SUBSTRUCTURE
     1 FUC         1

