6fx1_ligand
  -I-interpret- 

148153  0  0  0  0  0  0  0  0999 V2000
   12.5560  -35.0530   -1.1860 C   0  0  0  0  0
   12.7940  -33.6580   -0.6450 C   0  0  0  0  0
   14.1150  -33.6340    0.1230 C   0  0  0  0  0
   15.2490  -34.1570   -0.7760 C   0  0  0  0  0
   14.8970  -35.5720   -1.2340 C   0  0  0  0  0
   15.8900  -36.2430   -2.1770 C   0  0  0  0  0
   11.6660  -33.2920    0.1680 O   0  0  0  0  0
   14.3660  -32.3160    0.6050 O   0  0  0  0  0
   15.4340  -33.3290   -1.9430 O   0  0  0  0  0
   13.6700  -35.5090   -1.9430 O   0  0  0  0  0
    9.4350  -37.2290    3.1070 C   0  0  0  0  0
    8.5950  -37.0680    1.8220 C   0  0  0  0  0
    9.5170  -36.7490    0.5970 C   0  0  0  0  0
   10.7820  -37.6450    0.5180 C   0  0  0  0  0
   11.8380  -37.2020   -0.4810 C   0  0  0  0  0
    8.8260  -37.5700    5.6650 C   0  0  0  0  0
    8.3520  -38.7060    6.5910 C   0  0  0  0  0
    8.9060  -37.8130    4.3250 N   0  0  0  0  0
    7.6010  -36.0490    2.0060 O   0  0  0  0  0
    8.8310  -37.0000   -0.6240 O   0  0  0  0  0
   11.4510  -37.6680    1.7910 O   0  0  0  0  0
   12.3120  -35.9090   -0.0640 O   0  0  0  0  0
   10.5990  -38.2160    2.8010 C   0  0  0  0  0
    9.0840  -36.4290    6.0910 O   0  0  0  0  0
   11.4310  -38.6110    3.9800 N   0  3  0  0  0
    8.4310  -35.8070   -1.2700 C   0  0  0  0  0
    8.0870  -36.1500   -2.7050 C   0  0  0  0  0
    7.5010  -34.9420   -3.4110 C   0  0  0  0  0
    6.4160  -34.2890   -2.5770 C   0  0  0  0  0
    6.9800  -33.9690   -1.2030 C   0  0  0  0  0
    5.9890  -33.1880   -0.3530 C   0  0  0  0  0
    9.6640  -37.7880   -3.6120 C   0  0  0  0  0
   10.9450  -37.9850   -4.3600 C   0  0  0  0  0
    9.2900  -36.5310   -3.4070 N   0  0  0  0  0
    7.0020  -35.4140   -4.6540 O   0  0  0  0  0
    5.9520  -33.0500   -3.1550 O   0  0  0  0  0
    7.3630  -35.1880   -0.5620 O   0  0  0  0  0
    6.5780  -33.1090    0.9490 O   0  0  0  0  0
    9.0260  -38.7430   -3.2270 O   0  0  0  0  0
    4.7240  -33.3030   -3.8520 C   0  0  0  0  0
    3.8880  -32.0470   -4.0860 C   0  0  0  0  0
    2.6150  -32.4860   -4.8350 C   0  0  0  0  0
    3.0350  -33.1590   -6.1510 C   0  0  0  0  0
    3.7950  -34.4260   -5.7700 C   0  0  0  0  0
    4.1390  -35.3320   -6.9530 C   0  0  0  0  0
    4.6330  -31.0730   -4.8400 O   0  0  0  0  0
    1.7100  -31.3880   -5.0250 O   0  0  0  0  0
    1.9560  -33.4440   -7.0460 O   0  0  0  0  0
    4.9900  -33.9350   -5.1160 O   0  0  0  0  0
    4.9070  -34.5570   -7.8940 O   0  0  0  0  0
    4.9680  -35.2130   -9.1800 C   0  0  0  0  0
    6.1640  -34.6770   -9.9720 C   0  0  0  0  0
    6.0300  -33.2040  -10.3310 C   0  0  0  0  0
    4.7140  -32.9850  -11.0630 C   0  0  0  0  0
    3.5450  -33.5920  -10.2770 C   0  0  0  0  0
    2.2570  -33.4520  -11.0830 C   0  0  0  0  0
    6.1750  -35.3860  -11.2090 O   0  0  0  0  0
    7.0950  -32.8100  -11.2070 O   0  0  0  0  0
    4.5340  -31.5820  -11.2810 O   0  0  0  0  0
    3.7790  -34.9880   -9.9550 O   0  0  0  0  0
    1.2120  -34.1420  -10.3730 O   0  0  0  0  0
    7.4330  -35.9900  -11.5340 C   0  0  0  0  0
    7.1480  -37.2990  -12.2760 C   0  0  0  0  0
    8.4480  -37.9060  -12.7840 C   0  0  0  0  0
    9.2700  -36.8650  -13.5470 C   0  0  0  0  0
    9.4680  -35.5930  -12.7070 C   0  0  0  0  0
   10.2180  -34.4810  -13.4490 C   0  0  0  0  0
    5.1360  -38.2870  -11.2200 C   0  0  0  0  0
    4.6340  -39.1910  -10.1220 C   0  0  0  0  0
    6.4750  -38.1590  -11.3120 N   0  0  0  0  0
    8.2230  -39.0550  -13.6210 O   0  0  0  0  0
   10.5250  -37.4660  -13.8710 O   0  0  0  0  0
    8.2020  -35.0550  -12.2950 O   0  0  0  0  0
    9.3690  -33.7000  -14.3090 O   0  0  0  0  0
    4.3470  -37.7160  -11.9690 O   0  0  0  0  0
   11.7006  -35.0557   -1.8615 H   0  0  0  0  0
   12.8811  -32.9245   -1.4466 H   0  0  0  0  0
   14.0587  -34.2926    0.9897 H   0  0  0  0  0
   16.1733  -34.1437   -0.1985 H   0  0  0  0  0
   14.8786  -36.1645   -0.3193 H   0  0  0  0  0
   15.5297  -37.2394   -2.4329 H   0  0  0  0  0
   15.9877  -35.6465   -3.0840 H   0  0  0  0  0
   16.8599  -36.3210   -1.6857 H   0  0  0  0  0
   10.8667  -33.3239   -0.3627 H   0  0  0  0  0
   13.6342  -32.0342    1.1587 H   0  0  0  0  0
   15.6559  -32.4362   -1.6686 H   0  0  0  0  0
    9.6169  -36.1758    3.3210 H   0  0  0  0  0
    8.0835  -38.0080    1.6148 H   0  0  0  0  0
    9.7962  -35.7045    0.7354 H   0  0  0  0  0
   10.3907  -38.6120    0.2021 H   0  0  0  0  0
   11.4150  -37.1478   -1.4841 H   0  0  0  0  0
   12.6594  -37.9180   -0.5103 H   0  0  0  0  0
    9.1126  -38.8973    7.3479 H   0  0  0  0  0
    7.4207  -38.4131    7.0758 H   0  0  0  0  0
    8.1884  -39.6086    6.0022 H   0  0  0  0  0
    8.4413  -38.6948    4.1084 H   0  0  0  0  0
    7.0852  -35.9577    1.2015 H   0  0  0  0  0
   10.1093  -39.1293    2.4632 H   0  0  0  0  0
   12.1620  -39.2552    3.6782 H   0  0  0  0  0
   11.8568  -37.7789    4.3883 H   0  0  0  0  0
   10.8395  -39.0673    4.6745 H   0  0  0  0  0
    9.2356  -35.0717   -1.2782 H   0  0  0  0  0
    7.3633  -36.9651   -2.7003 H   0  0  0  0  0
    8.2542  -34.1695   -3.5661 H   0  0  0  0  0
    5.5797  -34.9863   -2.5267 H   0  0  0  0  0
    7.8556  -33.3309   -1.3222 H   0  0  0  0  0
    5.0166  -33.6795   -0.3215 H   0  0  0  0  0
    5.8028  -32.1971   -0.7671 H   0  0  0  0  0
   11.6492  -38.5331   -3.7340 H   0  0  0  0  0
   10.7492  -38.5513   -5.2705 H   0  0  0  0  0
   11.3665  -37.0136   -4.6184 H   0  0  0  0  0
    9.8893  -35.7885   -3.7675 H   0  0  0  0  0
    6.6180  -34.6820   -5.1421 H   0  0  0  0  0
    5.9930  -32.6228    1.5346 H   0  0  0  0  0
    4.1423  -33.9625   -3.2080 H   0  0  0  0  0
    3.6245  -31.5717   -3.1411 H   0  0  0  0  0
    2.0595  -33.2106   -4.2396 H   0  0  0  0  0
    3.6569  -32.4641   -6.7154 H   0  0  0  0  0
    3.1823  -35.0664   -5.1356 H   0  0  0  0  0
    3.2279  -35.7024   -7.4229 H   0  0  0  0  0
    4.7143  -36.1937   -6.6144 H   0  0  0  0  0
    4.0909  -30.2925   -4.9761 H   0  0  0  0  0
    0.9301  -31.6949   -5.4931 H   0  0  0  0  0
    2.3010  -33.8611   -7.8388 H   0  0  0  0  0
    5.0667  -36.2826   -8.9946 H   0  0  0  0  0
    7.0591  -34.8022   -9.3628 H   0  0  0  0  0
    6.0666  -32.6158   -9.4141 H   0  0  0  0  0
    4.7405  -33.4907  -12.0282 H   0  0  0  0  0
    3.4541  -33.0477   -9.3370 H   0  0  0  0  0
    2.3853  -33.8819  -12.0764 H   0  0  0  0  0
    1.9999  -32.3996  -11.2030 H   0  0  0  0  0
    7.0001  -31.8802  -11.4263 H   0  0  0  0  0
    3.7053  -31.4348  -11.7427 H   0  0  0  0  0
    0.3900  -34.0669  -10.8632 H   0  0  0  0  0
    8.0217  -36.2368  -10.6505 H   0  0  0  0  0
    6.5217  -37.1534  -13.1561 H   0  0  0  0  0
    9.0043  -38.2360  -11.9067 H   0  0  0  0  0
    8.7485  -36.5616  -14.4548 H   0  0  0  0  0
   10.0672  -35.9064  -11.8521 H   0  0  0  0  0
   10.9754  -34.9540  -14.0740 H   0  0  0  0  0
   10.6370  -33.8089  -12.7001 H   0  0  0  0  0
    4.0010  -38.6193   -9.4433 H   0  0  0  0  0
    4.0570  -40.0058  -10.5593 H   0  0  0  0  0
    5.4825  -39.5989   -9.5726 H   0  0  0  0  0
    7.0525  -38.6978  -10.6666 H   0  0  0  0  0
    9.0669  -39.4038  -13.9174 H   0  0  0  0  0
   11.0658  -36.8354  -14.3521 H   0  0  0  0  0
    9.8923  -33.0230  -14.7443 H   0  0  0  0  0
  1  2  1  0  0  0
  1 10  1  0  0  0
 22  1  1  0  0  0
  2  3  1  0  0  0
  2  7  1  0  0  0
  3  4  1  0  0  0
  3  8  1  0  0  0
  5  4  1  0  0  0
  4  9  1  0  0  0
  5  6  1  0  0  0
 10  5  1  0  0  0
 12 11  1  0  0  0
 11 18  1  0  0  0
 11 23  1  0  0  0
 13 12  1  0  0  0
 12 19  1  0  0  0
 13 14  1  0  0  0
 20 13  1  0  0  0
 14 15  1  0  0  0
 14 21  1  0  0  0
 15 22  1  0  0  0
 16 17  1  0  0  0
 18 16  1  0  0  0
 16 24  2  0  0  0
 26 20  1  0  0  0
 21 23  1  0  0  0
 23 25  1  0  0  0
 27 26  1  0  0  0
 37 26  1  0  0  0
 28 27  1  0  0  0
 27 34  1  0  0  0
 29 28  1  0  0  0
 28 35  1  0  0  0
 29 30  1  0  0  0
 36 29  1  0  0  0
 30 31  1  0  0  0
 30 37  1  0  0  0
 31 38  1  0  0  0
 32 33  1  0  0  0
 34 32  1  0  0  0
 32 39  2  0  0  0
 40 36  1  0  0  0
 40 41  1  0  0  0
 49 40  1  0  0  0
 42 41  1  0  0  0
 41 46  1  0  0  0
 43 42  1  0  0  0
 42 47  1  0  0  0
 44 43  1  0  0  0
 43 48  1  0  0  0
 45 44  1  0  0  0
 44 49  1  0  0  0
 50 45  1  0  0  0
 51 50  1  0  0  0
 52 51  1  0  0  0
 51 60  1  0  0  0
 52 53  1  0  0  0
 57 52  1  0  0  0
 53 54  1  0  0  0
 53 58  1  0  0  0
 54 55  1  0  0  0
 54 59  1  0  0  0
 55 56  1  0  0  0
 60 55  1  0  0  0
 56 61  1  0  0  0
 62 57  1  0  0  0
 63 62  1  0  0  0
 62 73  1  0  0  0
 63 64  1  0  0  0
 70 63  1  0  0  0
 64 65  1  0  0  0
 64 71  1  0  0  0
 65 66  1  0  0  0
 65 72  1  0  0  0
 66 67  1  0  0  0
 73 66  1  0  0  0
 67 74  1  0  0  0
 68 69  1  0  0  0
 68 70  1  0  0  0
 68 75  2  0  0  0
  1 76  1  0  0  0
  2 77  1  0  0  0
  3 78  1  0  0  0
  4 79  1  0  0  0
  5 80  1  0  0  0
  6 81  1  0  0  0
  6 82  1  0  0  0
  6 83  1  0  0  0
  7 84  1  0  0  0
  8 85  1  0  0  0
  9 86  1  0  0  0
 11 87  1  0  0  0
 12 88  1  0  0  0
 13 89  1  0  0  0
 14 90  1  0  0  0
 15 91  1  0  0  0
 15 92  1  0  0  0
 17 93  1  0  0  0
 17 94  1  0  0  0
 17 95  1  0  0  0
 18 96  1  0  0  0
 19 97  1  0  0  0
 23 98  1  0  0  0
 25 99  1  0  0  0
 25100  1  0  0  0
 25101  1  0  0  0
 26102  1  0  0  0
 27103  1  0  0  0
 28104  1  0  0  0
 29105  1  0  0  0
 30106  1  0  0  0
 31107  1  0  0  0
 31108  1  0  0  0
 33109  1  0  0  0
 33110  1  0  0  0
 33111  1  0  0  0
 34112  1  0  0  0
 35113  1  0  0  0
 38114  1  0  0  0
 40115  1  0  0  0
 41116  1  0  0  0
 42117  1  0  0  0
 43118  1  0  0  0
 44119  1  0  0  0
 45120  1  0  0  0
 45121  1  0  0  0
 46122  1  0  0  0
 47123  1  0  0  0
 48124  1  0  0  0
 51125  1  0  0  0
 52126  1  0  0  0
 53127  1  0  0  0
 54128  1  0  0  0
 55129  1  0  0  0
 56130  1  0  0  0
 56131  1  0  0  0
 58132  1  0  0  0
 59133  1  0  0  0
 61134  1  0  0  0
 62135  1  0  0  0
 63136  1  0  0  0
 64137  1  0  0  0
 65138  1  0  0  0
 66139  1  0  0  0
 67140  1  0  0  0
 67141  1  0  0  0
 69142  1  0  0  0
 69143  1  0  0  0
 69144  1  0  0  0
 70145  1  0  0  0
 71146  1  0  0  0
 72147  1  0  0  0
 74148  1  0  0  0
M  END
$$$$
