3mam_ligand
  -I-interpret- 

 20 19  0  0  0  0  0  0  0  0999 V2000
   19.9190  -18.9960   -9.6490 N   0  3  0  0  0
   20.0630  -19.4290  -11.0560 C   0  0  0  0  0
   18.8400  -20.1210  -11.6240 C   0  0  0  0  0
   18.7750  -21.3860  -11.6580 O   0  0  0  0  0
   17.9370  -19.3870  -12.0670 O   0  0  0  0  0
   19.7640  -20.1600   -8.7750 C   0  0  0  0  0
   18.7590  -18.1220   -9.4540 C   0  0  0  0  0
   21.1060  -18.2270   -9.2690 C   0  0  0  0  0
   20.8820  -20.1476  -11.0882 H   0  0  0  0  0
   20.2297  -18.5318  -11.6522 H   0  0  0  0  0
   19.5698  -21.7567  -11.2676 H   0  0  0  0  0
   19.7124  -19.8295   -7.7376 H   0  0  0  0  0
   18.8470  -20.6886   -9.0353 H   0  0  0  0  0
   20.6176  -20.8256   -8.9036 H   0  0  0  0  0
   18.7041  -17.8212   -8.4078 H   0  0  0  0  0
   18.8623  -17.2376  -10.0827 H   0  0  0  0  0
   17.8508  -18.6594   -9.7270 H   0  0  0  0  0
   21.1809  -17.3413   -9.9000 H   0  0  0  0  0
   21.0228  -17.9249   -8.2250 H   0  0  0  0  0
   21.9947  -18.8444   -9.4002 H   0  0  0  0  0
  1  2  1  0  0  0
  1  6  1  0  0  0
  1  7  1  0  0  0
  1  8  1  0  0  0
  2  3  1  0  0  0
  3  4  1  0  0  0
  3  5  2  0  0  0
  2  9  1  0  0  0
  2 10  1  0  0  0
  4 11  1  0  0  0
  6 12  1  0  0  0
  6 13  1  0  0  0
  6 14  1  0  0  0
  7 15  1  0  0  0
  7 16  1  0  0  0
  7 17  1  0  0  0
  8 18  1  0  0  0
  8 19  1  0  0  0
  8 20  1  0  0  0
M  END
$$$$
