2g0h_ligand
  -I-interpret- 

 47 50  0  0  0  0  0  0  0  0999 V2000
  -10.3540   11.3820   35.5830 C   0  0  0  0  0
   -9.7910   12.2560   34.6640 C   0  0  0  0  0
   -8.7570   11.7870   33.8600 C   0  0  0  0  0
   -8.1890   12.5950   32.9480 F   0  0  0  0  0
   -8.2680   10.4920   33.9720 C   0  0  0  0  0
   -8.8510    9.6350   34.8910 C   0  0  0  0  0
   -9.8870   10.0760   35.7010 C   0  0  0  0  0
  -10.4450    9.2390   36.5790 N   0  0  0  0  0
  -10.9410    9.5710   37.6570 N   0  0  0  0  0
  -11.4550    8.5000   38.2680 C   0  0  0  0  0
  -12.1240    8.5130   39.4910 C   0  0  0  0  0
  -12.9840    7.6440   40.0240 C   0  0  0  0  0
  -13.5190    7.9830   41.2050 C   0  0  0  0  0
  -13.1600    9.1580   41.7170 C   0  0  0  0  0
  -12.0660    9.8170   40.5920 S   0  0  0  0  0
  -11.2470    7.4430   37.4870 C   0  0  0  0  0
  -10.6190    7.9280   36.4180 C   0  0  0  0  0
  -10.1940    7.2380   35.3590 N   0  0  0  0  0
  -10.6220    5.7300   34.9010 S   0  0  0  0  0
  -12.0770    5.5250   35.1850 O   0  0  0  0  0
  -10.3000    5.6180   33.4360 O   0  0  0  0  0
   -9.5950    4.6140   35.7050 C   0  0  0  0  0
   -8.4110    4.3180   35.0560 C   0  0  0  0  0
   -9.8990    4.0880   36.9530 C   0  0  0  0  0
   -9.0080    3.2050   37.5590 C   0  0  0  0  0
   -9.3510    2.5840   38.9290 C   0  0  0  0  0
   -8.2250    2.0440   39.3990 F   0  0  0  0  0
   -9.8920    3.4760   39.7490 F   0  0  0  0  0
  -10.2880    1.6320   38.9470 F   0  0  0  0  0
   -7.8090    2.8900   36.9130 C   0  0  0  0  0
   -7.5220    3.4460   35.6650 C   0  0  0  0  0
   -6.2470    3.1730   34.8830 C   0  0  0  0  0
   -6.6360    2.8410   33.6770 F   0  0  0  0  0
   -5.5390    4.2850   34.7820 F   0  0  0  0  0
   -5.5520    2.1500   35.3470 F   0  0  0  0  0
  -11.1710   11.7219   36.2195 H   0  0  0  0  0
  -10.1490   13.2816   34.5745 H   0  0  0  0  0
   -7.4401   10.1559   33.3478 H   0  0  0  0  0
   -8.4938    8.6089   34.9780 H   0  0  0  0  0
  -13.2380    6.7084   39.5258 H   0  0  0  0  0
  -14.2171    7.3257   41.7233 H   0  0  0  0  0
  -13.4945    9.6023   42.6545 H   0  0  0  0  0
  -11.5288    6.4079   37.6800 H   0  0  0  0  0
   -9.5171    7.7111   34.7603 H   0  0  0  0  0
   -8.1814    4.7605   34.0867 H   0  0  0  0  0
  -10.8268    4.3634   37.4545 H   0  0  0  0  0
   -7.0984    2.2105   37.3835 H   0  0  0  0  0
  1  2  4  0  0  0
  1  7  4  0  0  0
  2  3  4  0  0  0
  3  4  1  0  0  0
  3  5  4  0  0  0
  5  6  4  0  0  0
  6  7  4  0  0  0
  7  8  1  0  0  0
  8  9  4  0  0  0
  8 17  4  0  0  0
  9 10  4  0  0  0
 10 11  1  0  0  0
 10 16  4  0  0  0
 11 12  4  0  0  0
 11 15  4  0  0  0
 12 13  4  0  0  0
 13 14  4  0  0  0
 14 15  4  0  0  0
 16 17  4  0  0  0
 17 18  1  0  0  0
 18 19  1  0  0  0
 19 20  2  0  0  0
 19 21  2  0  0  0
 19 22  1  0  0  0
 22 23  4  0  0  0
 22 24  4  0  0  0
 23 31  4  0  0  0
 24 25  4  0  0  0
 25 26  1  0  0  0
 25 30  4  0  0  0
 26 27  1  0  0  0
 26 28  1  0  0  0
 26 29  1  0  0  0
 30 31  4  0  0  0
 31 32  1  0  0  0
 32 33  1  0  0  0
 32 34  1  0  0  0
 32 35  1  0  0  0
  1 36  1  0  0  0
  2 37  1  0  0  0
  5 38  1  0  0  0
  6 39  1  0  0  0
 12 40  1  0  0  0
 13 41  1  0  0  0
 14 42  1  0  0  0
 16 43  1  0  0  0
 18 44  1  0  0  0
 23 45  1  0  0  0
 24 46  1  0  0  0
 30 47  1  0  0  0
M  END
$$$$
