1wug_ligand
  -I-interpret- 

 31 31  0  0  0  0  0  0  0  0999 V2000
   -3.6380   10.3050  -11.7450 N   0  3  0  0  0
   -3.8220   10.2210  -10.2630 C   0  0  0  0  0
   -5.3160   10.4630  -10.0230 C   0  0  0  0  0
   -6.1360    9.4400  -10.8170 C   0  0  0  0  0
   -7.4370   10.1180  -11.1070 N   0  0  0  0  0
   -8.2210   10.5360  -10.1120 C   0  0  0  0  0
   -7.9790   11.7940   -9.5060 C   0  0  0  0  0
   -9.3250    9.7510   -9.6870 C   0  0  0  0  0
   -9.5770    8.5730  -10.2490 N   0  0  0  0  0
   -8.7470    8.0840  -11.2930 O   0  0  0  0  0
  -10.6830    7.8020   -9.7970 O   0  0  0  0  0
   -8.8190   12.2520   -8.4650 C   0  0  0  0  0
  -10.1630   10.2150   -8.6480 C   0  0  0  0  0
   -9.9100   11.4630   -8.0380 C   0  0  0  0  0
  -10.8110   11.9540   -6.9360 C   0  0  0  0  0
   -2.6559   10.1515  -11.9737 H   0  0  0  0  0
   -4.2094    9.5920  -12.1983 H   0  0  0  0  0
   -3.9237   11.2286  -12.0701 H   0  0  0  0  0
   -3.2090   10.9562   -9.7416 H   0  0  0  0  0
   -3.5064    9.2525   -9.8751 H   0  0  0  0  0
   -5.5773   11.4694  -10.3502 H   0  0  0  0  0
   -5.5343   10.3563   -8.9604 H   0  0  0  0  0
   -6.2805    8.5176  -10.2544 H   0  0  0  0  0
   -5.6263    9.1407  -11.7328 H   0  0  0  0  0
   -7.7274   10.2621  -12.0741 H   0  0  0  0  0
   -7.1445   12.4091   -9.8428 H   0  0  0  0  0
   -8.6246   13.2144   -7.9917 H   0  0  0  0  0
  -11.0060    9.6085   -8.3170 H   0  0  0  0  0
  -10.2249   12.1055   -6.0296 H   0  0  0  0  0
  -11.2691   12.8966   -7.2358 H   0  0  0  0  0
  -11.5890   11.2141   -6.7477 H   0  0  0  0  0
  1  2  1  0  0  0
  2  3  1  0  0  0
  3  4  1  0  0  0
  4  5  1  0  0  0
  5  6  1  0  0  0
  6  7  4  0  0  0
  6  8  4  0  0  0
  7 12  4  0  0  0
  8  9  1  0  0  0
  8 13  4  0  0  0
  9 10  2  0  0  0
  9 11  2  0  0  0
 12 14  4  0  0  0
 13 14  4  0  0  0
 14 15  1  0  0  0
  1 16  1  0  0  0
  1 17  1  0  0  0
  1 18  1  0  0  0
  2 19  1  0  0  0
  2 20  1  0  0  0
  3 21  1  0  0  0
  3 22  1  0  0  0
  4 23  1  0  0  0
  4 24  1  0  0  0
  5 25  1  0  0  0
  7 26  1  0  0  0
 12 27  1  0  0  0
 13 28  1  0  0  0
 15 29  1  0  0  0
 15 30  1  0  0  0
 15 31  1  0  0  0
M  END
$$$$
