4zyc_ligand
  -I-interpret- 

 65 69  0  0  0  0  0  0  0  0999 V2000
    5.2310    0.4620   18.9470 C   0  0  0  0  0
    5.1780    1.8380   18.7020 C   0  0  0  0  0
    3.2550    3.4730   22.8240 C   0  0  0  0  0
    2.9680    4.8270   23.0070 C   0  0  0  0  0
    3.9370    5.6740   23.5730 C   0  0  0  0  0
    5.1820    5.1430   23.9350 C   0  0  0  0  0
    5.4590    3.7770   23.7420 C   0  0  0  0  0
    4.4900    2.9280   23.1820 C   0  0  0  0  0
    6.2260    6.0800   24.5410 C   0  0  0  0  0
    1.1940    6.5810   22.6560 C   0  0  0  0  0
    2.0960    2.8080   20.7640 C   0  0  0  0  0
    1.4130    1.9340   23.0250 C   0  0  0  0  0
    0.2950    1.1290   22.4050 C   0  0  0  0  0
   -0.1360    1.6250   21.0080 C   0  0  0  0  0
    0.7310    2.4010   20.2200 C   0  0  0  0  0
    0.3410    2.8350   18.9450 C   0  0  0  0  0
   -0.9230    2.4900   18.4450 C   0  0  0  0  0
   -1.7840    1.7100   19.2150 C   0  0  0  0  0
   -1.3880    1.2760   20.4960 C   0  0  0  0  0
   -4.0010    0.5590   19.2000 C   0  0  0  0  0
    6.4850   -0.5300   18.2320 Cl  0  0  0  0  0
    4.1640    2.6110   19.2770 C   0  0  0  0  0
    3.2140    1.9970   20.1090 C   0  0  0  0  0
    3.2720    0.6250   20.3500 C   0  0  0  0  0
    4.2820   -0.1460   19.7700 C   0  0  0  0  0
    2.2240    2.6930   22.2390 N   0  0  0  0  0
   -3.0210    1.4210   18.6270 O   0  0  0  0  0
   -5.3030    0.6040   18.3550 C   0  0  0  0  0
   -1.3880    2.8750   17.1840 O   0  0  0  0  0
   -0.7420    3.8540   16.3440 C   0  0  0  0  0
    0.1540    3.1120   15.3280 C   0  0  0  0  0
    1.5510    1.8600   24.2410 O   0  0  0  0  0
    1.6870    5.2420   22.6110 O   0  0  0  0  0
    1.5660    7.2460   21.3630 C   0  0  0  0  0
    1.8500    8.4720   21.2250 N   0  0  0  0  0
    2.1280    8.6920   19.9300 N   0  0  0  0  0
    2.0090    7.5530   19.2260 N   0  0  0  0  0
    1.6540    6.5760   20.0850 N   0  0  0  0  0
    5.9263    2.3076   18.0635 H   0  0  0  0  0
    3.7222    6.7313   23.7283 H   0  0  0  0  0
    6.4309    3.3753   24.0286 H   0  0  0  0  0
    4.6972    1.8687   23.0304 H   0  0  0  0  0
    6.4570    6.8730   23.8298 H   0  0  0  0  0
    5.8315    6.5167   25.4585 H   0  0  0  0  0
    7.1315    5.5163   24.7655 H   0  0  0  0  0
    1.6295    7.1181   23.4986 H   0  0  0  0  0
    0.1119    6.5833   22.7869 H   0  0  0  0  0
    2.1898    3.8645   20.5128 H   0  0  0  0  0
   -0.5706    1.2190   23.0613 H   0  0  0  0  0
    0.6583    0.1080   22.2877 H   0  0  0  0  0
    1.0194    3.4398   18.3432 H   0  0  0  0  0
   -2.0641    0.6631   21.0921 H   0  0  0  0  0
   -4.2199    0.8884   20.2157 H   0  0  0  0  0
   -3.6175   -0.4612   19.2156 H   0  0  0  0  0
    4.1116    3.6819   19.0807 H   0  0  0  0  0
    2.5280    0.1533   20.9920 H   0  0  0  0  0
    4.3288   -1.2184   19.9594 H   0  0  0  0  0
   -5.6872    1.6239   18.3360 H   0  0  0  0  0
   -5.0861    0.2771   17.3381 H   0  0  0  0  0
   -6.0464   -0.0575   18.7999 H   0  0  0  0  0
   -0.1371    4.5259   16.9528 H   0  0  0  0  0
   -1.4912    4.4454   15.8175 H   0  0  0  0  0
    0.9025    2.5284   15.8639 H   0  0  0  0  0
   -0.4606    2.4473   14.7210 H   0  0  0  0  0
    0.6502    3.8386   14.6846 H   0  0  0  0  0
  2  1  4  0  0  0
  1 21  1  0  0  0
  1 25  4  0  0  0
 22  2  4  0  0  0
  3  4  4  0  0  0
  3  8  4  0  0  0
 26  3  1  0  0  0
  4  5  4  0  0  0
  4 33  1  0  0  0
  5  6  4  0  0  0
  7  6  4  0  0  0
  6  9  1  0  0  0
  8  7  4  0  0  0
 33 10  1  0  0  0
 10 34  1  0  0  0
 11 15  1  0  0  0
 23 11  1  0  0  0
 11 26  1  0  0  0
 12 13  1  0  0  0
 26 12  1  0  0  0
 12 32  2  0  0  0
 14 13  1  0  0  0
 15 14  4  0  0  0
 14 19  4  0  0  0
 15 16  4  0  0  0
 16 17  4  0  0  0
 17 18  4  0  0  0
 17 29  1  0  0  0
 19 18  4  0  0  0
 18 27  1  0  0  0
 27 20  1  0  0  0
 20 28  1  0  0  0
 22 23  4  0  0  0
 23 24  4  0  0  0
 24 25  4  0  0  0
 29 30  1  0  0  0
 30 31  1  0  0  0
 34 35  4  0  0  0
 34 38  4  0  0  0
 35 36  4  0  0  0
 36 37  4  0  0  0
 37 38  4  0  0  0
  2 39  1  0  0  0
  5 40  1  0  0  0
  7 41  1  0  0  0
  8 42  1  0  0  0
  9 43  1  0  0  0
  9 44  1  0  0  0
  9 45  1  0  0  0
 10 46  1  0  0  0
 10 47  1  0  0  0
 11 48  1  0  0  0
 13 49  1  0  0  0
 13 50  1  0  0  0
 16 51  1  0  0  0
 19 52  1  0  0  0
 20 53  1  0  0  0
 20 54  1  0  0  0
 22 55  1  0  0  0
 24 56  1  0  0  0
 25 57  1  0  0  0
 28 58  1  0  0  0
 28 59  1  0  0  0
 28 60  1  0  0  0
 30 61  1  0  0  0
 30 62  1  0  0  0
 31 63  1  0  0  0
 31 64  1  0  0  0
 31 65  1  0  0  0
M  END
$$$$
