2bpx_ligand
  -I-interpret- 

 94 98  0  0  0  0  0  0  0  0999 V2000
    9.3350   24.4680    3.1140 N   0  3  0  0  0
    9.4030   24.7380    4.5690 C   0  0  0  0  0
   10.7000   25.4630    4.9540 C   0  0  0  0  0
   10.7510   25.6770    6.4560 C   0  0  0  0  0
   11.1530   24.7800    7.1970 O   0  0  0  0  0
   10.3340   26.8990    6.8710 N   0  0  0  0  0
   10.0620   27.2130    8.2730 C   0  0  0  0  0
    9.4680   28.6120    8.3850 C   0  0  0  0  0
   11.3670   27.1240    9.1060 C   0  0  0  0  0
    8.9380   26.3030    8.7870 C   0  0  0  0  0
   11.8610   24.6450    4.5220 N   0  3  0  0  0
   11.7780   24.4290    3.0710 C   0  0  0  0  0
   10.5050   23.6980    2.6900 C   0  0  0  0  0
   13.0700   25.4950    4.5650 C   0  0  0  0  0
   14.3490   24.8390    5.1220 C   0  0  0  0  0
   15.3090   25.6670    4.8290 O   0  0  0  0  0
   14.4490   24.5420    6.6320 C   0  0  0  0  0
   15.6490   23.7130    7.1090 C   0  0  0  0  0
   15.7550   23.6090    8.6300 C   0  0  0  0  0
   16.9130   22.7260    9.0480 C   0  0  0  0  0
   18.2390   22.9930    8.6660 C   0  0  0  0  0
   19.2700   22.0890    8.9830 C   0  0  0  0  0
   18.9350   20.9140    9.6970 C   0  0  0  0  0
   17.6150   20.6460   10.1220 C   0  0  0  0  0
   16.6110   21.5740    9.7870 C   0  0  0  0  0
   15.5650   22.3400    6.5350 C   0  0  0  0  0
   14.5180   21.6910    6.5700 O   0  0  0  0  0
   16.7330   21.8940    6.0900 N   0  0  0  0  0
   16.8990   20.4760    5.8320 C   0  0  0  0  0
   18.3450   19.9970    6.0790 C   0  0  0  0  0
   19.2450   20.7140    5.4160 O   0  0  0  0  0
   18.4690   18.6210    5.4960 C   0  0  0  0  0
   17.6110   18.9380    4.2480 C   0  0  0  0  0
   17.5970   18.2200    3.0320 C   0  0  0  0  0
   16.6960   18.6660    2.0380 C   0  0  0  0  0
   15.8570   19.8020    2.2470 C   0  0  0  0  0
   15.8770   20.4950    3.4800 C   0  0  0  0  0
   16.7610   20.0340    4.4520 C   0  0  0  0  0
    8.2090   23.5460    2.9300 C   0  0  0  0  0
    6.8650   24.2590    2.8410 C   0  0  0  0  0
    6.6250   25.2420    1.8560 C   0  0  0  0  0
    5.4280   25.8340    1.7700 N   0  0  0  0  0
    4.4200   25.5290    2.6030 C   0  0  0  0  0
    4.5560   24.5550    3.6240 C   0  0  0  0  0
    5.8140   23.9240    3.7240 C   0  0  0  0  0
    9.2647   25.3471    2.6014 H   0  0  0  0  0
    9.3740   23.7844    5.0962 H   0  0  0  0  0
    8.5610   25.3754    4.8390 H   0  0  0  0  0
   10.7323   26.4347    4.4611 H   0  0  0  0  0
   10.2043   27.6320    6.1737 H   0  0  0  0  0
    9.2433   28.8274    9.4296 H   0  0  0  0  0
   10.1854   29.3412    8.0085 H   0  0  0  0  0
    8.5519   28.6645    7.7967 H   0  0  0  0  0
   12.0866   27.8514    8.7304 H   0  0  0  0  0
   11.1445   27.3376   10.1514 H   0  0  0  0  0
   11.7839   26.1206    9.0196 H   0  0  0  0  0
    8.6975   26.5706    9.8159 H   0  0  0  0  0
    8.0546   26.4300    8.1612 H   0  0  0  0  0
    9.2664   25.2644    8.7476 H   0  0  0  0  0
   11.8790   23.8024    5.0965 H   0  0  0  0  0
   12.6298   23.8227    2.7628 H   0  0  0  0  0
   11.7796   25.4004    2.5766 H   0  0  0  0  0
   10.4762   23.5713    1.6078 H   0  0  0  0  0
   10.4904   22.7258    3.1826 H   0  0  0  0  0
   12.8359   26.3208    5.2369 H   0  0  0  0  0
   13.2910   25.7597    3.5310 H   0  0  0  0  0
   14.3799   23.8460    4.6735 H   0  0  0  0  0
   16.1424   25.3157    5.1509 H   0  0  0  0  0
   13.5665   23.9502    6.8751 H   0  0  0  0  0
   14.5498   25.5128    7.1173 H   0  0  0  0  0
   16.5413   24.2339    6.7617 H   0  0  0  0  0
   14.8324   23.1710    9.0108 H   0  0  0  0  0
   15.9201   24.6081    9.0333 H   0  0  0  0  0
   18.4707   23.9075    8.1199 H   0  0  0  0  0
   20.2997   22.2887    8.6863 H   0  0  0  0  0
   19.7201   20.1934    9.9261 H   0  0  0  0  0
   17.3807   19.7472   10.6925 H   0  0  0  0  0
   15.5846   21.3942   10.1067 H   0  0  0  0  0
   17.5054   22.5409    5.9311 H   0  0  0  0  0
   16.1188   20.0865    6.4860 H   0  0  0  0  0
   18.5258   20.0659    7.1517 H   0  0  0  0  0
   20.1235   20.3758    5.6041 H   0  0  0  0  0
   18.1576   17.7825    6.1189 H   0  0  0  0  0
   19.4749   18.2360    5.3285 H   0  0  0  0  0
   18.2498   17.3627    2.8676 H   0  0  0  0  0
   16.6407   18.1302    1.0904 H   0  0  0  0  0
   15.1949   20.1384    1.4491 H   0  0  0  0  0
   15.2288   21.3523    3.6613 H   0  0  0  0  0
    8.1771   22.8835    3.7950 H   0  0  0  0  0
    8.3654   23.0134    1.9919 H   0  0  0  0  0
    7.4186   25.5199    1.1624 H   0  0  0  0  0
    3.4673   26.0465    2.4906 H   0  0  0  0  0
    3.7337   24.3071    4.2951 H   0  0  0  0  0
    5.9772   23.1683    4.4924 H   0  0  0  0  0
  1  2  1  0  0  0
  1 13  1  0  0  0
  1 39  1  0  0  0
  2  3  1  0  0  0
  3  4  1  0  0  0
  3 11  1  0  0  0
  4  5  2  0  0  0
  4  6  1  0  0  0
  6  7  1  0  0  0
  7  8  1  0  0  0
  7  9  1  0  0  0
  7 10  1  0  0  0
 11 12  1  0  0  0
 11 14  1  0  0  0
 12 13  1  0  0  0
 14 15  1  0  0  0
 15 16  1  0  0  0
 15 17  1  0  0  0
 17 18  1  0  0  0
 18 19  1  0  0  0
 18 26  1  0  0  0
 19 20  1  0  0  0
 20 21  4  0  0  0
 20 25  4  0  0  0
 21 22  4  0  0  0
 22 23  4  0  0  0
 23 24  4  0  0  0
 24 25  4  0  0  0
 26 27  2  0  0  0
 26 28  1  0  0  0
 28 29  1  0  0  0
 29 30  1  0  0  0
 29 38  1  0  0  0
 30 31  1  0  0  0
 30 32  1  0  0  0
 32 33  1  0  0  0
 33 34  4  0  0  0
 33 38  4  0  0  0
 34 35  4  0  0  0
 35 36  4  0  0  0
 36 37  4  0  0  0
 37 38  4  0  0  0
 39 40  1  0  0  0
 40 41  4  0  0  0
 40 45  4  0  0  0
 41 42  4  0  0  0
 42 43  4  0  0  0
 43 44  4  0  0  0
 44 45  4  0  0  0
  1 46  1  0  0  0
  2 47  1  0  0  0
  2 48  1  0  0  0
  3 49  1  0  0  0
  6 50  1  0  0  0
  8 51  1  0  0  0
  8 52  1  0  0  0
  8 53  1  0  0  0
  9 54  1  0  0  0
  9 55  1  0  0  0
  9 56  1  0  0  0
 10 57  1  0  0  0
 10 58  1  0  0  0
 10 59  1  0  0  0
 11 60  1  0  0  0
 12 61  1  0  0  0
 12 62  1  0  0  0
 13 63  1  0  0  0
 13 64  1  0  0  0
 14 65  1  0  0  0
 14 66  1  0  0  0
 15 67  1  0  0  0
 16 68  1  0  0  0
 17 69  1  0  0  0
 17 70  1  0  0  0
 18 71  1  0  0  0
 19 72  1  0  0  0
 19 73  1  0  0  0
 21 74  1  0  0  0
 22 75  1  0  0  0
 23 76  1  0  0  0
 24 77  1  0  0  0
 25 78  1  0  0  0
 28 79  1  0  0  0
 29 80  1  0  0  0
 30 81  1  0  0  0
 31 82  1  0  0  0
 32 83  1  0  0  0
 32 84  1  0  0  0
 34 85  1  0  0  0
 35 86  1  0  0  0
 36 87  1  0  0  0
 37 88  1  0  0  0
 39 89  1  0  0  0
 39 90  1  0  0  0
 41 91  1  0  0  0
 43 92  1  0  0  0
 44 93  1  0  0  0
 45 94  1  0  0  0
M  END
$$$$
