3jzf_ligand
  -I-interpret- 

 53 56  0  0  0  0  0  0  0  0999 V2000
   39.9820  -27.6550   36.7180 N   0  0  0  0  0
   40.1150  -26.2650   36.5810 C   0  0  0  0  0
   40.9710  -25.7210   35.8460 O   0  0  0  0  0
   39.0290  -25.4170   37.2110 C   0  0  0  0  0
   39.1520  -23.9970   37.1780 C   0  0  0  0  0
   38.1470  -23.0000   37.6620 C   0  0  0  0  0
   36.9990  -23.7620   38.2120 C   0  0  0  0  0
   35.8270  -23.2900   38.7690 N   0  0  0  0  0
   35.3700  -21.9010   38.7320 C   0  0  0  0  0
   34.4470  -21.6970   37.5120 C   0  0  0  0  0
   33.6200  -20.4390   37.7710 C   0  0  0  0  0
   34.2450  -19.1770   37.1830 C   0  0  0  0  0
   34.5900  -19.2830   35.6920 C   0  0  0  0  0
   34.6090  -20.7220   35.1540 C   0  0  0  0  0
   35.2950  -21.6080   36.2130 C   0  0  0  0  0
   35.0690  -24.3610   39.1520 C   0  0  0  0  0
   33.8710  -24.1730   39.7400 N   0  0  0  0  0
   33.2170  -25.2700   40.4110 C   0  0  0  0  0
   33.7590  -25.6410   41.7890 C   0  0  0  0  0
   34.4820  -24.7670   42.6420 C   0  0  0  0  0
   34.9130  -25.2450   43.9210 C   0  0  0  0  0
   34.6340  -26.5750   44.3540 C   0  0  0  0  0
   33.9190  -27.4460   43.5110 C   0  0  0  0  0
   33.4940  -26.9670   42.2390 C   0  0  0  0  0
   32.6250  -28.0110   41.1810 Cl  0  0  0  0  0
   35.6730  -25.4870   38.8410 N   0  0  0  0  0
   36.8480  -25.1590   38.2600 C   0  0  0  0  0
   37.8530  -26.0050   37.7620 C   0  0  0  0  0
   40.6023  -28.2799   36.2031 H   0  0  0  0  0
   39.2650  -28.0406   37.3325 H   0  0  0  0  0
   40.0738  -23.5962   36.7564 H   0  0  0  0  0
   38.2408  -21.9149   37.6186 H   0  0  0  0  0
   36.2306  -21.2368   38.6523 H   0  0  0  0  0
   34.8207  -21.6742   39.6458 H   0  0  0  0  0
   33.7693  -22.5392   37.3725 H   0  0  0  0  0
   33.5547  -20.3031   38.8505 H   0  0  0  0  0
   32.6488  -20.5786   37.2963 H   0  0  0  0  0
   35.1784  -19.0010   37.7176 H   0  0  0  0  0
   33.5128  -18.3763   37.2878 H   0  0  0  0  0
   35.5934  -18.8770   35.5633 H   0  0  0  0  0
   33.8183  -18.7434   35.1430 H   0  0  0  0  0
   35.1531  -20.7676   34.2106 H   0  0  0  0  0
   33.5934  -21.0710   34.9670 H   0  0  0  0  0
   35.4085  -22.6119   35.8039 H   0  0  0  0  0
   36.2613  -21.1680   36.4595 H   0  0  0  0  0
   33.4268  -23.2553   39.7106 H   0  0  0  0  0
   33.3689  -26.1455   39.7797 H   0  0  0  0  0
   32.1839  -24.9584   40.5653 H   0  0  0  0  0
   34.7058  -23.7474   42.3282 H   0  0  0  0  0
   35.4676  -24.5765   44.5795 H   0  0  0  0  0
   34.9728  -26.9150   45.3326 H   0  0  0  0  0
   33.6953  -28.4655   43.8250 H   0  0  0  0  0
   37.7360  -27.0882   37.7962 H   0  0  0  0  0
  1  2  1  0  0  0
  2  3  2  0  0  0
  2  4  1  0  0  0
  4  5  4  0  0  0
  4 28  4  0  0  0
  5  6  4  0  0  0
  6  7  4  0  0  0
  7  8  4  0  0  0
  7 27  4  0  0  0
  8  9  1  0  0  0
  8 16  4  0  0  0
  9 10  1  0  0  0
 10 11  1  0  0  0
 10 15  1  0  0  0
 11 12  1  0  0  0
 12 13  1  0  0  0
 13 14  1  0  0  0
 14 15  1  0  0  0
 16 17  1  0  0  0
 16 26  4  0  0  0
 17 18  1  0  0  0
 18 19  1  0  0  0
 19 20  4  0  0  0
 19 24  4  0  0  0
 20 21  4  0  0  0
 21 22  4  0  0  0
 22 23  4  0  0  0
 23 24  4  0  0  0
 24 25  1  0  0  0
 26 27  4  0  0  0
 27 28  4  0  0  0
  1 29  1  0  0  0
  1 30  1  0  0  0
  5 31  1  0  0  0
  6 32  1  0  0  0
  9 33  1  0  0  0
  9 34  1  0  0  0
 10 35  1  0  0  0
 11 36  1  0  0  0
 11 37  1  0  0  0
 12 38  1  0  0  0
 12 39  1  0  0  0
 13 40  1  0  0  0
 13 41  1  0  0  0
 14 42  1  0  0  0
 14 43  1  0  0  0
 15 44  1  0  0  0
 15 45  1  0  0  0
 17 46  1  0  0  0
 18 47  1  0  0  0
 18 48  1  0  0  0
 20 49  1  0  0  0
 21 50  1  0  0  0
 22 51  1  0  0  0
 23 52  1  0  0  0
 28 53  1  0  0  0
M  END
$$$$
