3sz9_ligand
  -I-interpret- 

 26 26  0  0  0  0  0  0  0  0999 V2000
   72.0260   57.4960   72.1570 C   0  0  0  0  0
   71.0340   58.4340   71.9010 C   0  0  0  0  0
   70.8280   58.8790   70.5990 C   0  0  0  0  0
   71.6060   58.3920   69.5590 C   0  0  0  0  0
   72.5960   57.4580   69.8190 C   0  0  0  0  0
   72.8050   57.0070   71.1180 C   0  0  0  0  0
   72.2640   56.9980   73.5640 C   0  0  0  0  0
   71.0920   57.4150   74.4450 C   0  0  0  0  0
   71.3880   58.8780   68.1600 C   0  0  0  0  0
   71.0170   60.0290   67.9710 O   0  0  0  0  0
   71.6120   58.0020   66.9920 C   0  0  0  0  0
   70.8920   58.3520   65.7100 C   0  0  0  0  0
   70.4205   58.8192   72.7155 H   0  0  0  0  0
   70.0503   59.6150   70.3949 H   0  0  0  0  0
   73.2117   57.0763   69.0046 H   0  0  0  0  0
   73.5812   56.2689   71.3200 H   0  0  0  0  0
   73.1870   57.4272   73.9539 H   0  0  0  0  0
   72.3507   55.9115   73.5589 H   0  0  0  0  0
   71.0106   58.5020   74.4487 H   0  0  0  0  0
   70.1720   56.9818   74.0525 H   0  0  0  0  0
   71.2583   57.0583   75.4615 H   0  0  0  0  0
   71.2338   57.0220   67.2831 H   0  0  0  0  0
   72.6747   58.0831   66.7636 H   0  0  0  0  0
   69.8159   58.3342   65.8827 H   0  0  0  0  0
   71.1929   59.3483   65.3862 H   0  0  0  0  0
   71.1498   57.6250   64.9399 H   0  0  0  0  0
  1  2  4  0  0  0
  1  6  4  0  0  0
  1  7  1  0  0  0
  2  3  4  0  0  0
  3  4  4  0  0  0
  4  5  4  0  0  0
  4  9  1  0  0  0
  5  6  4  0  0  0
  7  8  1  0  0  0
  9 10  2  0  0  0
  9 11  1  0  0  0
 11 12  1  0  0  0
  2 13  1  0  0  0
  3 14  1  0  0  0
  5 15  1  0  0  0
  6 16  1  0  0  0
  7 17  1  0  0  0
  7 18  1  0  0  0
  8 19  1  0  0  0
  8 20  1  0  0  0
  8 21  1  0  0  0
 11 22  1  0  0  0
 11 23  1  0  0  0
 12 24  1  0  0  0
 12 25  1  0  0  0
 12 26  1  0  0  0
M  END
$$$$
