4ht2_ligand
  -I-interpret- 

 32 33  0  0  0  0  0  0  0  0999 V2000
    0.7820   -6.8430   15.1810 F   0  0  0  0  0
    0.7360   -7.6940   16.2010 C   0  0  0  0  0
    1.0490   -9.0670   15.9640 C   0  0  0  0  0
    1.7530   -9.4600   14.2740 S   0  0  0  0  0
    2.2270  -10.7800   14.3610 O   0  0  0  0  0
    0.5640   -9.3250   13.2000 N   0  0  0  0  0
    2.7560   -8.4280   14.0570 O   0  0  0  0  0
    0.9200   -9.9490   17.0640 C   0  0  0  0  0
    1.1780  -11.2030   16.9090 F   0  0  0  0  0
    0.4560   -9.4150   18.2850 C   0  0  0  0  0
    0.2590  -10.3650   19.2430 F   0  0  0  0  0
    0.3550   -7.2070   17.4300 C   0  0  0  0  0
    0.1720   -5.9250   17.6720 F   0  0  0  0  0
    0.2140   -8.1010   18.4940 C   0  0  0  0  0
   -0.3200   -7.4880   20.0740 S   0  0  0  0  0
    0.8510   -8.1040   21.2890 C   0  0  0  0  0
    1.8440   -8.8430   20.9120 N   0  0  0  0  0
    2.6600   -9.3300   21.9240 C   0  0  0  0  0
    3.7610  -10.2780   21.4790 C   0  0  0  0  0
    2.4300   -9.0320   23.2680 C   0  0  0  0  0
    1.3730   -8.2120   23.4700 C   0  0  0  0  0
    0.5150   -7.6920   22.5540 N   0  0  0  0  0
    0.9990   -7.6370   24.8340 C   0  0  0  0  0
    0.2477  -10.1457   12.6835 H   0  0  0  0  0
    0.1261   -8.4187   13.0352 H   0  0  0  0  0
    3.3163  -11.1485   20.9967 H   0  0  0  0  0
    4.4167   -9.7662   20.7746 H   0  0  0  0  0
    4.3371  -10.5970   22.3476 H   0  0  0  0  0
    3.0444   -9.4233   24.0789 H   0  0  0  0  0
    0.7902   -8.4529   25.5260 H   0  0  0  0  0
    1.8273   -7.0393   25.2144 H   0  0  0  0  0
    0.1134   -7.0098   24.7320 H   0  0  0  0  0
  1  2  1  0  0  0
  2  3  4  0  0  0
  2 12  4  0  0  0
  3  4  1  0  0  0
  3  8  4  0  0  0
  4  5  2  0  0  0
  4  6  1  0  0  0
  4  7  2  0  0  0
  8  9  1  0  0  0
  8 10  4  0  0  0
 10 11  1  0  0  0
 10 14  4  0  0  0
 12 13  1  0  0  0
 12 14  4  0  0  0
 14 15  1  0  0  0
 15 16  1  0  0  0
 16 17  4  0  0  0
 16 22  4  0  0  0
 17 18  4  0  0  0
 18 19  1  0  0  0
 18 20  4  0  0  0
 20 21  4  0  0  0
 21 22  4  0  0  0
 21 23  1  0  0  0
  6 24  1  0  0  0
  6 25  1  0  0  0
 19 26  1  0  0  0
 19 27  1  0  0  0
 19 28  1  0  0  0
 20 29  1  0  0  0
 23 30  1  0  0  0
 23 31  1  0  0  0
 23 32  1  0  0  0
M  END
$$$$
