2zvj_ligand
  -I-interpret- 

 29 31  0  0  0  0  0  0  0  0999 V2000
  -12.9340    2.6220  -21.2850 O   0  0  0  0  0
  -12.9240    3.8300  -21.5570 C   0  0  0  0  0
  -14.0720    4.5270  -21.3100 O   0  0  0  0  0
  -14.1600    5.8660  -21.5980 C   0  0  0  0  0
  -15.4070    6.6160  -21.3170 C   0  0  0  0  0
  -16.5000    6.0140  -20.7640 O   0  0  0  0  0
  -15.4370    8.0570  -21.6590 C   0  0  0  0  0
  -16.5910    8.7420  -21.4160 O   0  0  0  0  0
  -14.3050    8.6680  -22.2240 C   0  0  0  0  0
  -11.7900    4.4290  -22.1090 C   0  0  0  0  0
  -11.7650    5.7830  -22.4510 C   0  0  0  0  0
  -12.9980    6.5900  -22.1820 C   0  0  0  0  0
  -13.1250    7.9550  -22.4740 C   0  0  0  0  0
  -10.4990    6.3590  -23.0120 C   0  0  0  0  0
   -9.9390    7.4950  -22.3980 C   0  0  0  0  0
   -8.7460    8.0620  -22.8680 C   0  0  0  0  0
   -8.0890    7.4620  -23.9480 C   0  0  0  0  0
   -8.6320    6.3120  -24.5530 C   0  0  0  0  0
   -9.8290    5.7530  -24.0840 C   0  0  0  0  0
  -17.2020    6.6606  -20.6605 H   0  0  0  0  0
  -16.4795    9.6583  -21.6799 H   0  0  0  0  0
  -14.3459    9.7279  -22.4752 H   0  0  0  0  0
  -10.8996    3.8233  -22.2777 H   0  0  0  0  0
  -12.2758    8.4804  -22.9110 H   0  0  0  0  0
  -10.4423    7.9424  -21.5409 H   0  0  0  0  0
   -8.3364    8.9567  -22.3992 H   0  0  0  0  0
   -7.1563    7.8850  -24.3213 H   0  0  0  0  0
   -8.1158    5.8514  -25.3953 H   0  0  0  0  0
  -10.2353    4.8548  -24.5489 H   0  0  0  0  0
  1  2  2  0  0  0
  2  3  1  0  0  0
  2 10  1  0  0  0
  3  4  1  0  0  0
  4  5  4  0  0  0
  4 12  4  0  0  0
  5  6  1  0  0  0
  5  7  4  0  0  0
  7  8  1  0  0  0
  7  9  4  0  0  0
  9 13  4  0  0  0
 10 11  2  0  0  0
 11 12  1  0  0  0
 11 14  1  0  0  0
 12 13  4  0  0  0
 14 15  4  0  0  0
 14 19  4  0  0  0
 15 16  4  0  0  0
 16 17  4  0  0  0
 17 18  4  0  0  0
 18 19  4  0  0  0
  6 20  1  0  0  0
  8 21  1  0  0  0
  9 22  1  0  0  0
 10 23  1  0  0  0
 13 24  1  0  0  0
 15 25  1  0  0  0
 16 26  1  0  0  0
 17 27  1  0  0  0
 18 28  1  0  0  0
 19 29  1  0  0  0
M  END
$$$$
