4a7j_ligand
  -I-interpret- 

113112  0  0  0  0  0  0  0  0999 V2000
   -7.2080   16.7500   27.7920 N   0  3  0  0  0
   -6.5850   16.2920   26.5250 C   0  0  0  0  0
   -5.0760   16.1840   26.6920 C   0  0  0  0  0
   -4.5400   16.3480   27.7840 O   0  0  0  0  0
   -6.9160   17.2740   25.3880 C   0  0  0  0  0
   -4.4000   15.8910   25.5820 N   0  0  0  0  0
   -2.9540   15.7750   25.5330 C   0  0  0  0  0
   -2.5520   15.5480   24.0820 C   0  0  0  0  0
   -1.0630   15.5080   23.8280 C   0  0  0  0  0
   -0.7780   15.4510   22.3160 C   0  0  0  0  0
   -1.3110   14.2630   21.6450 N   0  0  0  0  0
   -0.5150   13.1960   21.4340 C   0  0  0  0  0
    0.7490   13.2400   21.8500 N   0  0  0  0  0
    1.6430   12.0960   21.6170 C   0  0  0  0  0
   -0.9870   12.1530   20.7740 N   0  0  0  0  0
   -2.3440   12.1070   20.3150 C   0  0  0  0  0
   -2.2790   17.0710   26.0460 C   0  0  0  0  0
   -1.1310   17.0420   26.4980 O   0  0  0  0  0
   -3.0030   18.1870   25.9710 N   0  0  0  0  0
   -2.4790   19.4880   26.3950 C   0  0  0  0  0
   -2.3490   19.6790   27.9020 C   0  0  0  0  0
   -1.8180   20.6830   28.3680 O   0  0  0  0  0
   -3.3360   20.6260   25.8230 C   0  0  0  0  0
   -4.6940   20.4660   26.2520 O   0  0  0  0  0
   -3.2840   20.5970   24.2980 C   0  0  0  0  0
   -2.8450   18.7160   28.6700 N   0  0  0  0  0
   -2.7350   18.7720   30.1210 C   0  0  0  0  0
   -1.9390   17.5650   30.5880 C   0  0  0  0  0
   -1.9260   16.5180   29.9220 O   0  0  0  0  0
   -4.1180   18.7600   30.7790 C   0  0  0  0  0
   -4.9480   19.9980   30.5220 C   0  0  0  0  0
   -6.2970   19.8740   31.2270 C   0  0  0  0  0
   -7.0980   21.1630   31.1560 C   0  0  0  0  0
   -8.4530   21.0100   31.7460 N   0  3  0  0  0
   -1.2780   17.7110   31.7290 N   0  0  0  0  0
   -0.4630   16.6460   32.2790 C   0  0  0  0  0
   -1.3090   15.6160   33.0050 C   0  0  0  0  0
   -2.0930   15.9560   33.8840 O   0  0  0  0  0
    0.5710   17.2320   33.2320 C   0  0  0  0  0
    1.5240   16.2230   33.8360 C   0  0  0  0  0
    2.4040   16.8290   34.9230 C   0  0  0  0  0
    2.6440   18.0460   34.9520 O   0  0  0  0  0
    2.9030   15.9800   35.8170 N   0  0  0  0  0
   -1.1450   14.3560   32.6260 N   0  0  0  0  0
   -1.8740   13.2550   33.2350 C   0  0  0  0  0
   -0.9300   12.2330   33.8610 C   0  0  0  0  0
    0.2920   12.4740   33.8430 O   0  0  0  0  0
   -2.7650   12.5180   32.2070 C   0  0  0  0  0
   -2.3370   12.8540   30.8780 O   0  0  0  0  0
   -4.2230   12.9050   32.4010 C   0  0  0  0  0
   -1.4290   11.2100   34.3640 N   0  0  0  0  0
   -6.9820   16.0920   28.5379 H   0  0  0  0  0
   -6.8485   17.6740   28.0317 H   0  0  0  0  0
   -8.2200   16.7977   27.6741 H   0  0  0  0  0
   -6.9849   15.3097   26.2735 H   0  0  0  0  0
   -6.5086   18.2562   25.6278 H   0  0  0  0  0
   -6.4753   16.9135   24.4585 H   0  0  0  0  0
   -7.9977   17.3456   25.2749 H   0  0  0  0  0
   -4.9263   15.7403   24.7213 H   0  0  0  0  0
   -2.6346   14.9476   26.1666 H   0  0  0  0  0
   -2.9450   16.3900   23.5121 H   0  0  0  0  0
   -2.9453   14.5724   23.7964 H   0  0  0  0  0
   -0.6457   14.6194   24.3017 H   0  0  0  0  0
   -0.6079   16.4081   24.2414 H   0  0  0  0  0
    0.3050   15.4282   22.1950 H   0  0  0  0  0
   -1.2626   16.3174   21.8659 H   0  0  0  0  0
   -1.5577   14.5868   20.7097 H   0  0  0  0  0
   -0.5522   12.3701   22.1443 H   0  0  0  0  0
    0.6800   13.3057   22.8655 H   0  0  0  0  0
    1.2354   11.2122   22.1077 H   0  0  0  0  0
    1.7251   11.9130   20.5456 H   0  0  0  0  0
    2.6289   12.3178   22.0256 H   0  0  0  0  0
   -0.9336   11.3923   21.4514 H   0  0  0  0  0
   -3.0177   12.1868   21.1682 H   0  0  0  0  0
   -2.5229   12.9360   19.6303 H   0  0  0  0  0
   -2.5198   11.1633   19.7987 H   0  0  0  0  0
   -3.9540   18.1339   25.6061 H   0  0  0  0  0
   -1.4648   19.5140   25.9964 H   0  0  0  0  0
   -2.9475   21.5795   26.1809 H   0  0  0  0  0
   -5.2278   21.1786   25.8931 H   0  0  0  0  0
   -2.2525   20.7215   23.9685 H   0  0  0  0  0
   -3.6681   19.6415   23.9407 H   0  0  0  0  0
   -3.8944   21.4073   23.8994 H   0  0  0  0  0
   -3.3126   17.9208   28.2347 H   0  0  0  0  0
   -2.2346   19.6973   30.4065 H   0  0  0  0  0
   -3.9577   18.7022   31.8556 H   0  0  0  0  0
   -4.6644   17.9171   30.3559 H   0  0  0  0  0
   -5.1110   20.1056   29.4496 H   0  0  0  0  0
   -4.4203   20.8710   30.9059 H   0  0  0  0  0
   -6.1128   19.6449   32.2766 H   0  0  0  0  0
   -6.8693   19.0898   30.7315 H   0  0  0  0  0
   -7.2121   21.4359   30.1069 H   0  0  0  0  0
   -6.5646   21.9272   31.7213 H   0  0  0  0  0
   -8.9543   21.8957   31.6775 H   0  0  0  0  0
   -8.9643   20.2884   31.2378 H   0  0  0  0  0
   -8.3673   20.7413   32.7262 H   0  0  0  0  0
   -1.3451   18.5957   32.2323 H   0  0  0  0  0
    0.0398   16.1433   31.4528 H   0  0  0  0  0
    0.0201   17.6804   34.0588 H   0  0  0  0  0
    1.1754   17.9295   32.6521 H   0  0  0  0  0
    2.1746   15.8575   33.0415 H   0  0  0  0  0
    0.9303   15.4285   34.2881 H   0  0  0  0  0
    3.5084   16.3225   36.5631 H   0  0  0  0  0
    2.6803   14.9865   35.7565 H   0  0  0  0  0
   -0.4819   14.1511   31.8785 H   0  0  0  0  0
   -2.4992   13.7020   34.0080 H   0  0  0  0  0
   -2.6705   11.4423   32.3558 H   0  0  0  0  0
   -2.8897   12.3969   30.2399 H   0  0  0  0  0
   -4.5391   12.6322   33.4078 H   0  0  0  0  0
   -4.3336   13.9806   32.2630 H   0  0  0  0  0
   -4.8376   12.3786   31.6707 H   0  0  0  0  0
   -0.8274   10.5081   34.7950 H   0  0  0  0  0
   -2.4396   11.0734   34.3453 H   0  0  0  0  0
  1  2  1  0  0  0
  2  3  1  0  0  0
  2  5  1  0  0  0
  3  4  2  0  0  0
  3  6  1  0  0  0
  6  7  1  0  0  0
  7  8  1  0  0  0
  7 17  1  0  0  0
  8  9  1  0  0  0
  9 10  1  0  0  0
 10 11  1  0  0  0
 11 12  1  0  0  0
 12 13  1  0  0  0
 12 15  1  0  0  0
 13 14  1  0  0  0
 15 16  1  0  0  0
 17 18  2  0  0  0
 17 19  1  0  0  0
 19 20  1  0  0  0
 20 21  1  0  0  0
 20 23  1  0  0  0
 21 22  2  0  0  0
 21 26  1  0  0  0
 23 24  1  0  0  0
 23 25  1  0  0  0
 26 27  1  0  0  0
 27 28  1  0  0  0
 27 30  1  0  0  0
 28 29  2  0  0  0
 28 35  1  0  0  0
 30 31  1  0  0  0
 31 32  1  0  0  0
 32 33  1  0  0  0
 33 34  1  0  0  0
 35 36  1  0  0  0
 36 37  1  0  0  0
 36 39  1  0  0  0
 37 38  2  0  0  0
 37 44  1  0  0  0
 39 40  1  0  0  0
 40 41  1  0  0  0
 41 42  2  0  0  0
 41 43  1  0  0  0
 44 45  1  0  0  0
 45 46  1  0  0  0
 45 48  1  0  0  0
 46 47  2  0  0  0
 46 51  1  0  0  0
 48 49  1  0  0  0
 48 50  1  0  0  0
  1 52  1  0  0  0
  1 53  1  0  0  0
  1 54  1  0  0  0
  2 55  1  0  0  0
  5 56  1  0  0  0
  5 57  1  0  0  0
  5 58  1  0  0  0
  6 59  1  0  0  0
  7 60  1  0  0  0
  8 61  1  0  0  0
  8 62  1  0  0  0
  9 63  1  0  0  0
  9 64  1  0  0  0
 10 65  1  0  0  0
 10 66  1  0  0  0
 11 67  1  0  0  0
 12 68  1  0  0  0
 13 69  1  0  0  0
 14 70  1  0  0  0
 14 71  1  0  0  0
 14 72  1  0  0  0
 15 73  1  0  0  0
 16 74  1  0  0  0
 16 75  1  0  0  0
 16 76  1  0  0  0
 19 77  1  0  0  0
 20 78  1  0  0  0
 23 79  1  0  0  0
 24 80  1  0  0  0
 25 81  1  0  0  0
 25 82  1  0  0  0
 25 83  1  0  0  0
 26 84  1  0  0  0
 27 85  1  0  0  0
 30 86  1  0  0  0
 30 87  1  0  0  0
 31 88  1  0  0  0
 31 89  1  0  0  0
 32 90  1  0  0  0
 32 91  1  0  0  0
 33 92  1  0  0  0
 33 93  1  0  0  0
 34 94  1  0  0  0
 34 95  1  0  0  0
 34 96  1  0  0  0
 35 97  1  0  0  0
 36 98  1  0  0  0
 39 99  1  0  0  0
 39100  1  0  0  0
 40101  1  0  0  0
 40102  1  0  0  0
 43103  1  0  0  0
 43104  1  0  0  0
 44105  1  0  0  0
 45106  1  0  0  0
 48107  1  0  0  0
 49108  1  0  0  0
 50109  1  0  0  0
 50110  1  0  0  0
 50111  1  0  0  0
 51112  1  0  0  0
 51113  1  0  0  0
M  END
$$$$
