### 
### Created by X-TOOL on Mon Sep 10 21:13:09 2018
### 

@<TRIPOS>MOLECULE
4a7j_ligand
  112   111     1     0     0
SMALL
GAST_HUCK


@<TRIPOS>ATOM
      1 N          -7.2080   16.7500   27.7920 N.4       1 ALA         0.2377
      2 CA         -6.5850   16.2920   26.5250 C.3       1 ALA         0.0621
      3 C          -5.0760   16.1840   26.6920 C.2       1 ALA         0.2264
      4 O          -4.5400   16.3480   27.7840 O.2       1 ALA        -0.3907
      5 CB         -6.9160   17.2740   25.3880 C.3       1 ALA        -0.0040
      6 N          -4.4000   15.8910   25.5820 N.am      1 2MR        -0.2610
      7 CA         -2.9540   15.7750   25.5330 C.3       1 2MR         0.1312
      8 CB         -2.5520   15.5480   24.0820 C.3       1 2MR        -0.0092
      9 CG         -1.0630   15.5080   23.8280 C.3       1 2MR        -0.0156
     10 CD         -0.7780   15.4510   22.3160 C.3       1 2MR         0.0627
     11 NE         -1.3110   14.2630   21.6450 N.pl3     1 2MR        -0.2721
     12 CZ         -0.5150   13.1960   21.4340 C.cat     1 2MR         0.2920
     13 NH1         0.7490   13.2400   21.8500 N.pl3     1 2MR        -0.2748
     14 CQ1         1.6430   12.0960   21.6170 C.3       1 2MR         0.0514
     15 NH2        -0.9870   12.1530   20.7740 N.pl3     1 2MR        -0.2748
     16 CQ2        -2.3440   12.1070   20.3150 C.3       1 2MR         0.0514
     17 C          -2.2790   17.0710   26.0460 C.2       1 2MR         0.2040
     18 O          -1.1310   17.0420   26.4980 O.2       1 2MR        -0.3944
     19 N          -3.0030   18.1870   25.9710 N.am      1 THR        -0.2613
     20 CA         -2.4790   19.4880   26.3950 C.3       1 THR         0.1565
     21 C          -2.3490   19.6790   27.9020 C.2       1 THR         0.2065
     22 O          -1.8180   20.6830   28.3680 O.2       1 THR        -0.3943
     23 CB         -3.3360   20.6260   25.8230 C.3       1 THR         0.0924
     24 OG1        -4.6940   20.4660   26.2520 O.3       1 THR        -0.3874
     25 CG2        -3.2840   20.5970   24.2980 C.3       1 THR        -0.0346
     26 N          -2.8450   18.7160   28.6700 N.am      1 LYS        -0.2637
     27 CA         -2.7350   18.7720   30.1210 C.3       1 LYS         0.1310
     28 C          -1.9390   17.5650   30.5880 C.2       1 LYS         0.2039
     29 O          -1.9260   16.5180   29.9220 O.2       1 LYS        -0.3944
     30 CB         -4.1180   18.7600   30.7790 C.3       1 LYS        -0.0122
     31 CG         -4.9480   19.9980   30.5220 C.3       1 LYS        -0.0440
     32 CD         -6.2970   19.8740   31.2270 C.3       1 LYS        -0.0124
     33 CE         -7.0980   21.1630   31.1560 C.3       1 LYS        -0.0354
     34 NZ         -8.4530   21.0100   31.7460 N.4       1 LYS         0.2185
     35 N          -1.2780   17.7110   31.7290 N.am      1 GLN        -0.2636
     36 CA         -0.4630   16.6460   32.2790 C.3       1 GLN         0.1330
     37 C          -1.3090   15.6160   33.0050 C.2       1 GLN         0.2041
     38 O          -2.0930   15.9560   33.8840 O.2       1 GLN        -0.3944
     39 CB          0.5710   17.2320   33.2320 C.3       1 GLN         0.0045
     40 CG          1.5240   16.2230   33.8360 C.3       1 GLN         0.0412
     41 CD          2.4040   16.8290   34.9230 C.2       1 GLN         0.1737
     42 OE1         2.6440   18.0460   34.9520 O.2       1 GLN        -0.3973
     43 NE2         2.9030   15.9800   35.8170 N.am      1 GLN        -0.3009
     44 N          -1.1450   14.3560   32.6260 N.am      1 THR        -0.2613
     45 CA         -1.8740   13.2550   33.2350 C.3       1 THR         0.1561
     46 C          -0.9300   12.2330   33.8610 C.2       1 THR         0.2017
     47 O           0.2920   12.4740   33.8430 O.2       1 THR        -0.3946
     48 CB         -2.7650   12.5180   32.2070 C.3       1 THR         0.0924
     49 OG1        -2.3370   12.8540   30.8780 O.3       1 THR        -0.3874
     50 CG2        -4.2230   12.9050   32.4010 C.3       1 THR        -0.0346
     51 N          -1.4290   11.2100   34.3640 N.am      1 ALA        -0.2989
     52 H1         -8.2063   16.8179   27.6702 H         1 ALA         0.2015
     53 H2         -6.8377   17.6538   28.0410 H         1 ALA         0.2015
     54 H3         -7.0032   16.0893   28.5252 H         1 ALA         0.2015
     55 H4         -6.9873   15.3008   26.2687 H         1 ALA         0.1095
     56 H5         -6.4497   16.9251   24.4548 H         1 ALA         0.0310
     57 H6         -6.5282   18.2719   25.6408 H         1 ALA         0.0310
     58 H7         -8.0067   17.3272   25.2553 H         1 ALA         0.0310
     59 H8         -4.9160   15.7432   24.7382 H         1 2MR         0.1884
     60 H9         -2.6301   14.9246   26.1510 H         1 2MR         0.0800
     61 H10        -2.9788   16.3628   23.4787 H         1 2MR         0.0313
     62 H11        -2.9791   14.5881   23.7563 H         1 2MR         0.0313
     63 H12        -0.6367   14.6164   24.3110 H         1 2MR         0.0301
     64 H13        -0.5988   16.4113   24.2505 H         1 2MR         0.0301
     65 H14         0.3122   15.4685   22.1703 H         1 2MR         0.0689
     66 H15        -1.2249   16.3404   21.8477 H         1 2MR         0.0689
     67 H16        -2.2930   14.2431   21.3348 H         1 2MR         0.2642
     68 H17         1.1013   14.0770   22.3360 H         1 2MR         0.2639
     69 H18         2.6383   12.3187   22.0289 H         1 2MR         0.0652
     70 H19         1.7268   11.9103   20.5360 H         1 2MR         0.0652
     71 H20         1.2328   11.2033   22.1118 H         1 2MR         0.0652
     72 H21        -0.3649   11.3541   20.5849 H         1 2MR         0.2639
     73 H22        -2.5226   11.1550   19.7937 H         1 2MR         0.0652
     74 H23        -2.5259   12.9432   19.6239 H         1 2MR         0.0652
     75 H24        -3.0250   12.1874   21.1751 H         1 2MR         0.0652
     76 H25        -3.9354   18.1349   25.6133 H         1 THR         0.1884
     77 H26        -1.4683   19.5763   25.9700 H         1 THR         0.0826
     78 H27        -2.9489   21.5904   26.1836 H         1 THR         0.0639
     79 H28        -4.7299   20.4889   27.2010 H         1 THR         0.2101
     80 H29        -3.8997   21.4144   23.8945 H         1 THR         0.0257
     81 H30        -3.6714   19.6332   23.9361 H         1 THR         0.0257
     82 H31        -2.2435   20.7226   23.9641 H         1 THR         0.0257
     83 H32        -3.3034   17.9364   28.2433 H         1 LYS         0.1883
     84 H33        -2.2089   19.6940   30.4095 H         1 LYS         0.0800
     85 H34        -3.9802   18.6588   31.8656 H         1 LYS         0.0312
     86 H35        -4.6722   17.8900   30.3971 H         1 LYS         0.0312
     87 H36        -5.1108   20.1100   29.4399 H         1 LYS         0.0269
     88 H37        -4.4154   20.8806   30.9060 H         1 LYS         0.0269
     89 H38        -6.1235   19.6217   32.2835 H         1 LYS         0.0317
     90 H39        -6.8752   19.0700   30.7482 H         1 LYS         0.0317
     91 H40        -7.2013   21.4593   30.1017 H         1 LYS         0.0813
     92 H41        -6.5578   21.9475   31.7061 H         1 LYS         0.0813
     93 H42        -8.9494   21.8847   31.6789 H         1 LYS         0.1994
     94 H43        -8.3696   20.7445   32.7148 H         1 LYS         0.1994
     95 H44        -8.9593   20.2971   31.2446 H         1 LYS         0.1994
     96 H45        -1.3438   18.5783   32.2224 H         1 GLN         0.1883
     97 H46         0.0610   16.1451   31.4517 H         1 GLN         0.0801
     98 H47         0.0352   17.7304   34.0533 H         1 GLN         0.0337
     99 H48         1.1648   17.9739   32.6780 H         1 GLN         0.0337
    100 H49         2.1704   15.8272   33.0388 H         1 GLN         0.0504
    101 H50         0.9374   15.4020   34.2740 H         1 GLN         0.0504
    102 H51         3.4879   16.3172   36.5547 H         1 GLN         0.1814
    103 H52         2.6933   15.0044   35.7515 H         1 GLN         0.1814
    104 H53        -0.4949   14.1551   31.8931 H         1 THR         0.1884
    105 H54        -2.5176   13.6702   34.0246 H         1 THR         0.0826
    106 H55        -2.6616   11.4329   32.3546 H         1 THR         0.0639
    107 H56        -1.4319   12.5896   30.7616 H         1 THR         0.2101
    108 H57        -4.8443   12.3744   31.6645 H         1 THR         0.0257
    109 H58        -4.3359   13.9903   32.2619 H         1 THR         0.0257
    110 H59        -4.5433   12.6302   33.4168 H         1 THR         0.0257
    111 H60        -0.8388   10.5198   34.7827 H         1 ALA         0.1815
    112 H61        -2.4202   11.0781   34.3495 H         1 ALA         0.1815
@<TRIPOS>BOND
     1    1    2 1  
     2    2    3 1  
     3    2    5 1  
     4    3    4 2  
     5    3    6 am 
     6    6    7 1  
     7    7    8 1  
     8    7   17 1  
     9    8    9 1  
    10    9   10 1  
    11   10   11 1  
    12   11   12 ar 
    13   12   13 ar 
    14   12   15 ar 
    15   13   14 1  
    16   15   16 1  
    17   17   18 2  
    18   17   19 am 
    19   19   20 1  
    20   20   21 1  
    21   20   23 1  
    22   21   22 2  
    23   21   26 am 
    24   23   24 1  
    25   23   25 1  
    26   26   27 1  
    27   27   28 1  
    28   27   30 1  
    29   28   29 2  
    30   28   35 am 
    31   30   31 1  
    32   31   32 1  
    33   32   33 1  
    34   33   34 1  
    35   35   36 1  
    36   36   37 1  
    37   36   39 1  
    38   37   38 2  
    39   37   44 am 
    40   39   40 1  
    41   40   41 1  
    42   41   42 2  
    43   41   43 am 
    44   44   45 1  
    45   45   46 1  
    46   45   48 1  
    47   46   47 2  
    48   46   51 am 
    49   48   49 1  
    50   48   50 1  
    51    1   52 1  
    52    1   53 1  
    53    1   54 1  
    54    2   55 1  
    55    5   56 1  
    56    5   57 1  
    57    5   58 1  
    58    6   59 1  
    59    7   60 1  
    60    8   61 1  
    61    8   62 1  
    62    9   63 1  
    63    9   64 1  
    64   10   65 1  
    65   10   66 1  
    66   11   67 1  
    67   13   68 1  
    68   14   69 1  
    69   14   70 1  
    70   14   71 1  
    71   15   72 1  
    72   16   73 1  
    73   16   74 1  
    74   16   75 1  
    75   19   76 1  
    76   20   77 1  
    77   23   78 1  
    78   24   79 1  
    79   25   80 1  
    80   25   81 1  
    81   25   82 1  
    82   26   83 1  
    83   27   84 1  
    84   30   85 1  
    85   30   86 1  
    86   31   87 1  
    87   31   88 1  
    88   32   89 1  
    89   32   90 1  
    90   33   91 1  
    91   33   92 1  
    92   34   93 1  
    93   34   94 1  
    94   34   95 1  
    95   35   96 1  
    96   36   97 1  
    97   39   98 1  
    98   39   99 1  
    99   40  100 1  
   100   40  101 1  
   101   43  102 1  
   102   43  103 1  
   103   44  104 1  
   104   45  105 1  
   105   48  106 1  
   106   49  107 1  
   107   50  108 1  
   108   50  109 1  
   109   50  110 1  
   110   51  111 1  
   111   51  112 1  
@<TRIPOS>SUBSTRUCTURE
     1 ALA         1

