4wmc_ligand
  -I-interpret- 

 31 31  0  0  0  0  0  0  0  0999 V2000
   42.2230   35.8110   54.9110 O   0  0  0  0  0
   42.0580   36.3180   53.8050 C   0  0  0  0  0
   42.7950   35.9040   52.7790 N   0  0  0  0  0
   42.4630   36.1560   51.3780 C   0  0  0  0  0
   43.9770   35.0750   53.0710 C   0  0  0  0  0
   45.2900   35.5780   52.5200 C   0  0  0  0  0
   45.4710   36.7660   52.3550 O   0  0  0  0  0
   46.2540   34.7050   52.2160 N   0  0  0  0  0
   43.6670   33.7270   52.4330 C   0  0  0  0  0
   43.2480   33.8360   50.9590 C   0  0  0  0  0
   42.0870   34.8180   50.7540 C   0  0  0  0  0
   40.7950   34.2830   51.2620 N   0  3  0  0  0
   40.8420   33.7490   52.5190 O   0  0  0  0  0
   39.4340   33.2060   53.0210 S   0  0  0  0  0
   39.3610   33.0720   54.4540 O   0  0  0  0  0
   38.4200   34.1520   52.6740 O   0  0  0  0  0
   39.1970   31.7730   52.3590 O   0  0  0  0  0
   41.3131   37.1014   53.6655 H   0  0  0  0  0
   43.3126   36.5967   50.8563 H   0  0  0  0  0
   41.6349   36.8606   51.3014 H   0  0  0  0  0
   44.1271   35.0630   54.1505 H   0  0  0  0  0
   47.1440   35.0369   51.8445 H   0  0  0  0  0
   46.1002   33.7063   52.3554 H   0  0  0  0  0
   42.8342   33.2863   52.9810 H   0  0  0  0  0
   44.5752   33.1258   52.4742 H   0  0  0  0  0
   42.9200   32.8509   50.6272 H   0  0  0  0  0
   44.1035   34.2008   50.3906 H   0  0  0  0  0
   41.9240   34.9645   49.6863 H   0  0  0  0  0
   40.5222   33.5281   50.6326 H   0  0  0  0  0
   40.1469   35.0697   51.3015 H   0  0  0  0  0
   39.2437   31.8516   51.4034 H   0  0  0  0  0
  1  2  2  0  0  0
  2  3  1  0  0  0
  3  4  1  0  0  0
  3  5  1  0  0  0
  4 11  1  0  0  0
  5  6  1  0  0  0
  5  9  1  0  0  0
  6  7  2  0  0  0
  6  8  1  0  0  0
  9 10  1  0  0  0
 10 11  1  0  0  0
 11 12  1  0  0  0
 12 13  1  0  0  0
 13 14  1  0  0  0
 14 15  2  0  0  0
 14 16  2  0  0  0
 14 17  1  0  0  0
  2 18  1  0  0  0
  4 19  1  0  0  0
  4 20  1  0  0  0
  5 21  1  0  0  0
  8 22  1  0  0  0
  8 23  1  0  0  0
  9 24  1  0  0  0
  9 25  1  0  0  0
 10 26  1  0  0  0
 10 27  1  0  0  0
 11 28  1  0  0  0
 12 29  1  0  0  0
 12 30  1  0  0  0
 17 31  1  0  0  0
M  END
$$$$
