4mxa_ligand
  -I-interpret- 

 57 61  0  0  0  0  0  0  0  0999 V2000
   -3.0150  -23.5160  -31.0310 N   0  0  0  0  0
   -4.1610  -22.9450  -30.7230 C   0  0  0  0  0
   -4.2260  -21.6280  -30.5690 N   0  0  0  0  0
   -3.1350  -20.8570  -30.7550 C   0  0  0  0  0
   -1.9240  -21.4290  -31.0890 C   0  0  0  0  0
   -1.8880  -22.7930  -31.2320 C   0  0  0  0  0
    8.4400  -21.4820  -31.7110 C   0  0  0  0  0
   -0.7640  -23.3990  -31.5310 N   0  0  0  0  0
    4.4220  -21.4450  -33.8300 C   0  0  0  0  0
    1.1100  -19.8990  -30.4990 C   0  0  0  0  0
    3.0380  -21.4490  -33.7790 C   0  0  0  0  0
    2.4890  -19.8960  -30.5610 C   0  0  0  0  0
    4.4670  -20.3820  -31.6690 C   0  0  0  0  0
    0.9720  -20.9320  -32.6080 C   0  0  0  0  0
    6.9460  -21.8630  -31.8670 C   0  0  0  0  0
   -5.2600  -17.0790  -27.1410 C   0  0  0  0  0
   -2.8630  -16.7780  -27.1060 C   0  0  0  0  0
   -5.2530  -17.4910  -28.5820 C   0  0  0  0  0
   -2.7430  -17.3090  -28.5480 C   0  0  0  0  0
   -3.8920  -18.5420  -30.3590 C   0  0  0  0  0
   -1.7300  -19.2600  -30.9130 N   0  0  0  0  0
   -4.1780  -16.0990  -26.9210 N   0  3  0  0  0
    6.4670  -20.8710  -32.7920 O   0  0  0  0  0
    5.1210  -20.9040  -32.7710 C   0  0  0  0  0
    0.3310  -20.4220  -31.4900 C   0  0  0  0  0
   -1.0380  -20.3610  -31.2220 C   0  0  0  0  0
    3.1090  -20.4040  -31.6500 C   0  0  0  0  0
    2.3630  -20.9230  -32.6810 C   0  0  0  0  0
   -3.9360  -18.2120  -28.8760 C   0  0  0  0  0
   -2.8980  -19.5540  -30.6690 N   0  0  0  0  0
   -5.0561  -23.5536  -30.5945 H   0  0  0  0  0
    8.9310  -21.5367  -32.6826 H   0  0  0  0  0
    8.5160  -20.4671  -31.3207 H   0  0  0  0  0
    8.9202  -22.1752  -31.0203 H   0  0  0  0  0
   -0.7385  -24.4154  -31.6122 H   0  0  0  0  0
    0.0847  -22.8539  -31.6823 H   0  0  0  0  0
    4.9481  -21.8608  -34.6893 H   0  0  0  0  0
    0.6242  -19.4667  -29.6242 H   0  0  0  0  0
    2.4701  -21.8693  -34.6090 H   0  0  0  0  0
    3.0743  -19.4868  -29.7375 H   0  0  0  0  0
    5.0291  -19.9624  -30.8347 H   0  0  0  0  0
    0.3866  -21.3408  -33.4316 H   0  0  0  0  0
    6.4040  -21.8623  -30.9213 H   0  0  0  0  0
    6.8001  -22.8834  -32.2215 H   0  0  0  0  0
   -5.1028  -17.9514  -26.5067 H   0  0  0  0  0
   -6.2212  -16.6306  -26.8898 H   0  0  0  0  0
   -2.0610  -16.0641  -26.9186 H   0  0  0  0  0
   -2.7889  -17.6127  -26.4089 H   0  0  0  0  0
   -5.3459  -16.6122  -29.2201 H   0  0  0  0  0
   -6.0933  -18.1558  -28.7824 H   0  0  0  0  0
   -1.8219  -17.8841  -28.6424 H   0  0  0  0  0
   -2.7303  -16.4669  -29.2399 H   0  0  0  0  0
   -3.6293  -17.6330  -30.9001 H   0  0  0  0  0
   -4.8693  -18.9280  -30.6487 H   0  0  0  0  0
   -4.2411  -15.7235  -25.9747 H   0  0  0  0  0
   -4.2666  -15.3331  -27.5887 H   0  0  0  0  0
   -3.8793  -19.1142  -28.2670 H   0  0  0  0  0
  1  2  4  0  0  0
  6  1  4  0  0  0
  3  2  4  0  0  0
  4  3  4  0  0  0
  5  4  4  0  0  0
 30  4  4  0  0  0
  5  6  4  0  0  0
 26  5  4  0  0  0
  6  8  1  0  0  0
 15  7  1  0  0  0
 11  9  4  0  0  0
  9 24  4  0  0  0
 10 12  4  0  0  0
 25 10  4  0  0  0
 28 11  4  0  0  0
 12 27  4  0  0  0
 13 24  4  0  0  0
 27 13  4  0  0  0
 25 14  4  0  0  0
 14 28  4  0  0  0
 23 15  1  0  0  0
 18 16  1  0  0  0
 16 22  1  0  0  0
 19 17  1  0  0  0
 17 22  1  0  0  0
 29 18  1  0  0  0
 29 19  1  0  0  0
 20 29  1  0  0  0
 30 20  1  0  0  0
 26 21  4  0  0  0
 21 30  4  0  0  0
 24 23  1  0  0  0
 25 26  1  0  0  0
 27 28  4  0  0  0
  2 31  1  0  0  0
  7 32  1  0  0  0
  7 33  1  0  0  0
  7 34  1  0  0  0
  8 35  1  0  0  0
  8 36  1  0  0  0
  9 37  1  0  0  0
 10 38  1  0  0  0
 11 39  1  0  0  0
 12 40  1  0  0  0
 13 41  1  0  0  0
 14 42  1  0  0  0
 15 43  1  0  0  0
 15 44  1  0  0  0
 16 45  1  0  0  0
 16 46  1  0  0  0
 17 47  1  0  0  0
 17 48  1  0  0  0
 18 49  1  0  0  0
 18 50  1  0  0  0
 19 51  1  0  0  0
 19 52  1  0  0  0
 20 53  1  0  0  0
 20 54  1  0  0  0
 22 55  1  0  0  0
 22 56  1  0  0  0
 29 57  1  0  0  0
M  END
$$$$
