4n1u_ligand
  -I-interpret- 

 29 31  0  0  0  0  0  0  0  0999 V2000
    0.7230   75.9940   15.3760 C   0  0  0  0  0
    2.3590   74.5480   18.9490 C   0  0  0  0  0
    3.0900   78.0900   12.8540 N   0  0  0  0  0
    2.2970   77.3640   13.7310 C   0  0  0  0  0
    0.9890   77.3550   13.4910 N   0  0  0  0  0
    0.1560   76.6970   14.3020 C   0  0  0  0  0
   -1.2910   76.6320   13.9570 C   0  0  0  0  0
   -1.6140   76.2800   12.6400 C   0  0  0  0  0
   -2.9530   76.2180   12.2390 C   0  0  0  0  0
   -3.9700   76.3920   13.1580 C   0  0  0  0  0
   -3.6250   76.7000   14.4600 C   0  0  0  0  0
   -4.7740   76.9150   15.7370 Cl  0  0  0  0  0
   -2.3030   76.7930   14.8440 C   0  0  0  0  0
   -1.9500   77.2090   16.4700 Cl  0  0  0  0  0
    2.1090   76.0330   15.5950 C   0  0  0  0  0
    2.7200   75.3710   16.6990 N   0  0  0  0  0
    1.9420   74.4540   17.5190 C   0  0  0  0  0
    1.0900   75.1910   18.5110 C   0  0  0  0  0
    2.8870   76.6840   14.7340 N   0  0  0  0  0
    0.0844   75.4151   16.0431 H   0  0  0  0  0
    3.0730   74.3152   19.7390 H   0  0  0  0  0
    2.6633   78.5841   12.0703 H   0  0  0  0  0
    4.0997   78.1296   12.9929 H   0  0  0  0  0
   -0.8212   76.0542   11.9269 H   0  0  0  0  0
   -3.1959   76.0309   11.1930 H   0  0  0  0  0
   -5.0146   76.2892   12.8642 H   0  0  0  0  0
    3.7026   75.5397   16.9146 H   0  0  0  0  0
    1.7748   73.6500   16.8022 H   0  0  0  0  0
    0.1967   75.7715   18.7416 H   0  0  0  0  0
  1  6  4  0  0  0
 15  1  4  0  0  0
 17  2  1  0  0  0
  2 18  2  0  0  0
  4  3  1  0  0  0
  4  5  4  0  0  0
 19  4  4  0  0  0
  6  5  4  0  0  0
  6  7  1  0  0  0
  7  8  4  0  0  0
  7 13  4  0  0  0
  8  9  4  0  0  0
  9 10  4  0  0  0
 11 10  4  0  0  0
 11 12  1  0  0  0
 13 11  4  0  0  0
 13 14  1  0  0  0
 16 15  1  0  0  0
 15 19  4  0  0  0
 16 17  1  0  0  0
 17 18  1  0  0  0
  1 20  1  0  0  0
  2 21  1  0  0  0
  3 22  1  0  0  0
  3 23  1  0  0  0
  8 24  1  0  0  0
  9 25  1  0  0  0
 10 26  1  0  0  0
 16 27  1  0  0  0
 17 28  1  0  0  0
 18 29  1  0  0  0
M  END
$$$$
