1ths_ligand
  -I-interpret- 

151153  0  0  0  0  0  0  0  0999 V2000
    5.3770  -12.6610    3.8400 C   0  0  0  0  0
    6.1150  -12.7300    4.8670 O   0  0  0  0  0
    4.1730  -12.3450    3.9620 O   0  0  0  0  0
    5.9550  -13.0230    2.4820 C   0  0  0  0  0
    5.4800  -12.1580    1.2880 C   0  0  0  0  0
    6.0530  -10.7530    1.4020 C   0  0  0  0  0
    6.2990  -10.4480    2.5940 O   0  0  0  0  0
    6.3460   -9.9800    0.4210 N   0  0  0  0  0
    6.8920   -8.6420    0.5690 C   0  0  0  0  0
    6.9160   -8.0450   -0.8600 C   0  0  0  0  0
    7.7370   -8.5790   -1.6160 O   0  0  0  0  0
    8.3120   -8.3460    1.1290 C   0  0  0  0  0
    8.4680   -8.4340    2.6220 C   0  0  0  0  0
    8.2590   -7.3800    3.5300 C   0  0  0  0  0
    8.8240   -9.6900    3.1430 C   0  0  0  0  0
    8.3520   -7.5730    4.9030 C   0  0  0  0  0
    8.9310   -9.9110    4.5130 C   0  0  0  0  0
    8.6800   -8.8290    5.3840 C   0  0  0  0  0
    8.7710   -9.1230    6.7130 O   0  0  0  0  0
    6.1050   -7.0160   -1.0560 N   0  0  0  0  0
    6.1540   -6.3940   -2.3840 C   0  0  0  0  0
    7.5780   -5.8370   -2.5330 C   0  0  0  0  0
    8.1170   -5.3030   -1.5360 O   0  0  0  0  0
    5.3210   -5.1340   -2.5710 C   0  0  0  0  0
    3.8230   -5.2200   -2.6270 C   0  0  0  0  0
    3.0950   -3.9360   -2.3600 C   0  0  0  0  0
    3.5590   -2.9120   -2.8940 O   0  0  0  0  0
    2.1170   -3.8920   -1.6320 O   0  0  0  0  0
    8.0660   -5.9130   -3.7670 N   0  0  0  0  0
    9.3810   -5.3570   -4.0690 C   0  0  0  0  0
    9.3000   -3.8250   -3.8850 C   0  0  0  0  0
    8.2120   -3.2280   -4.0160 O   0  0  0  0  0
    9.6090   -5.6480   -5.5390 C   0  0  0  0  0
    8.3840   -6.3070   -6.0370 C   0  0  0  0  0
    7.4160   -6.5330   -4.9170 C   0  0  0  0  0
   10.4750   -3.2540   -3.6930 N   0  0  0  0  0
   10.6470   -1.8110   -3.5800 C   0  0  0  0  0
   11.0780   -1.1860   -4.9190 C   0  0  0  0  0
   12.1580   -1.5680   -5.4180 O   0  0  0  0  0
   11.7160   -1.4860   -2.4670 C   0  0  0  0  0
   11.1960   -2.0090   -1.1100 C   0  0  0  0  0
   12.0920    0.0210   -2.4600 C   0  0  0  0  0
   12.2600   -1.8910    0.0260 C   0  0  0  0  0
   10.3020   -0.2250   -5.4180 N   0  0  0  0  0
   10.5780    0.5080   -6.6400 C   0  0  0  0  0
   11.9860    1.0710   -6.7110 C   0  0  0  0  0
   12.4340    1.8130   -5.8150 O   0  0  0  0  0
    9.5600    1.6290   -6.7060 C   0  0  0  0  0
    8.6420    1.4550   -5.5450 C   0  0  0  0  0
    9.0660    0.2490   -4.7460 C   0  0  0  0  0
   12.6380    0.7140   -7.8020 N   0  0  0  0  0
   14.0360    1.1580   -8.0450 C   0  0  0  0  0
   14.0700    2.6530   -7.7570 C   0  0  0  0  0
   15.1560    3.2120   -7.5020 O   0  0  0  0  0
   14.4620    0.7860   -9.4350 C   0  0  0  0  0
   15.8040    0.9090  -10.1360 C   0  0  0  0  0
   15.8380    0.7060  -11.6510 C   0  0  0  0  0
   14.6570    0.5910  -12.1540 O   0  0  0  0  0
   16.8860    0.6700  -12.3400 O   0  0  0  0  0
   12.8750    3.2450   -7.7620 N   0  0  0  0  0
   12.5910    4.6460   -7.5040 C   0  0  0  0  0
   12.0000    4.8610   -6.0930 C   0  0  0  0  0
   10.8250    5.2470   -5.8990 O   0  0  0  0  0
   11.5930    5.4360   -8.4110 C   0  0  0  0  0
   11.7320    6.9520   -8.2880 C   0  0  0  0  0
   11.0990    8.1230   -8.9250 C   0  0  0  0  0
   10.5300    7.9810  -10.0710 O   0  0  0  0  0
   11.1090    9.3010   -8.4590 O   0  0  0  0  0
   12.8690    4.6420   -5.1400 N   0  0  0  0  0
   12.5180    4.7800   -3.7220 C   0  0  0  0  0
   13.8940    4.7300   -3.0390 C   0  0  0  0  0
   14.2060    5.4910   -2.1150 O   0  0  0  0  0
   11.6680    3.5860   -3.3000 C   0  0  0  0  0
   14.5950    3.7500   -3.6520 N   0  0  0  0  0
   15.9660    3.4920   -3.1420 C   0  0  0  0  0
   16.6900    4.8160   -3.3080 C   0  0  0  0  0
   17.7770    5.0830   -2.7970 O   0  0  0  0  0
   16.5920    2.2590   -3.7520 C   0  0  0  0  0
   16.0840    5.7040   -3.9300 N   0  0  0  0  0
    7.0033  -12.9826    4.6049 H   0  0  0  0  0
    5.6269  -14.0409    2.2716 H   0  0  0  0  0
    7.0320  -12.8734    2.5585 H   0  0  0  0  0
    4.3914  -12.1028    1.2961 H   0  0  0  0  0
    5.8239  -12.6109    0.3581 H   0  0  0  0  0
    6.1851  -10.3275   -0.5244 H   0  0  0  0  0
    6.2445   -8.2377    1.3470 H   0  0  0  0  0
    8.5366   -7.3140    0.8596 H   0  0  0  0  0
    8.9698   -9.1068    0.7087 H   0  0  0  0  0
    8.0183   -6.3881    3.1474 H   0  0  0  0  0
    9.0215  -10.5128    2.4559 H   0  0  0  0  0
    8.1694   -6.7476    5.5911 H   0  0  0  0  0
    9.2012  -10.8925    4.9025 H   0  0  0  0  0
    9.0094  -10.0468    6.8196 H   0  0  0  0  0
    5.4813   -6.6751   -0.3245 H   0  0  0  0  0
    5.8062   -7.1641   -3.0725 H   0  0  0  0  0
    5.6079   -4.7633   -3.5551 H   0  0  0  0  0
    5.5250   -4.5399   -1.6802 H   0  0  0  0  0
    3.5216   -5.9173   -1.8453 H   0  0  0  0  0
    3.5659   -5.5182   -3.6434 H   0  0  0  0  0
    4.3225   -3.1478   -3.4260 H   0  0  0  0  0
   10.1689   -5.7676   -3.4375 H   0  0  0  0  0
   10.4788   -6.2902   -5.6772 H   0  0  0  0  0
    9.8069   -4.7289   -6.0905 H   0  0  0  0  0
    8.6523   -7.2697   -6.4722 H   0  0  0  0  0
    7.9165   -5.6660   -6.7845 H   0  0  0  0  0
    6.4355   -6.1032   -5.1220 H   0  0  0  0  0
    7.2064   -7.5904   -4.7558 H   0  0  0  0  0
   11.2998   -3.8498   -3.6205 H   0  0  0  0  0
    9.6855   -1.3784   -3.3033 H   0  0  0  0  0
   12.6520   -2.0016   -2.6819 H   0  0  0  0  0
   10.9483   -3.0637   -1.2295 H   0  0  0  0  0
   10.3337   -1.4058   -0.8261 H   0  0  0  0  0
   12.5087    0.2947   -3.4293 H   0  0  0  0  0
   11.1996    0.6159   -2.2657 H   0  0  0  0  0
   12.8306    0.2062   -1.6801 H   0  0  0  0  0
   13.1419   -2.4728   -0.2421 H   0  0  0  0  0
   12.5384   -0.8450    0.1541 H   0  0  0  0  0
   11.8401   -2.2731    0.9565 H   0  0  0  0  0
   10.5040   -0.1742   -7.4869 H   0  0  0  0  0
    9.0060    1.5913   -7.6440 H   0  0  0  0  0
   10.0533    2.6001   -6.6647 H   0  0  0  0  0
    7.6232    1.3124   -5.9053 H   0  0  0  0  0
    8.6828    2.3423   -4.9132 H   0  0  0  0  0
    9.2383    0.4929   -3.6977 H   0  0  0  0  0
    8.2928   -0.5189   -4.7232 H   0  0  0  0  0
   12.1739    0.1224   -8.4912 H   0  0  0  0  0
   14.7563    0.6636   -7.3932 H   0  0  0  0  0
   13.8856    1.5128  -10.0073 H   0  0  0  0  0
   14.3849   -0.2993   -9.3693 H   0  0  0  0  0
   16.4226    0.1129   -9.7218 H   0  0  0  0  0
   16.1241    1.9381   -9.9731 H   0  0  0  0  0
   14.0046    0.6466  -11.4520 H   0  0  0  0  0
   12.0734    2.6493   -7.9695 H   0  0  0  0  0
   13.5921    5.0338   -7.6925 H   0  0  0  0  0
   10.5833    5.1719   -8.0965 H   0  0  0  0  0
   11.8075    5.1691   -9.4458 H   0  0  0  0  0
   12.7248    7.0537   -8.7264 H   0  0  0  0  0
   11.3060    7.0673   -7.2914 H   0  0  0  0  0
   10.5737    7.0595  -10.3367 H   0  0  0  0  0
   13.8189    4.3671   -5.3901 H   0  0  0  0  0
   11.9485    5.6773   -3.4799 H   0  0  0  0  0
   10.7599    3.5572   -3.9021 H   0  0  0  0  0
   12.2345    2.6670   -3.4505 H   0  0  0  0  0
   11.4043    3.6835   -2.2469 H   0  0  0  0  0
   14.2021    3.2145   -4.4261 H   0  0  0  0  0
   16.0052    3.2094   -2.0900 H   0  0  0  0  0
   15.9788    1.3885   -3.5189 H   0  0  0  0  0
   16.6546    2.3819   -4.8332 H   0  0  0  0  0
   17.5925    2.1204   -3.3422 H   0  0  0  0  0
   16.4886    6.6368   -4.0108 H   0  0  0  0  0
   15.1818    5.5004   -4.3600 H   0  0  0  0  0
  1  2  1  0  0  0
  1  3  2  0  0  0
  1  4  1  0  0  0
  4  5  1  0  0  0
  5  6  1  0  0  0
  6  7  2  0  0  0
  6  8  1  0  0  0
  8  9  1  0  0  0
  9 10  1  0  0  0
  9 12  1  0  0  0
 10 11  2  0  0  0
 10 20  1  0  0  0
 12 13  1  0  0  0
 13 14  4  0  0  0
 13 15  4  0  0  0
 14 16  4  0  0  0
 15 17  4  0  0  0
 16 18  4  0  0  0
 17 18  4  0  0  0
 18 19  1  0  0  0
 20 21  1  0  0  0
 21 22  1  0  0  0
 21 24  1  0  0  0
 22 23  2  0  0  0
 22 29  1  0  0  0
 24 25  1  0  0  0
 25 26  1  0  0  0
 26 27  1  0  0  0
 26 28  2  0  0  0
 29 30  1  0  0  0
 29 35  1  0  0  0
 30 31  1  0  0  0
 30 33  1  0  0  0
 31 32  2  0  0  0
 31 36  1  0  0  0
 33 34  1  0  0  0
 34 35  1  0  0  0
 36 37  1  0  0  0
 37 38  1  0  0  0
 37 40  1  0  0  0
 38 39  2  0  0  0
 38 44  1  0  0  0
 40 41  1  0  0  0
 40 42  1  0  0  0
 41 43  1  0  0  0
 44 45  1  0  0  0
 44 50  1  0  0  0
 45 46  1  0  0  0
 45 48  1  0  0  0
 46 47  2  0  0  0
 46 51  1  0  0  0
 48 49  1  0  0  0
 49 50  1  0  0  0
 51 52  1  0  0  0
 52 53  1  0  0  0
 52 55  1  0  0  0
 53 54  2  0  0  0
 53 60  1  0  0  0
 55 56  1  0  0  0
 56 57  1  0  0  0
 57 58  1  0  0  0
 57 59  2  0  0  0
 60 61  1  0  0  0
 61 62  1  0  0  0
 61 64  1  0  0  0
 62 63  2  0  0  0
 62 69  1  0  0  0
 64 65  1  0  0  0
 65 66  1  0  0  0
 66 67  1  0  0  0
 66 68  2  0  0  0
 69 70  1  0  0  0
 70 71  1  0  0  0
 70 73  1  0  0  0
 71 72  2  0  0  0
 71 74  1  0  0  0
 74 75  1  0  0  0
 75 76  1  0  0  0
 75 78  1  0  0  0
 76 77  2  0  0  0
 76 79  1  0  0  0
  2 80  1  0  0  0
  4 81  1  0  0  0
  4 82  1  0  0  0
  5 83  1  0  0  0
  5 84  1  0  0  0
  8 85  1  0  0  0
  9 86  1  0  0  0
 12 87  1  0  0  0
 12 88  1  0  0  0
 14 89  1  0  0  0
 15 90  1  0  0  0
 16 91  1  0  0  0
 17 92  1  0  0  0
 19 93  1  0  0  0
 20 94  1  0  0  0
 21 95  1  0  0  0
 24 96  1  0  0  0
 24 97  1  0  0  0
 25 98  1  0  0  0
 25 99  1  0  0  0
 27100  1  0  0  0
 30101  1  0  0  0
 33102  1  0  0  0
 33103  1  0  0  0
 34104  1  0  0  0
 34105  1  0  0  0
 35106  1  0  0  0
 35107  1  0  0  0
 36108  1  0  0  0
 37109  1  0  0  0
 40110  1  0  0  0
 41111  1  0  0  0
 41112  1  0  0  0
 42113  1  0  0  0
 42114  1  0  0  0
 42115  1  0  0  0
 43116  1  0  0  0
 43117  1  0  0  0
 43118  1  0  0  0
 45119  1  0  0  0
 48120  1  0  0  0
 48121  1  0  0  0
 49122  1  0  0  0
 49123  1  0  0  0
 50124  1  0  0  0
 50125  1  0  0  0
 51126  1  0  0  0
 52127  1  0  0  0
 55128  1  0  0  0
 55129  1  0  0  0
 56130  1  0  0  0
 56131  1  0  0  0
 58132  1  0  0  0
 60133  1  0  0  0
 61134  1  0  0  0
 64135  1  0  0  0
 64136  1  0  0  0
 65137  1  0  0  0
 65138  1  0  0  0
 67139  1  0  0  0
 69140  1  0  0  0
 70141  1  0  0  0
 73142  1  0  0  0
 73143  1  0  0  0
 73144  1  0  0  0
 74145  1  0  0  0
 75146  1  0  0  0
 78147  1  0  0  0
 78148  1  0  0  0
 78149  1  0  0  0
 79150  1  0  0  0
 79151  1  0  0  0
M  END
$$$$
