### 
### Created by X-TOOL on Mon Sep 10 21:12:45 2018
### 

@<TRIPOS>MOLECULE
1ths_ligand
  147   149     1     0     0
SMALL
GAST_HUCK


@<TRIPOS>ATOM
      1 C1          5.3770  -12.6610    3.8400 C.2       1 SIN         0.0370
      2 O1          6.1150  -12.7300    4.8670 O.co2     1 SIN        -0.5689
      3 O2          4.1730  -12.3450    3.9620 O.co2     1 SIN        -0.5689
      4 C2          5.9550  -13.0230    2.4820 C.3       1 SIN         0.0171
      5 C3          5.4800  -12.1580    1.2880 C.3       1 SIN         0.0488
      6 C4          6.0530  -10.7530    1.4020 C.2       1 SIN         0.1800
      7 O3          6.2990  -10.4480    2.5940 O.2       1 SIN        -0.3968
      8 N           6.3460   -9.9800    0.4210 N.am      1 TYR        -0.2639
      9 CA          6.8920   -8.6420    0.5690 C.3       1 TYR         0.1389
     10 C           6.9160   -8.0450   -0.8600 C.2       1 TYR         0.2057
     11 O           7.7370   -8.5790   -1.6160 O.2       1 TYR        -0.3942
     12 CB          8.3120   -8.3460    1.1290 C.3       1 TYR         0.0163
     13 CG          8.4680   -8.4340    2.6220 C.ar      1 TYR        -0.0493
     14 CD1         8.2590   -7.3800    3.5300 C.ar      1 TYR        -0.0685
     15 CD2         8.8240   -9.6900    3.1430 C.ar      1 TYR        -0.0685
     16 CE1         8.3520   -7.5730    4.9030 C.ar      1 TYR        -0.0398
     17 CE2         8.9310   -9.9110    4.5130 C.ar      1 TYR        -0.0398
     18 CZ          8.6800   -8.8290    5.3840 C.ar      1 TYR         0.0805
     19 OH          8.7710   -9.1230    6.7130 O.3       1 TYR        -0.3376
     20 N           6.1050   -7.0160   -1.0560 N.am      1 GLU        -0.2635
     21 CA          6.1540   -6.3940   -2.3840 C.3       1 GLU         0.1327
     22 C           7.5780   -5.8370   -2.5330 C.2       1 GLU         0.2065
     23 O           8.1170   -5.3030   -1.5360 O.2       1 GLU        -0.3942
     24 CB          5.3210   -5.1340   -2.5710 C.3       1 GLU        -0.0008
     25 CG          3.8230   -5.2200   -2.6270 C.3       1 GLU         0.0044
     26 CD          3.0950   -3.9360   -2.3600 C.2       1 GLU         0.0350
     27 OE1         3.5590   -2.9120   -2.8940 O.co2     1 GLU        -0.5690
     28 OE2         2.1170   -3.8920   -1.6320 O.co2     1 GLU        -0.5690
     29 N           8.0660   -5.9130   -3.7670 N.am      1 PRO        -0.2498
     30 CA          9.3810   -5.3570   -4.0690 C.3       1 PRO         0.1338
     31 C           9.3000   -3.8250   -3.8850 C.2       1 PRO         0.2041
     32 O           8.2120   -3.2280   -4.0160 O.2       1 PRO        -0.3944
     33 CB          9.6090   -5.6480   -5.5390 C.3       1 PRO        -0.0104
     34 CG          8.3840   -6.3070   -6.0370 C.3       1 PRO        -0.0281
     35 CD          7.4160   -6.5330   -4.9170 C.3       1 PRO         0.0369
     36 N          10.4750   -3.2540   -3.6930 N.am      1 ILE        -0.2634
     37 CA         10.6470   -1.8110   -3.5800 C.3       1 ILE         0.1337
     38 C          11.0780   -1.1860   -4.9190 C.2       1 ILE         0.2067
     39 O          12.1580   -1.5680   -5.4180 O.2       1 ILE        -0.3942
     40 CB         11.7160   -1.4860   -2.4670 C.3       1 ILE        -0.0037
     41 CG1        11.1960   -2.0090   -1.1100 C.3       1 ILE        -0.0491
     42 CG2        12.0920    0.0210   -2.4600 C.3       1 ILE        -0.0582
     43 CD1        12.2600   -1.8910    0.0260 C.3       1 ILE        -0.0648
     44 N          10.3020   -0.2250   -5.4180 N.am      1 PRO        -0.2498
     45 CA         10.5780    0.5080   -6.6400 C.3       1 PRO         0.1338
     46 C          11.9860    1.0710   -6.7110 C.2       1 PRO         0.2041
     47 O          12.4340    1.8130   -5.8150 O.2       1 PRO        -0.3944
     48 CB          9.5600    1.6290   -6.7060 C.3       1 PRO        -0.0104
     49 CG          8.6420    1.4550   -5.5450 C.3       1 PRO        -0.0281
     50 CD          9.0660    0.2490   -4.7460 C.3       1 PRO         0.0369
     51 N          12.6380    0.7140   -7.8020 N.am      1 GLU        -0.2636
     52 CA         14.0360    1.1580   -8.0450 C.3       1 GLU         0.1325
     53 C          14.0700    2.6530   -7.7570 C.2       1 GLU         0.2040
     54 O          15.1560    3.2120   -7.5020 O.2       1 GLU        -0.3944
     55 CB         14.4620    0.7860   -9.4350 C.3       1 GLU        -0.0008
     56 CG         15.8040    0.9090  -10.1360 C.3       1 GLU         0.0044
     57 CD         15.8380    0.7060  -11.6510 C.2       1 GLU         0.0350
     58 OE1        14.6570    0.5910  -12.1540 O.co2     1 GLU        -0.5690
     59 OE2        16.8860    0.6700  -12.3400 O.co2     1 GLU        -0.5690
     60 N          12.8750    3.2450   -7.7620 N.am      1 GLU        -0.2636
     61 CA         12.5910    4.6460   -7.5040 C.3       1 GLU         0.1325
     62 C          12.0000    4.8610   -6.0930 C.2       1 GLU         0.2040
     63 O          10.8250    5.2470   -5.8990 O.2       1 GLU        -0.3944
     64 CB         11.5930    5.4360   -8.4110 C.3       1 GLU        -0.0008
     65 CG         11.7320    6.9520   -8.2880 C.3       1 GLU         0.0044
     66 CD         11.0990    8.1230   -8.9250 C.2       1 GLU         0.0350
     67 OE1        10.5300    7.9810  -10.0710 O.co2     1 GLU        -0.5690
     68 OE2        11.1090    9.3010   -8.4590 O.co2     1 GLU        -0.5690
     69 N          12.8690    4.6420   -5.1400 N.am      1 ALA        -0.2640
     70 CA         12.5180    4.7800   -3.7220 C.3       1 ALA         0.1282
     71 C          13.8940    4.7300   -3.0390 C.2       1 ALA         0.2036
     72 O          14.2060    5.4910   -2.1150 O.2       1 ALA        -0.3944
     73 CB         11.6680    3.5860   -3.3000 C.3       1 ALA        -0.0244
     74 N          14.5950    3.7500   -3.6520 N.am      1 ALC        -0.2640
     75 CA         15.9660    3.4920   -3.1420 C.3       1 ALC         0.1279
     76 C          16.6900    4.8160   -3.3080 C.2       1 ALC         0.1989
     77 O          17.7770    5.0830   -2.7970 O.2       1 ALC        -0.3947
     78 CB         16.5920    2.2590   -3.7520 C.3       1 ALC        -0.0244
     79 N          16.0840    5.7040   -3.9300 N.am      1 GLU        -0.2990
     80 H1          5.6845  -14.0677    2.2690 H         1 SIN         0.0455
     81 H2          7.0494  -12.9336    2.5476 H         1 SIN         0.0455
     82 H3          4.3813  -12.1045    1.2913 H         1 SIN         0.0520
     83 H4          5.8220  -12.6156    0.3480 H         1 SIN         0.0520
     84 H5          6.1883  -10.3207   -0.5059 H         1 TYR         0.1884
     85 H6          6.1839   -8.0879    1.2026 H         1 TYR         0.0821
     86 H7          8.5881   -7.3264    0.8222 H         1 TYR         0.0453
     87 H8          9.0086   -9.0666    0.6757 H         1 TYR         0.0453
     88 H9          8.0197   -6.3936    3.1495 H         1 TYR         0.0530
     89 H10         9.0204  -10.5082    2.4596 H         1 TYR         0.0530
     90 H11         8.1704   -6.7522    5.5873 H         1 TYR         0.0525
     91 H12         9.1997  -10.8871    4.9004 H         1 TYR         0.0525
     92 H13         8.5881   -8.3421    7.2222 H         1 TYR         0.2458
     93 H14         5.4935   -6.6818   -0.3388 H         1 GLU         0.1883
     94 H15         5.9048   -7.1401   -3.1529 H         1 GLU         0.0801
     95 H16         5.6473   -4.6762   -3.5165 H         1 GLU         0.0330
     96 H17         5.5685   -4.4639   -1.7345 H         1 GLU         0.0330
     97 H18         3.4970   -5.9570   -1.8783 H         1 GLU         0.0433
     98 H19         3.5402   -5.5680   -3.6315 H         1 GLU         0.0433
     99 H20        10.1680   -5.7952   -3.4377 H         1 PRO         0.0802
    100 H21        10.4752   -6.3145   -5.6635 H         1 PRO         0.0313
    101 H22         9.7852   -4.7112   -6.0879 H         1 PRO         0.0313
    102 H23         8.6509   -7.2754   -6.4853 H         1 PRO         0.0287
    103 H24         7.9133   -5.6677   -6.7984 H         1 PRO         0.0287
    104 H25         6.4508   -6.0501   -5.1295 H         1 PRO         0.0524
    105 H26         7.2583   -7.6081   -4.7459 H         1 PRO         0.0524
    106 H27        11.2836   -3.8381   -3.6219 H         1 ILE         0.1883
    107 H28         9.6841   -1.3686   -3.2848 H         1 ILE         0.0803
    108 H29        12.6337   -2.0436   -2.7056 H         1 ILE         0.0345
    109 H30        10.9176   -3.0671   -1.2234 H         1 ILE         0.0267
    110 H31        10.3088   -1.4250   -0.8238 H         1 ILE         0.0267
    111 H32        12.4513    0.3139   -3.4576 H         1 ILE         0.0235
    112 H33        12.8849    0.1977   -1.7183 H         1 ILE         0.0235
    113 H34        11.2062    0.6187   -2.1993 H         1 ILE         0.0235
    114 H35        11.8374   -2.2763    0.9656 H         1 ILE         0.0230
    115 H36        12.5418   -0.8357    0.1563 H         1 ILE         0.0230
    116 H37        13.1506   -2.4778   -0.2433 H         1 ILE         0.0230
    117 H38        10.4373   -0.1667   -7.4973 H         1 PRO         0.0802
    118 H39         8.9937    1.5697   -7.6471 H         1 PRO         0.0313
    119 H40        10.0668    2.6033   -6.6437 H         1 PRO         0.0313
    120 H41         7.6139    1.3110   -5.9087 H         1 PRO         0.0287
    121 H42         8.6833    2.3504   -4.9073 H         1 PRO         0.0287
    122 H43         9.2730    0.5272   -3.7021 H         1 PRO         0.0524
    123 H44         8.2873   -0.5275   -4.7711 H         1 PRO         0.0524
    124 H45        12.1830    0.1340   -8.4777 H         1 GLU         0.1883
    125 H46        14.7091    0.6499   -7.3388 H         1 GLU         0.0801
    126 H47        13.7756    1.3533  -10.0807 H         1 GLU         0.0330
    127 H48        14.2275   -0.2865   -9.5033 H         1 GLU         0.0330
    128 H49        16.4770    0.1621   -9.6897 H         1 GLU         0.0433
    129 H50        16.1897    1.9187   -9.9316 H         1 GLU         0.0433
    130 H51        12.0891    2.6610   -7.9655 H         1 GLU         0.1883
    131 H52        13.5624    5.1582   -7.5675 H         1 GLU         0.0801
    132 H53        10.5677    5.1557   -8.1279 H         1 GLU         0.0330
    133 H54        11.7746    5.1530   -9.4583 H         1 GLU         0.0330
    134 H55        12.7999    7.1131   -8.4967 H         1 GLU         0.0433
    135 H56        11.5370    7.1252   -7.2194 H         1 GLU         0.0433
    136 H57        13.8003    4.3725   -5.3852 H         1 ALA         0.1883
    137 H58        11.9904    5.7225   -3.5139 H         1 ALA         0.0797
    138 H59        11.4012    3.6832   -2.2373 H         1 ALA         0.0277
    139 H60        12.2386    2.6579   -3.4513 H         1 ALA         0.0277
    140 H61        10.7511    3.5558   -3.9069 H         1 ALA         0.0277
    141 H62        14.2098    3.2250   -4.4109 H         1 ALC         0.1883
    142 H63        15.9011    3.2895   -2.0628 H         1 ALC         0.0797
    143 H64        17.6018    2.1181   -3.3392 H         1 ALC         0.0277
    144 H65        16.6558    2.3818   -4.8432 H         1 ALC         0.0277
    145 H66        15.9741    1.3797   -3.5174 H         1 ALC         0.0277
    146 H67        16.5117    6.5970   -4.0703 H         1 GLU         0.1815
    147 H68        15.1684    5.5260   -4.2905 H         1 GLU         0.1815
@<TRIPOS>BOND
     1    1    2 ar 
     2    1    3 ar 
     3    1    4 1  
     4    4    5 1  
     5    5    6 1  
     6    6    7 2  
     7    6    8 am 
     8    8    9 1  
     9    9   10 1  
    10    9   12 1  
    11   10   11 2  
    12   10   20 am 
    13   12   13 1  
    14   13   14 ar 
    15   13   15 ar 
    16   14   16 ar 
    17   15   17 ar 
    18   16   18 ar 
    19   17   18 ar 
    20   18   19 1  
    21   20   21 1  
    22   21   22 1  
    23   21   24 1  
    24   22   23 2  
    25   22   29 am 
    26   24   25 1  
    27   25   26 1  
    28   26   27 ar 
    29   26   28 ar 
    30   29   30 1  
    31   29   35 1  
    32   30   31 1  
    33   30   33 1  
    34   31   32 2  
    35   31   36 am 
    36   33   34 1  
    37   34   35 1  
    38   36   37 1  
    39   37   38 1  
    40   37   40 1  
    41   38   39 2  
    42   38   44 am 
    43   40   41 1  
    44   40   42 1  
    45   41   43 1  
    46   44   45 1  
    47   44   50 1  
    48   45   46 1  
    49   45   48 1  
    50   46   47 2  
    51   46   51 am 
    52   48   49 1  
    53   49   50 1  
    54   51   52 1  
    55   52   53 1  
    56   52   55 1  
    57   53   54 2  
    58   53   60 am 
    59   55   56 1  
    60   56   57 1  
    61   57   58 ar 
    62   57   59 ar 
    63   60   61 1  
    64   61   62 1  
    65   61   64 1  
    66   62   63 2  
    67   62   69 am 
    68   64   65 1  
    69   65   66 1  
    70   66   67 ar 
    71   66   68 ar 
    72   69   70 1  
    73   70   71 1  
    74   70   73 1  
    75   71   72 2  
    76   71   74 am 
    77   74   75 1  
    78   75   76 1  
    79   75   78 1  
    80   76   77 2  
    81   76   79 am 
    82    4   80 1  
    83    4   81 1  
    84    5   82 1  
    85    5   83 1  
    86    8   84 1  
    87    9   85 1  
    88   12   86 1  
    89   12   87 1  
    90   14   88 1  
    91   15   89 1  
    92   16   90 1  
    93   17   91 1  
    94   19   92 1  
    95   20   93 1  
    96   21   94 1  
    97   24   95 1  
    98   24   96 1  
    99   25   97 1  
   100   25   98 1  
   101   30   99 1  
   102   33  100 1  
   103   33  101 1  
   104   34  102 1  
   105   34  103 1  
   106   35  104 1  
   107   35  105 1  
   108   36  106 1  
   109   37  107 1  
   110   40  108 1  
   111   41  109 1  
   112   41  110 1  
   113   42  111 1  
   114   42  112 1  
   115   42  113 1  
   116   43  114 1  
   117   43  115 1  
   118   43  116 1  
   119   45  117 1  
   120   48  118 1  
   121   48  119 1  
   122   49  120 1  
   123   49  121 1  
   124   50  122 1  
   125   50  123 1  
   126   51  124 1  
   127   52  125 1  
   128   55  126 1  
   129   55  127 1  
   130   56  128 1  
   131   56  129 1  
   132   60  130 1  
   133   61  131 1  
   134   64  132 1  
   135   64  133 1  
   136   65  134 1  
   137   65  135 1  
   138   69  136 1  
   139   70  137 1  
   140   73  138 1  
   141   73  139 1  
   142   73  140 1  
   143   74  141 1  
   144   75  142 1  
   145   78  143 1  
   146   78  144 1  
   147   78  145 1  
   148   79  146 1  
   149   79  147 1  
@<TRIPOS>SUBSTRUCTURE
     1 SIN         1

