5iza_ligand
  -I-interpret- 

101102  0  0  0  0  0  0  0  0999 V2000
   -8.4730  -10.0460    7.6280 C   0  0  0  0  0
   -8.5950  -11.2150    7.4120 O   0  0  0  0  0
   -8.7040   -9.0790    6.4970 C   0  0  0  0  0
   -8.1860   -9.6040    8.8630 N   0  0  0  0  0
   -7.5980  -10.4480    9.8650 C   0  0  0  0  0
   -8.8690  -10.5970   10.4890 C   0  0  0  0  0
   -8.9050  -11.7090   11.0990 O   0  0  0  0  0
  -10.0070   -9.9310   10.3750 N   0  0  0  0  0
  -11.2750  -10.4190   10.9610 C   0  0  0  0  0
  -11.3410  -10.3210   12.4860 C   0  0  0  0  0
  -10.5190   -9.6600   13.1080 O   0  0  0  0  0
  -12.3310  -10.9750   13.0690 N   0  0  0  0  0
  -12.5530  -11.0000   14.5250 C   0  0  0  0  0
  -12.9000  -12.4300   14.9330 C   0  0  0  0  0
  -13.2580  -13.2470   14.1010 O   0  0  0  0  0
  -13.6540  -10.0000   14.9400 C   0  0  0  0  0
  -14.9640  -10.2090   14.2120 C   0  0  0  0  0
  -16.0960   -9.3000   14.6410 C   0  0  0  0  0
  -17.1940   -9.4270   14.0580 O   0  0  0  0  0
  -15.9010   -8.4690   15.5440 O   0  0  0  0  0
  -12.8060  -12.7120   16.2270 N   0  0  0  0  0
  -13.0390  -14.0490   16.7280 C   0  0  0  0  0
  -13.4080  -14.0190   18.1820 C   0  0  0  0  0
  -13.1130  -13.0380   18.8930 O   0  0  0  0  0
  -11.8130  -14.9150   16.5350 C   0  0  0  0  0
  -14.0720  -15.0990   18.6130 N   0  0  0  0  0
  -14.3150  -15.3090   20.0540 C   0  0  0  0  0
  -13.0140  -15.6600   20.7570 C   0  0  0  0  0
  -12.0680  -16.0320   20.1310 O   0  0  0  0  0
  -15.3080  -16.4400   20.2430 C   0  0  0  0  0
  -16.7130  -16.1630   19.7280 C   0  0  0  0  0
  -17.5710  -17.4100   19.9660 C   0  0  0  0  0
  -17.3380  -14.9490   20.3960 C   0  0  0  0  0
  -13.0090  -15.5940   22.0860 N   0  0  0  0  0
  -11.8570  -15.9780   22.9090 C   0  0  0  0  0
  -11.6680  -17.4970   22.9180 C   0  0  0  0  0
  -12.5910  -18.2220   22.5620 O   0  0  0  0  0
  -12.0930  -15.4960   24.3350 C   0  0  0  0  0
  -10.5290  -18.0050   23.3930 N   0  0  0  0  0
  -10.4450  -19.4920   23.6570 C   0  0  0  0  0
   -9.5240  -19.9530   24.7840 C   0  0  0  0  0
   -8.5920  -19.2610   25.1630 O   0  0  0  0  0
  -10.0760  -20.2450   22.3910 C   0  0  0  0  0
   -8.8170  -19.7680   21.7480 C   0  0  0  0  0
   -8.7140  -18.8160   20.7830 C   0  0  0  0  0
   -7.4920  -20.2180   22.0220 C   0  0  0  0  0
   -7.4020  -18.6510   20.4240 N   0  0  0  0  0
   -6.6240  -19.4950   21.1740 C   0  0  0  0  0
   -6.9440  -21.1510   22.9150 C   0  0  0  0  0
   -5.2250  -19.6710   21.1920 C   0  0  0  0  0
   -5.5640  -21.3420   22.9170 C   0  0  0  0  0
   -4.7220  -20.6040   22.0540 C   0  0  0  0  0
   -9.7650  -21.2340   25.3540 N   0  0  0  0  0
   -8.0003   -9.2891    5.6916 H   0  0  0  0  0
   -9.7238   -9.1899    6.1284 H   0  0  0  0  0
   -8.5546   -8.0605    6.8553 H   0  0  0  0  0
   -8.3932   -8.6333    9.0980 H   0  0  0  0  0
   -6.7459  -10.0923   10.4442 H   0  0  0  0  0
   -7.0307  -11.3303    9.5686 H   0  0  0  0  0
  -10.0101   -9.0482    9.8640 H   0  0  0  0  0
  -11.3629  -11.4743   10.7029 H   0  0  0  0  0
  -12.0741   -9.7930   10.5641 H   0  0  0  0  0
  -12.9793  -11.4928   12.4757 H   0  0  0  0  0
  -11.6469  -10.6880   15.0443 H   0  0  0  0  0
  -13.2980   -8.9997   14.6936 H   0  0  0  0  0
  -13.8435  -10.1439   16.0037 H   0  0  0  0  0
  -15.2828  -11.2282   14.4304 H   0  0  0  0  0
  -14.7738   -9.9948   13.1603 H   0  0  0  0  0
  -17.1266  -10.1218   13.3990 H   0  0  0  0  0
  -12.5640  -11.9691   16.8827 H   0  0  0  0  0
  -13.8679  -14.4741   16.1620 H   0  0  0  0  0
  -11.5743  -14.9731   15.4730 H   0  0  0  0  0
  -10.9725  -14.4780   17.0742 H   0  0  0  0  0
  -12.0122  -15.9154   16.9192 H   0  0  0  0  0
  -14.4135  -15.7838   17.9386 H   0  0  0  0  0
  -14.7177  -14.3910   20.4819 H   0  0  0  0  0
  -15.3953  -16.6030   21.3172 H   0  0  0  0  0
  -14.9279  -17.2881   19.6735 H   0  0  0  0  0
  -16.6583  -15.9379   18.6629 H   0  0  0  0  0
  -17.1375  -18.2552   19.4314 H   0  0  0  0  0
  -17.6014  -17.6303   21.0331 H   0  0  0  0  0
  -18.5823  -17.2284   19.6023 H   0  0  0  0  0
  -17.3971  -15.1177   21.4712 H   0  0  0  0  0
  -16.7239  -14.0705   20.1980 H   0  0  0  0  0
  -18.3397  -14.7913   19.9961 H   0  0  0  0  0
  -13.8496  -15.2591   22.5568 H   0  0  0  0  0
  -10.9594  -15.5228   22.4905 H   0  0  0  0  0
  -12.2051  -14.4118   24.3368 H   0  0  0  0  0
  -12.9994  -15.9569   24.7276 H   0  0  0  0  0
  -11.2428  -15.7757   24.9571 H   0  0  0  0  0
   -9.7280  -17.4003   23.5751 H   0  0  0  0  0
  -11.4520  -19.7279   24.0009 H   0  0  0  0  0
  -10.8836  -20.0908   21.6754 H   0  0  0  0  0
   -9.9233  -21.2882   22.6676 H   0  0  0  0  0
   -9.5524  -18.2647   20.3572 H   0  0  0  0  0
   -7.5846  -21.7147   23.5932 H   0  0  0  0  0
   -4.5715  -19.0864   20.5445 H   0  0  0  0  0
   -5.1258  -22.0734   23.5960 H   0  0  0  0  0
   -3.6471  -20.7834   22.0768 H   0  0  0  0  0
   -9.1547  -21.5873   26.0910 H   0  0  0  0  0
  -10.5481  -21.7992   25.0257 H   0  0  0  0  0
  1  2  2  0  0  0
  1  3  1  0  0  0
  1  4  1  0  0  0
  4  5  1  0  0  0
  5  6  1  0  0  0
  6  7  2  0  0  0
  6  8  1  0  0  0
  8  9  1  0  0  0
  9 10  1  0  0  0
 10 11  2  0  0  0
 10 12  1  0  0  0
 12 13  1  0  0  0
 13 14  1  0  0  0
 13 16  1  0  0  0
 14 15  2  0  0  0
 14 21  1  0  0  0
 16 17  1  0  0  0
 17 18  1  0  0  0
 18 19  1  0  0  0
 18 20  2  0  0  0
 21 22  1  0  0  0
 22 23  1  0  0  0
 22 25  1  0  0  0
 23 24  2  0  0  0
 23 26  1  0  0  0
 26 27  1  0  0  0
 27 28  1  0  0  0
 27 30  1  0  0  0
 28 29  2  0  0  0
 28 34  1  0  0  0
 30 31  1  0  0  0
 31 32  1  0  0  0
 31 33  1  0  0  0
 34 35  1  0  0  0
 35 36  1  0  0  0
 35 38  1  0  0  0
 36 37  2  0  0  0
 36 39  1  0  0  0
 39 40  1  0  0  0
 40 41  1  0  0  0
 40 43  1  0  0  0
 41 42  2  0  0  0
 41 53  1  0  0  0
 43 44  1  0  0  0
 44 45  4  0  0  0
 44 46  4  0  0  0
 45 47  4  0  0  0
 46 48  4  0  0  0
 46 49  4  0  0  0
 47 48  4  0  0  0
 48 50  4  0  0  0
 49 51  4  0  0  0
 50 52  4  0  0  0
 51 52  4  0  0  0
  3 54  1  0  0  0
  3 55  1  0  0  0
  3 56  1  0  0  0
  4 57  1  0  0  0
  5 58  1  0  0  0
  5 59  1  0  0  0
  8 60  1  0  0  0
  9 61  1  0  0  0
  9 62  1  0  0  0
 12 63  1  0  0  0
 13 64  1  0  0  0
 16 65  1  0  0  0
 16 66  1  0  0  0
 17 67  1  0  0  0
 17 68  1  0  0  0
 19 69  1  0  0  0
 21 70  1  0  0  0
 22 71  1  0  0  0
 25 72  1  0  0  0
 25 73  1  0  0  0
 25 74  1  0  0  0
 26 75  1  0  0  0
 27 76  1  0  0  0
 30 77  1  0  0  0
 30 78  1  0  0  0
 31 79  1  0  0  0
 32 80  1  0  0  0
 32 81  1  0  0  0
 32 82  1  0  0  0
 33 83  1  0  0  0
 33 84  1  0  0  0
 33 85  1  0  0  0
 34 86  1  0  0  0
 35 87  1  0  0  0
 38 88  1  0  0  0
 38 89  1  0  0  0
 38 90  1  0  0  0
 39 91  1  0  0  0
 40 92  1  0  0  0
 43 93  1  0  0  0
 43 94  1  0  0  0
 45 95  1  0  0  0
 49 96  1  0  0  0
 50 97  1  0  0  0
 51 98  1  0  0  0
 52 99  1  0  0  0
 53100  1  0  0  0
 53101  1  0  0  0
M  END
$$$$
