### 
### Created by X-TOOL on Fri Nov  2 10:54:42 2018
### 

@<TRIPOS>MOLECULE
5iza_ligand
  101   102     1     0     0
SMALL
GAST_HUCK


@<TRIPOS>ATOM
      1 C          -8.4730  -10.0460    7.6280 C.2       1 ACE         0.1749
      2 O          -8.5950  -11.2150    7.4120 O.2       1 ACE        -0.3972
      3 CH3        -8.7040   -9.0790    6.4970 C.3       1 ACE         0.0258
      4 N          -8.1860   -9.6040    8.8630 N.am      1 ACE        -0.2685
      5 CA         -7.5980  -10.4480    9.8650 C.3       1 ACE         0.1200
      6 C          -8.8690  -10.5970   10.4890 C.2       1 ACE         0.2005
      7 O          -8.9050  -11.7090   11.0990 O.2       1 ACE        -0.3947
      8 N         -10.0070   -9.9310   10.3750 N.am      1 ACE        -0.2666
      9 CA        -11.2750  -10.4190   10.9610 C.3       1 ACE         0.1201
     10 C         -11.3410  -10.3210   12.4860 C.2       1 ACE         0.2007
     11 O         -10.5190   -9.6600   13.1080 O.2       1 ACE        -0.3947
     12 N         -12.3310  -10.9750   13.0690 N.am      1 ACE        -0.2639
     13 CA        -12.5530  -11.0000   14.5250 C.3       1 ACE         0.1324
     14 C         -12.9000  -12.4300   14.9330 C.2       1 ACE         0.2040
     15 O         -13.2580  -13.2470   14.1010 O.2       1 ACE        -0.3944
     16 CB        -13.6540  -10.0000   14.9400 C.3       1 ACE        -0.0008
     17 CG        -14.9640  -10.2090   14.2120 C.3       1 ACE         0.0044
     18 CD        -16.0960   -9.3000   14.6410 C.2       1 ACE         0.0350
     19 OE1       -17.1940   -9.4270   14.0580 O.co2     1 ACE        -0.5690
     20 OE2       -15.9010   -8.4690   15.5440 O.co2     1 ACE        -0.5690
     21 N         -12.8060  -12.7120   16.2270 N.am      1 ACE        -0.2640
     22 CA        -13.0390  -14.0490   16.7280 C.3       1 ACE         0.1282
     23 C         -13.4080  -14.0190   18.1820 C.2       1 ACE         0.2036
     24 O         -13.1130  -13.0380   18.8930 O.2       1 ACE        -0.3944
     25 CB        -11.8130  -14.9150   16.5350 C.3       1 ACE        -0.0244
     26 N         -14.0720  -15.0990   18.6130 N.am      1 ACE        -0.2637
     27 CA        -14.3150  -15.3090   20.0540 C.3       1 ACE         0.1312
     28 C         -13.0140  -15.6600   20.7570 C.2       1 ACE         0.2039
     29 O         -12.0680  -16.0320   20.1310 O.2       1 ACE        -0.3944
     30 CB        -15.3080  -16.4400   20.2430 C.3       1 ACE        -0.0101
     31 CG        -16.7130  -16.1630   19.7280 C.3       1 ACE        -0.0425
     32 CD1       -17.5710  -17.4100   19.9660 C.3       1 ACE        -0.0625
     33 CD2       -17.3380  -14.9490   20.3960 C.3       1 ACE        -0.0625
     34 N         -13.0090  -15.5940   22.0860 N.am      1 ACE        -0.2640
     35 CA        -11.8570  -15.9780   22.9090 C.3       1 ACE         0.1282
     36 C         -11.6680  -17.4970   22.9180 C.2       1 ACE         0.2037
     37 O         -12.5910  -18.2220   22.5620 O.2       1 ACE        -0.3944
     38 CB        -12.0930  -15.4960   24.3350 C.3       1 ACE        -0.0244
     39 N         -10.5290  -18.0050   23.3930 N.am      1 ACE        -0.2627
     40 CA        -10.4450  -19.4920   23.6570 C.3       1 ACE         0.1348
     41 C          -9.5240  -19.9530   24.7840 C.2       1 ACE         0.2004
     42 O          -8.5920  -19.2610   25.1630 O.2       1 ACE        -0.3946
     43 CB        -10.0760  -20.2450   22.3910 C.3       1 ACE         0.0042
     44 CG         -8.8170  -19.7680   21.7480 C.2       1 ACE        -0.0418
     45 CD1        -8.7140  -18.8160   20.7830 C.2       1 ACE         0.0167
     46 CD2        -7.4920  -20.2180   22.0220 C.ar      1 ACE        -0.0214
     47 NE1        -7.4020  -18.6510   20.4240 N.pl3     1 ACE        -0.2890
     48 CE2        -6.6240  -19.4950   21.1740 C.ar      1 ACE         0.0603
     49 CE3        -6.9440  -21.1510   22.9150 C.ar      1 ACE        -0.0747
     50 CZ2        -5.2250  -19.6710   21.1920 C.ar      1 ACE        -0.0443
     51 CZ3        -5.5640  -21.3420   22.9170 C.ar      1 ACE        -0.0792
     52 CH2        -4.7220  -20.6040   22.0540 C.ar      1 ACE        -0.0768
     53 N          -9.7650  -21.2340   25.3540 N.am      1 ACE        -0.2989
     54 H1         -8.5535   -8.0507    6.8573 H         1 ACE         0.0467
     55 H2         -9.7329   -9.1899    6.1241 H         1 ACE         0.0467
     56 H3         -7.9943   -9.2899    5.6835 H         1 ACE         0.0467
     57 H4         -8.3891   -8.6523    9.0934 H         1 ACE         0.1880
     58 H5         -6.8470   -9.9445   10.4914 H         1 ACE         0.0763
     59 H6         -7.1785  -11.3858    9.4719 H         1 ACE         0.0763
     60 H7        -10.0100   -9.0655    9.8740 H         1 ACE         0.1881
     61 H8        -11.4022  -11.4742   10.6776 H         1 ACE         0.0763
     62 H9        -12.1000   -9.8246   10.5414 H         1 ACE         0.0763
     63 H10       -12.9666  -11.4826   12.4873 H         1 ACE         0.1883
     64 H11       -11.6202  -10.7078   15.0295 H         1 ACE         0.0801
     65 H12       -13.2969   -8.9813   14.7287 H         1 ACE         0.0330
     66 H13       -13.8344  -10.1088   16.0196 H         1 ACE         0.0330
     67 H14       -15.2823  -11.2489   14.3773 H         1 ACE         0.0433
     68 H15       -14.7859  -10.0462   13.1388 H         1 ACE         0.0433
     69 H16       -12.5688  -11.9837   16.8699 H         1 ACE         0.1883
     70 H17       -13.8734  -14.4902   16.1632 H         1 ACE         0.0797
     71 H18       -12.0128  -15.9249   16.9224 H         1 ACE         0.0277
     72 H19       -10.9640  -14.4751   17.0788 H         1 ACE         0.0277
     73 H20       -11.5711  -14.9745   15.4636 H         1 ACE         0.0277
     74 H21       -14.4068  -15.7704   17.9518 H         1 ACE         0.1883
     75 H22       -14.7257  -14.3864   20.4900 H         1 ACE         0.0800
     76 H23       -15.3768  -16.6559   21.3194 H         1 ACE         0.0315
     77 H24       -14.9207  -17.3243   19.7157 H         1 ACE         0.0315
     78 H25       -16.6583  -15.9692   18.6466 H         1 ACE         0.0298
     79 H26       -18.5920  -17.2280   19.5993 H         1 ACE         0.0232
     80 H27       -17.6025  -17.6334   21.0426 H         1 ACE         0.0232
     81 H28       -17.1346  -18.2638   19.4269 H         1 ACE         0.0232
     82 H29       -16.7084  -14.0656   20.2140 H         1 ACE         0.0232
     83 H30       -17.4168  -15.1262   21.4788 H         1 ACE         0.0232
     84 H31       -18.3410  -14.7766   19.9787 H         1 ACE         0.0232
     85 H32       -13.8331  -15.2657   22.5476 H         1 ACE         0.1883
     86 H33       -10.9500  -15.5046   22.5050 H         1 ACE         0.0797
     87 H34       -11.2356  -15.7777   24.9639 H         1 ACE         0.0277
     88 H35       -13.0075  -15.9605   24.7325 H         1 ACE         0.0277
     89 H36       -12.2063  -14.4019   24.3382 H         1 ACE         0.0277
     90 H37        -9.7437  -17.4121   23.5715 H         1 ACE         0.1884
     91 H38       -11.4605  -19.8032   23.9434 H         1 ACE         0.0815
     92 H39       -10.8979  -20.1317   21.6688 H         1 ACE         0.0397
     93 H40        -9.9541  -21.3086   22.6439 H         1 ACE         0.0397
     94 H41        -9.5516  -18.2652   20.3576 H         1 ACE         0.0795
     95 H42        -7.0559  -17.9982   19.7064 H         1 ACE         0.2216
     96 H43        -7.5811  -21.7116   23.5894 H         1 ACE         0.0540
     97 H44        -4.5751  -19.0896   20.5481 H         1 ACE         0.0541
     98 H45        -5.1282  -22.0694   23.5923 H         1 ACE         0.0510
     99 H46        -3.6530  -20.7824   22.0767 H         1 ACE         0.0530
    100 H47        -9.1823  -21.5696   26.0941 H         1 ACE         0.1815
    101 H48       -10.5171  -21.7989   25.0145 H         1 ACE         0.1815
@<TRIPOS>BOND
     1    1    2 2  
     2    1    3 1  
     3    1    4 am 
     4    4    5 1  
     5    5    6 1  
     6    6    7 2  
     7    6    8 am 
     8    8    9 1  
     9    9   10 1  
    10   10   11 2  
    11   10   12 am 
    12   12   13 1  
    13   13   14 1  
    14   13   16 1  
    15   14   15 2  
    16   14   21 am 
    17   16   17 1  
    18   17   18 1  
    19   18   19 ar 
    20   18   20 ar 
    21   21   22 1  
    22   22   23 1  
    23   22   25 1  
    24   23   24 2  
    25   23   26 am 
    26   26   27 1  
    27   27   28 1  
    28   27   30 1  
    29   28   29 2  
    30   28   34 am 
    31   30   31 1  
    32   31   32 1  
    33   31   33 1  
    34   34   35 1  
    35   35   36 1  
    36   35   38 1  
    37   36   37 2  
    38   36   39 am 
    39   39   40 1  
    40   40   41 1  
    41   40   43 1  
    42   41   42 2  
    43   41   53 am 
    44   43   44 1  
    45   44   45 2  
    46   44   46 1  
    47   45   47 1  
    48   46   48 ar 
    49   46   49 ar 
    50   47   48 1  
    51   48   50 ar 
    52   49   51 ar 
    53   50   52 ar 
    54   51   52 ar 
    55    3   54 1  
    56    3   55 1  
    57    3   56 1  
    58    4   57 1  
    59    5   58 1  
    60    5   59 1  
    61    8   60 1  
    62    9   61 1  
    63    9   62 1  
    64   12   63 1  
    65   13   64 1  
    66   16   65 1  
    67   16   66 1  
    68   17   67 1  
    69   17   68 1  
    70   21   69 1  
    71   22   70 1  
    72   25   71 1  
    73   25   72 1  
    74   25   73 1  
    75   26   74 1  
    76   27   75 1  
    77   30   76 1  
    78   30   77 1  
    79   31   78 1  
    80   32   79 1  
    81   32   80 1  
    82   32   81 1  
    83   33   82 1  
    84   33   83 1  
    85   33   84 1  
    86   34   85 1  
    87   35   86 1  
    88   38   87 1  
    89   38   88 1  
    90   38   89 1  
    91   39   90 1  
    92   40   91 1  
    93   43   92 1  
    94   43   93 1  
    95   45   94 1  
    96   47   95 1  
    97   49   96 1  
    98   50   97 1  
    99   51   98 1  
   100   52   99 1  
   101   53  100 1  
   102   53  101 1  
@<TRIPOS>SUBSTRUCTURE
     1 ACE         1

