6gnm_ligand
  -I-interpret- 

 28 29  0  0  0  0  0  0  0  0999 V2000
  -14.9260   -1.8060  -40.9500 O   0  0  0  0  0
  -13.9110   -2.2710  -40.1730 C   0  0  0  0  0
  -12.6100   -2.2430  -40.6600 C   0  0  0  0  0
  -11.5670   -2.7230  -39.8800 C   0  0  0  0  0
  -10.2480   -2.7030  -40.3670 O   0  0  0  0  0
  -11.8250   -3.2180  -38.6120 C   0  0  0  0  0
  -13.1240   -3.2400  -38.1270 C   0  0  0  0  0
  -14.1760   -2.7710  -38.9030 C   0  0  0  0  0
  -15.5850   -2.8050  -38.3470 C   0  0  0  0  0
  -15.8680   -2.0960  -37.3990 O   0  0  0  0  0
  -16.6450   -3.7140  -38.9400 C   0  0  0  0  0
  -16.2940   -4.9040  -39.5610 C   0  0  0  0  0
  -17.2650   -5.7350  -40.0980 C   0  0  0  0  0
  -18.6010   -5.3790  -40.0160 C   0  0  0  0  0
  -19.5910   -6.2170  -40.5610 O   0  0  0  0  0
  -18.9600   -4.1920  -39.3970 C   0  0  0  0  0
  -17.9860   -3.3620  -38.8610 C   0  0  0  0  0
  -18.3480   -2.1970  -38.2520 O   0  0  0  0  0
  -15.7561   -1.8927  -40.4757 H   0  0  0  0  0
  -12.4085   -1.8442  -41.6542 H   0  0  0  0  0
   -9.6578   -3.0689  -39.7042 H   0  0  0  0  0
  -11.0068   -3.5902  -37.9955 H   0  0  0  0  0
  -13.3211   -3.6288  -37.1280 H   0  0  0  0  0
  -15.2439   -5.1885  -39.6273 H   0  0  0  0  0
  -16.9775   -6.6673  -40.5841 H   0  0  0  0  0
  -20.4552   -5.8240  -40.4185 H   0  0  0  0  0
  -20.0108   -3.9097  -39.3311 H   0  0  0  0  0
  -19.3030   -2.1045  -38.2826 H   0  0  0  0  0
  1  2  1  0  0  0
  2  3  4  0  0  0
  2  8  4  0  0  0
  3  4  4  0  0  0
  4  5  1  0  0  0
  4  6  4  0  0  0
  6  7  4  0  0  0
  7  8  4  0  0  0
  8  9  1  0  0  0
  9 10  2  0  0  0
  9 11  1  0  0  0
 11 12  4  0  0  0
 11 17  4  0  0  0
 12 13  4  0  0  0
 13 14  4  0  0  0
 14 15  1  0  0  0
 14 16  4  0  0  0
 16 17  4  0  0  0
 17 18  1  0  0  0
  1 19  1  0  0  0
  3 20  1  0  0  0
  5 21  1  0  0  0
  6 22  1  0  0  0
  7 23  1  0  0  0
 12 24  1  0  0  0
 13 25  1  0  0  0
 15 26  1  0  0  0
 16 27  1  0  0  0
 18 28  1  0  0  0
M  END
$$$$
