2h5j_ligand
  -I-interpret- 

 69 68  0  0  0  0  0  0  0  0999 V2000
   22.4020   14.2030   45.8600 C   0  0  0  0  0
   22.3930   13.0010   45.5760 O   0  0  0  0  0
   22.6150   14.6460   47.2930 C   0  0  0  0  0
   22.2360   15.1710   44.9720 N   0  0  0  0  0
   21.9310   14.9550   43.5610 C   0  0  0  0  0
   23.1890   14.5770   42.7970 C   0  0  0  0  0
   24.1860   15.3030   42.7840 O   0  0  0  0  0
   21.2910   16.1970   42.9430 C   0  0  0  0  0
   19.8820   16.5220   43.3830 C   0  0  0  0  0
   19.0930   15.6260   43.7700 O   0  0  0  0  0
   19.5120   17.7220   43.3410 O   0  0  0  0  0
   23.2070   13.4220   42.1350 N   0  0  0  0  0
   24.4020   13.0240   41.3920 C   0  0  0  0  0
   23.9920   12.6330   39.9740 C   0  0  0  0  0
   22.7830   12.6180   39.7350 O   0  0  0  0  0
   25.0940   11.8510   42.0790 C   0  0  0  0  0
   25.3310   12.0980   43.5670 C   0  0  0  0  0
   25.9940   10.6600   44.4260 S   0  0  0  0  0
   27.7550   10.9320   44.2010 C   0  0  0  0  0
   24.9340   12.3070   39.1180 N   0  0  0  0  0
   24.6480   11.9790   37.7290 C   0  0  0  0  0
   24.9350   10.5090   37.4330 C   0  0  0  0  0
   25.9290    9.9630   37.9220 O   0  0  0  0  0
   25.4850   12.8320   36.7690 C   0  0  0  0  0
   25.2920   14.3280   36.9080 C   0  0  0  0  0
   26.2310   14.9670   37.9170 C   0  0  0  0  0
   27.4240   14.6830   37.9700 O   0  0  0  0  0
   25.6890   15.8560   38.7390 N   0  0  0  0  0
   24.0720    9.9110   36.6260 N   0  0  0  0  0
   24.2150    8.5530   36.1210 C   0  0  0  0  0
   24.5950    8.5140   34.6730 C   0  0  0  0  0
   25.2810    7.4560   34.0890 O   0  0  0  0  0
   22.8820    7.8030   36.2590 C   0  0  0  0  0
   22.7160    7.0770   37.5680 C   0  0  0  0  0
   23.7430    6.8270   38.2350 O   0  0  0  0  0
   21.5590    6.7690   37.9150 O   0  0  0  0  0
   21.8245   14.2343   47.9205 H   0  0  0  0  0
   23.5827   14.2867   47.6430 H   0  0  0  0  0
   22.5904   15.7346   47.3429 H   0  0  0  0  0
   22.3275   16.1338   45.2962 H   0  0  0  0  0
   21.2181   14.1333   43.4925 H   0  0  0  0  0
   21.2351   16.0054   41.8714 H   0  0  0  0  0
   21.9064   17.0404   43.2563 H   0  0  0  0  0
   20.2354   18.2678   43.0242 H   0  0  0  0  0
   22.3874   12.8149   42.1461 H   0  0  0  0  0
   25.1025   13.8585   41.3589 H   0  0  0  0  0
   26.0648   11.7095   41.6039 H   0  0  0  0  0
   24.4485   10.9779   41.9828 H   0  0  0  0  0
   24.3693   12.3397   44.0197 H   0  0  0  0  0
   26.0607   12.9027   43.6568 H   0  0  0  0  0
   27.9849   10.9533   43.1357 H   0  0  0  0  0
   28.0352   11.8832   44.6536 H   0  0  0  0  0
   28.3100   10.1240   44.6776 H   0  0  0  0  0
   25.9019   12.2829   39.4388 H   0  0  0  0  0
   23.5886   12.1851   37.5763 H   0  0  0  0  0
   25.1729   12.5669   35.7588 H   0  0  0  0  0
   26.5311   12.6271   36.9965 H   0  0  0  0  0
   24.2727   14.4967   37.2554 H   0  0  0  0  0
   25.4987   14.7774   35.9367 H   0  0  0  0  0
   26.2668   16.3231   39.4378 H   0  0  0  0  0
   24.6945   16.0724   38.6722 H   0  0  0  0  0
   23.2485   10.4394   36.3377 H   0  0  0  0  0
   25.0061    8.0885   36.7097 H   0  0  0  0  0
   25.2989    9.3414   34.5826 H   0  0  0  0  0
   23.6296    8.4882   34.1675 H   0  0  0  0  0
   25.4184    7.6407   33.1570 H   0  0  0  0  0
   22.8512    7.0530   35.4687 H   0  0  0  0  0
   22.0868    8.5461   36.1999 H   0  0  0  0  0
   24.5143    7.1582   37.7691 H   0  0  0  0  0
  1  2  2  0  0  0
  1  3  1  0  0  0
  1  4  1  0  0  0
  4  5  1  0  0  0
  5  6  1  0  0  0
  5  8  1  0  0  0
  6  7  2  0  0  0
  6 12  1  0  0  0
  8  9  1  0  0  0
  9 10  2  0  0  0
  9 11  1  0  0  0
 12 13  1  0  0  0
 13 14  1  0  0  0
 13 16  1  0  0  0
 14 15  2  0  0  0
 14 20  1  0  0  0
 16 17  1  0  0  0
 17 18  1  0  0  0
 18 19  1  0  0  0
 20 21  1  0  0  0
 21 22  1  0  0  0
 21 24  1  0  0  0
 22 23  2  0  0  0
 22 29  1  0  0  0
 24 25  1  0  0  0
 25 26  1  0  0  0
 26 27  2  0  0  0
 26 28  1  0  0  0
 29 30  1  0  0  0
 30 31  1  0  0  0
 30 33  1  0  0  0
 31 32  1  0  0  0
 33 34  1  0  0  0
 34 35  1  0  0  0
 34 36  2  0  0  0
  3 37  1  0  0  0
  3 38  1  0  0  0
  3 39  1  0  0  0
  4 40  1  0  0  0
  5 41  1  0  0  0
  8 42  1  0  0  0
  8 43  1  0  0  0
 11 44  1  0  0  0
 12 45  1  0  0  0
 13 46  1  0  0  0
 16 47  1  0  0  0
 16 48  1  0  0  0
 17 49  1  0  0  0
 17 50  1  0  0  0
 19 51  1  0  0  0
 19 52  1  0  0  0
 19 53  1  0  0  0
 20 54  1  0  0  0
 21 55  1  0  0  0
 24 56  1  0  0  0
 24 57  1  0  0  0
 25 58  1  0  0  0
 25 59  1  0  0  0
 28 60  1  0  0  0
 28 61  1  0  0  0
 29 62  1  0  0  0
 30 63  1  0  0  0
 31 64  1  0  0  0
 31 65  1  0  0  0
 32 66  1  0  0  0
 33 67  1  0  0  0
 33 68  1  0  0  0
 35 69  1  0  0  0
M  END
$$$$
