2bvs_ligand
  -I-interpret- 

 68 69  0  0  0  0  0  0  0  0999 V2000
   16.6210   -9.7900   12.1740 C   0  0  0  0  0
   15.7030   -9.7780   13.2410 C   0  0  0  0  0
   15.7260  -10.7940   14.2190 C   0  0  0  0  0
   16.6740  -11.8330   14.1330 C   0  0  0  0  0
   17.5930  -11.8410   13.0550 C   0  0  0  0  0
   17.5680  -10.8250   12.0790 C   0  0  0  0  0
   16.5840   -8.5420   10.9940 Cl  0  0  0  0  0
   16.6710  -13.0820   15.3710 S   0  0  0  0  0
   17.0080  -14.7470   14.7410 C   0  0  0  0  0
   15.7190  -15.4880   14.4200 C   0  0  0  0  0
   15.8130  -16.6290   14.0220 O   0  0  0  0  0
   14.4450  -14.9320   14.5500 N   0  0  0  0  0
   13.2030  -15.6690   14.2030 C   0  0  0  0  0
   12.4590  -16.0770   15.5000 C   0  0  0  0  0
   13.1660  -17.0480   16.4530 C   0  0  0  0  0
   13.5740  -16.5970   17.7320 C   0  0  0  0  0
   14.2310  -17.4810   18.6310 C   0  0  0  0  0
   14.4930  -18.8370   18.2580 C   0  0  0  0  0
   14.0800  -19.2740   16.9750 C   0  0  0  0  0
   13.4230  -18.3900   16.0790 C   0  0  0  0  0
   15.1560  -19.7960   19.1220 N   0  0  0  0  0
   15.6570  -19.6190   20.4300 C   0  0  0  0  0
   15.5710  -18.4810   21.0560 N   0  0  0  0  0
   16.2610  -20.6960   21.0660 N   0  0  0  0  0
   12.3400  -14.7430   13.3660 C   0  0  0  0  0
   12.6940  -13.5860   13.2130 O   0  0  0  0  0
   11.2030  -15.1990   12.7330 N   0  0  0  0  0
   10.3850  -14.3800   11.8430 C   0  0  0  0  0
    8.9150  -14.8090   11.8030 C   0  0  0  0  0
    8.4440  -15.2660   13.0710 O   0  0  0  0  0
    8.6550  -14.3170   14.1150 C   0  0  0  0  0
    8.2290  -14.8570   15.4900 C   0  0  0  0  0
    7.0880  -14.1600   15.9790 O   0  0  0  0  0
    7.4120  -13.3220   17.0840 C   0  0  0  0  0
    8.7960  -12.7250   16.9150 C   0  0  0  0  0
    9.3300  -12.7460   15.8240 O   0  0  0  0  0
    9.4690  -12.1760   17.9950 N   0  0  0  0  0
   14.9678   -8.9764   13.3121 H   0  0  0  0  0
   15.0106  -10.7755   15.0412 H   0  0  0  0  0
   18.3280  -12.6424   12.9797 H   0  0  0  0  0
   18.2799  -10.8413   11.2537 H   0  0  0  0  0
   17.5475  -15.3049   15.5064 H   0  0  0  0  0
   17.5949  -14.6598   13.8267 H   0  0  0  0  0
   14.3635  -13.9770   14.8989 H   0  0  0  0  0
   13.4318  -16.5766   13.6445 H   0  0  0  0  0
   11.5599  -16.5967   15.1689 H   0  0  0  0  0
   12.3323  -15.1540   16.0658 H   0  0  0  0  0
   13.3831  -15.5658   18.0290 H   0  0  0  0  0
   14.5379  -17.1223   19.6135 H   0  0  0  0  0
   14.2694  -20.3036   16.6715 H   0  0  0  0  0
   13.1141  -18.7465   15.0963 H   0  0  0  0  0
   15.2771  -20.7294   18.7290 H   0  0  0  0  0
   15.1305  -17.6810   20.6017 H   0  0  0  0  0
   16.6298  -20.5889   22.0109 H   0  0  0  0  0
   16.3357  -21.5940   20.5881 H   0  0  0  0  0
   10.9168  -16.1644   12.8959 H   0  0  0  0  0
   10.7866  -14.4875   10.8354 H   0  0  0  0  0
   10.4188  -13.3559   12.2147 H   0  0  0  0  0
    8.8240  -15.6319   11.0940 H   0  0  0  0  0
    8.3195  -13.9425   11.5155 H   0  0  0  0  0
    8.0527  -13.4351   13.8969 H   0  0  0  0  0
    9.7205  -14.0910   14.1560 H   0  0  0  0  0
    9.0517  -14.7176   16.1913 H   0  0  0  0  0
    7.9778  -15.9129   15.3892 H   0  0  0  0  0
    7.3941  -13.9184   17.9962 H   0  0  0  0  0
    6.6833  -12.5133   17.1390 H   0  0  0  0  0
   10.4062  -11.7931   17.8708 H   0  0  0  0  0
    9.0271  -12.1548   18.9141 H   0  0  0  0  0
  1  2  4  0  0  0
  1  6  4  0  0  0
  1  7  1  0  0  0
  2  3  4  0  0  0
  3  4  4  0  0  0
  4  5  4  0  0  0
  4  8  1  0  0  0
  5  6  4  0  0  0
  8  9  1  0  0  0
  9 10  1  0  0  0
 10 11  2  0  0  0
 10 12  1  0  0  0
 12 13  1  0  0  0
 13 14  1  0  0  0
 13 25  1  0  0  0
 14 15  1  0  0  0
 15 16  4  0  0  0
 15 20  4  0  0  0
 16 17  4  0  0  0
 17 18  4  0  0  0
 18 19  4  0  0  0
 18 21  1  0  0  0
 19 20  4  0  0  0
 21 22  1  0  0  0
 22 23  2  0  0  0
 22 24  1  0  0  0
 25 26  2  0  0  0
 25 27  1  0  0  0
 27 28  1  0  0  0
 28 29  1  0  0  0
 29 30  1  0  0  0
 30 31  1  0  0  0
 31 32  1  0  0  0
 32 33  1  0  0  0
 33 34  1  0  0  0
 34 35  1  0  0  0
 35 36  2  0  0  0
 35 37  1  0  0  0
  2 38  1  0  0  0
  3 39  1  0  0  0
  5 40  1  0  0  0
  6 41  1  0  0  0
  9 42  1  0  0  0
  9 43  1  0  0  0
 12 44  1  0  0  0
 13 45  1  0  0  0
 14 46  1  0  0  0
 14 47  1  0  0  0
 16 48  1  0  0  0
 17 49  1  0  0  0
 19 50  1  0  0  0
 20 51  1  0  0  0
 21 52  1  0  0  0
 23 53  1  0  0  0
 24 54  1  0  0  0
 24 55  1  0  0  0
 27 56  1  0  0  0
 28 57  1  0  0  0
 28 58  1  0  0  0
 29 59  1  0  0  0
 29 60  1  0  0  0
 31 61  1  0  0  0
 31 62  1  0  0  0
 32 63  1  0  0  0
 32 64  1  0  0  0
 34 65  1  0  0  0
 34 66  1  0  0  0
 37 67  1  0  0  0
 37 68  1  0  0  0
M  END
$$$$
