3g42_ligand
  -I-interpret- 

 47 49  0  0  0  0  0  0  0  0999 V2000
   56.1730   33.8870   99.6560 C   0  0  0  0  0
   56.2650   33.2780  100.9540 C   0  0  0  0  0
   55.2550   32.3460  101.4160 C   0  0  0  0  0
   54.1450   32.0320  100.5520 C   0  0  0  0  0
   54.0660   32.6450   99.2580 C   0  0  0  0  0
   55.0700   33.5690   98.8080 C   0  0  0  0  0
   54.0920   32.5660  107.2620 S   0  0  0  0  0
   52.4070   33.1170  107.4550 C   0  0  0  0  0
   51.3710   32.1540  107.6780 C   0  0  0  0  0
   50.0210   32.5950  107.8320 C   0  0  0  0  0
   49.7080   33.9880  107.7660 C   0  0  0  0  0
   50.7540   34.9670  107.5410 C   0  0  0  0  0
   52.1110   34.5270  107.3850 C   0  0  0  0  0
   48.3410   34.3300  107.9240 O   0  0  0  0  0
   47.9380   35.1790  109.0130 C   0  0  0  0  0
   48.0140   34.4930  110.3260 C   0  0  0  0  0
   48.0940   33.9860  111.4000 C   0  0  0  0  0
   54.9420   33.5390  107.8800 O   0  0  0  0  0
   54.1780   31.2360  107.8120 O   0  0  0  0  0
   57.1980   33.3900  101.9730 N   0  0  0  0  0
   56.8380   32.6060  103.0180 C   0  0  0  0  0
   55.6390   31.9210  102.7590 C   0  0  0  0  0
   54.9230   30.9430  103.7130 C   0  0  0  0  0
   53.8490   31.5800  104.6630 C   0  0  0  0  0
   52.7730   32.2770  103.8560 C   0  0  0  0  0
   54.4980   32.4920  105.6450 N   0  0  0  0  0
   52.8860   33.4840  103.6660 O   0  0  0  0  0
   51.8520   31.6040  103.3960 O   0  0  0  0  0
   52.9310   32.3210   98.3790 C   0  0  0  0  0
   56.9394   34.5862   99.3216 H   0  0  0  0  0
   53.3731   31.3354  100.8790 H   0  0  0  0  0
   54.9895   34.0259   97.8216 H   0  0  0  0  0
   51.6108   31.0920  107.7299 H   0  0  0  0  0
   49.2274   31.8671  108.0003 H   0  0  0  0  0
   50.5114   36.0285  107.4908 H   0  0  0  0  0
   52.9089   35.2500  107.2156 H   0  0  0  0  0
   46.9013   35.4714  108.8457 H   0  0  0  0  0
   48.6134   36.0341  109.0406 H   0  0  0  0  0
   57.4072   32.5179  103.9434 H   0  0  0  0  0
   55.6941   30.5221  104.3582 H   0  0  0  0  0
   54.3921   30.2303  103.0819 H   0  0  0  0  0
   53.3618   30.7880  105.2318 H   0  0  0  0  0
   55.2365   33.1098  105.3085 H   0  0  0  0  0
   51.9591   30.6893  103.6671 H   0  0  0  0  0
   52.9258   31.2504   98.1741 H   0  0  0  0  0
   52.0001   32.6025   98.8711 H   0  0  0  0  0
   53.0294   32.8709   97.4430 H   0  0  0  0  0
  2  1  4  0  0  0
  1  6  4  0  0  0
  3  2  4  0  0  0
 20  2  4  0  0  0
  3  4  4  0  0  0
 22  3  4  0  0  0
  4  5  4  0  0  0
  5  6  4  0  0  0
  5 29  1  0  0  0
  7  8  1  0  0  0
  7 18  2  0  0  0
  7 19  2  0  0  0
 26  7  1  0  0  0
  8  9  4  0  0  0
  8 13  4  0  0  0
  9 10  4  0  0  0
 10 11  4  0  0  0
 12 11  4  0  0  0
 11 14  1  0  0  0
 13 12  4  0  0  0
 14 15  1  0  0  0
 15 16  1  0  0  0
 16 17  3  0  0  0
 21 20  4  0  0  0
 22 21  4  0  0  0
 23 22  1  0  0  0
 24 23  1  0  0  0
 24 25  1  0  0  0
 24 26  1  0  0  0
 25 27  2  0  0  0
 25 28  1  0  0  0
  1 30  1  0  0  0
  4 31  1  0  0  0
  6 32  1  0  0  0
  9 33  1  0  0  0
 10 34  1  0  0  0
 12 35  1  0  0  0
 13 36  1  0  0  0
 15 37  1  0  0  0
 15 38  1  0  0  0
 21 39  1  0  0  0
 23 40  1  0  0  0
 23 41  1  0  0  0
 24 42  1  0  0  0
 26 43  1  0  0  0
 28 44  1  0  0  0
 29 45  1  0  0  0
 29 46  1  0  0  0
 29 47  1  0  0  0
M  END
$$$$
