6fh6_ligand
  -I-interpret- 

 30 30  0  0  0  0  0  0  0  0999 V2000
  -24.1290  -10.8480    0.9240 C   0  0  0  0  0
  -26.0760   -9.2130    0.9720 C   0  0  0  0  0
  -26.5770   -7.7740    0.9870 C   0  0  0  0  0
  -25.6220   -6.6430    0.9890 C   0  0  0  0  0
  -24.1620   -6.9370    0.9590 C   0  0  0  0  0
  -23.6430   -8.3720    0.9380 C   0  0  0  0  0
  -28.0500   -7.4450    1.0270 C   0  0  0  0  0
  -29.8300   -5.8250    1.8290 C   0  0  0  0  0
  -29.9670   -4.9350    3.0620 C   0  0  0  0  0
  -24.6150   -9.4820    0.9440 N   0  0  0  0  0
  -28.4410   -6.2260    1.7130 N   0  0  0  0  0
  -31.1330   -5.3110    3.8340 N   0  3  0  0  0
  -22.4790   -8.5930    0.9160 O   0  0  0  0  0
  -28.8320   -8.1830    0.5310 O   0  0  0  0  0
  -23.5379  -11.0088    0.0224 H   0  0  0  0  0
  -23.5089  -11.0246    1.8029 H   0  0  0  0  0
  -24.9762  -11.5338    0.9317 H   0  0  0  0  0
  -26.4501   -9.6252    0.0349 H   0  0  0  0  0
  -26.4153   -9.6328    1.9190 H   0  0  0  0  0
  -25.9805   -5.6139    1.0120 H   0  0  0  0  0
  -23.7951   -6.5395    1.9053 H   0  0  0  0  0
  -23.8312   -6.5247    0.0057 H   0  0  0  0  0
  -30.1389   -5.2802    0.9369 H   0  0  0  0  0
  -30.4671   -6.7038    1.9280 H   0  0  0  0  0
  -30.0752   -3.8993    2.7401 H   0  0  0  0  0
  -29.0790   -5.0523    3.6831 H   0  0  0  0  0
  -27.7185   -5.6354    2.1247 H   0  0  0  0  0
  -31.2072   -4.7062    4.6520 H   0  0  0  0  0
  -31.9683   -5.2092    3.2575 H   0  0  0  0  0
  -31.0419   -6.2815    4.1344 H   0  0  0  0  0
 10  1  1  0  0  0
  3  2  1  0  0  0
  2 10  1  0  0  0
  3  4  2  0  0  0
  7  3  1  0  0  0
  4  5  1  0  0  0
  5  6  1  0  0  0
 10  6  1  0  0  0
  6 13  2  0  0  0
 11  7  1  0  0  0
  7 14  2  0  0  0
  8  9  1  0  0  0
  8 11  1  0  0  0
  9 12  1  0  0  0
  1 15  1  0  0  0
  1 16  1  0  0  0
  1 17  1  0  0  0
  2 18  1  0  0  0
  2 19  1  0  0  0
  4 20  1  0  0  0
  5 21  1  0  0  0
  5 22  1  0  0  0
  8 23  1  0  0  0
  8 24  1  0  0  0
  9 25  1  0  0  0
  9 26  1  0  0  0
 11 27  1  0  0  0
 12 28  1  0  0  0
 12 29  1  0  0  0
 12 30  1  0  0  0
M  END
$$$$
