### 
### Created by X-TOOL on Mon Sep 10 21:13:23 2018
### 

@<TRIPOS>MOLECULE
4qw0_ligand
   53    54     1     0     0
SMALL
GAST_HUCK


@<TRIPOS>ATOM
      1 N1         62.7190 -133.1930   35.8890 N.ar      1 BO2        -0.2509
      2 C2         62.3330 -134.4570   36.1330 C.ar      1 BO2         0.1532
      3 C3         62.5030 -135.4430   35.1620 C.ar      1 BO2         0.0620
      4 N4         63.0810 -135.1130   33.9310 N.ar      1 BO2        -0.2653
      5 C5         63.4800 -133.7930   33.6860 C.ar      1 BO2         0.0462
      6 C6         63.2960 -132.8290   34.6680 C.ar      1 BO2         0.0475
      7 C7         61.7700 -134.7350   37.3740 C.2       1 BO2         0.2349
      8 O8         61.0880 -133.8840   37.9420 O.2       1 BO2        -0.3755
      9 N9         62.0430 -135.9390   37.9020 N.am      1 BO2        -0.2600
     10 C10        61.5480 -136.3020   39.2340 C.3       1 BO2         0.1378
     11 C11        60.8760 -137.6500   39.2280 C.3       1 BO2         0.0213
     12 C12        59.6780 -137.4920   38.5090 C.ar      1 BO2        -0.0385
     13 C13        59.4900 -138.1380   37.2820 C.ar      1 BO2        -0.0601
     14 C14        58.2980 -137.9790   36.5780 C.ar      1 BO2        -0.0686
     15 C15        57.2840 -137.1770   37.0900 C.ar      1 BO2        -0.0687
     16 C16        57.4630 -136.5350   38.3110 C.ar      1 BO2        -0.0686
     17 C17        58.6520 -136.6940   39.0190 C.ar      1 BO2        -0.0601
     18 C18        62.7620 -136.3500   40.1420 C.2       1 BO2         0.1755
     19 O19        63.8960 -136.4180   39.6680 O.2       1 BO2        -0.3969
     20 N20        62.4920 -136.2640   41.4500 N.am      1 BO2        -0.4361
     21 C21        63.5760 -136.2700   42.4380 C.3       1 BO2        -0.2261
     22 C22        63.7110 -134.9280   43.1220 C.3       1 BO2        -0.1585
     23 C23        63.7560 -133.8030   42.0740 C.3       1 BO2        -0.0721
     24 C24        63.4980 -132.4730   42.7950 C.3       1 BO2        -0.0649
     25 C25        65.1120 -133.7800   41.3520 C.3       1 BO2        -0.0649
     26 B26        63.3110 -137.3050   43.5380 B         1 BO2         3.0000
     27 O27        62.0890 -137.0020   44.2340 O.3       1 BO2        -0.8710
     28 O28        63.2260 -138.6260   42.9890 O.3       1 BO2        -0.8710
     29 H          62.1886 -136.4614   35.3599 H         1 BO2         0.0978
     30 H          63.9293 -133.5259   32.7363 H         1 BO2         0.0958
     31 H          63.5970 -131.8029   34.4899 H         1 BO2         0.0941
     32 H          62.5896 -136.5951   37.3816 H         1 BO2         0.1883
     33 H          60.8355 -135.5424   39.5881 H         1 BO2         0.0823
     34 H          60.6622 -137.9733   40.2574 H         1 BO2         0.0474
     35 H          61.5198 -138.3941   38.7361 H         1 BO2         0.0474
     36 H          60.2758 -138.7654   36.8770 H         1 BO2         0.0557
     37 H          58.1607 -138.4823   35.6278 H         1 BO2         0.0599
     38 H          56.3581 -137.0526   36.5401 H         1 BO2         0.0559
     39 H          56.6746 -135.9089   38.7128 H         1 BO2         0.0599
     40 H          58.7816 -136.1948   39.9724 H         1 BO2         0.0557
     41 H          61.5426 -136.1950   41.7565 H         1 BO2         0.1459
     42 H          64.5217 -136.5085   41.9294 H         1 BO2        -0.1822
     43 H          64.6388 -134.9123   43.7126 H         1 BO2        -0.0063
     44 H          62.8497 -134.7707   43.7879 H         1 BO2        -0.0063
     45 H          62.9641 -133.9705   41.3291 H         1 BO2         0.0272
     46 H          63.5249 -131.6496   42.0661 H         1 BO2         0.0232
     47 H          64.2741 -132.3128   43.5578 H         1 BO2         0.0232
     48 H          62.5101 -132.5032   43.2777 H         1 BO2         0.0232
     49 H          65.2733 -134.7423   40.8441 H         1 BO2         0.0232
     50 H          65.9150 -133.6133   42.0851 H         1 BO2         0.0232
     51 H          65.1186 -132.9681   40.6099 H         1 BO2         0.0232
     52 H          61.9604 -137.6310   44.9342 H         1 BO2        -0.1290
     53 H          62.4948 -138.6699   42.3841 H         1 BO2        -0.1290
@<TRIPOS>BOND
     1    1    2 ar 
     2    1    6 ar 
     3    2    3 ar 
     4    2    7 1  
     5    3    4 ar 
     6    4    5 ar 
     7    5    6 ar 
     8    7    8 2  
     9    7    9 am 
    10    9   10 1  
    11   10   11 1  
    12   10   18 1  
    13   11   12 1  
    14   12   13 ar 
    15   12   17 ar 
    16   13   14 ar 
    17   14   15 ar 
    18   15   16 ar 
    19   16   17 ar 
    20   18   19 2  
    21   18   20 am 
    22   20   21 1  
    23   21   22 1  
    24   21   26 1  
    25   22   23 1  
    26   23   24 1  
    27   23   25 1  
    28   26   27 1  
    29   26   28 1  
    30    3   29 1  
    31    5   30 1  
    32    6   31 1  
    33    9   32 1  
    34   10   33 1  
    35   11   34 1  
    36   11   35 1  
    37   13   36 1  
    38   14   37 1  
    39   15   38 1  
    40   16   39 1  
    41   17   40 1  
    42   20   41 1  
    43   21   42 1  
    44   22   43 1  
    45   22   44 1  
    46   23   45 1  
    47   24   46 1  
    48   24   47 1  
    49   24   48 1  
    50   25   49 1  
    51   25   50 1  
    52   25   51 1  
    53   27   52 1  
    54   28   53 1  
@<TRIPOS>SUBSTRUCTURE
     1 BO2         1

