4cft_ligand
  -I-interpret- 

 44 46  0  0  0  0  0  0  0  0999 V2000
   17.1450   18.4350   39.1190 F   0  0  0  0  0
   16.9650   14.7930   39.2240 C   0  0  0  0  0
   17.4640   16.0910   39.3490 C   0  0  0  0  0
   16.6640   17.1810   38.9970 C   0  0  0  0  0
   15.3650   16.9700   38.5200 C   0  0  0  0  0
   15.6670   14.5820   38.7520 C   0  0  0  0  0
   14.8610   15.6700   38.3910 C   0  0  0  0  0
   13.4500   15.4570   37.8730 C   0  0  0  0  0
   13.4200   14.5110   36.6710 C   0  0  0  0  0
   12.8030   15.1140   35.4980 N   0  3  0  0  0
   11.6340   14.5490   34.8320 C   0  0  0  0  0
   11.6750   13.0310   34.7930 C   0  0  0  0  0
   10.7180   12.3940   33.8060 C   0  0  0  0  0
   11.2160   11.3750   32.9920 C   0  0  0  0  0
   10.3860   10.7470   32.0690 C   0  0  0  0  0
    9.3570   12.7510   33.7170 C   0  0  0  0  0
    8.5180   12.1050   32.7900 C   0  0  0  0  0
    7.2030   12.4150   32.6810 N   0  0  0  0  0
    9.0460   11.1020   31.9650 C   0  0  0  0  0
    8.2380   10.4570   31.0380 C   0  0  0  0  0
    6.8980   10.8050   30.9210 C   0  0  0  0  0
    6.3970   11.7910   31.7830 C   0  0  0  0  0
    5.1090   12.1110   31.7200 N   0  0  0  0  0
   17.5897   13.9420   39.4954 H   0  0  0  0  0
   18.4758   16.2536   39.7205 H   0  0  0  0  0
   14.7425   17.8223   38.2475 H   0  0  0  0  0
   15.2797   13.5669   38.6642 H   0  0  0  0  0
   13.0522   16.4218   37.5585 H   0  0  0  0  0
   12.8561   15.0132   38.6720 H   0  0  0  0  0
   12.8308   13.6366   36.9474 H   0  0  0  0  0
   14.4497   14.2600   36.4163 H   0  0  0  0  0
   13.5321   15.0385   34.7887 H   0  0  0  0  0
   12.4588   16.0069   35.8511 H   0  0  0  0  0
   11.6184   14.9147   33.8053 H   0  0  0  0  0
   10.7470   14.8505   35.3892 H   0  0  0  0  0
   11.3862   12.6813   35.7842 H   0  0  0  0  0
   12.6817   12.7497   34.4839 H   0  0  0  0  0
   12.2589   11.0704   33.0800 H   0  0  0  0  0
   10.7902    9.9692   31.4212 H   0  0  0  0  0
    8.9542   13.5280   34.3667 H   0  0  0  0  0
    8.6555    9.6769   30.4014 H   0  0  0  0  0
    6.2558   10.3262   30.1818 H   0  0  0  0  0
    4.7292   12.8226   32.3443 H   0  0  0  0  0
    4.5001   11.6451   31.0473 H   0  0  0  0  0
  4  1  1  0  0  0
  3  2  4  0  0  0
  2  6  4  0  0  0
  3  4  4  0  0  0
  4  5  4  0  0  0
  5  7  4  0  0  0
  6  7  4  0  0  0
  7  8  1  0  0  0
  8  9  1  0  0  0
  9 10  1  0  0  0
 10 11  1  0  0  0
 11 12  1  0  0  0
 12 13  1  0  0  0
 13 14  4  0  0  0
 13 16  4  0  0  0
 14 15  4  0  0  0
 15 19  4  0  0  0
 16 17  4  0  0  0
 17 18  4  0  0  0
 17 19  4  0  0  0
 18 22  4  0  0  0
 19 20  4  0  0  0
 20 21  4  0  0  0
 21 22  4  0  0  0
 22 23  1  0  0  0
  2 24  1  0  0  0
  3 25  1  0  0  0
  5 26  1  0  0  0
  6 27  1  0  0  0
  8 28  1  0  0  0
  8 29  1  0  0  0
  9 30  1  0  0  0
  9 31  1  0  0  0
 10 32  1  0  0  0
 10 33  1  0  0  0
 11 34  1  0  0  0
 11 35  1  0  0  0
 12 36  1  0  0  0
 12 37  1  0  0  0
 14 38  1  0  0  0
 15 39  1  0  0  0
 16 40  1  0  0  0
 20 41  1  0  0  0
 21 42  1  0  0  0
 23 43  1  0  0  0
 23 44  1  0  0  0
M  END
$$$$
