6ma1_ligand
  -I-interpret- 

 60 63  0  0  0  0  0  0  0  0999 V2000
  -34.6550   -4.8330    0.3190 C   0  0  0  0  0
  -30.5470   -3.2310    3.1130 C   0  0  0  0  0
  -31.7030    1.6640    5.9890 C   0  0  0  0  0
  -32.0300    3.0110    5.6130 C   0  0  0  0  0
  -32.0280    4.0480    6.5660 C   0  0  0  0  0
  -31.3730    2.4910    8.3280 C   0  0  0  0  0
  -31.4970   -1.6910    6.0740 O   0  0  0  0  0
  -32.3480   -0.9240    5.5980 C   0  0  0  0  0
  -31.6720    0.4420    4.9750 C   0  0  0  0  0
  -30.2980    0.1740    4.4120 N   0  0  0  0  0
  -29.9860   -0.2880    2.7730 S   0  0  0  0  0
  -30.9360   -2.0340    2.4850 C   0  0  0  0  0
  -32.0750   -2.2090    1.6430 C   0  0  0  0  0
  -32.7960   -3.4820    1.4170 C   0  0  0  0  0
  -33.9990   -3.6180    0.5090 C   0  0  0  0  0
  -32.3290   -4.6420    2.0920 C   0  0  0  0  0
  -31.1600   -4.4910    2.9690 C   0  0  0  0  0
  -29.0800   -3.1210    4.2330 Cl  0  0  0  0  0
  -33.0100   -5.9190    1.8970 N   0  0  0  0  0
  -34.1660   -6.0510    1.0270 C   0  0  0  0  0
  -34.7090   -7.1650    0.8990 O   0  0  0  0  0
  -30.4980    0.6250    1.8430 O   0  0  0  0  0
  -28.5990   -0.4860    2.6090 O   0  0  0  0  0
  -32.3500    3.2610    4.2750 O   0  0  0  0  0
  -32.8100    4.5650    3.8830 C   0  0  0  0  0
  -31.7040    3.7940    7.9150 C   0  0  0  0  0
  -31.3730    1.4480    7.3660 C   0  0  0  0  0
  -33.7420   -1.2780    5.6150 N   0  0  0  0  0
  -34.1820   -2.5840    6.2300 C   0  0  0  0  0
  -34.8620   -2.4520    7.6750 C   0  0  0  0  0
  -34.7190   -1.3710    8.3000 O   0  0  0  0  0
  -35.5040   -3.4550    8.1150 O   0  0  0  0  0
  -34.8580   -0.4130    5.0590 C   0  0  0  0  0
  -34.9350   -0.1180    3.4930 C   0  0  0  0  0
  -34.3340    0.8130    2.6760 C   0  0  0  0  0
  -34.6910    0.7540    1.2280 C   0  0  0  0  0
  -35.5880   -0.2240    0.9220 C   0  0  0  0  0
  -35.9910   -1.0760    2.4090 S   0  0  0  0  0
  -35.5193   -4.8925   -0.3424 H   0  0  0  0  0
  -32.2806    5.0621    6.2564 H   0  0  0  0  0
  -31.1210    2.2860    9.3685 H   0  0  0  0  0
  -32.2972    0.7514    4.1375 H   0  0  0  0  0
  -29.4995    0.2716    5.0391 H   0  0  0  0  0
  -32.4468   -1.3277    1.1203 H   0  0  0  0  0
  -34.3652   -2.7350   -0.0147 H   0  0  0  0  0
  -30.7674   -5.3533    3.5078 H   0  0  0  0  0
  -32.6633   -6.7438    2.3868 H   0  0  0  0  0
  -33.7249    4.8042    4.4250 H   0  0  0  0  0
  -32.0440    5.3045    4.1165 H   0  0  0  0  0
  -33.0087    4.5718    2.8113 H   0  0  0  0  0
  -31.7102    4.6090    8.6387 H   0  0  0  0  0
  -31.1109    0.4403    7.6883 H   0  0  0  0  0
  -33.2859   -3.1916    6.3566 H   0  0  0  0  0
  -34.9333   -3.0095    5.5647 H   0  0  0  0  0
  -35.4768   -4.1611    7.4652 H   0  0  0  0  0
  -34.6962    0.5649    5.5126 H   0  0  0  0  0
  -35.7688   -0.9711    5.2760 H   0  0  0  0  0
  -33.6352    1.5532    3.0656 H   0  0  0  0  0
  -34.2723    1.4314    0.4838 H   0  0  0  0  0
  -35.9863   -0.4411   -0.0691 H   0  0  0  0  0
 15  1  2  0  0  0
  1 20  1  0  0  0
 12  2  4  0  0  0
  2 17  4  0  0  0
  2 18  1  0  0  0
  3  4  4  0  0  0
  9  3  1  0  0  0
  3 27  4  0  0  0
  4  5  4  0  0  0
  4 24  1  0  0  0
  5 26  4  0  0  0
  6 26  4  0  0  0
 27  6  4  0  0  0
  8  7  2  0  0  0
  9  8  1  0  0  0
  8 28  1  0  0  0
 10  9  1  0  0  0
 11 10  1  0  0  0
 12 11  1  0  0  0
 11 22  2  0  0  0
 11 23  2  0  0  0
 13 12  4  0  0  0
 14 13  4  0  0  0
 14 15  1  0  0  0
 14 16  4  0  0  0
 16 17  4  0  0  0
 16 19  1  0  0  0
 19 20  1  0  0  0
 20 21  2  0  0  0
 24 25  1  0  0  0
 28 29  1  0  0  0
 28 33  1  0  0  0
 29 30  1  0  0  0
 30 31  2  0  0  0
 30 32  1  0  0  0
 33 34  1  0  0  0
 34 35  4  0  0  0
 34 38  4  0  0  0
 35 36  4  0  0  0
 36 37  4  0  0  0
 37 38  4  0  0  0
  1 39  1  0  0  0
  5 40  1  0  0  0
  6 41  1  0  0  0
  9 42  1  0  0  0
 10 43  1  0  0  0
 13 44  1  0  0  0
 15 45  1  0  0  0
 17 46  1  0  0  0
 19 47  1  0  0  0
 25 48  1  0  0  0
 25 49  1  0  0  0
 25 50  1  0  0  0
 26 51  1  0  0  0
 27 52  1  0  0  0
 29 53  1  0  0  0
 29 54  1  0  0  0
 32 55  1  0  0  0
 33 56  1  0  0  0
 33 57  1  0  0  0
 35 58  1  0  0  0
 36 59  1  0  0  0
 37 60  1  0  0  0
M  END
$$$$
