4lwe_ligand
  -I-interpret- 

 41 43  0  0  0  0  0  0  0  0999 V2000
    0.4950  -32.7490  -22.8330 C   0  0  0  0  0
    1.6950  -33.1820  -23.3900 C   0  0  0  0  0
    1.6870  -33.9020  -24.5720 C   0  0  0  0  0
    0.4940  -34.1980  -25.2000 C   0  0  0  0  0
   -0.7020  -33.7520  -24.6650 C   0  0  0  0  0
   -0.6890  -33.0310  -23.4810 C   0  0  0  0  0
    2.8600  -34.2800  -25.1780 O   0  0  0  0  0
    0.4850  -32.0860  -21.6220 O   0  0  0  0  0
   -2.1590  -32.3670  -22.8600 Cl  0  0  0  0  0
    0.4550  -35.0250  -26.4270 C   0  0  0  0  0
    1.1540  -34.8650  -27.5510 N   0  0  0  0  0
    0.8230  -35.7950  -28.4310 O   0  0  0  0  0
   -0.0890  -36.5980  -27.9630 C   0  0  0  0  0
   -0.4200  -36.1710  -26.6380 C   0  0  0  0  0
   -1.4000  -36.7530  -25.6840 C   0  0  0  0  0
   -0.7170  -37.6550  -28.6770 N   0  0  0  0  0
   -0.8690  -38.9570  -28.1240 C   0  0  0  0  0
   -1.5890  -39.9750  -28.9390 C   0  0  0  0  0
   -0.2590  -39.2700  -27.1050 O   0  0  0  0  0
   -2.7290  -36.8380  -26.0610 C   0  0  0  0  0
   -3.6700  -37.3850  -25.1950 C   0  0  0  0  0
   -3.2890  -37.8550  -23.9490 C   0  0  0  0  0
   -1.9480  -37.7880  -23.5600 C   0  0  0  0  0
   -1.0080  -37.2390  -24.4350 C   0  0  0  0  0
   -4.2510  -38.3610  -23.0980 O   0  0  0  0  0
   -3.8990  -38.7790  -21.8320 C   0  0  0  0  0
    2.6396  -32.9543  -22.8960 H   0  0  0  0  0
   -1.6444  -33.9654  -25.1694 H   0  0  0  0  0
    2.6615  -34.7676  -25.9808 H   0  0  0  0  0
   -0.4188  -31.8617  -21.3887 H   0  0  0  0  0
   -1.0702  -37.4739  -29.6166 H   0  0  0  0  0
   -0.8800  -40.7243  -29.2911 H   0  0  0  0  0
   -2.3526  -40.4548  -28.3268 H   0  0  0  0  0
   -2.0593  -39.4882  -29.7933 H   0  0  0  0  0
   -3.0395  -36.4748  -27.0407 H   0  0  0  0  0
   -4.7150  -37.4442  -25.4991 H   0  0  0  0  0
   -1.6390  -38.1606  -22.5834 H   0  0  0  0  0
    0.0403  -37.1895  -24.1405 H   0  0  0  0  0
   -3.1638  -39.5802  -21.9066 H   0  0  0  0  0
   -3.4713  -37.9419  -21.2802 H   0  0  0  0  0
   -4.7846  -39.1441  -21.3120 H   0  0  0  0  0
  1  2  4  0  0  0
  1  6  4  0  0  0
  1  8  1  0  0  0
  2  3  4  0  0  0
  3  4  4  0  0  0
  3  7  1  0  0  0
  4  5  4  0  0  0
  4 10  1  0  0  0
  5  6  4  0  0  0
  6  9  1  0  0  0
 10 11  4  0  0  0
 10 14  4  0  0  0
 11 12  4  0  0  0
 12 13  4  0  0  0
 13 14  4  0  0  0
 13 16  1  0  0  0
 14 15  1  0  0  0
 15 20  4  0  0  0
 15 24  4  0  0  0
 16 17  1  0  0  0
 17 18  1  0  0  0
 17 19  2  0  0  0
 20 21  4  0  0  0
 21 22  4  0  0  0
 22 23  4  0  0  0
 22 25  1  0  0  0
 23 24  4  0  0  0
 25 26  1  0  0  0
  2 27  1  0  0  0
  5 28  1  0  0  0
  7 29  1  0  0  0
  8 30  1  0  0  0
 16 31  1  0  0  0
 18 32  1  0  0  0
 18 33  1  0  0  0
 18 34  1  0  0  0
 20 35  1  0  0  0
 21 36  1  0  0  0
 23 37  1  0  0  0
 24 38  1  0  0  0
 26 39  1  0  0  0
 26 40  1  0  0  0
 26 41  1  0  0  0
M  END
$$$$
