3dp0_ligand
  -I-interpret- 

 37 39  0  0  0  0  0  0  0  0999 V2000
   17.8280   16.1930  -12.0780 C   0  0  0  0  0
   18.9750   15.4210  -11.9410 C   0  0  0  0  0
   20.2270   16.0010  -12.1140 C   0  0  0  0  0
   21.3740   15.2260  -11.9930 C   0  0  0  0  0
   21.2630   13.8710  -11.6990 C   0  0  0  0  0
   20.0110   13.2920  -11.5240 C   0  0  0  0  0
   18.8620   14.0680  -11.6410 C   0  0  0  0  0
   17.6060   13.4960  -11.4670 C   0  0  0  0  0
   16.4570   14.2690  -11.6020 C   0  0  0  0  0
   16.5720   15.6180  -11.9170 C   0  0  0  0  0
   15.3390   16.4740  -12.2100 C   0  0  0  0  0
   15.4440   17.4420  -12.9630 O   0  0  0  0  0
   14.1920   16.0540  -11.6780 N   0  0  0  0  0
   13.1440   16.6810  -11.8430 N   0  0  0  0  0
   13.1420   17.8020  -12.5400 C   0  0  0  0  0
   11.9810   18.5340  -12.7630 C   0  0  0  0  0
   10.7490   18.0350  -12.3540 C   0  0  0  0  0
    9.5880   18.7150  -12.7030 C   0  0  0  0  0
    7.8890   18.1480  -12.0890 Br  0  0  0  0  0
    9.6520   19.8800  -13.4580 C   0  0  0  0  0
    8.5100   20.4990  -13.8610 O   0  0  0  0  0
   10.8860   20.3840  -13.8450 C   0  0  0  0  0
   10.9390   22.0270  -14.7870 Br  0  0  0  0  0
   12.0530   19.7130  -13.4990 C   0  0  0  0  0
   13.2600   20.2280  -13.8590 O   0  0  0  0  0
   17.9129   17.2540  -12.3127 H   0  0  0  0  0
   20.3086   17.0632  -12.3444 H   0  0  0  0  0
   22.3566   15.6780  -12.1279 H   0  0  0  0  0
   22.1612   13.2606  -11.6054 H   0  0  0  0  0
   19.9296   12.2294  -11.2950 H   0  0  0  0  0
   17.5215   12.4369  -11.2237 H   0  0  0  0  0
   15.4737   13.8200  -11.4618 H   0  0  0  0  0
   13.4363   17.4810  -13.5392 H   0  0  0  0  0
   13.7561   18.4749  -11.9415 H   0  0  0  0  0
   10.6943   17.1193  -11.7653 H   0  0  0  0  0
    8.7340   21.2825  -14.3685 H   0  0  0  0  0
   13.1255   21.0370  -14.3580 H   0  0  0  0  0
  1  2  4  0  0  0
  1 10  4  0  0  0
  2  3  4  0  0  0
  2  7  4  0  0  0
  3  4  4  0  0  0
  4  5  4  0  0  0
  5  6  4  0  0  0
  6  7  4  0  0  0
  7  8  4  0  0  0
  8  9  4  0  0  0
  9 10  4  0  0  0
 10 11  1  0  0  0
 11 12  2  0  0  0
 11 13  1  0  0  0
 13 14  2  0  0  0
 14 15  1  0  0  0
 15 16  1  0  0  0
 16 17  4  0  0  0
 16 24  4  0  0  0
 17 18  4  0  0  0
 18 19  1  0  0  0
 18 20  4  0  0  0
 20 21  1  0  0  0
 20 22  4  0  0  0
 22 23  1  0  0  0
 22 24  4  0  0  0
 24 25  1  0  0  0
  1 26  1  0  0  0
  3 27  1  0  0  0
  4 28  1  0  0  0
  5 29  1  0  0  0
  6 30  1  0  0  0
  8 31  1  0  0  0
  9 32  1  0  0  0
 15 33  1  0  0  0
 15 34  1  0  0  0
 17 35  1  0  0  0
 21 36  1  0  0  0
 25 37  1  0  0  0
M  END
$$$$
