4pul_ligand
  -I-interpret- 

 25 27  0  0  0  0  0  0  0  0999 V2000
  106.7350   18.4330   17.6340 N   0  0  0  0  0
  108.7790   18.8950   18.4180 N   0  0  0  0  0
  107.9600   18.8330   17.3440 C   0  0  0  0  0
  107.4990   19.1360   14.9580 C   0  0  0  0  0
  108.0260   18.5240   19.5150 C   0  0  0  0  0
  108.2880   18.4610   20.8700 C   0  0  0  0  0
  107.2820   18.0990   21.7610 C   0  0  0  0  0
  105.1820   17.4680   23.4290 C   0  0  0  0  0
  106.0090   17.7640   21.2700 C   0  0  0  0  0
  105.7500   17.8210   19.8920 C   0  0  0  0  0
  106.7590   18.2220   19.0150 C   0  0  0  0  0
  108.3620   19.1770   16.1230 N   0  0  0  0  0
  107.5000   18.1150   23.2150 C   0  0  0  0  0
  108.5620   18.4140   23.7520 O   0  0  0  0  0
  106.3990   17.7870   23.9620 N   0  0  0  0  0
  104.1870   17.2270   24.2830 N   0  0  0  0  0
  104.9570   17.4320   22.1180 N   0  0  0  0  0
  107.1452   18.1164   14.8052 H   0  0  0  0  0
  106.6472   19.7978   15.1149 H   0  0  0  0  0
  108.0583   19.4631   14.0815 H   0  0  0  0  0
  109.2853   18.6954   21.2422 H   0  0  0  0  0
  104.7655   17.5534   19.5084 H   0  0  0  0  0
  109.3265   19.4853   16.0001 H   0  0  0  0  0
  104.3522   17.2846   25.2879 H   0  0  0  0  0
  104.0437   17.1698   21.7471 H   0  0  0  0  0
  1  3  4  0  0  0
 11  1  4  0  0  0
  2  3  4  0  0  0
  5  2  4  0  0  0
  3 12  1  0  0  0
 12  4  1  0  0  0
  6  5  4  0  0  0
  5 11  4  0  0  0
  7  6  4  0  0  0
  9  7  4  0  0  0
  7 13  1  0  0  0
  8 15  4  0  0  0
  8 16  2  0  0  0
 17  8  1  0  0  0
  9 10  4  0  0  0
  9 17  1  0  0  0
 10 11  4  0  0  0
 13 14  2  0  0  0
 13 15  1  0  0  0
  4 18  1  0  0  0
  4 19  1  0  0  0
  4 20  1  0  0  0
  6 21  1  0  0  0
 10 22  1  0  0  0
 12 23  1  0  0  0
 16 24  1  0  0  0
 17 25  1  0  0  0
M  END
$$$$
