3qw6_ligand
  -I-interpret- 

 67 67  0  0  0  0  0  0  0  0999 V2000
   27.5400   27.5300   53.0280 N   0  3  0  0  0
   27.3840   26.0480   53.0320 C   0  0  0  0  0
   26.3670   25.6230   54.0870 C   0  0  0  0  0
   26.3380   26.1680   55.1890 O   0  0  0  0  0
   28.7250   25.3730   53.3220 C   0  0  0  0  0
   29.8350   25.7180   52.3420 C   0  0  0  0  0
   31.0490   24.8350   52.5940 C   0  0  0  0  0
   32.1660   25.1390   51.7020 N   0  0  0  0  0
   32.9300   26.2230   51.7990 C   0  0  0  0  0
   32.7010   27.1150   52.7540 N   0  0  0  0  0
   33.9280   26.4140   50.9440 N   0  0  0  0  0
   25.5300   24.6520   53.7370 N   0  0  0  0  0
   24.4960   24.1420   54.6360 C   0  0  0  0  0
   25.1050   23.4880   55.8780 C   0  0  0  0  0
   24.5560   23.5880   56.9780 O   0  0  0  0  0
   23.6250   23.1190   53.8990 C   0  0  0  0  0
   22.3180   22.8110   54.5960 C   0  0  0  0  0
   21.2630   23.7200   54.5650 C   0  0  0  0  0
   22.1390   21.6190   55.3000 C   0  0  0  0  0
   20.0550   23.4560   55.2170 C   0  0  0  0  0
   20.9300   21.3410   55.9610 C   0  0  0  0  0
   19.8950   22.2690   55.9120 C   0  0  0  0  0
   18.7040   22.0210   56.5580 O   0  0  0  0  0
   26.2360   22.8120   55.6970 N   0  0  0  0  0
   26.8900   22.1700   56.8240 C   0  0  0  0  0
   26.3920   20.7740   57.1510 C   0  0  0  0  0
   25.5630   20.2100   56.4320 O   0  0  0  0  0
   26.9020   20.2300   58.2550 N   0  0  0  0  0
   26.5620   18.8880   58.7280 C   0  0  0  0  0
   25.2020   18.8030   59.4110 C   0  0  0  0  0
   24.6420   17.6850   59.4460 O   0  0  0  0  0
   27.6390   18.3860   59.6970 C   0  0  0  0  0
   29.3090   18.3910   59.0130 S   0  0  0  0  0
   24.7140   19.9200   59.9720 N   0  0  0  0  0
   26.6382   27.9651   52.8334 H   0  0  0  0  0
   27.8775   27.8376   53.9401 H   0  0  0  0  0
   28.2107   27.7981   52.3078 H   0  0  0  0  0
   27.0309   25.7404   52.0477 H   0  0  0  0  0
   28.5611   24.2978   53.2500 H   0  0  0  0  0
   29.0490   25.7197   54.3033 H   0  0  0  0  0
   30.1183   26.7620   52.4757 H   0  0  0  0  0
   29.4782   25.5536   51.3253 H   0  0  0  0  0
   30.7522   23.8013   52.4167 H   0  0  0  0  0
   31.3820   25.0097   53.6171 H   0  0  0  0  0
   32.3733   24.4756   50.9555 H   0  0  0  0  0
   31.9380   26.9698   53.4152 H   0  0  0  0  0
   34.5153   27.2442   51.0229 H   0  0  0  0  0
   34.1072   25.7305   50.2084 H   0  0  0  0  0
   25.6122   24.2466   52.8046 H   0  0  0  0  0
   23.8878   24.9873   54.9579 H   0  0  0  0  0
   24.1913   22.1891   53.8466 H   0  0  0  0  0
   23.3808   23.5431   52.9250 H   0  0  0  0  0
   21.3819   24.6569   54.0209 H   0  0  0  0  0
   22.9501   20.8918   55.3378 H   0  0  0  0  0
   19.2424   24.1814   55.1785 H   0  0  0  0  0
   20.8046   20.4062   56.5073 H   0  0  0  0  0
   18.7479   21.1650   56.9903 H   0  0  0  0  0
   26.6449   22.7442   54.7650 H   0  0  0  0  0
   26.6852   22.7880   57.6982 H   0  0  0  0  0
   27.9432   22.0728   56.5607 H   0  0  0  0  0
   27.5661   20.7794   58.8005 H   0  0  0  0  0
   26.5119   18.2601   57.8384 H   0  0  0  0  0
   27.3948   17.3524   59.9421 H   0  0  0  0  0
   27.6402   19.0597   60.5539 H   0  0  0  0  0
   30.1625   17.9404   59.9281 H   0  0  0  0  0
   23.8249   19.8935   60.4711 H   0  0  0  0  0
   25.2322   20.7956   59.8993 H   0  0  0  0  0
  1  2  1  0  0  0
  2  3  1  0  0  0
  2  5  1  0  0  0
  3  4  2  0  0  0
  3 12  1  0  0  0
  5  6  1  0  0  0
  6  7  1  0  0  0
  7  8  1  0  0  0
  8  9  1  0  0  0
  9 10  2  0  0  0
  9 11  1  0  0  0
 12 13  1  0  0  0
 13 14  1  0  0  0
 13 16  1  0  0  0
 14 15  2  0  0  0
 14 24  1  0  0  0
 16 17  1  0  0  0
 17 18  4  0  0  0
 17 19  4  0  0  0
 18 20  4  0  0  0
 19 21  4  0  0  0
 20 22  4  0  0  0
 21 22  4  0  0  0
 22 23  1  0  0  0
 24 25  1  0  0  0
 25 26  1  0  0  0
 26 27  2  0  0  0
 26 28  1  0  0  0
 28 29  1  0  0  0
 29 30  1  0  0  0
 29 32  1  0  0  0
 30 31  2  0  0  0
 30 34  1  0  0  0
 32 33  1  0  0  0
  1 35  1  0  0  0
  1 36  1  0  0  0
  1 37  1  0  0  0
  2 38  1  0  0  0
  5 39  1  0  0  0
  5 40  1  0  0  0
  6 41  1  0  0  0
  6 42  1  0  0  0
  7 43  1  0  0  0
  7 44  1  0  0  0
  8 45  1  0  0  0
 10 46  1  0  0  0
 11 47  1  0  0  0
 11 48  1  0  0  0
 12 49  1  0  0  0
 13 50  1  0  0  0
 16 51  1  0  0  0
 16 52  1  0  0  0
 18 53  1  0  0  0
 19 54  1  0  0  0
 20 55  1  0  0  0
 21 56  1  0  0  0
 23 57  1  0  0  0
 24 58  1  0  0  0
 25 59  1  0  0  0
 25 60  1  0  0  0
 28 61  1  0  0  0
 29 62  1  0  0  0
 32 63  1  0  0  0
 32 64  1  0  0  0
 33 65  1  0  0  0
 34 66  1  0  0  0
 34 67  1  0  0  0
M  END
$$$$
