4gue_ligand
  -I-interpret- 

 52 55  0  0  0  0  0  0  0  0999 V2000
   31.1700    6.3800    4.6540 O   0  0  0  0  0
   31.8490    6.2210    5.9150 C   0  0  0  0  0
   33.1310    5.4140    5.6380 C   0  0  0  0  0
   33.7130    5.8820    4.4160 O   0  0  0  0  0
   32.1480    7.6170    6.4970 C   0  0  0  0  0
   30.9390    8.2870    6.8410 O   0  0  0  0  0
   32.9980    7.4500    7.7670 C   0  0  0  0  0
   33.2750    8.8010    8.4500 C   0  0  0  0  0
   34.1970    6.8350    7.3360 O   0  0  0  0  0
   34.1650    5.5210    6.7870 C   0  0  0  0  0
   33.7170    4.5540    7.7330 O   0  0  0  0  0
   34.4640    4.4730    8.9470 C   0  0  0  0  0
   35.8490    4.3310    8.9300 C   0  0  0  0  0
   36.4990    4.3000    7.8560 O   0  0  0  0  0
   33.7940    4.5070   10.1780 C   0  0  0  0  0
   32.2780    4.6110   10.3070 C   0  0  0  0  0
   31.4200    4.2620    9.2530 C   0  0  0  0  0
   30.0380    4.3430    9.4420 C   0  0  0  0  0
   29.1390    4.0370    8.3810 O   0  0  0  0  0
   29.4970    4.7050   10.6720 C   0  0  0  0  0
   28.1100    4.7530   10.8110 O   0  0  0  0  0
   30.3490    5.0130   11.7440 C   0  0  0  0  0
   31.7360    4.9490   11.5620 C   0  0  0  0  0
   34.4240    4.4420   11.2550 O   0  0  0  0  0
   35.6520    4.2970   11.3260 C   0  0  0  0  0
   36.2210    4.2100   12.5970 C   0  0  0  0  0
   37.5950    4.0700   12.7220 C   0  0  0  0  0
   38.1650    3.9900   14.0120 O   0  0  0  0  0
   38.4180    4.0110   11.5910 C   0  0  0  0  0
   37.8390    4.1060   10.3210 C   0  0  0  0  0
   36.4620    4.2420   10.1860 C   0  0  0  0  0
   38.6760    4.0460    9.1800 O   0  0  0  0  0
   30.9793    5.5153    4.2833 H   0  0  0  0  0
   31.2465    5.6874    6.6501 H   0  0  0  0  0
   32.8552    4.3623    5.5601 H   0  0  0  0  0
   33.0677    5.8131    3.7086 H   0  0  0  0  0
   32.6787    8.2062    5.7492 H   0  0  0  0  0
   30.4001    8.3965    6.0541 H   0  0  0  0  0
   32.4811    6.8490    8.5152 H   0  0  0  0  0
   33.9154    8.6434    9.3178 H   0  0  0  0  0
   33.7729    9.4674    7.7457 H   0  0  0  0  0
   32.3322    9.2457    8.7685 H   0  0  0  0  0
   35.1876    5.3346    6.4590 H   0  0  0  0  0
   31.8271    3.9314    8.2974 H   0  0  0  0  0
   28.2356    4.1453    8.6873 H   0  0  0  0  0
   27.8883    5.0159   11.7073 H   0  0  0  0  0
   29.9344    5.2997   12.7104 H   0  0  0  0  0
   32.4014    5.1625   12.3985 H   0  0  0  0  0
   35.5903    4.2518   13.4850 H   0  0  0  0  0
   39.1172    3.8959   13.9346 H   0  0  0  0  0
   39.4962    3.8926   11.6986 H   0  0  0  0  0
   38.1404    4.1240    8.3871 H   0  0  0  0  0
  1  2  1  0  0  0
  2  3  1  0  0  0
  2  5  1  0  0  0
  3  4  1  0  0  0
  3 10  1  0  0  0
  5  6  1  0  0  0
  5  7  1  0  0  0
  7  8  1  0  0  0
  7  9  1  0  0  0
  9 10  1  0  0  0
 10 11  1  0  0  0
 11 12  1  0  0  0
 12 13  1  0  0  0
 12 15  2  0  0  0
 13 14  2  0  0  0
 13 31  1  0  0  0
 15 16  1  0  0  0
 15 24  1  0  0  0
 16 17  4  0  0  0
 16 23  4  0  0  0
 17 18  4  0  0  0
 18 19  1  0  0  0
 18 20  4  0  0  0
 20 21  1  0  0  0
 20 22  4  0  0  0
 22 23  4  0  0  0
 24 25  1  0  0  0
 25 26  4  0  0  0
 25 31  4  0  0  0
 26 27  4  0  0  0
 27 28  1  0  0  0
 27 29  4  0  0  0
 29 30  4  0  0  0
 30 31  4  0  0  0
 30 32  1  0  0  0
  1 33  1  0  0  0
  2 34  1  0  0  0
  3 35  1  0  0  0
  4 36  1  0  0  0
  5 37  1  0  0  0
  6 38  1  0  0  0
  7 39  1  0  0  0
  8 40  1  0  0  0
  8 41  1  0  0  0
  8 42  1  0  0  0
 10 43  1  0  0  0
 17 44  1  0  0  0
 19 45  1  0  0  0
 21 46  1  0  0  0
 22 47  1  0  0  0
 23 48  1  0  0  0
 26 49  1  0  0  0
 28 50  1  0  0  0
 29 51  1  0  0  0
 32 52  1  0  0  0
M  END
$$$$
