4q87_ligand
  -I-interpret- 

 16 16  0  0  0  0  0  0  0  0999 V2000
   14.7830    0.3710   16.9820 S   0  0  0  0  0
   15.4480    1.3790   15.7560 C   0  0  0  0  0
   15.2030    2.8180   15.7800 C   0  0  0  0  0
   15.7230    3.6030   14.8210 C   0  0  0  0  0
   15.4660    5.1320   14.8420 C   0  0  0  0  0
   14.9470    5.4590   15.9500 F   0  0  0  0  0
   16.6370    5.7880   14.6820 F   0  0  0  0  0
   14.6710    5.4430   13.8930 F   0  0  0  0  0
   16.5040    3.0350   13.7940 C   0  0  0  0  0
   16.7370    1.6540   13.7730 C   0  0  0  0  0
   16.1980    0.8380   14.7690 N   0  0  0  0  0
   16.4220   -0.4790   14.7460 O   0  0  0  0  0
   14.5989    3.2553   16.5749 H   0  0  0  0  0
   16.9267    3.6707   13.0160 H   0  0  0  0  0
   17.3401    1.2159   12.9777 H   0  0  0  0  0
   15.9845   -0.8900   15.4952 H   0  0  0  0  0
  1  2  2  0  0  0
  2  3  1  0  0  0
  2 11  1  0  0  0
  3  4  2  0  0  0
  4  5  1  0  0  0
  4  9  1  0  0  0
  5  6  1  0  0  0
  5  7  1  0  0  0
  5  8  1  0  0  0
  9 10  2  0  0  0
 10 11  1  0  0  0
 11 12  1  0  0  0
  3 13  1  0  0  0
  9 14  1  0  0  0
 10 15  1  0  0  0
 12 16  1  0  0  0
M  END
$$$$
