5d1w_ligand
  -I-interpret- 

 50 49  0  0  0  0  0  0  0  0999 V2000
   44.2240  -38.3840   15.9140 C   0  0  0  0  0
   44.0300  -38.1860   17.1560 O   0  0  0  0  0
   43.7900  -39.4750   15.3980 O   0  0  0  0  0
   44.9660  -37.3400   15.0940 C   0  0  0  0  0
   44.2160  -36.2790   14.3470 C   0  0  0  0  0
   45.0120  -35.4060   13.4410 C   0  0  0  0  0
   44.7780  -35.5270   11.9790 C   0  0  0  0  0
   45.2680  -34.4140   11.1260 C   0  0  0  0  0
   44.5620  -34.1690    9.8330 C   0  0  0  0  0
   45.2150  -33.2090    8.8990 C   0  0  0  0  0
   44.4590  -32.0730    8.3050 C   0  0  0  0  0
   45.2300  -31.0440    7.5480 C   0  0  0  0  0
   44.7150  -29.6560    7.6540 C   0  0  0  0  0
   45.3220  -28.5660    6.8310 C   0  0  0  0  0
   44.5810  -27.2600    6.7560 C   0  0  0  0  0
   45.0910  -26.0770    5.9740 C   0  0  0  0  0
   44.2310  -24.8240    5.9230 C   0  0  0  0  0
   44.2220  -23.9330    4.7020 C   0  0  0  0  0
   44.0035  -39.4922   14.4622 H   0  0  0  0  0
   45.4611  -37.9169   14.3128 H   0  0  0  0  0
   45.5482  -36.7865   15.8308 H   0  0  0  0  0
   43.7960  -35.6189   15.1059 H   0  0  0  0  0
   43.5078  -36.8066   13.7082 H   0  0  0  0  0
   46.0507  -35.6987   13.5942 H   0  0  0  0  0
   44.7277  -34.3854   13.6972 H   0  0  0  0  0
   43.6958  -35.5475   11.8505 H   0  0  0  0  0
   45.3290  -36.4120   11.6607 H   0  0  0  0  0
   46.2893  -34.6816   10.8550 H   0  0  0  0  0
   45.1216  -33.5085   11.7148 H   0  0  0  0  0
   43.5964  -33.7340   10.0909 H   0  0  0  0  0
   44.5346  -35.1274    9.3146 H   0  0  0  0  0
   45.4847  -33.8223    8.0392 H   0  0  0  0  0
   45.9767  -32.7255    9.5106 H   0  0  0  0  0
   44.0187  -31.5433    9.1498 H   0  0  0  0  0
   43.7823  -32.5224    7.5782 H   0  0  0  0  0
   45.1664  -31.3198    6.4954 H   0  0  0  0  0
   46.2351  -31.0358    7.9698 H   0  0  0  0  0
   44.9237  -29.3669    8.6840 H   0  0  0  0  0
   43.6854  -29.7208    7.3020 H   0  0  0  0  0
   45.3481  -28.9481    5.8105 H   0  0  0  0  0
   46.2758  -28.3358    7.3057 H   0  0  0  0  0
   44.5962  -26.9042    7.7862 H   0  0  0  0  0
   43.6597  -27.5246    6.2370 H   0  0  0  0  0
   45.1577  -26.4219    4.9421 H   0  0  0  0  0
   46.0096  -25.7747    6.4768 H   0  0  0  0  0
   44.6417  -24.1902    6.7089 H   0  0  0  0  0
   43.2104  -25.2022    5.9810 H   0  0  0  0  0
   45.2289  -23.5568    4.5209 H   0  0  0  0  0
   43.8860  -24.5063    3.8379 H   0  0  0  0  0
   43.5446  -23.0957    4.8698 H   0  0  0  0  0
  1  2  2  0  0  0
  1  3  1  0  0  0
  1  4  1  0  0  0
  4  5  1  0  0  0
  5  6  1  0  0  0
  6  7  1  0  0  0
  7  8  1  0  0  0
  8  9  1  0  0  0
  9 10  1  0  0  0
 10 11  1  0  0  0
 11 12  1  0  0  0
 12 13  1  0  0  0
 13 14  1  0  0  0
 14 15  1  0  0  0
 15 16  1  0  0  0
 16 17  1  0  0  0
 17 18  1  0  0  0
  3 19  1  0  0  0
  4 20  1  0  0  0
  4 21  1  0  0  0
  5 22  1  0  0  0
  5 23  1  0  0  0
  6 24  1  0  0  0
  6 25  1  0  0  0
  7 26  1  0  0  0
  7 27  1  0  0  0
  8 28  1  0  0  0
  8 29  1  0  0  0
  9 30  1  0  0  0
  9 31  1  0  0  0
 10 32  1  0  0  0
 10 33  1  0  0  0
 11 34  1  0  0  0
 11 35  1  0  0  0
 12 36  1  0  0  0
 12 37  1  0  0  0
 13 38  1  0  0  0
 13 39  1  0  0  0
 14 40  1  0  0  0
 14 41  1  0  0  0
 15 42  1  0  0  0
 15 43  1  0  0  0
 16 44  1  0  0  0
 16 45  1  0  0  0
 17 46  1  0  0  0
 17 47  1  0  0  0
 18 48  1  0  0  0
 18 49  1  0  0  0
 18 50  1  0  0  0
M  END
$$$$
