1g2m_ligand
  -I-interpret- 

 57 61  0  0  0  0  0  0  0  0999 V2000
    9.7000    6.7980   28.7680 N   0  0  0  0  0
   11.8080    7.0250   28.3250 N   0  0  0  0  0
   10.5820    7.3010   27.9350 C   0  0  0  0  0
   10.2510    7.9840   26.7620 C   0  0  0  0  0
    8.9640    7.8230   26.1490 C   0  0  0  0  0
    8.6240    8.5050   24.9700 C   0  0  0  0  0
    9.5480    9.3740   24.3500 C   0  0  0  0  0
   10.8240    9.5610   24.9190 C   0  0  0  0  0
   11.1760    8.8780   26.1080 C   0  0  0  0  0
    9.2190   10.0800   23.1410 N   0  0  0  0  0
    8.0960    9.8080   22.2170 C   0  0  0  0  0
    7.3150    7.4090   22.0080 N   0  0  0  0  0
    8.1120    8.4430   21.5040 C   0  0  0  0  0
    8.9090    8.2310   20.3660 N   0  0  0  0  0
    8.5710    6.9070   20.1230 C   0  0  0  0  0
    7.6240    6.4220   21.1010 C   0  0  0  0  0
    9.0340    6.0380   19.0830 C   0  0  0  0  0
    8.5510    4.7250   19.0270 C   0  0  0  0  0
    7.6170    4.2350   19.9840 C   0  0  0  0  0
    7.1450    5.0770   21.0300 C   0  0  0  0  0
    9.8340    9.1410   19.6340 C   0  0  0  0  0
    7.1210    2.7820   19.8620 C   0  0  0  0  0
    7.4160    2.1430   18.5280 N   0  0  0  0  0
    6.6350    1.9760   17.3600 C   0  0  0  0  0
    7.1380    1.3400   16.2260 N   0  0  0  0  0
    8.4020    1.0540   16.7010 C   0  0  0  0  0
    8.5730    1.5220   18.0610 C   0  0  0  0  0
    9.4750    0.3870   16.0260 C   0  0  0  0  0
   10.6980    0.2000   16.7060 C   0  0  0  0  0
   10.8730    0.6560   18.0350 C   0  0  0  0  0
    9.8320    1.3180   18.7230 C   0  0  0  0  0
    5.2040    2.4890   17.2880 C   0  0  0  0  0
    8.7031    6.8951   28.5752 H   0  0  0  0  0
   11.9630    6.4849   29.1763 H   0  0  0  0  0
   12.6034    7.3512   27.7761 H   0  0  0  0  0
    8.2342    7.1566   26.6087 H   0  0  0  0  0
    7.6374    8.3623   24.5291 H   0  0  0  0  0
   11.5398   10.2316   24.4435 H   0  0  0  0  0
   12.1658    9.0305   26.5383 H   0  0  0  0  0
    9.8302   10.8577   22.8919 H   0  0  0  0  0
    8.1609   10.5609   21.4314 H   0  0  0  0  0
    7.1924    9.8208   22.8264 H   0  0  0  0  0
    9.7528    6.3940   18.3450 H   0  0  0  0  0
    8.8975    4.0631   18.2333 H   0  0  0  0  0
    6.4311    4.7029   21.7638 H   0  0  0  0  0
    9.2782   10.0043   19.2680 H   0  0  0  0  0
   10.6228    9.4744   20.3084 H   0  0  0  0  0
   10.2754    8.6078   18.7920 H   0  0  0  0  0
    6.0375    2.7993   19.9797 H   0  0  0  0  0
    7.6403    2.1982   20.6220 H   0  0  0  0  0
    9.3493    0.0296   15.0040 H   0  0  0  0  0
   11.5212   -0.3038   16.1995 H   0  0  0  0  0
   11.8274    0.4934   18.5358 H   0  0  0  0  0
    9.9819    1.6698   19.7437 H   0  0  0  0  0
    4.6069    2.0061   18.0616 H   0  0  0  0  0
    5.1979    3.5679   17.4431 H   0  0  0  0  0
    4.7859    2.2591   16.3080 H   0  0  0  0  0
  1  3  2  0  0  0
  3  2  1  0  0  0
  3  4  1  0  0  0
  4  5  4  0  0  0
  4  9  4  0  0  0
  5  6  4  0  0  0
  6  7  4  0  0  0
  7  8  4  0  0  0
  7 10  1  0  0  0
  8  9  4  0  0  0
 10 11  1  0  0  0
 11 13  1  0  0  0
 13 12  4  0  0  0
 12 16  4  0  0  0
 13 14  4  0  0  0
 14 15  4  0  0  0
 14 21  1  0  0  0
 15 16  4  0  0  0
 15 17  4  0  0  0
 16 20  4  0  0  0
 17 18  4  0  0  0
 18 19  4  0  0  0
 19 20  4  0  0  0
 19 22  1  0  0  0
 22 23  1  0  0  0
 23 24  4  0  0  0
 23 27  4  0  0  0
 24 25  4  0  0  0
 24 32  1  0  0  0
 25 26  4  0  0  0
 26 27  4  0  0  0
 26 28  4  0  0  0
 27 31  4  0  0  0
 28 29  4  0  0  0
 29 30  4  0  0  0
 30 31  4  0  0  0
  1 33  1  0  0  0
  2 34  1  0  0  0
  2 35  1  0  0  0
  5 36  1  0  0  0
  6 37  1  0  0  0
  8 38  1  0  0  0
  9 39  1  0  0  0
 10 40  1  0  0  0
 11 41  1  0  0  0
 11 42  1  0  0  0
 17 43  1  0  0  0
 18 44  1  0  0  0
 20 45  1  0  0  0
 21 46  1  0  0  0
 21 47  1  0  0  0
 21 48  1  0  0  0
 22 49  1  0  0  0
 22 50  1  0  0  0
 28 51  1  0  0  0
 29 52  1  0  0  0
 30 53  1  0  0  0
 31 54  1  0  0  0
 32 55  1  0  0  0
 32 56  1  0  0  0
 32 57  1  0  0  0
M  END
$$$$
