1kel_ligand
  -I-interpret- 

 43 43  0  0  0  0  0  0  0  0999 V2000
  -23.4170   36.2400   17.2300 C   0  0  0  0  0
  -23.5630   37.6280   17.1240 C   0  0  0  0  0
  -22.6270   38.3670   16.3520 C   0  0  0  0  0
  -21.5130   37.7280   15.8430 C   0  0  0  0  0
  -21.2980   36.3540   16.0730 C   0  0  0  0  0
  -22.2450   35.6210   16.7750 C   0  0  0  0  0
  -22.0310   34.1620   17.0390 N   0  0  0  0  0
  -22.8000   33.5630   17.6990 O   0  0  0  0  0
  -21.2310   33.5430   16.4130 O   0  0  0  0  0
  -22.8860   39.8500   16.0920 C   0  0  0  0  0
  -24.2810   40.2910   16.3140 N   0  3  0  0  0
  -25.2730   39.7500   15.3070 C   0  0  0  0  0
  -27.0840   39.7970   15.6940 P   0  0  0  0  0
  -27.4690   38.8120   16.8460 O   0  0  0  0  0
  -27.6150   41.2580   16.1360 O   0  0  0  0  0
  -27.7450   39.4050   14.4660 O   0  0  0  0  0
  -24.4950   41.7850   16.6520 C   0  0  0  0  0
  -24.0730   42.1300   18.0900 C   0  0  0  0  0
  -24.4760   41.0040   19.0580 C   0  0  0  0  0
  -24.3590   41.5060   20.5040 C   0  0  0  0  0
  -25.5060   42.4520   20.8130 C   0  0  0  0  0
  -26.8010   42.1360   20.4540 O   0  0  0  0  0
  -25.2670   43.5050   21.3940 O   0  0  0  0  0
  -24.2155   35.6402   17.6668 H   0  0  0  0  0
  -24.3853   38.1360   17.6279 H   0  0  0  0  0
  -20.7903   38.2941   15.2554 H   0  0  0  0  0
  -20.3943   35.8704   15.7021 H   0  0  0  0  0
  -22.6639   40.0279   15.0398 H   0  0  0  0  0
  -22.2653   40.4053   16.7952 H   0  0  0  0  0
  -24.5014   39.8313   17.1975 H   0  0  0  0  0
  -25.0349   38.6894   15.2267 H   0  0  0  0  0
  -25.1599   40.3934   14.4344 H   0  0  0  0  0
  -27.0268   39.0792   17.6551 H   0  0  0  0  0
  -27.1799   41.5227   16.9497 H   0  0  0  0  0
  -25.5582   42.0034   16.5521 H   0  0  0  0  0
  -23.8817   42.3750   15.9709 H   0  0  0  0  0
  -24.5712   43.0510   18.3928 H   0  0  0  0  0
  -22.9902   42.2512   18.1207 H   0  0  0  0  0
  -23.8154   40.1488   18.9157 H   0  0  0  0  0
  -25.5052   40.7051   18.8593 H   0  0  0  0  0
  -23.4130   42.0333   20.6275 H   0  0  0  0  0
  -24.3986   40.6561   21.1854 H   0  0  0  0  0
  -26.8104   41.2840   20.0117 H   0  0  0  0  0
  1  6  4  0  0  0
  1  2  4  0  0  0
  2  3  4  0  0  0
  3 10  1  0  0  0
  3  4  4  0  0  0
  4  5  4  0  0  0
  5  6  4  0  0  0
  6  7  1  0  0  0
  7  9  2  0  0  0
  7  8  2  0  0  0
 10 11  1  0  0  0
 11 17  1  0  0  0
 11 12  1  0  0  0
 12 13  1  0  0  0
 13 16  2  0  0  0
 13 15  1  0  0  0
 13 14  1  0  0  0
 17 18  1  0  0  0
 18 19  1  0  0  0
 19 20  1  0  0  0
 20 21  1  0  0  0
 21 23  2  0  0  0
 21 22  1  0  0  0
  1 24  1  0  0  0
  2 25  1  0  0  0
  4 26  1  0  0  0
  5 27  1  0  0  0
 10 28  1  0  0  0
 10 29  1  0  0  0
 11 30  1  0  0  0
 12 31  1  0  0  0
 12 32  1  0  0  0
 14 33  1  0  0  0
 15 34  1  0  0  0
 17 35  1  0  0  0
 17 36  1  0  0  0
 18 37  1  0  0  0
 18 38  1  0  0  0
 19 39  1  0  0  0
 19 40  1  0  0  0
 20 41  1  0  0  0
 20 42  1  0  0  0
 22 43  1  0  0  0
M  END
$$$$
