### 
### Created by X-TOOL on Wed Jan  1 15:39:37 2020
### 

@<TRIPOS>MOLECULE
5xwr_ligand
  205   206     1     0     0
SMALL
GAST_HUCK


@<TRIPOS>ATOM
      1 N           7.7200   10.9550   16.5090 N.4       1 MET         0.2379
      2 CA          6.3030   10.8260   16.8180 C.3       1 MET         0.0658
      3 C           5.5180   10.2020   15.6630 C.2       1 MET         0.2268
      4 O           5.5920   10.6570   14.5210 O.2       1 MET        -0.3907
      5 CB          5.7060   12.1910   17.1770 C.3       1 MET         0.0168
      6 CG          6.7070   13.1950   17.6900 C.3       1 MET         0.0007
      7 SD          6.1040   14.8800   17.5050 S.3       1 MET        -0.1638
      8 CE          6.4180   15.1570   15.7580 C.3       1 MET        -0.0181
      9 N           4.7640    9.1590   15.9930 N.am      1 SER        -0.2589
     10 CA          3.8650    8.4880   15.0590 C.3       1 SER         0.1540
     11 C           2.3880    8.9250   15.2080 C.2       1 SER         0.2062
     12 O           2.0540    9.7650   16.0420 O.2       1 SER        -0.3943
     13 CB          4.0000    6.9710   15.2320 C.3       1 SER         0.0843
     14 OG          3.1050    6.4710   16.2110 O.3       1 SER        -0.3903
     15 N           1.5140    8.2910   14.4320 N.am      1 ARG        -0.2637
     16 CA          0.0690    8.5250   14.4210 C.3       1 ARG         0.1311
     17 C          -0.5260    7.1910   14.8630 C.2       1 ARG         0.2039
     18 O          -1.7170    6.8980   14.7340 O.2       1 ARG        -0.3944
     19 CB         -0.3640    8.9070   12.9900 C.3       1 ARG        -0.0092
     20 CG         -1.8240    8.8990   12.6460 C.3       1 ARG        -0.0156
     21 CD         -1.9990    8.6030   11.1520 C.3       1 ARG         0.0627
     22 NE         -1.3790    9.5900   10.2650 N.pl3     1 ARG        -0.2723
     23 CZ         -0.5130    9.3210    9.2860 C.cat     1 ARG         0.2882
     24 NH1        -0.1090    8.0770    9.0160 N.pl3     1 ARG        -0.2849
     25 NH2        -0.0400   10.3290    8.5690 N.pl3     1 ARG        -0.2849
     26 N           0.3590    6.3960   15.4390 N.am      1 ARG        -0.2637
     27 CA          0.0420    5.0910   15.9730 C.3       1 ARG         0.1311
     28 C           0.0010    5.1620   17.4800 C.2       1 ARG         0.2039
     29 O          -0.7920    4.4730   18.1190 O.2       1 ARG        -0.3944
     30 CB          1.0890    4.0860   15.4920 C.3       1 ARG        -0.0092
     31 CG          0.8730    2.6570   15.9090 C.3       1 ARG        -0.0156
     32 CD          2.1760    1.8790   15.7350 C.3       1 ARG         0.0627
     33 NE          2.5760    1.6460   14.3460 N.pl3     1 ARG        -0.2723
     34 CZ          2.3710    0.5030   13.7100 C.cat     1 ARG         0.2882
     35 NH1         2.7890    0.3400   12.4540 N.pl3     1 ARG        -0.2849
     36 NH2         1.7510   -0.4840   14.3470 N.pl3     1 ARG        -0.2849
     37 N           0.8500    6.0290   18.0280 N.am      1 LYS        -0.2637
     38 CA          1.0020    6.1750   19.4630 C.3       1 LYS         0.1310
     39 C           0.3970    7.4780   19.9260 C.2       1 LYS         0.2039
     40 O           0.6910    8.5500   19.3830 O.2       1 LYS        -0.3944
     41 CB          2.4890    6.1340   19.8490 C.3       1 LYS        -0.0122
     42 CG          2.8030    5.4670   21.2040 C.3       1 LYS        -0.0440
     43 CD          4.2730    5.1160   21.3200 C.3       1 LYS        -0.0124
     44 CE          5.1340    6.3150   21.0170 C.3       1 LYS        -0.0354
     45 NZ          6.6050    6.0270   21.0750 N.4       1 LYS         0.2185
     46 N          -0.4930    7.4010   20.9070 N.am      1 GLN        -0.2636
     47 CA         -1.1010    8.6390   21.4020 C.3       1 GLN         0.1330
     48 C          -0.1420    9.6210   22.0200 C.2       1 GLN         0.2040
     49 O           1.0010    9.3030   22.3740 O.2       1 GLN        -0.3944
     50 CB         -2.2370    8.3630   22.3750 C.3       1 GLN         0.0045
     51 CG         -2.4450    6.8990   22.7650 C.3       1 GLN         0.0412
     52 CD         -3.2960    6.8850   23.9730 C.2       1 GLN         0.1737
     53 OE1        -4.4110    6.4910   23.9010 O.2       1 GLN        -0.3973
     54 NE2        -2.7230    7.1290   25.1170 N.am      1 GLN        -0.3009
     55 N          -0.6460   10.8410   22.1410 N.am      1 ALA        -0.2640
     56 CA          0.1100   11.9020   22.7510 C.3       1 ALA         0.1282
     57 C          -0.0170   11.7610   24.2410 C.2       1 ALA         0.2036
     58 O           0.9950   11.6170   24.9250 O.2       1 ALA        -0.3944
     59 CB         -0.3890   13.2730   22.2600 C.3       1 ALA        -0.0244
     60 N          -1.2500   11.6980   24.7450 N.am      1 LYS        -0.2640
     61 CA         -1.4590   11.6480   26.1880 C.3       1 LYS         0.1284
     62 C          -2.3000   10.4660   26.6740 C.2       1 LYS         0.2061
     63 O          -3.5130   10.5680   26.7880 O.2       1 LYS        -0.3942
     64 CB         -2.0890   12.9490   26.6520 C.3       1 LYS        -0.0244
     65 N          -1.6460    9.3500   27.0040 N.am      1 PRO        -0.2498
     66 CA         -2.3470    8.2710   27.7200 C.3       1 PRO         0.1338
     67 C          -2.7830    8.6380   29.1330 C.2       1 PRO         0.2041
     68 O          -2.1900    9.4930   29.8020 O.2       1 PRO        -0.3944
     69 CB         -1.3170    7.1410   27.7570 C.3       1 PRO        -0.0104
     70 CG          0.0040    7.8170   27.4990 C.3       1 PRO        -0.0281
     71 CD         -0.2390    9.0380   26.7030 C.3       1 PRO         0.0369
     72 N          -3.8280    7.9460   29.5810 N.am      1 GLN        -0.2636
     73 CA         -4.4930    8.2530   30.8380 C.3       1 GLN         0.1330
     74 C          -4.3600    7.0800   31.7950 C.2       1 GLN         0.2041
     75 O          -4.2840    5.9270   31.3800 O.2       1 GLN        -0.3944
     76 CB         -5.9770    8.6000   30.6120 C.3       1 GLN         0.0045
     77 CG         -6.2640    9.8610   29.7720 C.3       1 GLN         0.0412
     78 CD         -5.4150   11.0910   30.1600 C.2       1 GLN         0.1737
     79 OE1        -4.9390   11.2180   31.2960 O.2       1 GLN        -0.3973
     80 NE2        -5.2530   12.0160   29.2130 N.am      1 GLN        -0.3009
     81 N          -4.3340    7.3980   33.0800 N.am      1 HIS        -0.2625
     82 CA         -4.1580    6.4010   34.1140 C.3       1 HIS         0.1369
     83 C          -5.5000    5.9460   34.6030 C.2       1 HIS         0.2048
     84 O          -6.4160    6.7490   34.6920 O.2       1 HIS        -0.3943
     85 CB         -3.3490    6.9570   35.2770 C.3       1 HIS         0.0145
     86 CG         -3.1920    5.9940   36.4090 C.2       1 HIS        -0.0027
     87 ND1        -2.1850    5.0560   36.4490 N.2       1 HIS        -0.3252
     88 CD2        -3.9110    5.8280   37.5420 C.2       1 HIS         0.0291
     89 CE1        -2.2880    4.3520   37.5630 C.2       1 HIS         0.0907
     90 NE2        -3.3320    4.7970   38.2410 N.pl3     1 HIS        -0.2752
     91 N          -5.6060    4.6770   34.9680 N.am      1 ILE        -0.2691
     92 CA         -6.8450    4.1610   35.5200 C.3       1 ILE         0.0969
     93 C          -6.6660    3.7120   36.9710 C.2       1 ILE         0.0604
     94 O          -5.5890    3.2630   37.3780 O.co2     1 ILE        -0.5666
     95 CB         -7.3660    2.9860   34.6850 C.3       1 ILE        -0.0092
     96 CG1        -8.1630    3.4950   33.4790 C.3       1 ILE        -0.0497
     97 CG2        -8.2400    2.0720   35.5330 C.3       1 ILE        -0.0588
     98 CD1        -8.6600    2.3860   32.5790 C.3       1 ILE        -0.0649
     99 OXT        -7.5920    3.7830   37.7860 O.co2     1 ILE        -0.5666
    100 H1          8.1986   11.3690   17.2936 H         1 MET         0.2015
    101 H2          7.8349   11.5419   15.6976 H         1 MET         0.2015
    102 H3          8.1075   10.0435   16.3219 H         1 MET         0.2015
    103 H4          6.2060   10.1651   17.6919 H         1 MET         0.1098
    104 H5          4.9428   12.0387   17.9544 H         1 MET         0.0354
    105 H6          5.2330   12.6072   16.2753 H         1 MET         0.0354
    106 H7          7.6442   13.0866   17.1244 H         1 MET         0.0380
    107 H8          6.8969   12.9982   18.7555 H         1 MET         0.0380
    108 H9          6.0941   16.1718   15.4837 H         1 MET         0.0340
    109 H10         5.8581   14.4201   15.1634 H         1 MET         0.0340
    110 H11         7.4941   15.0488   15.5572 H         1 MET         0.0340
    111 H12         4.8151    8.8155   16.9308 H         1 SER         0.1885
    112 H13         4.1851    8.7489   14.0395 H         1 SER         0.0823
    113 H14         5.0302    6.7380   15.5393 H         1 SER         0.0606
    114 H15         3.7848    6.4824   14.2703 H         1 SER         0.0606
    115 H16         3.2171    5.5309   16.2903 H         1 SER         0.2097
    116 H17         1.8726    7.5988   13.8057 H         1 ARG         0.1883
    117 H18        -0.2120    9.3263   15.1203 H         1 ARG         0.0800
    118 H19         0.1326    8.2045   12.3045 H         1 ARG         0.0313
    119 H20         0.0059    9.9258   12.8023 H         1 ARG         0.0313
    120 H21        -2.2601    9.8819   12.8779 H         1 ARG         0.0301
    121 H22        -2.3346    8.1230   13.2351 H         1 ARG         0.0301
    122 H23        -3.0761    8.5701   10.9312 H         1 ARG         0.0689
    123 H24        -1.5512    7.6208   10.9407 H         1 ARG         0.0689
    124 H25        -1.6336   10.5775   10.4094 H         1 ARG         0.2642
    125 H26         0.5609    7.9074    8.2522 H         1 ARG         0.2615
    126 H27        -0.4674    7.2871    9.5715 H         1 ARG         0.2615
    127 H28        -0.3457   11.2919    8.7698 H         1 ARG         0.2615
    128 H29         0.6336   10.1501    7.8106 H         1 ARG         0.2615
    129 H30         1.3037    6.7164   15.5095 H         1 ARG         0.1883
    130 H31        -0.9466    4.7787   15.6054 H         1 ARG         0.0800
    131 H32         2.0665    4.4060   15.8818 H         1 ARG         0.0313
    132 H33         1.1047    4.1168   14.3926 H         1 ARG         0.0313
    133 H34         0.0891    2.2058   15.2830 H         1 ARG         0.0301
    134 H35         0.5636    2.6246   16.9641 H         1 ARG         0.0301
    135 H36         2.0578    0.9012   16.2248 H         1 ARG         0.0689
    136 H37         2.9793    2.4431   16.2315 H         1 ARG         0.0689
    137 H38         3.0411    2.4112   13.8371 H         1 ARG         0.2642
    138 H39         2.6244   -0.5533   11.9683 H         1 ARG         0.2615
    139 H40         3.2764    1.1074   11.9697 H         1 ARG         0.2615
    140 H41         1.4312   -0.3502   15.3169 H         1 ARG         0.2615
    141 H42         1.5900   -1.3831   13.8710 H         1 ARG         0.2615
    142 H43         1.4053    6.6027   17.4259 H         1 LYS         0.1883
    143 H44         0.4812    5.3434   19.9602 H         1 LYS         0.0800
    144 H45         2.8584    7.1694   19.8869 H         1 LYS         0.0312
    145 H46         3.0278    5.5808   19.0656 H         1 LYS         0.0312
    146 H47         2.2070    4.5471   21.2968 H         1 LYS         0.0269
    147 H48         2.5356    6.1605   22.0149 H         1 LYS         0.0269
    148 H49         4.5095    4.3126   20.6069 H         1 LYS         0.0317
    149 H50         4.4820    4.7712   22.3434 H         1 LYS         0.0317
    150 H51         4.9045    7.1023   21.7501 H         1 LYS         0.0813
    151 H52         4.8891    6.6726   20.0060 H         1 LYS         0.0813
    152 H53         7.1204    6.8670   20.8635 H         1 LYS         0.1994
    153 H54         6.8345    5.3134   20.4011 H         1 LYS         0.1994
    154 H55         6.8486    5.7071   21.9993 H         1 LYS         0.1994
    155 H56        -0.7437    6.5165   21.3004 H         1 GLN         0.1883
    156 H57        -1.5377    9.1369   20.5237 H         1 GLN         0.0801
    157 H58        -3.1688    8.7245   21.9157 H         1 GLN         0.0337
    158 H59        -2.0373    8.9313   23.2954 H         1 GLN         0.0337
    159 H60        -1.4761    6.4253   22.9812 H         1 GLN         0.0504
    160 H61        -2.9432    6.3582   21.9469 H         1 GLN         0.0504
    161 H62        -3.2646    7.1287   25.9576 H         1 GLN         0.1814
    162 H63        -1.7415    7.3166   25.1547 H         1 GLN         0.1814
    163 H64        -1.5683   11.0271   21.8022 H         1 ALA         0.1883
    164 H65         1.1689   11.7980   22.4719 H         1 ALA         0.0797
    165 H66         0.2004   14.0700   22.7369 H         1 ALA         0.0277
    166 H67        -1.4499   13.3933   22.5245 H         1 ALA         0.0277
    167 H68        -0.2740   13.3354   21.1678 H         1 ALA         0.0277
    168 H69        -2.0376   11.6849   24.1290 H         1 LYS         0.1883
    169 H70        -0.4686   11.5576   26.6581 H         1 LYS         0.0797
    170 H71        -2.2470   12.9123   27.7400 H         1 LYS         0.0277
    171 H72        -3.0554   13.0895   26.1457 H         1 LYS         0.0277
    172 H73        -1.4211   13.7878   26.4066 H         1 LYS         0.0277
    173 H74        -3.2367    7.9640   27.1506 H         1 PRO         0.0802
    174 H75        -1.5303    6.3963   26.9761 H         1 PRO         0.0313
    175 H76        -1.3154    6.6500   28.7413 H         1 PRO         0.0313
    176 H77         0.6657    7.1372   26.9422 H         1 PRO         0.0287
    177 H78         0.4757    8.0860   28.4556 H         1 PRO         0.0287
    178 H79         0.4247    9.8560   27.0200 H         1 PRO         0.0524
    179 H80        -0.0969    8.8456   25.6293 H         1 PRO         0.0524
    180 H81        -4.1700    7.1840   29.0311 H         1 GLN         0.1883
    181 H82        -3.9992    9.1274   31.2869 H         1 GLN         0.0801
    182 H83        -6.4420    8.7418   31.5987 H         1 GLN         0.0337
    183 H84        -6.4475    7.7451   30.1043 H         1 GLN         0.0337
    184 H85        -7.3253   10.1226   29.8951 H         1 GLN         0.0504
    185 H86        -6.0647    9.6243   28.7164 H         1 GLN         0.0504
    186 H87        -4.7134   12.8363   29.4024 H         1 GLN         0.1814
    187 H88        -5.6711   11.8892   28.3135 H         1 GLN         0.1814
    188 H89        -4.4392    8.3567   33.3442 H         1 HIS         0.1885
    189 H90        -3.6202    5.5408   33.6888 H         1 HIS         0.0817
    190 H91        -3.8553    7.8578   35.6541 H         1 HIS         0.0420
    191 H92        -2.3484    7.2262   34.9078 H         1 HIS         0.0420
    192 H93        -4.7849    6.4035   37.8437 H         1 HIS         0.0729
    193 H94        -1.6260    3.5436   37.8698 H         1 HIS         0.1199
    194 H95        -3.6583    4.4302   39.1465 H         1 HIS         0.2361
    195 H96        -4.8214    4.0662   34.8617 H         1 ILE         0.1875
    196 H97        -7.5931    4.9670   35.4950 H         1 ILE         0.0729
    197 H98        -6.5043    2.4084   34.3191 H         1 ILE         0.0338
    198 H99        -7.5159    4.1602   32.8885 H         1 ILE         0.0267
    199 H100       -9.0313    4.0607   33.8479 H         1 ILE         0.0267
    200 H101       -7.6625    1.7102   36.3965 H         1 ILE         0.0234
    201 H102       -8.5700    1.2150   34.9276 H         1 ILE         0.0234
    202 H103       -9.1188    2.6305   35.8877 H         1 ILE         0.0234
    203 H104       -9.2209    2.8199   31.7381 H         1 ILE         0.0230
    204 H105       -9.3180    1.7160   33.1518 H         1 ILE         0.0230
    205 H106       -7.8027    1.8155   32.1924 H         1 ILE         0.0230
@<TRIPOS>BOND
     1    1    2 1  
     2    2    3 1  
     3    2    5 1  
     4    3    4 2  
     5    3    9 am 
     6    5    6 1  
     7    6    7 1  
     8    7    8 1  
     9    9   10 1  
    10   10   11 1  
    11   10   13 1  
    12   11   12 2  
    13   11   15 am 
    14   13   14 1  
    15   15   16 1  
    16   16   17 1  
    17   16   19 1  
    18   17   18 2  
    19   17   26 am 
    20   19   20 1  
    21   20   21 1  
    22   21   22 1  
    23   22   23 ar 
    24   23   24 ar 
    25   23   25 ar 
    26   26   27 1  
    27   27   28 1  
    28   27   30 1  
    29   28   29 2  
    30   28   37 am 
    31   30   31 1  
    32   31   32 1  
    33   32   33 1  
    34   33   34 ar 
    35   34   35 ar 
    36   34   36 ar 
    37   37   38 1  
    38   38   39 1  
    39   38   41 1  
    40   39   40 2  
    41   39   46 am 
    42   41   42 1  
    43   42   43 1  
    44   43   44 1  
    45   44   45 1  
    46   46   47 1  
    47   47   48 1  
    48   47   50 1  
    49   48   49 2  
    50   48   55 am 
    51   50   51 1  
    52   51   52 1  
    53   52   53 2  
    54   52   54 am 
    55   55   56 1  
    56   56   57 1  
    57   56   59 1  
    58   57   58 2  
    59   57   60 am 
    60   60   61 1  
    61   61   62 1  
    62   61   64 1  
    63   62   63 2  
    64   62   65 am 
    65   65   66 1  
    66   65   71 1  
    67   66   67 1  
    68   66   69 1  
    69   67   68 2  
    70   67   72 am 
    71   69   70 1  
    72   70   71 1  
    73   72   73 1  
    74   73   74 1  
    75   73   76 1  
    76   74   75 2  
    77   74   81 am 
    78   76   77 1  
    79   77   78 1  
    80   78   79 2  
    81   78   80 am 
    82   81   82 1  
    83   82   83 1  
    84   82   85 1  
    85   83   84 2  
    86   83   91 am 
    87   85   86 1  
    88   86   87 1  
    89   86   88 2  
    90   87   89 2  
    91   88   90 1  
    92   89   90 1  
    93   91   92 1  
    94   92   93 1  
    95   92   95 1  
    96   93   94 ar 
    97   93   99 ar 
    98   95   96 1  
    99   95   97 1  
   100   96   98 1  
   101    1  100 1  
   102    1  101 1  
   103    1  102 1  
   104    2  103 1  
   105    5  104 1  
   106    5  105 1  
   107    6  106 1  
   108    6  107 1  
   109    8  108 1  
   110    8  109 1  
   111    8  110 1  
   112    9  111 1  
   113   10  112 1  
   114   13  113 1  
   115   13  114 1  
   116   14  115 1  
   117   15  116 1  
   118   16  117 1  
   119   19  118 1  
   120   19  119 1  
   121   20  120 1  
   122   20  121 1  
   123   21  122 1  
   124   21  123 1  
   125   22  124 1  
   126   24  125 1  
   127   24  126 1  
   128   25  127 1  
   129   25  128 1  
   130   26  129 1  
   131   27  130 1  
   132   30  131 1  
   133   30  132 1  
   134   31  133 1  
   135   31  134 1  
   136   32  135 1  
   137   32  136 1  
   138   33  137 1  
   139   35  138 1  
   140   35  139 1  
   141   36  140 1  
   142   36  141 1  
   143   37  142 1  
   144   38  143 1  
   145   41  144 1  
   146   41  145 1  
   147   42  146 1  
   148   42  147 1  
   149   43  148 1  
   150   43  149 1  
   151   44  150 1  
   152   44  151 1  
   153   45  152 1  
   154   45  153 1  
   155   45  154 1  
   156   46  155 1  
   157   47  156 1  
   158   50  157 1  
   159   50  158 1  
   160   51  159 1  
   161   51  160 1  
   162   54  161 1  
   163   54  162 1  
   164   55  163 1  
   165   56  164 1  
   166   59  165 1  
   167   59  166 1  
   168   59  167 1  
   169   60  168 1  
   170   61  169 1  
   171   64  170 1  
   172   64  171 1  
   173   64  172 1  
   174   66  173 1  
   175   69  174 1  
   176   69  175 1  
   177   70  176 1  
   178   70  177 1  
   179   71  178 1  
   180   71  179 1  
   181   72  180 1  
   182   73  181 1  
   183   76  182 1  
   184   76  183 1  
   185   77  184 1  
   186   77  185 1  
   187   80  186 1  
   188   80  187 1  
   189   81  188 1  
   190   82  189 1  
   191   85  190 1  
   192   85  191 1  
   193   88  192 1  
   194   89  193 1  
   195   90  194 1  
   196   91  195 1  
   197   92  196 1  
   198   95  197 1  
   199   96  198 1  
   200   96  199 1  
   201   97  200 1  
   202   97  201 1  
   203   97  202 1  
   204   98  203 1  
   205   98  204 1  
   206   98  205 1  
@<TRIPOS>SUBSTRUCTURE
     1 MET         1

