5xwr_ligand
  -I-interpret- 

203204  0  0  0  0  0  0  0  0999 V2000
    7.7200   10.9550   16.5090 N   0  3  0  0  0
    6.3030   10.8260   16.8180 C   0  0  0  0  0
    5.5180   10.2020   15.6630 C   0  0  0  0  0
    5.5920   10.6570   14.5210 O   0  0  0  0  0
    5.7060   12.1910   17.1770 C   0  0  0  0  0
    6.7070   13.1950   17.6900 C   0  0  0  0  0
    6.1040   14.8800   17.5050 S   0  0  0  0  0
    6.4180   15.1570   15.7580 C   0  0  0  0  0
    4.7640    9.1590   15.9930 N   0  0  0  0  0
    3.8650    8.4880   15.0590 C   0  0  0  0  0
    2.3880    8.9250   15.2080 C   0  0  0  0  0
    2.0540    9.7650   16.0420 O   0  0  0  0  0
    4.0000    6.9710   15.2320 C   0  0  0  0  0
    3.1050    6.4710   16.2110 O   0  0  0  0  0
    1.5140    8.2910   14.4320 N   0  0  0  0  0
    0.0690    8.5250   14.4210 C   0  0  0  0  0
   -0.5260    7.1910   14.8630 C   0  0  0  0  0
   -1.7170    6.8980   14.7340 O   0  0  0  0  0
   -0.3640    8.9070   12.9900 C   0  0  0  0  0
   -1.8240    8.8990   12.6460 C   0  0  0  0  0
   -1.9990    8.6030   11.1520 C   0  0  0  0  0
   -1.3790    9.5900   10.2650 N   0  0  0  0  0
   -0.5130    9.3210    9.2860 C   0  0  0  0  0
   -0.1090    8.0770    9.0160 N   0  0  0  0  0
   -0.0400   10.3290    8.5690 N   0  0  0  0  0
    0.3590    6.3960   15.4390 N   0  0  0  0  0
    0.0420    5.0910   15.9730 C   0  0  0  0  0
    0.0010    5.1620   17.4800 C   0  0  0  0  0
   -0.7920    4.4730   18.1190 O   0  0  0  0  0
    1.0890    4.0860   15.4920 C   0  0  0  0  0
    0.8730    2.6570   15.9090 C   0  0  0  0  0
    2.1760    1.8790   15.7350 C   0  0  0  0  0
    2.5760    1.6460   14.3460 N   0  0  0  0  0
    2.3710    0.5030   13.7100 C   0  0  0  0  0
    2.7890    0.3400   12.4540 N   0  0  0  0  0
    1.7510   -0.4840   14.3470 N   0  0  0  0  0
    0.8500    6.0290   18.0280 N   0  0  0  0  0
    1.0020    6.1750   19.4630 C   0  0  0  0  0
    0.3970    7.4780   19.9260 C   0  0  0  0  0
    0.6910    8.5500   19.3830 O   0  0  0  0  0
    2.4890    6.1340   19.8490 C   0  0  0  0  0
    2.8030    5.4670   21.2040 C   0  0  0  0  0
    4.2730    5.1160   21.3200 C   0  0  0  0  0
    5.1340    6.3150   21.0170 C   0  0  0  0  0
    6.6050    6.0270   21.0750 N   0  3  0  0  0
   -0.4930    7.4010   20.9070 N   0  0  0  0  0
   -1.1010    8.6390   21.4020 C   0  0  0  0  0
   -0.1420    9.6210   22.0200 C   0  0  0  0  0
    1.0010    9.3030   22.3740 O   0  0  0  0  0
   -2.2370    8.3630   22.3750 C   0  0  0  0  0
   -2.4450    6.8990   22.7650 C   0  0  0  0  0
   -3.2960    6.8850   23.9730 C   0  0  0  0  0
   -4.4110    6.4910   23.9010 O   0  0  0  0  0
   -2.7230    7.1290   25.1170 N   0  0  0  0  0
   -0.6460   10.8410   22.1410 N   0  0  0  0  0
    0.1100   11.9020   22.7510 C   0  0  0  0  0
   -0.0170   11.7610   24.2410 C   0  0  0  0  0
    0.9950   11.6170   24.9250 O   0  0  0  0  0
   -0.3890   13.2730   22.2600 C   0  0  0  0  0
   -1.2500   11.6980   24.7450 N   0  0  0  0  0
   -1.4590   11.6480   26.1880 C   0  0  0  0  0
   -2.3000   10.4660   26.6740 C   0  0  0  0  0
   -3.5130   10.5680   26.7880 O   0  0  0  0  0
   -2.0890   12.9490   26.6520 C   0  0  0  0  0
   -1.6460    9.3500   27.0040 N   0  0  0  0  0
   -2.3470    8.2710   27.7200 C   0  0  0  0  0
   -2.7830    8.6380   29.1330 C   0  0  0  0  0
   -2.1900    9.4930   29.8020 O   0  0  0  0  0
   -1.3170    7.1410   27.7570 C   0  0  0  0  0
    0.0040    7.8170   27.4990 C   0  0  0  0  0
   -0.2390    9.0380   26.7030 C   0  0  0  0  0
   -3.8280    7.9460   29.5810 N   0  0  0  0  0
   -4.4930    8.2530   30.8380 C   0  0  0  0  0
   -4.3600    7.0800   31.7950 C   0  0  0  0  0
   -4.2840    5.9270   31.3800 O   0  0  0  0  0
   -5.9770    8.6000   30.6120 C   0  0  0  0  0
   -6.2640    9.8610   29.7720 C   0  0  0  0  0
   -5.4150   11.0910   30.1600 C   0  0  0  0  0
   -4.9390   11.2180   31.2960 O   0  0  0  0  0
   -5.2530   12.0160   29.2130 N   0  0  0  0  0
   -4.3340    7.3980   33.0800 N   0  0  0  0  0
   -4.1580    6.4010   34.1140 C   0  0  0  0  0
   -5.5000    5.9460   34.6030 C   0  0  0  0  0
   -6.4160    6.7490   34.6920 O   0  0  0  0  0
   -3.3490    6.9570   35.2770 C   0  0  0  0  0
   -3.1920    5.9940   36.4090 C   0  0  0  0  0
   -2.1850    5.0560   36.4490 N   0  0  0  0  0
   -3.9110    5.8280   37.5420 C   0  0  0  0  0
   -2.2880    4.3520   37.5630 C   0  0  0  0  0
   -3.3320    4.7970   38.2410 N   0  0  0  0  0
   -5.6060    4.6770   34.9680 N   0  0  0  0  0
   -6.8450    4.1610   35.5200 C   0  0  0  0  0
   -6.6660    3.7120   36.9710 C   0  0  0  0  0
   -5.5890    3.2630   37.3780 O   0  0  0  0  0
   -7.3660    2.9860   34.6850 C   0  0  0  0  0
   -8.1630    3.4950   33.4790 C   0  0  0  0  0
   -8.2400    2.0720   35.5330 C   0  0  0  0  0
   -8.6600    2.3860   32.5790 C   0  0  0  0  0
   -7.5920    3.7830   37.7860 O   0  0  0  0  0
    8.1001   10.0384   16.2728 H   0  0  0  0  0
    7.8380   11.5876   15.7176 H   0  0  0  0  0
    8.2111   11.3291   17.3209 H   0  0  0  0  0
    6.2206   10.1579   17.6753 H   0  0  0  0  0
    4.9838   12.0234   17.9760 H   0  0  0  0  0
    5.2800   12.6036   16.2625 H   0  0  0  0  0
    7.6263   13.0918   17.1135 H   0  0  0  0  0
    6.8767   13.0032   18.7495 H   0  0  0  0  0
    7.4845   15.0495   15.5603 H   0  0  0  0  0
    5.8627   14.4262   15.1700 H   0  0  0  0  0
    6.0966   16.1628   15.4874 H   0  0  0  0  0
    4.8161    8.8086   16.9495 H   0  0  0  0  0
    4.1621    8.7817   14.0522 H   0  0  0  0  0
    5.0179    6.7523   15.5548 H   0  0  0  0  0
    3.7663    6.4954   14.2795 H   0  0  0  0  0
    3.2183    5.5211   16.2911 H   0  0  0  0  0
    1.8797    7.5850   13.7931 H   0  0  0  0  0
   -0.2577    9.3365   15.0713 H   0  0  0  0  0
    0.0798    8.1450   12.3493 H   0  0  0  0  0
   -0.0527    9.9447   12.8698 H   0  0  0  0  0
   -2.2553    9.8735   12.8750 H   0  0  0  0  0
   -2.3292    8.1291   13.2293 H   0  0  0  0  0
   -3.0693    8.6145   10.9461 H   0  0  0  0  0
   -1.5145    7.6465   10.9558 H   0  0  0  0  0
   -1.6311   10.5680   10.4080 H   0  0  0  0  0
    0.5583    7.9096    8.2630 H   0  0  0  0  0
   -0.4678    7.2943    9.5628 H   0  0  0  0  0
   -0.3390   11.2830    8.7710 H   0  0  0  0  0
    1.3225    6.7228   15.5109 H   0  0  0  0  0
   -0.9369    4.7643   15.6220 H   0  0  0  0  0
    2.0355    4.3944   15.9360 H   0  0  0  0  0
    1.0454    4.0967   14.4029 H   0  0  0  0  0
    0.0950    2.2096   15.2904 H   0  0  0  0  0
    0.5647    2.6241   16.9540 H   0  0  0  0  0
    2.0205    0.8992   16.1865 H   0  0  0  0  0
    2.9635    2.4771   16.1934 H   0  0  0  0  0
    3.0366    2.4038   13.8420 H   0  0  0  0  0
    2.6333   -0.5474   11.9758 H   0  0  0  0  0
    3.2643    1.1027   11.9716 H   0  0  0  0  0
    1.4415   -0.3543   15.3102 H   0  0  0  0  0
    1.4164    6.6141   17.4138 H   0  0  0  0  0
    0.4830    5.3481   19.9478 H   0  0  0  0  0
    2.8185    7.1700   19.9284 H   0  0  0  0  0
    2.9923    5.5403   19.0859 H   0  0  0  0  0
    2.2207    4.5488   21.2811 H   0  0  0  0  0
    2.5501    6.1663   22.0010 H   0  0  0  0  0
    4.5039    4.3271   20.6041 H   0  0  0  0  0
    4.4764    4.7852   22.3385 H   0  0  0  0  0
    4.9188    7.0714   21.7717 H   0  0  0  0  0
    4.9032    6.6351   20.0010 H   0  0  0  0  0
    7.1255    6.8777   20.8608 H   0  0  0  0  0
    6.8502    5.7034   22.0107 H   0  0  0  0  0
    6.8360    5.3048   20.3928 H   0  0  0  0  0
   -0.7487    6.4988   21.3083 H   0  0  0  0  0
   -1.4875    9.1126   20.4996 H   0  0  0  0  0
   -3.1522    8.6794   21.8746 H   0  0  0  0  0
   -1.9876    8.8923   23.2947 H   0  0  0  0  0
   -1.4887    6.4152   22.9637 H   0  0  0  0  0
   -2.9219    6.3497   21.9533 H   0  0  0  0  0
   -3.2361    6.9815   25.9861 H   0  0  0  0  0
   -1.7612    7.4675   25.1437 H   0  0  0  0  0
   -1.5867   11.0309   21.7954 H   0  0  0  0  0
    1.1613   11.8354   22.4708 H   0  0  0  0  0
   -0.2746   13.3336   21.1777 H   0  0  0  0  0
   -1.4403   13.3910   22.5227 H   0  0  0  0  0
    0.1958   14.0618   22.7332 H   0  0  0  0  0
   -2.0534   11.6847   24.1166 H   0  0  0  0  0
   -0.4718   11.5054   26.6276 H   0  0  0  0  0
   -1.4263   13.7793   26.4082 H   0  0  0  0  0
   -3.0464   13.0870   26.1496 H   0  0  0  0  0
   -2.2451   12.9114   27.7301 H   0  0  0  0  0
   -3.2801    8.0172   27.2170 H   0  0  0  0  0
   -1.5313    6.3718   27.0151 H   0  0  0  0  0
   -1.3247    6.6157   28.7120 H   0  0  0  0  0
    0.6652    7.1437   26.9535 H   0  0  0  0  0
    0.4780    8.0788   28.4450 H   0  0  0  0  0
    0.4396    9.8521   26.9576 H   0  0  0  0  0
   -0.0552    8.8936   25.6384 H   0  0  0  0  0
   -4.1768    7.1687   29.0201 H   0  0  0  0  0
   -4.0106    9.1262   31.2771 H   0  0  0  0  0
   -6.3977    8.7909   31.5993 H   0  0  0  0  0
   -6.4033    7.7633   30.0586 H   0  0  0  0  0
   -7.3078   10.1266   29.9392 H   0  0  0  0  0
   -6.0223    9.6184   28.7372 H   0  0  0  0  0
   -4.7218   12.8634   29.4134 H   0  0  0  0  0
   -5.6603   11.8760   28.2884 H   0  0  0  0  0
   -4.4413    8.3759   33.3494 H   0  0  0  0  0
   -3.6125    5.5571   33.6915 H   0  0  0  0  0
   -3.8814    7.8279   35.6594 H   0  0  0  0  0
   -2.3517    7.1867   34.9019 H   0  0  0  0  0
   -4.7857    6.4041   37.8439 H   0  0  0  0  0
   -1.6254    3.5428   37.8701 H   0  0  0  0  0
   -4.8057    4.0539   34.8596 H   0  0  0  0  0
   -7.5719    4.9728   35.4928 H   0  0  0  0  0
   -4.9535    3.2576   36.6585 H   0  0  0  0  0
   -6.5072    2.4184   34.3265 H   0  0  0  0  0
   -7.4992    4.1261   32.8881 H   0  0  0  0  0
   -9.0354    4.0252   33.8608 H   0  0  0  0  0
   -7.6549    1.6821   36.3659 H   0  0  0  0  0
   -9.0893    2.6372   35.9170 H   0  0  0  0  0
   -8.5993    1.2447   34.9210 H   0  0  0  0  0
   -7.8096    1.8215   32.1966 H   0  0  0  0  0
   -9.3118    1.7228   33.1477 H   0  0  0  0  0
   -9.2156    2.8171   31.7462 H   0  0  0  0  0
  1  2  1  0  0  0
  2  3  1  0  0  0
  2  5  1  0  0  0
  3  4  2  0  0  0
  3  9  1  0  0  0
  5  6  1  0  0  0
  6  7  1  0  0  0
  7  8  1  0  0  0
  9 10  1  0  0  0
 10 11  1  0  0  0
 10 13  1  0  0  0
 11 12  2  0  0  0
 11 15  1  0  0  0
 13 14  1  0  0  0
 15 16  1  0  0  0
 16 17  1  0  0  0
 16 19  1  0  0  0
 17 18  2  0  0  0
 17 26  1  0  0  0
 19 20  1  0  0  0
 20 21  1  0  0  0
 21 22  1  0  0  0
 22 23  1  0  0  0
 23 24  1  0  0  0
 23 25  2  0  0  0
 26 27  1  0  0  0
 27 28  1  0  0  0
 27 30  1  0  0  0
 28 29  2  0  0  0
 28 37  1  0  0  0
 30 31  1  0  0  0
 31 32  1  0  0  0
 32 33  1  0  0  0
 33 34  1  0  0  0
 34 35  1  0  0  0
 34 36  2  0  0  0
 37 38  1  0  0  0
 38 39  1  0  0  0
 38 41  1  0  0  0
 39 40  2  0  0  0
 39 46  1  0  0  0
 41 42  1  0  0  0
 42 43  1  0  0  0
 43 44  1  0  0  0
 44 45  1  0  0  0
 46 47  1  0  0  0
 47 48  1  0  0  0
 47 50  1  0  0  0
 48 49  2  0  0  0
 48 55  1  0  0  0
 50 51  1  0  0  0
 51 52  1  0  0  0
 52 53  2  0  0  0
 52 54  1  0  0  0
 55 56  1  0  0  0
 56 57  1  0  0  0
 56 59  1  0  0  0
 57 58  2  0  0  0
 57 60  1  0  0  0
 60 61  1  0  0  0
 61 62  1  0  0  0
 61 64  1  0  0  0
 62 63  2  0  0  0
 62 65  1  0  0  0
 65 66  1  0  0  0
 65 71  1  0  0  0
 66 67  1  0  0  0
 66 69  1  0  0  0
 67 68  2  0  0  0
 67 72  1  0  0  0
 69 70  1  0  0  0
 70 71  1  0  0  0
 72 73  1  0  0  0
 73 74  1  0  0  0
 73 76  1  0  0  0
 74 75  2  0  0  0
 74 81  1  0  0  0
 76 77  1  0  0  0
 77 78  1  0  0  0
 78 79  2  0  0  0
 78 80  1  0  0  0
 81 82  1  0  0  0
 82 83  1  0  0  0
 82 85  1  0  0  0
 83 84  2  0  0  0
 83 91  1  0  0  0
 85 86  1  0  0  0
 86 87  4  0  0  0
 86 88  4  0  0  0
 87 89  4  0  0  0
 88 90  4  0  0  0
 89 90  4  0  0  0
 91 92  1  0  0  0
 92 93  1  0  0  0
 92 95  1  0  0  0
 93 94  1  0  0  0
 93 99  2  0  0  0
 95 96  1  0  0  0
 95 97  1  0  0  0
 96 98  1  0  0  0
  1100  1  0  0  0
  1101  1  0  0  0
  1102  1  0  0  0
  2103  1  0  0  0
  5104  1  0  0  0
  5105  1  0  0  0
  6106  1  0  0  0
  6107  1  0  0  0
  8108  1  0  0  0
  8109  1  0  0  0
  8110  1  0  0  0
  9111  1  0  0  0
 10112  1  0  0  0
 13113  1  0  0  0
 13114  1  0  0  0
 14115  1  0  0  0
 15116  1  0  0  0
 16117  1  0  0  0
 19118  1  0  0  0
 19119  1  0  0  0
 20120  1  0  0  0
 20121  1  0  0  0
 21122  1  0  0  0
 21123  1  0  0  0
 22124  1  0  0  0
 24125  1  0  0  0
 24126  1  0  0  0
 25127  1  0  0  0
 26128  1  0  0  0
 27129  1  0  0  0
 30130  1  0  0  0
 30131  1  0  0  0
 31132  1  0  0  0
 31133  1  0  0  0
 32134  1  0  0  0
 32135  1  0  0  0
 33136  1  0  0  0
 35137  1  0  0  0
 35138  1  0  0  0
 36139  1  0  0  0
 37140  1  0  0  0
 38141  1  0  0  0
 41142  1  0  0  0
 41143  1  0  0  0
 42144  1  0  0  0
 42145  1  0  0  0
 43146  1  0  0  0
 43147  1  0  0  0
 44148  1  0  0  0
 44149  1  0  0  0
 45150  1  0  0  0
 45151  1  0  0  0
 45152  1  0  0  0
 46153  1  0  0  0
 47154  1  0  0  0
 50155  1  0  0  0
 50156  1  0  0  0
 51157  1  0  0  0
 51158  1  0  0  0
 54159  1  0  0  0
 54160  1  0  0  0
 55161  1  0  0  0
 56162  1  0  0  0
 59163  1  0  0  0
 59164  1  0  0  0
 59165  1  0  0  0
 60166  1  0  0  0
 61167  1  0  0  0
 64168  1  0  0  0
 64169  1  0  0  0
 64170  1  0  0  0
 66171  1  0  0  0
 69172  1  0  0  0
 69173  1  0  0  0
 70174  1  0  0  0
 70175  1  0  0  0
 71176  1  0  0  0
 71177  1  0  0  0
 72178  1  0  0  0
 73179  1  0  0  0
 76180  1  0  0  0
 76181  1  0  0  0
 77182  1  0  0  0
 77183  1  0  0  0
 80184  1  0  0  0
 80185  1  0  0  0
 81186  1  0  0  0
 82187  1  0  0  0
 85188  1  0  0  0
 85189  1  0  0  0
 88190  1  0  0  0
 89191  1  0  0  0
 91192  1  0  0  0
 92193  1  0  0  0
 94194  1  0  0  0
 95195  1  0  0  0
 96196  1  0  0  0
 96197  1  0  0  0
 97198  1  0  0  0
 97199  1  0  0  0
 97200  1  0  0  0
 98201  1  0  0  0
 98202  1  0  0  0
 98203  1  0  0  0
M  END
$$$$
