4xcu_ligand
  -I-interpret- 

 59 62  0  0  0  0  0  0  0  0999 V2000
  -11.0200    5.2650  -28.6750 O   0  0  0  0  0
  -11.8280    5.9200  -28.0140 C   0  0  0  0  0
  -13.1350    6.3960  -28.6460 C   0  0  0  0  0
  -14.1550    7.0390  -27.7130 C   0  0  0  0  0
  -11.5930    6.2540  -26.6970 N   0  0  0  0  0
  -10.4220    5.9540  -25.9230 C   0  0  0  0  0
   -9.1950    5.4780  -26.3890 C   0  0  0  0  0
   -8.1470    5.2420  -25.4950 C   0  0  0  0  0
   -8.3010    5.4900  -24.1350 C   0  0  0  0  0
   -9.5150    5.9800  -23.6480 C   0  0  0  0  0
   -9.5670    6.2210  -22.1650 C   0  0  0  0  0
  -10.5800    6.1750  -24.5460 C   0  0  0  0  0
  -11.8380    6.6950  -24.2340 N   0  0  0  0  0
  -12.6410    6.1260  -23.2590 C   0  0  0  0  0
  -13.7410    6.8820  -23.0860 N   0  0  0  0  0
  -14.6270    6.5040  -22.1550 C   0  0  0  0  0
  -14.3720    5.3530  -21.4340 C   0  0  0  0  0
  -15.2760    4.9730  -20.4590 C   0  0  0  0  0
  -12.3900    4.9950  -22.5950 N   0  0  0  0  0
  -13.2530    4.5950  -21.6390 C   0  0  0  0  0
  -13.0170    3.4410  -20.8860 C   0  0  0  0  0
  -13.9440    3.0470  -19.8910 C   0  0  0  0  0
  -15.0360    3.8440  -19.7040 C   0  0  0  0  0
  -16.0170    3.5160  -18.6220 C   0  0  0  0  0
  -16.0660    4.3300  -17.5120 C   0  0  0  0  0
  -15.1030    5.7820  -17.2470 Cl  0  0  0  0  0
  -16.8070    2.4310  -18.5860 C   0  0  0  0  0
  -16.8330    1.3560  -19.9280 Cl  0  0  0  0  0
  -17.7270    2.1780  -17.5660 C   0  0  0  0  0
  -18.4980    1.0460  -17.6490 O   0  0  0  0  0
  -19.5450    0.8310  -16.6400 C   0  0  0  0  0
  -17.7490    3.0140  -16.4820 C   0  0  0  0  0
  -16.9400    4.1190  -16.4700 C   0  0  0  0  0
  -16.9250    5.0020  -15.4420 O   0  0  0  0  0
  -18.1420    5.4430  -14.8240 C   0  0  0  0  0
  -13.6163    5.5038  -29.0465 H   0  0  0  0  0
  -12.8569    7.1681  -29.3634 H   0  0  0  0  0
  -14.4424    6.3236  -26.9425 H   0  0  0  0  0
  -13.7141    7.9199  -27.2464 H   0  0  0  0  0
  -15.0352    7.3316  -28.2854 H   0  0  0  0  0
  -12.3322    6.7708  -26.2206 H   0  0  0  0  0
   -9.0540    5.2899  -27.4533 H   0  0  0  0  0
   -7.1972    4.8589  -25.8681 H   0  0  0  0  0
   -7.4746    5.3020  -23.4495 H   0  0  0  0  0
   -9.3793    5.2848  -21.6393 H   0  0  0  0  0
   -8.8069    6.9523  -21.8902 H   0  0  0  0  0
  -10.5524    6.6000  -21.8941 H   0  0  0  0  0
  -12.1746    7.5157  -24.7375 H   0  0  0  0  0
  -15.5273    7.0902  -21.9706 H   0  0  0  0  0
  -16.1757    5.5640  -20.2876 H   0  0  0  0  0
  -12.1214    2.8459  -21.0645 H   0  0  0  0  0
  -13.7918    2.1446  -19.2989 H   0  0  0  0  0
  -19.0902    0.7852  -15.6505 H   0  0  0  0  0
  -20.2573    1.6553  -16.6761 H   0  0  0  0  0
  -20.0611   -0.1063  -16.8479 H   0  0  0  0  0
  -18.4039    2.8022  -15.6368 H   0  0  0  0  0
  -18.7692    5.9332  -15.5686 H   0  0  0  0  0
  -18.6703    4.5837  -14.4109 H   0  0  0  0  0
  -17.9080    6.1460  -14.0245 H   0  0  0  0  0
  1  2  2  0  0  0
  2  3  1  0  0  0
  2  5  1  0  0  0
  3  4  1  0  0  0
  5  6  1  0  0  0
  6  7  4  0  0  0
  6 12  4  0  0  0
  7  8  4  0  0  0
  8  9  4  0  0  0
  9 10  4  0  0  0
 10 11  1  0  0  0
 10 12  4  0  0  0
 12 13  1  0  0  0
 13 14  1  0  0  0
 14 15  4  0  0  0
 14 19  4  0  0  0
 15 16  4  0  0  0
 16 17  4  0  0  0
 17 18  4  0  0  0
 17 20  4  0  0  0
 18 23  4  0  0  0
 19 20  4  0  0  0
 20 21  4  0  0  0
 21 22  4  0  0  0
 22 23  4  0  0  0
 23 24  1  0  0  0
 24 25  4  0  0  0
 24 27  4  0  0  0
 25 26  1  0  0  0
 25 33  4  0  0  0
 27 28  1  0  0  0
 27 29  4  0  0  0
 29 30  1  0  0  0
 29 32  4  0  0  0
 30 31  1  0  0  0
 32 33  4  0  0  0
 33 34  1  0  0  0
 34 35  1  0  0  0
  3 36  1  0  0  0
  3 37  1  0  0  0
  4 38  1  0  0  0
  4 39  1  0  0  0
  4 40  1  0  0  0
  5 41  1  0  0  0
  7 42  1  0  0  0
  8 43  1  0  0  0
  9 44  1  0  0  0
 11 45  1  0  0  0
 11 46  1  0  0  0
 11 47  1  0  0  0
 13 48  1  0  0  0
 16 49  1  0  0  0
 18 50  1  0  0  0
 21 51  1  0  0  0
 22 52  1  0  0  0
 31 53  1  0  0  0
 31 54  1  0  0  0
 31 55  1  0  0  0
 32 56  1  0  0  0
 35 57  1  0  0  0
 35 58  1  0  0  0
 35 59  1  0  0  0
M  END
$$$$
