6czu_ligand
  -I-interpret- 

 44 46  0  0  0  0  0  0  0  0999 V2000
  -10.6710    0.8470    6.3570 C   0  0  0  0  0
  -11.8380    0.3150    6.8310 C   0  0  0  0  0
  -12.4770   -0.7220    6.1830 C   0  0  0  0  0
  -11.8880   -1.2340    5.0610 C   0  0  0  0  0
  -10.7040   -0.6940    4.5510 C   0  0  0  0  0
  -13.7810   -1.3400    6.5890 C   0  0  0  0  0
  -13.2190   -3.0200    8.2960 C   0  0  0  0  0
  -12.5340   -4.7650    9.9050 C   0  0  0  0  0
  -14.7320    0.1160    8.7120 O   0  0  0  0  0
  -14.2120   -1.0230    9.0040 C   0  0  0  0  0
  -13.7360   -1.8510    7.9950 N   0  0  0  0  0
  -10.0840    0.3270    5.1750 C   0  0  0  0  0
   -8.7310    0.8490    4.7040 C   0  0  0  0  0
   -8.7570    0.9300    3.2330 O   0  0  0  0  0
   -7.3930    0.0800    5.1810 C   0  0  0  0  0
  -14.0480   -1.4480   10.3190 C   0  0  0  0  0
  -13.5500   -2.6860   10.6480 C   0  0  0  0  0
  -13.1040   -3.4770    9.6070 C   0  0  0  0  0
  -11.4190   -5.1880   10.7580 C   0  0  0  0  0
  -10.6030   -4.2650   11.5930 C   0  0  0  0  0
  -11.2480   -6.5050   10.6910 N   0  0  0  0  0
  -12.1790   -7.0650    9.8120 O   0  0  0  0  0
  -12.9390   -6.0400    9.3290 C   0  0  0  0  0
  -14.0070   -6.3820    8.3580 C   0  0  0  0  0
  -10.1920    1.6702    6.8871 H   0  0  0  0  0
  -12.2745    0.7204    7.7438 H   0  0  0  0  0
  -12.3509   -2.0805    4.5537 H   0  0  0  0  0
  -10.2763   -1.1042    3.6362 H   0  0  0  0  0
  -13.9854   -2.1794    5.9244 H   0  0  0  0  0
  -14.5575   -0.5778    6.5248 H   0  0  0  0  0
  -12.8653   -3.6590    7.4869 H   0  0  0  0  0
   -8.6341    1.8137    5.2020 H   0  0  0  0  0
   -7.9118    1.2574    2.9167 H   0  0  0  0  0
   -7.3331    0.0986    6.2692 H   0  0  0  0  0
   -7.4265   -0.9532    4.8353 H   0  0  0  0  0
   -6.5196    0.5775    4.7592 H   0  0  0  0  0
  -14.3271   -0.7685   11.1243 H   0  0  0  0  0
  -13.5089   -3.0278   11.6822 H   0  0  0  0  0
  -10.1216   -3.5267   10.9517 H   0  0  0  0  0
  -11.2491   -3.7590   12.3103 H   0  0  0  0  0
   -9.8428   -4.8358   12.1263 H   0  0  0  0  0
  -14.9748   -6.0921    8.7672 H   0  0  0  0  0
  -13.8315   -5.8484    7.4239 H   0  0  0  0  0
  -13.9968   -7.4559    8.1719 H   0  0  0  0  0
  2  1  4  0  0  0
  1 12  4  0  0  0
  3  2  4  0  0  0
  3  4  4  0  0  0
  6  3  1  0  0  0
  4  5  4  0  0  0
  5 12  4  0  0  0
 11  6  1  0  0  0
 11  7  1  0  0  0
  7 18  2  0  0  0
 18  8  1  0  0  0
  8 19  4  0  0  0
  8 23  4  0  0  0
 10  9  2  0  0  0
 10 11  1  0  0  0
 10 16  1  0  0  0
 12 13  1  0  0  0
 13 14  1  0  0  0
 13 15  1  0  0  0
 16 17  2  0  0  0
 17 18  1  0  0  0
 19 20  1  0  0  0
 19 21  4  0  0  0
 21 22  4  0  0  0
 22 23  4  0  0  0
 23 24  1  0  0  0
  1 25  1  0  0  0
  2 26  1  0  0  0
  4 27  1  0  0  0
  5 28  1  0  0  0
  6 29  1  0  0  0
  6 30  1  0  0  0
  7 31  1  0  0  0
 13 32  1  0  0  0
 14 33  1  0  0  0
 15 34  1  0  0  0
 15 35  1  0  0  0
 15 36  1  0  0  0
 16 37  1  0  0  0
 17 38  1  0  0  0
 20 39  1  0  0  0
 20 40  1  0  0  0
 20 41  1  0  0  0
 24 42  1  0  0  0
 24 43  1  0  0  0
 24 44  1  0  0  0
M  END
$$$$
