5q0t_ligand
  -I-interpret- 

 52 55  0  0  0  0  0  0  0  0999 V2000
   42.6760   11.7390    0.8830 C   0  0  0  0  0
   42.2620    9.4840    4.6880 C   0  0  0  0  0
   43.5160    9.6370    3.8420 C   0  0  0  0  0
   42.6920   12.2320   -0.5140 C   0  0  0  0  0
   42.7310   13.1040   -3.1630 C   0  0  0  0  0
   42.7650   11.3170   -1.5620 C   0  0  0  0  0
   41.8160   13.0000    8.2390 C   0  0  0  0  0
   42.8370   13.6010    9.0090 C   0  0  0  0  0
   43.9460   12.8620    9.1260 C   0  0  0  0  0
   40.9450   13.4300    1.8810 C   0  0  0  0  0
   39.6350   15.6420    0.1130 C   0  0  0  0  0
   38.9920   14.4270    0.7480 C   0  0  0  0  0
   37.8440   13.9070   -0.0850 C   0  0  0  0  0
   39.9920   13.3660    0.9290 N   0  0  0  0  0
   41.0800   14.3460    2.6820 O   0  0  0  0  0
   41.8580   12.3160    1.9420 N   0  0  0  0  0
   42.1140   11.5870    3.1010 C   0  0  0  0  0
   41.4920   11.8320    4.4350 C   0  0  0  0  0
   41.9520   10.7670    5.3500 N   0  0  0  0  0
   43.0270   10.6070    2.8030 C   0  0  0  0  0
   43.3660   10.7100    1.4270 C   0  0  0  0  0
   42.6400   13.5910   -0.8160 C   0  0  0  0  0
   42.6570   14.0190   -2.1340 C   0  0  0  0  0
   42.7840   11.7540   -2.8770 C   0  0  0  0  0
   41.2690   10.7190    6.8150 S   0  0  0  0  0
   39.9690   11.2950    6.6940 O   0  0  0  0  0
   41.4060    9.3850    7.3070 O   0  0  0  0  0
   42.2270   11.7740    7.7960 C   0  0  0  0  0
   43.8160   11.3760    8.3030 S   0  0  0  0  0
   42.4266    8.7165    5.4443 H   0  0  0  0  0
   41.4273    9.1947    4.0495 H   0  0  0  0  0
   43.8962    8.7004    3.4342 H   0  0  0  0  0
   44.3894    9.9799    4.3967 H   0  0  0  0  0
   42.7476   13.4450   -4.1982 H   0  0  0  0  0
   42.8075   10.2494   -1.3461 H   0  0  0  0  0
   40.8446   13.4477    8.0294 H   0  0  0  0  0
   42.7301   14.5835    9.4687 H   0  0  0  0  0
   44.8295   13.1742    9.6828 H   0  0  0  0  0
   40.0168   15.3760   -0.8727 H   0  0  0  0  0
   38.8932   16.4346    0.0150 H   0  0  0  0  0
   40.4563   15.9869    0.7412 H   0  0  0  0  0
   38.5968   14.7291    1.7179 H   0  0  0  0  0
   37.0874   14.6852   -0.1847 H   0  0  0  0  0
   38.2110   13.6267   -1.0723 H   0  0  0  0  0
   37.4083   13.0352    0.4031 H   0  0  0  0  0
   39.9645   12.5531    0.3135 H   0  0  0  0  0
   40.4051   11.8181    4.3541 H   0  0  0  0  0
   41.7852   12.8105    4.8153 H   0  0  0  0  0
   44.0671   10.0656    0.8965 H   0  0  0  0  0
   42.5856   14.3228   -0.0100 H   0  0  0  0  0
   42.6116   15.0847   -2.3585 H   0  0  0  0  0
   42.8410   11.0291   -3.6890 H   0  0  0  0  0
  1  4  1  0  0  0
 16  1  4  0  0  0
 21  1  4  0  0  0
  2  3  1  0  0  0
 19  2  1  0  0  0
  3 20  1  0  0  0
  4  6  4  0  0  0
  4 22  4  0  0  0
 23  5  4  0  0  0
 24  5  4  0  0  0
  6 24  4  0  0  0
  7  8  4  0  0  0
 28  7  4  0  0  0
  8  9  4  0  0  0
  9 29  4  0  0  0
 10 14  1  0  0  0
 10 15  2  0  0  0
 16 10  1  0  0  0
 12 11  1  0  0  0
 12 13  1  0  0  0
 14 12  1  0  0  0
 17 16  4  0  0  0
 18 17  1  0  0  0
 17 20  4  0  0  0
 19 18  1  0  0  0
 25 19  1  0  0  0
 20 21  4  0  0  0
 22 23  4  0  0  0
 25 26  2  0  0  0
 25 27  2  0  0  0
 25 28  1  0  0  0
 28 29  4  0  0  0
  2 30  1  0  0  0
  2 31  1  0  0  0
  3 32  1  0  0  0
  3 33  1  0  0  0
  5 34  1  0  0  0
  6 35  1  0  0  0
  7 36  1  0  0  0
  8 37  1  0  0  0
  9 38  1  0  0  0
 11 39  1  0  0  0
 11 40  1  0  0  0
 11 41  1  0  0  0
 12 42  1  0  0  0
 13 43  1  0  0  0
 13 44  1  0  0  0
 13 45  1  0  0  0
 14 46  1  0  0  0
 18 47  1  0  0  0
 18 48  1  0  0  0
 21 49  1  0  0  0
 22 50  1  0  0  0
 23 51  1  0  0  0
 24 52  1  0  0  0
M  END
$$$$
