### 
### Created by X-TOOL on Mon Sep 10 21:13:03 2018
### 

@<TRIPOS>MOLECULE
3mle_ligand
   39    41     1     0     0
SMALL
GAST_HUCK


@<TRIPOS>ATOM
      1 PB        -10.7210   18.9350  -39.8610 P.3       1 ADP         0.2069
      2 O1B       -11.0550   17.7110  -38.9840 O.co2     1 ADP        -0.5891
      3 O2B       -11.8550   19.9930  -39.7280 O.co2     1 ADP        -0.5891
      4 O3B        -9.2580   19.4590  -39.6890 O.co2     1 ADP        -0.5891
      5 PA        -11.4400   19.4190  -42.5160 P.3       1 ADP         0.3276
      6 O1A       -11.1200   20.8480  -42.0320 O.co2     1 ADP        -0.5556
      7 O2A       -12.8930   19.0930  -42.9660 O.co2     1 ADP        -0.5556
      8 O3A       -10.8480   18.4460  -41.3740 O.3       1 ADP        -0.1548
      9 O5'       -10.3150   18.9910  -43.6310 O.3       1 ADP        -0.2436
     10 C5'       -10.3090   17.7980  -44.4350 C.3       1 ADP         0.1132
     11 C4'       -10.0420   18.1440  -45.9170 C.3       1 ADP         0.1189
     12 O4'       -10.6150   17.1430  -46.7660 O.3       1 ADP        -0.3364
     13 C3'       -10.6330   19.4620  -46.4370 C.3       1 ADP         0.1149
     14 O3'        -9.7530   20.0190  -47.4280 O.3       1 ADP        -0.3864
     15 C2'       -11.9820   19.1030  -47.0510 C.3       1 ADP         0.1385
     16 O2'       -12.4070   19.9310  -48.1660 O.3       1 ADP        -0.3836
     17 C1'       -11.7790   17.6410  -47.4490 C.3       1 ADP         0.2010
     18 N9        -12.9540   16.8060  -47.0790 N.pl3     1 ADP        -0.1919
     19 C8        -13.4860   16.6830  -45.8390 C.2       1 ADP         0.1123
     20 N7        -14.5510   15.8310  -45.8510 N.2       1 ADP        -0.2958
     21 C5        -14.7090   15.3890  -47.1200 C.ar      1 ADP         0.1045
     22 C6        -15.6360   14.4740  -47.8320 C.ar      1 ADP         0.1298
     23 N6        -16.6220   13.8540  -47.1510 N.pl3     1 ADP        -0.3152
     24 N1        -15.4590   14.2890  -49.1730 N.ar      1 ADP        -0.2698
     25 C2        -14.4620   14.8880  -49.8650 C.ar      1 ADP         0.0533
     26 N3        -13.5850   15.7440  -49.2810 N.ar      1 ADP        -0.2714
     27 C4        -13.6510   16.0320  -47.9380 C.ar      1 ADP         0.1613
     28 H         -11.2816   17.3126  -44.3548 H         1 ADP         0.0648
     29 H          -9.5202   17.1354  -44.0788 H         1 ADP         0.0648
     30 H          -8.9549   18.2170  -45.9484 H         1 ADP         0.0651
     31 H         -10.7511   20.2033  -45.6467 H         1 ADP         0.0648
     32 H         -10.1212   20.8434  -47.7542 H         1 ADP         0.2100
     33 H         -12.7972   19.2727  -46.3476 H         1 ADP         0.0676
     34 H         -11.7626   19.8668  -48.8746 H         1 ADP         0.2101
     35 H         -11.6546   17.5870  -48.5305 H         1 ADP         0.0996
     36 H         -13.1134   17.1955  -44.9521 H         1 ADP         0.1349
     37 H         -16.7290   14.0145  -46.1494 H         1 ADP         0.1820
     38 H         -17.2604   13.2248  -47.6378 H         1 ADP         0.1820
     39 H         -14.3595   14.6755  -50.9292 H         1 ADP         0.0996
@<TRIPOS>BOND
     1    1    2 ar 
     2    1    3 ar 
     3    1    4 ar 
     4    8    1 1  
     5    5    6 ar 
     6    5    7 ar 
     7    5    8 1  
     8    5    9 1  
     9    9   10 1  
    10   10   11 1  
    11   11   12 1  
    12   11   13 1  
    13   12   17 1  
    14   13   14 1  
    15   13   15 1  
    16   15   16 1  
    17   15   17 1  
    18   17   18 1  
    19   18   19 1  
    20   18   27 1  
    21   19   20 2  
    22   20   21 1  
    23   21   22 ar 
    24   21   27 ar 
    25   22   23 1  
    26   22   24 ar 
    27   24   25 ar 
    28   25   26 ar 
    29   26   27 ar 
    30   10   28 1  
    31   10   29 1  
    32   11   30 1  
    33   13   31 1  
    34   14   32 1  
    35   15   33 1  
    36   16   34 1  
    37   17   35 1  
    38   19   36 1  
    39   23   37 1  
    40   23   38 1  
    41   25   39 1  
@<TRIPOS>SUBSTRUCTURE
     1 ADP         1

