3mle_ligand
  -I-interpret- 

 42 44  0  0  0  0  0  0  0  0999 V2000
  -10.7210   18.9350  -39.8610 P   0  0  0  0  0
  -11.0550   17.7110  -38.9840 O   0  0  0  0  0
  -11.8550   19.9930  -39.7280 O   0  0  0  0  0
   -9.2580   19.4590  -39.6890 O   0  0  0  0  0
  -11.4400   19.4190  -42.5160 P   0  0  0  0  0
  -11.1200   20.8480  -42.0320 O   0  0  0  0  0
  -12.8930   19.0930  -42.9660 O   0  0  0  0  0
  -10.8480   18.4460  -41.3740 O   0  0  0  0  0
  -10.3150   18.9910  -43.6310 O   0  0  0  0  0
  -10.3090   17.7980  -44.4350 C   0  0  0  0  0
  -10.0420   18.1440  -45.9170 C   0  0  0  0  0
  -10.6150   17.1430  -46.7660 O   0  0  0  0  0
  -10.6330   19.4620  -46.4370 C   0  0  0  0  0
   -9.7530   20.0190  -47.4280 O   0  0  0  0  0
  -11.9820   19.1030  -47.0510 C   0  0  0  0  0
  -12.4070   19.9310  -48.1660 O   0  0  0  0  0
  -11.7790   17.6410  -47.4490 C   0  0  0  0  0
  -12.9540   16.8060  -47.0790 N   0  0  0  0  0
  -13.4860   16.6830  -45.8390 C   0  0  0  0  0
  -14.5510   15.8310  -45.8510 N   0  0  0  0  0
  -14.7090   15.3890  -47.1200 C   0  0  0  0  0
  -15.6360   14.4740  -47.8320 C   0  0  0  0  0
  -16.6220   13.8540  -47.1510 N   0  0  0  0  0
  -15.4590   14.2890  -49.1730 N   0  0  0  0  0
  -14.4620   14.8880  -49.8650 C   0  0  0  0  0
  -13.5850   15.7440  -49.2810 N   0  0  0  0  0
  -13.6510   16.0320  -47.9380 C   0  0  0  0  0
  -11.6463   20.7544  -40.2741 H   0  0  0  0  0
   -9.1215   20.2174  -40.2616 H   0  0  0  0  0
  -12.9436   18.1741  -43.2391 H   0  0  0  0  0
  -11.2816   17.3126  -44.3548 H   0  0  0  0  0
   -9.5202   17.1354  -44.0788 H   0  0  0  0  0
   -8.9549   18.2170  -45.9484 H   0  0  0  0  0
  -10.7511   20.2033  -45.6467 H   0  0  0  0  0
  -10.1212   20.8434  -47.7542 H   0  0  0  0  0
  -12.7972   19.2727  -46.3476 H   0  0  0  0  0
  -13.2617   19.6277  -48.4808 H   0  0  0  0  0
  -11.6546   17.5870  -48.5305 H   0  0  0  0  0
  -13.1134   17.1955  -44.9521 H   0  0  0  0  0
  -16.7290   14.0145  -46.1494 H   0  0  0  0  0
  -17.2604   13.2248  -47.6378 H   0  0  0  0  0
  -14.3595   14.6755  -50.9292 H   0  0  0  0  0
  1  2  2  0  0  0
  1  3  1  0  0  0
  1  4  1  0  0  0
  8  1  1  0  0  0
  5  6  2  0  0  0
  5  7  1  0  0  0
  5  8  1  0  0  0
  5  9  1  0  0  0
  9 10  1  0  0  0
 10 11  1  0  0  0
 11 12  1  0  0  0
 11 13  1  0  0  0
 12 17  1  0  0  0
 13 14  1  0  0  0
 13 15  1  0  0  0
 15 16  1  0  0  0
 15 17  1  0  0  0
 17 18  1  0  0  0
 18 19  4  0  0  0
 18 27  4  0  0  0
 19 20  4  0  0  0
 20 21  4  0  0  0
 21 22  4  0  0  0
 21 27  4  0  0  0
 22 23  1  0  0  0
 22 24  4  0  0  0
 24 25  4  0  0  0
 25 26  4  0  0  0
 26 27  4  0  0  0
  3 28  1  0  0  0
  4 29  1  0  0  0
  7 30  1  0  0  0
 10 31  1  0  0  0
 10 32  1  0  0  0
 11 33  1  0  0  0
 13 34  1  0  0  0
 14 35  1  0  0  0
 15 36  1  0  0  0
 16 37  1  0  0  0
 17 38  1  0  0  0
 19 39  1  0  0  0
 23 40  1  0  0  0
 23 41  1  0  0  0
 25 42  1  0  0  0
M  END
$$$$
