3uzj_ligand
  -I-interpret- 

 13 14  0  0  0  0  0  0  0  0999 V2000
   -0.4430   34.5000  -17.6240 N   0  0  0  0  0
   -1.1920   35.3200  -16.8650 C   0  0  0  0  0
   -2.3750   35.9780  -17.0890 C   0  0  0  0  0
   -2.9980   36.8290  -16.2170 C   0  0  0  0  0
   -2.3180   37.0100  -15.0090 C   0  0  0  0  0
   -1.0810   36.3290  -14.7060 C   0  0  0  0  0
   -0.5180   35.4960  -15.6700 C   0  0  0  0  0
    0.5780   34.7510  -15.7960 N   0  0  0  0  0
    0.5810   34.2300  -16.9490 N   0  0  0  0  0
   -2.8629   35.8074  -18.0487 H   0  0  0  0  0
   -3.9426   37.3229  -16.4446 H   0  0  0  0  0
   -2.7372   37.6907  -14.2680 H   0  0  0  0  0
   -0.5961   36.4646  -13.7392 H   0  0  0  0  0
  1  2  4  0  0  0
  1  9  4  0  0  0
  2  3  4  0  0  0
  2  7  4  0  0  0
  3  4  4  0  0  0
  4  5  4  0  0  0
  5  6  4  0  0  0
  6  7  4  0  0  0
  7  8  4  0  0  0
  8  9  4  0  0  0
  3 10  1  0  0  0
  4 11  1  0  0  0
  5 12  1  0  0  0
  6 13  1  0  0  0
M  END
$$$$
