2r9s_ligand
  -I-interpret- 

 74 77  0  0  0  0  0  0  0  0999 V2000
   12.7730   20.6790   23.0370 O   0  0  0  0  0
   14.2350   20.6540   23.8180 S   0  0  0  0  0
   14.3650   21.9860   24.7930 O   0  0  0  0  0
   15.5100   20.6620   22.6580 N   0  0  0  0  0
   15.4590   19.4310   21.8450 C   0  0  0  0  0
   15.0560   19.7910   20.3990 C   0  0  0  0  0
   16.8490   18.7560   21.8370 C   0  0  0  0  0
   14.4150   18.4590   22.4410 C   0  0  0  0  0
   14.3520   19.1500   24.8330 C   0  0  0  0  0
   13.1690   18.7210   25.7090 C   0  0  0  0  0
   13.2690   17.4540   26.5620 C   0  0  0  0  0
   14.5530   16.6140   26.5410 C   0  0  0  0  0
   15.7360   17.0440   25.6650 C   0  0  0  0  0
   15.6360   18.3090   24.8120 C   0  0  0  0  0
   14.6540   15.3500   27.3940 C   0  0  0  0  0
   15.9820   14.9860   28.0760 C   0  0  0  0  0
   16.0820   13.7330   28.9200 N   0  3  0  0  0
   14.8860   12.8480   29.0910 C   0  0  0  0  0
   14.9890   11.5760   29.9500 C   0  0  0  0  0
   13.7560   10.6620   30.1270 C   0  0  0  0  0
   12.4210   11.0260   29.4440 C   0  0  0  0  0
   12.3190   12.2950   28.5870 C   0  0  0  0  0
   13.5560   13.2120   28.4090 C   0  0  0  0  0
   13.4560   14.4640   27.5650 C   0  0  0  0  0
   11.0580   12.6350   27.9430 N   0  3  0  0  0
   10.3170   11.6160   27.2190 C   0  0  0  0  0
    8.9920   11.9420   26.6230 N   0  3  0  0  0
    8.2230   10.8860   25.8720 C   0  0  0  0  0
    8.8050    9.4750   25.7220 C   0  0  0  0  0
   10.1390    9.1470   26.3210 C   0  0  0  0  0
   10.9040   10.1990   27.0690 C   0  0  0  0  0
   16.1980   21.4072   22.5494 H   0  0  0  0  0
   15.7918   20.4762   19.9780 H   0  0  0  0  0
   15.0171   18.8830   19.7973 H   0  0  0  0  0
   14.0755   20.2672   20.4043 H   0  0  0  0  0
   17.1328   18.4994   22.8577 H   0  0  0  0  0
   16.8084   17.8507   21.2313 H   0  0  0  0  0
   17.5829   19.4434   21.4164 H   0  0  0  0  0
   14.3757   17.5538   21.8350 H   0  0  0  0  0
   14.7001   18.2026   23.4613 H   0  0  0  0  0
   13.4357   18.9377   22.4454 H   0  0  0  0  0
   12.2572   19.3180   25.7243 H   0  0  0  0  0
   12.4280   17.1484   27.1844 H   0  0  0  0  0
   16.6483   16.4477   25.6505 H   0  0  0  0  0
   16.4767   18.6137   24.1888 H   0  0  0  0  0
   15.4298   16.0071   27.7869 H   0  0  0  0  0
   16.1604   15.8014   28.7770 H   0  0  0  0  0
   16.6736   14.8145   27.2511 H   0  0  0  0  0
   16.2834   14.0741   29.8600 H   0  0  0  0  0
   16.7626   13.1506   28.4322 H   0  0  0  0  0
   14.1630   12.3482   28.4463 H   0  0  0  0  0
   15.2037   11.9417   30.9541 H   0  0  0  0  0
   15.7172   10.9538   29.4297 H   0  0  0  0  0
   13.5366   10.7042   31.1938 H   0  0  0  0  0
   14.0486    9.7179   29.6675 H   0  0  0  0  0
   11.7305   11.1983   30.2696 H   0  0  0  0  0
   12.2410   10.2095   28.7447 H   0  0  0  0  0
   12.9158   13.0291   28.0456 H   0  0  0  0  0
   13.0754   14.0864   27.9702 H   0  0  0  0  0
   13.2409   14.0994   26.5606 H   0  0  0  0  0
   12.7285   15.0866   28.0857 H   0  0  0  0  0
   11.3106   13.3214   27.2320 H   0  0  0  0  0
   10.4422   12.9020   28.7111 H   0  0  0  0  0
    9.5346   11.0514   26.7118 H   0  0  0  0  0
    9.1960   12.6551   25.9228 H   0  0  0  0  0
    8.4009   12.1670   27.4233 H   0  0  0  0  0
    8.1631   11.2660   24.8521 H   0  0  0  0  0
    7.3130   10.7449   26.4552 H   0  0  0  0  0
    8.9509    9.3531   24.6487 H   0  0  0  0  0
    8.1025    8.8326   26.2530 H   0  0  0  0  0
   10.7705    8.9071   25.4656 H   0  0  0  0  0
    9.9220    8.3842   27.0687 H   0  0  0  0  0
   10.9646    9.8192   28.0889 H   0  0  0  0  0
   11.8143   10.3408   26.4864 H   0  0  0  0  0
  1  2  2  0  0  0
  2  3  2  0  0  0
  2  4  1  0  0  0
  2  9  1  0  0  0
  4  5  1  0  0  0
  5  6  1  0  0  0
  5  7  1  0  0  0
  5  8  1  0  0  0
  9 10  4  0  0  0
  9 14  4  0  0  0
 10 11  4  0  0  0
 11 12  4  0  0  0
 12 13  4  0  0  0
 12 15  1  0  0  0
 13 14  4  0  0  0
 15 16  1  0  0  0
 15 24  1  0  0  0
 16 17  1  0  0  0
 17 18  1  0  0  0
 18 19  1  0  0  0
 18 23  1  0  0  0
 19 20  1  0  0  0
 20 21  1  0  0  0
 21 22  1  0  0  0
 22 23  1  0  0  0
 22 25  1  0  0  0
 23 24  1  0  0  0
 25 26  1  0  0  0
 26 27  1  0  0  0
 26 31  1  0  0  0
 27 28  1  0  0  0
 28 29  1  0  0  0
 29 30  1  0  0  0
 30 31  1  0  0  0
  4 32  1  0  0  0
  6 33  1  0  0  0
  6 34  1  0  0  0
  6 35  1  0  0  0
  7 36  1  0  0  0
  7 37  1  0  0  0
  7 38  1  0  0  0
  8 39  1  0  0  0
  8 40  1  0  0  0
  8 41  1  0  0  0
 10 42  1  0  0  0
 11 43  1  0  0  0
 13 44  1  0  0  0
 14 45  1  0  0  0
 15 46  1  0  0  0
 16 47  1  0  0  0
 16 48  1  0  0  0
 17 49  1  0  0  0
 17 50  1  0  0  0
 18 51  1  0  0  0
 19 52  1  0  0  0
 19 53  1  0  0  0
 20 54  1  0  0  0
 20 55  1  0  0  0
 21 56  1  0  0  0
 21 57  1  0  0  0
 22 58  1  0  0  0
 23 59  1  0  0  0
 24 60  1  0  0  0
 24 61  1  0  0  0
 25 62  1  0  0  0
 25 63  1  0  0  0
 26 64  1  0  0  0
 27 65  1  0  0  0
 27 66  1  0  0  0
 28 67  1  0  0  0
 28 68  1  0  0  0
 29 69  1  0  0  0
 29 70  1  0  0  0
 30 71  1  0  0  0
 30 72  1  0  0  0
 31 73  1  0  0  0
 31 74  1  0  0  0
M  END
$$$$
