3sv8_ligand
  -I-interpret- 

104108  0  0  0  0  0  0  0  0999 V2000
   -0.2790   19.7960   15.7000 C   0  0  0  0  0
    0.2800   21.1790   17.4990 C   0  0  0  0  0
    1.1540   20.2010   17.9600 C   0  0  0  0  0
   -1.0760   19.5710   14.4460 C   0  0  0  0  0
    0.5960   18.8160   16.1770 C   0  0  0  0  0
   -1.9080   20.3970   14.1030 O   0  0  0  0  0
   -0.4150   20.9580   16.3800 N   0  0  0  0  0
    1.3000   19.0430   17.2960 N   0  0  0  0  0
   -0.8440   18.4650   13.7390 N   0  0  0  0  0
   -1.5800   18.1680   12.5230 C   0  0  0  0  0
   -2.7130   17.2290   12.7960 C   0  0  0  0  0
   -2.4980   16.1700   13.3750 O   0  0  0  0  0
   -0.6290   17.4980   11.5310 C   0  0  0  0  0
    0.6390   18.3330   11.3080 C   0  0  0  0  0
    1.5300   17.8100   10.1830 C   0  0  0  0  0
    0.7370   17.4570    8.9270 C   0  0  0  0  0
   -0.4470   16.5400    9.2330 C   0  0  0  0  0
   -1.3650   17.2320   10.2190 C   0  0  0  0  0
   -3.8920   17.6630   12.3330 N   0  0  0  0  0
   -5.1230   16.9030   12.4460 C   0  0  0  0  0
   -6.1650   17.5790   13.3390 C   0  0  0  0  0
   -6.5650   18.9600   12.8240 C   0  0  0  0  0
   -5.5780   17.7620   14.7500 C   0  0  0  0  0
   -7.3780   16.6460   13.4000 C   0  0  0  0  0
   -5.6200   16.5900   11.0490 C   0  0  0  0  0
   -5.9870   17.4980   10.3180 O   0  0  0  0  0
   -7.5860   14.9450    9.2430 C   0  0  0  0  0
   -5.6020   15.3020   10.6450 N   0  0  0  0  0
   -8.2520   14.3900   10.1220 O   0  0  0  0  0
   -6.0720   14.8990    9.3120 C   0  0  0  0  0
   -5.4980   13.5010    9.1190 C   0  0  0  0  0
   -4.7850   13.1080   10.4030 C   0  0  0  0  0
   -4.4530   13.4120    8.0070 C   0  0  0  0  0
   -3.0980   13.5750    8.7010 C   0  0  0  0  0
   -5.1660   14.1500   11.4360 C   0  0  0  0  0
   -3.2800   13.0960   10.1390 C   0  0  0  0  0
  -12.1720   13.8490    7.6410 N   0  0  0  0  0
   -8.1670   15.6140    8.2350 N   0  0  0  0  0
   -9.6270   15.7390    8.1660 C   0  0  0  0  0
  -10.2170   15.0790    6.9060 C   0  0  0  0  0
   -9.8700   17.2470    8.2020 C   0  0  0  0  0
   -9.4410   17.8500    9.5380 C   0  0  0  0  0
   -9.4570   19.3660    9.5220 C   0  0  0  0  0
  -11.7240   14.9580    7.0290 C   0  0  0  0  0
  -13.6030   13.5820    7.8110 C   0  0  0  0  0
  -13.9760   12.9340    9.1410 C   0  0  0  0  0
  -14.2050   14.4260    8.9300 C   0  0  0  0  0
   -9.7450   13.7220    6.7540 O   0  0  0  0  0
  -12.4720   15.8300    6.5810 O   0  0  0  0  0
    0.1633   22.1154   18.0445 H   0  0  0  0  0
    1.7271   20.3761   18.8705 H   0  0  0  0  0
    0.7057   17.8724   15.6426 H   0  0  0  0  0
   -0.1310   17.8103   14.0605 H   0  0  0  0  0
   -1.9819   19.0985   12.1221 H   0  0  0  0  0
   -0.3022   16.5461   11.9494 H   0  0  0  0  0
    1.2207   18.2937   12.2289 H   0  0  0  0  0
    0.3221   19.3386   11.0315 H   0  0  0  0  0
    2.0218   16.9038   10.5366 H   0  0  0  0  0
    2.2402   18.5950    9.9233 H   0  0  0  0  0
    1.4029   16.9345    8.2402 H   0  0  0  0  0
    0.3492   18.3814    8.4989 H   0  0  0  0  0
   -0.0864   15.6046    9.6608 H   0  0  0  0  0
   -0.9913   16.3235    8.3138 H   0  0  0  0  0
   -1.6918   18.1816    9.7952 H   0  0  0  0  0
   -2.2240   16.5907   10.4163 H   0  0  0  0  0
   -3.9267   18.5749   11.8773 H   0  0  0  0  0
   -4.9239   15.9632   12.9610 H   0  0  0  0  0
   -5.6847   19.6018   12.7876 H   0  0  0  0  0
   -6.9885   18.8649   11.8241 H   0  0  0  0  0
   -7.3063   19.3955   13.4940 H   0  0  0  0  0
   -5.3176   16.7875   15.1630 H   0  0  0  0  0
   -4.6848   18.3842   14.6927 H   0  0  0  0  0
   -6.3173   18.2435   15.3900 H   0  0  0  0  0
   -7.7711   16.4970   12.3943 H   0  0  0  0  0
   -7.0759   15.6863   13.8193 H   0  0  0  0  0
   -8.1473   17.0930   14.0297 H   0  0  0  0  0
   -5.7440   15.5650    8.5139 H   0  0  0  0  0
   -6.3344   12.8533    8.8563 H   0  0  0  0  0
   -5.0648   12.1162   10.7581 H   0  0  0  0  0
   -4.6088   14.1820    7.2514 H   0  0  0  0  0
   -4.5167   12.4625    7.4756 H   0  0  0  0  0
   -2.7722   14.6149    8.6767 H   0  0  0  0  0
   -2.3292   12.9932    8.1926 H   0  0  0  0  0
   -5.9472   13.7947   12.1080 H   0  0  0  0  0
   -4.3341   14.3967   12.0957 H   0  0  0  0  0
   -2.8641   12.0980   10.2771 H   0  0  0  0  0
   -2.7523   13.7434   10.8393 H   0  0  0  0  0
  -11.4965   13.1731    7.9977 H   0  0  0  0  0
   -7.5884   16.0392    7.5106 H   0  0  0  0  0
  -10.1238   15.2201    8.9858 H   0  0  0  0  0
   -9.9166   15.7042    6.0651 H   0  0  0  0  0
  -10.9363   17.4287    8.0671 H   0  0  0  0  0
   -9.2833   17.7108    7.4090 H   0  0  0  0  0
   -8.4201   17.5264    9.7409 H   0  0  0  0  0
  -10.1442   17.5141   10.3001 H   0  0  0  0  0
   -8.7724   19.7272    8.7545 H   0  0  0  0  0
  -10.4663   19.7151    9.3039 H   0  0  0  0  0
   -9.1438   19.7417   10.4961 H   0  0  0  0  0
  -13.8389   13.3646    6.7693 H   0  0  0  0  0
  -13.5273   12.2728    9.8823 H   0  0  0  0  0
  -14.5274   12.0653    9.5007 H   0  0  0  0  0
  -15.0022   15.1573    9.0635 H   0  0  0  0  0
  -14.0018   15.3648    9.4452 H   0  0  0  0  0
  -10.1286   13.3377    5.9623 H   0  0  0  0  0
  4  1  1  0  0  0
  1  5  4  0  0  0
  1  7  4  0  0  0
  2  3  4  0  0  0
  7  2  4  0  0  0
  8  3  4  0  0  0
  4  6  2  0  0  0
  9  4  1  0  0  0
  5  8  4  0  0  0
 10  9  1  0  0  0
 11 10  1  0  0  0
 10 13  1  0  0  0
 11 12  2  0  0  0
 19 11  1  0  0  0
 13 14  1  0  0  0
 13 18  1  0  0  0
 14 15  1  0  0  0
 15 16  1  0  0  0
 17 16  1  0  0  0
 18 17  1  0  0  0
 20 19  1  0  0  0
 20 21  1  0  0  0
 25 20  1  0  0  0
 21 22  1  0  0  0
 21 23  1  0  0  0
 21 24  1  0  0  0
 25 26  2  0  0  0
 28 25  1  0  0  0
 27 29  2  0  0  0
 27 30  1  0  0  0
 38 27  1  0  0  0
 30 28  1  0  0  0
 28 35  1  0  0  0
 30 31  1  0  0  0
 31 32  1  0  0  0
 31 33  1  0  0  0
 32 35  1  0  0  0
 32 36  1  0  0  0
 33 34  1  0  0  0
 34 36  1  0  0  0
 44 37  1  0  0  0
 37 45  1  0  0  0
 39 38  1  0  0  0
 40 39  1  0  0  0
 39 41  1  0  0  0
 40 44  1  0  0  0
 40 48  1  0  0  0
 41 42  1  0  0  0
 42 43  1  0  0  0
 44 49  2  0  0  0
 45 46  1  0  0  0
 45 47  1  0  0  0
 46 47  1  0  0  0
  2 50  1  0  0  0
  3 51  1  0  0  0
  5 52  1  0  0  0
  9 53  1  0  0  0
 10 54  1  0  0  0
 13 55  1  0  0  0
 14 56  1  0  0  0
 14 57  1  0  0  0
 15 58  1  0  0  0
 15 59  1  0  0  0
 16 60  1  0  0  0
 16 61  1  0  0  0
 17 62  1  0  0  0
 17 63  1  0  0  0
 18 64  1  0  0  0
 18 65  1  0  0  0
 19 66  1  0  0  0
 20 67  1  0  0  0
 22 68  1  0  0  0
 22 69  1  0  0  0
 22 70  1  0  0  0
 23 71  1  0  0  0
 23 72  1  0  0  0
 23 73  1  0  0  0
 24 74  1  0  0  0
 24 75  1  0  0  0
 24 76  1  0  0  0
 30 77  1  0  0  0
 31 78  1  0  0  0
 32 79  1  0  0  0
 33 80  1  0  0  0
 33 81  1  0  0  0
 34 82  1  0  0  0
 34 83  1  0  0  0
 35 84  1  0  0  0
 35 85  1  0  0  0
 36 86  1  0  0  0
 36 87  1  0  0  0
 37 88  1  0  0  0
 38 89  1  0  0  0
 39 90  1  0  0  0
 40 91  1  0  0  0
 41 92  1  0  0  0
 41 93  1  0  0  0
 42 94  1  0  0  0
 42 95  1  0  0  0
 43 96  1  0  0  0
 43 97  1  0  0  0
 43 98  1  0  0  0
 45 99  1  0  0  0
 46100  1  0  0  0
 46101  1  0  0  0
 47102  1  0  0  0
 47103  1  0  0  0
 48104  1  0  0  0
M  END
$$$$
