1qti_ligand
  -I-interpret- 

 43 46  0  0  0  0  0  0  0  0999 V2000
    2.5530   67.3160   62.6050 C   0  0  0  0  0
    2.7290   67.7550   61.3290 C   0  0  0  0  0
    4.0990   67.8980   60.6750 C   0  0  0  0  0
    5.2170   68.0400   61.7620 C   0  0  0  0  0
    5.1000   66.9120   62.8380 C   0  0  0  0  0
    3.6940   66.9260   63.5830 C   0  0  0  0  0
    5.2830   65.5770   62.2900 O   0  0  0  0  0
    4.6660   63.3810   63.2290 C   0  0  0  0  0
    3.8040   62.6760   64.1490 C   0  0  0  0  0
    2.8430   63.3810   64.9370 C   0  0  0  0  0
    1.6820   65.5880   65.6730 C   0  0  0  0  0
    2.2900   66.6590   66.5310 N   0  3  0  0  0
    2.5880   67.9390   65.7790 C   0  0  0  0  0
    3.8370   67.8410   64.8550 C   0  0  0  0  0
    4.5190   64.7850   63.1420 C   0  0  0  0  0
    3.5760   65.4640   63.9210 C   0  0  0  0  0
    2.7100   64.7950   64.8430 C   0  0  0  0  0
    5.8720   61.3440   62.4200 C   0  0  0  0  0
    5.6390   62.7660   62.4180 O   0  0  0  0  0
    4.3410   66.7390   59.8510 O   0  0  0  0  0
    1.3860   66.9580   67.6870 C   0  0  0  0  0
    1.5292   67.2314   62.9695 H   0  0  0  0  0
    1.8466   68.0175   60.7454 H   0  0  0  0  0
    4.1176   68.7974   60.0595 H   0  0  0  0  0
    5.1046   69.0058   62.2547 H   0  0  0  0  0
    6.1892   67.9596   61.2758 H   0  0  0  0  0
    5.9038   67.1325   63.5404 H   0  0  0  0  0
    3.8876   61.5933   64.2432 H   0  0  0  0  0
    2.2010   62.8267   65.6216 H   0  0  0  0  0
    1.0076   66.0786   64.9712 H   0  0  0  0  0
    1.1877   64.8806   66.3389 H   0  0  0  0  0
    3.1846   66.2938   66.8576 H   0  0  0  0  0
    2.7881   68.7142   66.5187 H   0  0  0  0  0
    1.7278   68.1539   65.1449 H   0  0  0  0  0
    4.0197   68.8495   64.4841 H   0  0  0  0  0
    4.6279   67.3977   65.4601 H   0  0  0  0  0
    6.1643   61.0264   63.4209 H   0  0  0  0  0
    4.9587   60.8270   62.1256 H   0  0  0  0  0
    6.6687   61.1067   61.7150 H   0  0  0  0  0
    3.6477   66.6667   59.1909 H   0  0  0  0  0
    0.4210   67.2999   67.3130 H   0  0  0  0  0
    1.2475   66.0549   68.2814 H   0  0  0  0  0
    1.8339   67.7361   68.3051 H   0  0  0  0  0
  1  2  2  0  0  0
  6  1  1  0  0  0
  3  2  1  0  0  0
  4  3  1  0  0  0
  3 20  1  0  0  0
  5  4  1  0  0  0
  5  6  1  0  0  0
  7  5  1  0  0  0
  6 14  1  0  0  0
  6 16  1  0  0  0
 15  7  1  0  0  0
  9  8  4  0  0  0
  8 15  4  0  0  0
  8 19  1  0  0  0
 10  9  4  0  0  0
 17 10  4  0  0  0
 11 12  1  0  0  0
 17 11  1  0  0  0
 12 13  1  0  0  0
 12 21  1  0  0  0
 13 14  1  0  0  0
 15 16  4  0  0  0
 16 17  4  0  0  0
 19 18  1  0  0  0
  1 22  1  0  0  0
  2 23  1  0  0  0
  3 24  1  0  0  0
  4 25  1  0  0  0
  4 26  1  0  0  0
  5 27  1  0  0  0
  9 28  1  0  0  0
 10 29  1  0  0  0
 11 30  1  0  0  0
 11 31  1  0  0  0
 12 32  1  0  0  0
 13 33  1  0  0  0
 13 34  1  0  0  0
 14 35  1  0  0  0
 14 36  1  0  0  0
 18 37  1  0  0  0
 18 38  1  0  0  0
 18 39  1  0  0  0
 20 40  1  0  0  0
 21 41  1  0  0  0
 21 42  1  0  0  0
 21 43  1  0  0  0
M  END
$$$$
