4ory_ligand
  -I-interpret- 

178177  0  0  0  0  0  0  0  0999 V2000
   16.0880   -2.7790    5.4870 O   0  0  0  0  0
   17.2700   -1.9940    5.3140 C   0  0  0  0  0
   16.8800   -0.5750    4.9300 C   0  0  0  0  0
   18.0590    0.1440    4.5780 O   0  0  0  0  0
   17.8050    1.1300    3.5790 C   0  0  0  0  0
   16.7010    2.0840    4.0300 C   0  0  0  0  0
   15.5170    1.8530    3.2680 O   0  0  0  0  0
   15.7580    1.9500    1.8650 C   0  0  0  0  0
   15.0480    0.7940    1.1700 C   0  0  0  0  0
   15.3680    0.7860   -0.2190 O   0  0  0  0  0
   15.5980   -0.5440   -0.6810 C   0  0  0  0  0
   16.9850   -0.9970   -0.2380 C   0  0  0  0  0
   16.9420   -2.3590    0.1840 O   0  0  0  0  0
   18.0980   -2.7090    0.9440 C   0  0  0  0  0
   17.7440   -3.8430    1.8980 C   0  0  0  0  0
   18.5450   -3.7720    3.0780 O   0  0  0  0  0
   19.6220   -4.7100    3.0980 C   0  0  0  0  0
   19.7320   -5.3280    4.4920 C   0  0  0  0  0
   19.5470   -4.3290    5.4970 O   0  0  0  0  0
   19.9940   -4.7500    6.7880 C   0  0  0  0  0
   19.2240   -4.0140    7.8830 C   0  0  0  0  0
   18.2130   -4.8790    8.4020 O   0  0  0  0  0
   17.3530   -4.2400    9.3450 C   0  0  0  0  0
   16.2260   -3.5200    8.6120 C   0  0  0  0  0
   15.0230   -3.5550    9.3830 O   0  0  0  0  0
   13.8690   -3.7590    8.5620 C   0  0  0  0  0
   13.6750   -2.5850    7.6050 C   0  0  0  0  0
   12.2770   -2.3980    7.3850 O   0  0  0  0  0
   11.9360   -2.2530    6.0040 C   0  0  0  0  0
   10.4700   -2.6360    5.8490 C   0  0  0  0  0
   10.1700   -2.9440    4.4880 O   0  0  0  0  0
    9.0110   -3.7740    4.3970 C   0  0  0  0  0
    8.4810   -3.8760    2.9720 C   0  0  0  0  0
    7.1020   -4.2550    3.0060 O   0  0  0  0  0
    6.9110   -5.5620    3.5420 C   0  0  0  0  0
    5.4260   -5.9070    3.5010 C   0  0  0  0  0
    5.2070   -7.2600    3.9120 O   0  0  0  0  0
    5.6710   -8.2280    2.9620 C   0  0  0  0  0
    5.0490   -9.5960    3.2510 C   0  0  0  0  0
    3.6610   -9.5700    2.9110 O   0  0  0  0  0
    2.8490  -10.2780    3.8500 C   0  0  0  0  0
    1.3950   -9.8430    3.6820 C   0  0  0  0  0
    1.2760   -8.4300    3.8530 O   0  0  0  0  0
    1.7750   -8.0160    5.1250 C   0  0  0  0  0
    1.5760   -6.5130    5.2740 C   0  0  0  0  0
    0.1780   -6.2270    5.2740 O   0  0  0  0  0
   -0.0820   -4.8710    5.6300 C   0  0  0  0  0
   -1.5810   -4.7150    5.8720 C   0  0  0  0  0
   -2.1170   -3.7760    4.9440 O   0  0  0  0  0
   -3.2940   -4.2480    4.2880 C   0  0  0  0  0
   -4.2030   -3.0470    4.0530 C   0  0  0  0  0
   -4.8110   -3.0930    2.7650 O   0  0  0  0  0
   -5.4360   -1.8430    2.4790 C   0  0  0  0  0
   -6.0590   -1.8900    1.0900 C   0  0  0  0  0
   -6.9550   -2.9970    0.9970 O   0  0  0  0  0
   -6.6680   -3.8040   -0.1430 C   0  0  0  0  0
   -7.9020   -4.6200   -0.5060 C   0  0  0  0  0
   -9.0520   -3.7730   -0.5460 O   0  0  0  0  0
  -10.2340   -4.5380   -0.7810 C   0  0  0  0  0
  -11.4790   -3.6820   -0.5600 C   0  0  0  0  0
  -12.6430   -4.5120   -0.5590 O   0  0  0  0  0
  -12.5860   -5.5440    0.4260 C   0  0  0  0  0
  -13.4270   -5.1520    1.6360 C   0  0  0  0  0
  -12.6600   -5.3760    2.8160 O   0  0  0  0  0
  -11.5690   -4.4610    2.9070 C   0  0  0  0  0
  -12.0160   -3.2170    3.6700 C   0  0  0  0  0
  -12.9670   -3.5680    4.6770 O   0  0  0  0  0
  -12.4380   -3.4660    6.0000 C   0  0  0  0  0
  -11.5490   -4.6680    6.3030 C   0  0  0  0  0
  -10.9590   -4.5640    7.5980 O   0  0  0  0  0
  -10.4120   -3.2750    7.8780 C   0  0  0  0  0
   -9.5050   -3.3930    9.0980 C   0  0  0  0  0
   -9.3600   -2.1250    9.7340 O   0  0  0  0  0
   -8.7680   -1.1520    8.8750 C   0  0  0  0  0
   -7.2680   -1.3870    8.7400 C   0  0  0  0  0
   -6.6720   -0.2470    8.1200 O   0  0  0  0  0
   16.3329   -3.6750    5.7294 H   0  0  0  0  0
   17.8847   -2.4292    4.5260 H   0  0  0  0  0
   17.8362   -1.9772    6.2453 H   0  0  0  0  0
   16.3858   -0.0869    5.7700 H   0  0  0  0  0
   16.1930   -0.5961    4.0840 H   0  0  0  0  0
   17.4868    0.6305    2.6639 H   0  0  0  0  0
   18.7171    1.7021    3.4088 H   0  0  0  0  0
   17.0306    3.1119    3.8787 H   0  0  0  0  0
   16.4879    1.9135    5.0853 H   0  0  0  0  0
   16.8289    1.9010    1.6676 H   0  0  0  0  0
   15.3790    2.8997    1.4876 H   0  0  0  0  0
   13.9710    0.9131    1.2881 H   0  0  0  0  0
   15.3726   -0.1456    1.6171 H   0  0  0  0  0
   15.5356   -0.5688   -1.7689 H   0  0  0  0  0
   14.8446   -1.2115   -0.2627 H   0  0  0  0  0
   17.3171   -0.3745    0.5929 H   0  0  0  0  0
   17.6772   -0.9026   -1.0747 H   0  0  0  0  0
   18.4379   -1.8439    1.5134 H   0  0  0  0  0
   18.8944   -3.0302    0.2726 H   0  0  0  0  0
   17.9294   -4.7951    1.4008 H   0  0  0  0  0
   16.6939   -3.7564    2.1770 H   0  0  0  0  0
   20.5533   -4.2000    2.8517 H   0  0  0  0  0
   19.4342   -5.4952    2.3657 H   0  0  0  0  0
   20.7225   -5.7682    4.6076 H   0  0  0  0  0
   18.9611   -6.0904    4.6037 H   0  0  0  0  0
   21.0558   -4.5247    6.8874 H   0  0  0  0  0
   19.8224   -5.8214    6.8916 H   0  0  0  0  0
   18.7634   -3.1170    7.4690 H   0  0  0  0  0
   19.9068   -3.7256    8.6822 H   0  0  0  0  0
   17.9271   -3.5159    9.9231 H   0  0  0  0  0
   16.9276   -4.9907   10.0110 H   0  0  0  0  0
   16.0495   -4.0179    7.6585 H   0  0  0  0  0
   16.5144   -2.4808    8.4536 H   0  0  0  0  0
   12.9906   -3.8414    9.2021 H   0  0  0  0  0
   14.0068   -4.6700    7.9796 H   0  0  0  0  0
   14.1735   -2.7935    6.6584 H   0  0  0  0  0
   14.1054   -1.6813    8.0365 H   0  0  0  0  0
   12.5642   -2.8961    5.3877 H   0  0  0  0  0
   12.0970   -1.2253    5.6785 H   0  0  0  0  0
    9.8512   -1.7961    6.1648 H   0  0  0  0  0
   10.2688   -3.5148    6.4617 H   0  0  0  0  0
    8.2304   -3.3328    5.0167 H   0  0  0  0  0
    9.2864   -4.7756    4.7272 H   0  0  0  0  0
    9.0517   -4.6252    2.4234 H   0  0  0  0  0
    8.5819   -2.9110    2.4754 H   0  0  0  0  0
    7.2655   -5.5908    4.5723 H   0  0  0  0  0
    7.4718   -6.2860    2.9508 H   0  0  0  0  0
    5.0655   -5.7874    2.4793 H   0  0  0  0  0
    4.8920   -5.2426    4.1803 H   0  0  0  0  0
    6.7556   -8.3074    3.0356 H   0  0  0  0  0
    5.3823   -7.9102    1.9601 H   0  0  0  0  0
    5.1592   -9.8287    4.3102 H   0  0  0  0  0
    5.5543  -10.3575    2.6570 H   0  0  0  0  0
    3.1830  -10.0564    4.8636 H   0  0  0  0  0
    2.9336  -11.3501    3.6725 H   0  0  0  0  0
    0.7850  -10.3445    4.4333 H   0  0  0  0  0
    1.0579  -10.1093    2.6802 H   0  0  0  0  0
    2.8362   -8.2541    5.1975 H   0  0  0  0  0
    1.2372   -8.5372    5.9170 H   0  0  0  0  0
    2.0571   -5.9946    4.4446 H   0  0  0  0  0
    2.0203   -6.1745    6.2100 H   0  0  0  0  0
    0.2371   -4.2069    4.8268 H   0  0  0  0  0
    0.4706   -4.6099    6.5326 H   0  0  0  0  0
   -1.7497   -4.3583    6.8881 H   0  0  0  0  0
   -2.0727   -5.6786    5.7387 H   0  0  0  0  0
   -3.7993   -4.9930    4.9026 H   0  0  0  0  0
   -3.0374   -4.7220    3.3406 H   0  0  0  0  0
   -3.6001   -2.1412    4.1169 H   0  0  0  0  0
   -4.9908   -3.0589    4.8062 H   0  0  0  0  0
   -4.6907   -1.0485    2.5152 H   0  0  0  0  0
   -6.2130   -1.6488    3.2183 H   0  0  0  0  0
   -5.2705   -2.0021    0.3458 H   0  0  0  0  0
   -6.6091   -0.9661    0.9111 H   0  0  0  0  0
   -5.8404   -4.4758    0.0846 H   0  0  0  0  0
   -6.3932   -3.1652   -0.9823 H   0  0  0  0  0
   -8.0532   -5.3956    0.2448 H   0  0  0  0  0
   -7.7565   -5.0744   -1.4860 H   0  0  0  0  0
  -10.2550   -5.3787   -0.0875 H   0  0  0  0  0
  -10.2268   -4.8925   -1.8117 H   0  0  0  0  0
  -11.5596   -2.9489   -1.3626 H   0  0  0  0  0
  -11.3996   -3.1712    0.3996 H   0  0  0  0  0
  -11.5514   -5.6871    0.7379 H   0  0  0  0  0
  -12.9759   -6.4690    0.0011 H   0  0  0  0  0
  -14.3364   -5.7522    1.6655 H   0  0  0  0  0
  -13.7054   -4.1003    1.5689 H   0  0  0  0  0
  -11.2457   -4.1780    1.9053 H   0  0  0  0  0
  -10.7396   -4.9334    3.4334 H   0  0  0  0  0
  -12.4779   -2.5184    2.9723 H   0  0  0  0  0
  -11.1479   -2.7594    4.1444 H   0  0  0  0  0
  -13.2615   -3.4411    6.7137 H   0  0  0  0  0
  -11.8461   -2.5542    6.0793 H   0  0  0  0  0
  -10.7517   -4.7054    5.5607 H   0  0  0  0  0
  -12.1618   -5.5689    6.2725 H   0  0  0  0  0
  -11.2141   -2.5641    8.0764 H   0  0  0  0  0
   -9.8408   -2.9177    7.0212 H   0  0  0  0  0
   -8.5239   -3.7442    8.7784 H   0  0  0  0  0
   -9.9486   -4.0955    9.8036 H   0  0  0  0  0
   -8.9309   -0.1622    9.3015 H   0  0  0  0  0
   -9.2254   -1.2303    7.8887 H   0  0  0  0  0
   -7.0884   -2.2725    8.1304 H   0  0  0  0  0
   -6.8299   -1.5397    9.7263 H   0  0  0  0  0
   -5.7267   -0.3895    8.0323 H   0  0  0  0  0
  1  2  1  0  0  0
  2  3  1  0  0  0
  3  4  1  0  0  0
  4  5  1  0  0  0
  5  6  1  0  0  0
  6  7  1  0  0  0
  7  8  1  0  0  0
  8  9  1  0  0  0
  9 10  1  0  0  0
 10 11  1  0  0  0
 11 12  1  0  0  0
 12 13  1  0  0  0
 13 14  1  0  0  0
 14 15  1  0  0  0
 15 16  1  0  0  0
 16 17  1  0  0  0
 17 18  1  0  0  0
 18 19  1  0  0  0
 19 20  1  0  0  0
 20 21  1  0  0  0
 21 22  1  0  0  0
 22 23  1  0  0  0
 23 24  1  0  0  0
 24 25  1  0  0  0
 25 26  1  0  0  0
 26 27  1  0  0  0
 27 28  1  0  0  0
 28 29  1  0  0  0
 29 30  1  0  0  0
 30 31  1  0  0  0
 31 32  1  0  0  0
 32 33  1  0  0  0
 33 34  1  0  0  0
 34 35  1  0  0  0
 35 36  1  0  0  0
 36 37  1  0  0  0
 37 38  1  0  0  0
 38 39  1  0  0  0
 39 40  1  0  0  0
 40 41  1  0  0  0
 41 42  1  0  0  0
 42 43  1  0  0  0
 43 44  1  0  0  0
 44 45  1  0  0  0
 45 46  1  0  0  0
 46 47  1  0  0  0
 47 48  1  0  0  0
 48 49  1  0  0  0
 49 50  1  0  0  0
 50 51  1  0  0  0
 51 52  1  0  0  0
 52 53  1  0  0  0
 53 54  1  0  0  0
 54 55  1  0  0  0
 55 56  1  0  0  0
 56 57  1  0  0  0
 57 58  1  0  0  0
 58 59  1  0  0  0
 59 60  1  0  0  0
 60 61  1  0  0  0
 61 62  1  0  0  0
 62 63  1  0  0  0
 63 64  1  0  0  0
 64 65  1  0  0  0
 65 66  1  0  0  0
 66 67  1  0  0  0
 67 68  1  0  0  0
 68 69  1  0  0  0
 69 70  1  0  0  0
 70 71  1  0  0  0
 71 72  1  0  0  0
 72 73  1  0  0  0
 73 74  1  0  0  0
 74 75  1  0  0  0
 75 76  1  0  0  0
  1 77  1  0  0  0
  2 78  1  0  0  0
  2 79  1  0  0  0
  3 80  1  0  0  0
  3 81  1  0  0  0
  5 82  1  0  0  0
  5 83  1  0  0  0
  6 84  1  0  0  0
  6 85  1  0  0  0
  8 86  1  0  0  0
  8 87  1  0  0  0
  9 88  1  0  0  0
  9 89  1  0  0  0
 11 90  1  0  0  0
 11 91  1  0  0  0
 12 92  1  0  0  0
 12 93  1  0  0  0
 14 94  1  0  0  0
 14 95  1  0  0  0
 15 96  1  0  0  0
 15 97  1  0  0  0
 17 98  1  0  0  0
 17 99  1  0  0  0
 18100  1  0  0  0
 18101  1  0  0  0
 20102  1  0  0  0
 20103  1  0  0  0
 21104  1  0  0  0
 21105  1  0  0  0
 23106  1  0  0  0
 23107  1  0  0  0
 24108  1  0  0  0
 24109  1  0  0  0
 26110  1  0  0  0
 26111  1  0  0  0
 27112  1  0  0  0
 27113  1  0  0  0
 29114  1  0  0  0
 29115  1  0  0  0
 30116  1  0  0  0
 30117  1  0  0  0
 32118  1  0  0  0
 32119  1  0  0  0
 33120  1  0  0  0
 33121  1  0  0  0
 35122  1  0  0  0
 35123  1  0  0  0
 36124  1  0  0  0
 36125  1  0  0  0
 38126  1  0  0  0
 38127  1  0  0  0
 39128  1  0  0  0
 39129  1  0  0  0
 41130  1  0  0  0
 41131  1  0  0  0
 42132  1  0  0  0
 42133  1  0  0  0
 44134  1  0  0  0
 44135  1  0  0  0
 45136  1  0  0  0
 45137  1  0  0  0
 47138  1  0  0  0
 47139  1  0  0  0
 48140  1  0  0  0
 48141  1  0  0  0
 50142  1  0  0  0
 50143  1  0  0  0
 51144  1  0  0  0
 51145  1  0  0  0
 53146  1  0  0  0
 53147  1  0  0  0
 54148  1  0  0  0
 54149  1  0  0  0
 56150  1  0  0  0
 56151  1  0  0  0
 57152  1  0  0  0
 57153  1  0  0  0
 59154  1  0  0  0
 59155  1  0  0  0
 60156  1  0  0  0
 60157  1  0  0  0
 62158  1  0  0  0
 62159  1  0  0  0
 63160  1  0  0  0
 63161  1  0  0  0
 65162  1  0  0  0
 65163  1  0  0  0
 66164  1  0  0  0
 66165  1  0  0  0
 68166  1  0  0  0
 68167  1  0  0  0
 69168  1  0  0  0
 69169  1  0  0  0
 71170  1  0  0  0
 71171  1  0  0  0
 72172  1  0  0  0
 72173  1  0  0  0
 74174  1  0  0  0
 74175  1  0  0  0
 75176  1  0  0  0
 75177  1  0  0  0
 76178  1  0  0  0
M  END
$$$$
