### 
### Created by X-TOOL on Mon Sep 10 21:13:19 2018
### 

@<TRIPOS>MOLECULE
4ory_ligand
  178   177     1     0     0
SMALL
GAST_HUCK


@<TRIPOS>ATOM
      1 OAB        16.0880   -2.7790    5.4870 O.3       1 PEU        -0.3927
      2 CAC        17.2700   -1.9940    5.3140 C.3       1 PEU         0.0676
      3 CAD        16.8800   -0.5750    4.9300 C.3       1 PEU         0.0708
      4 OAE        18.0590    0.1440    4.5780 O.3       1 PEU        -0.3752
      5 CAF        17.8050    1.1300    3.5790 C.3       1 PEU         0.0711
      6 CAG        16.7010    2.0840    4.0300 C.3       1 PEU         0.0711
      7 OAH        15.5170    1.8530    3.2680 O.3       1 PEU        -0.3752
      8 CAI        15.7580    1.9500    1.8650 C.3       1 PEU         0.0711
      9 CAJ        15.0480    0.7940    1.1700 C.3       1 PEU         0.0711
     10 OAK        15.3680    0.7860   -0.2190 O.3       1 PEU        -0.3752
     11 CAL        15.5980   -0.5440   -0.6810 C.3       1 PEU         0.0711
     12 CAM        16.9850   -0.9970   -0.2380 C.3       1 PEU         0.0711
     13 OAN        16.9420   -2.3590    0.1840 O.3       1 PEU        -0.3752
     14 CAO        18.0980   -2.7090    0.9440 C.3       1 PEU         0.0711
     15 CAP        17.7440   -3.8430    1.8980 C.3       1 PEU         0.0711
     16 OAQ        18.5450   -3.7720    3.0780 O.3       1 PEU        -0.3752
     17 CAR        19.6220   -4.7100    3.0980 C.3       1 PEU         0.0711
     18 CAS        19.7320   -5.3280    4.4920 C.3       1 PEU         0.0711
     19 OAT        19.5470   -4.3290    5.4970 O.3       1 PEU        -0.3752
     20 CAU        19.9940   -4.7500    6.7880 C.3       1 PEU         0.0711
     21 CAV        19.2240   -4.0140    7.8830 C.3       1 PEU         0.0711
     22 OAW        18.2130   -4.8790    8.4020 O.3       1 PEU        -0.3752
     23 CAX        17.3530   -4.2400    9.3450 C.3       1 PEU         0.0711
     24 CAY        16.2260   -3.5200    8.6120 C.3       1 PEU         0.0711
     25 OAZ        15.0230   -3.5550    9.3830 O.3       1 PEU        -0.3752
     26 CBA        13.8690   -3.7590    8.5620 C.3       1 PEU         0.0711
     27 CBB        13.6750   -2.5850    7.6050 C.3       1 PEU         0.0711
     28 OBC        12.2770   -2.3980    7.3850 O.3       1 PEU        -0.3752
     29 CCG        11.9360   -2.2530    6.0040 C.3       1 PEU         0.0711
     30 CCF        10.4700   -2.6360    5.8490 C.3       1 PEU         0.0711
     31 OCE        10.1700   -2.9440    4.4880 O.3       1 PEU        -0.3752
     32 CCD         9.0110   -3.7740    4.3970 C.3       1 PEU         0.0711
     33 CCC         8.4810   -3.8760    2.9720 C.3       1 PEU         0.0711
     34 OCB         7.1020   -4.2550    3.0060 O.3       1 PEU        -0.3752
     35 CCA         6.9110   -5.5620    3.5420 C.3       1 PEU         0.0711
     36 CBZ         5.4260   -5.9070    3.5010 C.3       1 PEU         0.0711
     37 OBY         5.2070   -7.2600    3.9120 O.3       1 PEU        -0.3752
     38 CBX         5.6710   -8.2280    2.9620 C.3       1 PEU         0.0711
     39 CBW         5.0490   -9.5960    3.2510 C.3       1 PEU         0.0711
     40 OBV         3.6610   -9.5700    2.9110 O.3       1 PEU        -0.3752
     41 CBU         2.8490  -10.2780    3.8500 C.3       1 PEU         0.0711
     42 CBT         1.3950   -9.8430    3.6820 C.3       1 PEU         0.0711
     43 OBS         1.2760   -8.4300    3.8530 O.3       1 PEU        -0.3752
     44 CBR         1.7750   -8.0160    5.1250 C.3       1 PEU         0.0711
     45 CBQ         1.5760   -6.5130    5.2740 C.3       1 PEU         0.0711
     46 OBP         0.1780   -6.2270    5.2740 O.3       1 PEU        -0.3752
     47 CBO        -0.0820   -4.8710    5.6300 C.3       1 PEU         0.0711
     48 CBN        -1.5810   -4.7150    5.8720 C.3       1 PEU         0.0711
     49 OBM        -2.1170   -3.7760    4.9440 O.3       1 PEU        -0.3752
     50 CBL        -3.2940   -4.2480    4.2880 C.3       1 PEU         0.0711
     51 CBK        -4.2030   -3.0470    4.0530 C.3       1 PEU         0.0711
     52 OBJ        -4.8110   -3.0930    2.7650 O.3       1 PEU        -0.3752
     53 CBI        -5.4360   -1.8430    2.4790 C.3       1 PEU         0.0711
     54 CBH        -6.0590   -1.8900    1.0900 C.3       1 PEU         0.0711
     55 OBG        -6.9550   -2.9970    0.9970 O.3       1 PEU        -0.3752
     56 CBF        -6.6680   -3.8040   -0.1430 C.3       1 PEU         0.0711
     57 CBE        -7.9020   -4.6200   -0.5060 C.3       1 PEU         0.0711
     58 OBD        -9.0520   -3.7730   -0.5460 O.3       1 PEU        -0.3752
     59 CCH       -10.2340   -4.5380   -0.7810 C.3       1 PEU         0.0711
     60 CCI       -11.4790   -3.6820   -0.5600 C.3       1 PEU         0.0711
     61 OCJ       -12.6430   -4.5120   -0.5590 O.3       1 PEU        -0.3752
     62 CCK       -12.5860   -5.5440    0.4260 C.3       1 PEU         0.0711
     63 CCL       -13.4270   -5.1520    1.6360 C.3       1 PEU         0.0711
     64 OCM       -12.6600   -5.3760    2.8160 O.3       1 PEU        -0.3752
     65 CCN       -11.5690   -4.4610    2.9070 C.3       1 PEU         0.0711
     66 CCO       -12.0160   -3.2170    3.6700 C.3       1 PEU         0.0711
     67 OCP       -12.9670   -3.5680    4.6770 O.3       1 PEU        -0.3752
     68 CCQ       -12.4380   -3.4660    6.0000 C.3       1 PEU         0.0711
     69 CCR       -11.5490   -4.6680    6.3030 C.3       1 PEU         0.0711
     70 OCS       -10.9590   -4.5640    7.5980 O.3       1 PEU        -0.3752
     71 CCT       -10.4120   -3.2750    7.8780 C.3       1 PEU         0.0711
     72 CCU        -9.5050   -3.3930    9.0980 C.3       1 PEU         0.0711
     73 OCV        -9.3600   -2.1250    9.7340 O.3       1 PEU        -0.3752
     74 CCW        -8.7680   -1.1520    8.8750 C.3       1 PEU         0.0708
     75 CCX        -7.2680   -1.3870    8.7400 C.3       1 PEU         0.0676
     76 OCY        -6.6720   -0.2470    8.1200 O.3       1 PEU        -0.3927
     77 H          16.3304   -3.6657    5.7269 H         1 PEU         0.2095
     78 H          17.8892   -2.4329    4.5178 H         1 PEU         0.0580
     79 H          17.8402   -1.9764    6.2545 H         1 PEU         0.0580
     80 H          16.3872   -0.0833    5.7817 H         1 PEU         0.0583
     81 H          16.1917   -0.5996    4.0723 H         1 PEU         0.0583
     82 H          17.4932    0.6306    2.6498 H         1 PEU         0.0583
     83 H          18.7254    1.7038    3.3958 H         1 PEU         0.0583
     84 H          17.0332    3.1221    3.8817 H         1 PEU         0.0583
     85 H          16.4870    1.9161    5.0958 H         1 PEU         0.0583
     86 H          16.8390    1.8925    1.6695 H         1 PEU         0.0583
     87 H          15.3673    2.9062    1.4868 H         1 PEU         0.0583
     88 H          13.9608    0.9087    1.2921 H         1 PEU         0.0583
     89 H          15.3697   -0.1554    1.6228 H         1 PEU         0.0583
     90 H          15.5368   -0.5676   -1.7790 H         1 PEU         0.0583
     91 H          14.8385   -1.2172   -0.2568 H         1 PEU         0.0583
     92 H          17.3242   -0.3673    0.5977 H         1 PEU         0.0583
     93 H          17.6864   -0.8985   -1.0796 H         1 PEU         0.0583
     94 H          18.4381   -1.8359    1.5201 H         1 PEU         0.0583
     95 H          18.8998   -3.0355    0.2654 H         1 PEU         0.0583
     96 H          17.9217   -4.8062    1.3973 H         1 PEU         0.0583
     97 H          16.6826   -3.7644    2.1758 H         1 PEU         0.0583
     98 H          20.5618   -4.1950    2.8498 H         1 PEU         0.0583
     99 H          19.4320   -5.5026    2.3593 H         1 PEU         0.0583
    100 H          20.7276   -5.7805    4.6101 H         1 PEU         0.0583
    101 H          18.9606   -6.1038    4.6062 H         1 PEU         0.0583
    102 H          21.0672   -4.5309    6.8895 H         1 PEU         0.0583
    103 H          19.8291   -5.8324    6.8937 H         1 PEU         0.0583
    104 H          18.7567   -3.1114    7.4623 H         1 PEU         0.0583
    105 H          19.9141   -3.7274    8.6902 H         1 PEU         0.0583
    106 H          17.9316   -3.5108    9.9312 H         1 PEU         0.0583
    107 H          16.9251   -4.9961   10.0197 H         1 PEU         0.0583
    108 H          16.0502   -4.0136    7.6448 H         1 PEU         0.0583
    109 H          16.5162   -2.4727    8.4419 H         1 PEU         0.0583
    110 H          12.9807   -3.8524    9.2040 H         1 PEU         0.0583
    111 H          13.9989   -4.6827    7.9790 H         1 PEU         0.0583
    112 H          14.1742   -2.8008    6.6489 H         1 PEU         0.0583
    113 H          14.1052   -1.6736    8.0457 H         1 PEU         0.0583
    114 H          12.5638   -2.9164    5.3910 H         1 PEU         0.0583
    115 H          12.0866   -1.2102    5.6879 H         1 PEU         0.0583
    116 H           9.8406   -1.7952    6.1760 H         1 PEU         0.0583
    117 H          10.2589   -3.5166    6.4734 H         1 PEU         0.0583
    118 H           8.2228   -3.3519    5.0378 H         1 PEU         0.0583
    119 H           9.2701   -4.7828    4.7507 H         1 PEU         0.0583
    120 H           9.0565   -4.6332    2.4193 H         1 PEU         0.0583
    121 H           8.5819   -2.9015    2.4719 H         1 PEU         0.0583
    122 H           7.2666   -5.5888    4.5826 H         1 PEU         0.0583
    123 H           7.4752   -6.2918    2.9428 H         1 PEU         0.0583
    124 H           5.0539   -5.7774    2.4740 H         1 PEU         0.0583
    125 H           4.8802   -5.2321    4.1767 H         1 PEU         0.0583
    126 H           6.7662   -8.3060    3.0287 H         1 PEU         0.0583
    127 H           5.3873   -7.9071    1.9488 H         1 PEU         0.0583
    128 H           5.1602   -9.8309    4.3198 H         1 PEU         0.0583
    129 H           5.5589  -10.3646    2.6516 H         1 PEU         0.0583
    130 H           3.1854  -10.0511    4.8724 H         1 PEU         0.0583
    131 H           2.9331  -11.3595    3.6678 H         1 PEU         0.0583
    132 H           0.7748  -10.3527    4.4340 H         1 PEU         0.0583
    133 H           1.0487  -10.1167    2.6745 H         1 PEU         0.0583
    134 H           2.8465   -8.2543    5.1956 H         1 PEU         0.0583
    135 H           1.2293   -8.5406    5.9232 H         1 PEU         0.0583
    136 H           2.0589   -5.9920    4.4342 H         1 PEU         0.0583
    137 H           2.0217   -6.1741    6.2208 H         1 PEU         0.0583
    138 H           0.2336   -4.2054    4.8131 H         1 PEU         0.0583
    139 H           0.4707   -4.6149    6.5459 H         1 PEU         0.0583
    140 H          -1.7513   -4.3551    6.8974 H         1 PEU         0.0583
    141 H          -2.0773   -5.6874    5.7375 H         1 PEU         0.0583
    142 H          -3.8057   -4.9875    4.9215 H         1 PEU         0.0583
    143 H          -3.0276   -4.7107    3.3263 H         1 PEU         0.0583
    144 H          -3.6062   -2.1265    4.1332 H         1 PEU         0.0583
    145 H          -4.9916   -3.0407    4.8199 H         1 PEU         0.0583
    146 H          -4.6844   -1.0407    2.5162 H         1 PEU         0.0583
    147 H          -6.2197   -1.6462    3.2253 H         1 PEU         0.0583
    148 H          -5.2644   -1.9997    0.3373 H         1 PEU         0.0583
    149 H          -6.6118   -0.9569    0.9064 H         1 PEU         0.0583
    150 H          -5.8337   -4.4827    0.0879 H         1 PEU         0.0583
    151 H          -6.3921   -3.1586   -0.9900 H         1 PEU         0.0583
    152 H          -8.0542   -5.4059    0.2484 H         1 PEU         0.0583
    153 H          -7.7556   -5.0827   -1.4931 H         1 PEU         0.0583
    154 H         -10.2553   -5.3929   -0.0891 H         1 PEU         0.0583
    155 H         -10.2270   -4.9055   -1.8178 H         1 PEU         0.0583
    156 H         -11.5603   -2.9400   -1.3680 H         1 PEU         0.0583
    157 H         -11.3991   -3.1639    0.4070 H         1 PEU         0.0583
    158 H         -11.5421   -5.6919    0.7396 H         1 PEU         0.0583
    159 H         -12.9763   -6.4791   -0.0021 H         1 PEU         0.0583
    160 H         -14.3404   -5.7642    1.6663 H         1 PEU         0.0583
    161 H         -13.7003   -4.0887    1.5683 H         1 PEU         0.0583
    162 H         -11.2442   -4.1748    1.8958 H         1 PEU         0.0583
    163 H         -10.7329   -4.9379    3.4395 H         1 PEU         0.0583
    164 H         -12.4766   -2.5066    2.9678 H         1 PEU         0.0583
    165 H         -11.1412   -2.7485    4.1446 H         1 PEU         0.0583
    166 H         -13.2672   -3.4356    6.7221 H         1 PEU         0.0583
    167 H         -11.8442   -2.5439    6.0844 H         1 PEU         0.0583
    168 H         -10.7501   -4.7219    5.5488 H         1 PEU         0.0583
    169 H         -12.1572   -5.5835    6.2590 H         1 PEU         0.0583
    170 H         -11.2247   -2.5636    8.0865 H         1 PEU         0.0583
    171 H          -9.8291   -2.9229    7.0142 H         1 PEU         0.0583
    172 H          -8.5158   -3.7545    8.7806 H         1 PEU         0.0583
    173 H          -9.9455   -4.1070    9.8094 H         1 PEU         0.0583
    174 H          -8.9392   -0.1495    9.2942 H         1 PEU         0.0583
    175 H          -9.2339   -1.2182    7.8807 H         1 PEU         0.0583
    176 H          -7.0887   -2.2788    8.1215 H         1 PEU         0.0580
    177 H          -6.8272   -1.5372    9.7365 H         1 PEU         0.0580
    178 H          -5.7365   -0.3880    8.0332 H         1 PEU         0.2095
@<TRIPOS>BOND
     1    1    2 1  
     2    2    3 1  
     3    3    4 1  
     4    4    5 1  
     5    5    6 1  
     6    6    7 1  
     7    7    8 1  
     8    8    9 1  
     9    9   10 1  
    10   10   11 1  
    11   11   12 1  
    12   12   13 1  
    13   13   14 1  
    14   14   15 1  
    15   15   16 1  
    16   16   17 1  
    17   17   18 1  
    18   18   19 1  
    19   19   20 1  
    20   20   21 1  
    21   21   22 1  
    22   22   23 1  
    23   23   24 1  
    24   24   25 1  
    25   25   26 1  
    26   26   27 1  
    27   27   28 1  
    28   28   29 1  
    29   29   30 1  
    30   30   31 1  
    31   31   32 1  
    32   32   33 1  
    33   33   34 1  
    34   34   35 1  
    35   35   36 1  
    36   36   37 1  
    37   37   38 1  
    38   38   39 1  
    39   39   40 1  
    40   40   41 1  
    41   41   42 1  
    42   42   43 1  
    43   43   44 1  
    44   44   45 1  
    45   45   46 1  
    46   46   47 1  
    47   47   48 1  
    48   48   49 1  
    49   49   50 1  
    50   50   51 1  
    51   51   52 1  
    52   52   53 1  
    53   53   54 1  
    54   54   55 1  
    55   55   56 1  
    56   56   57 1  
    57   57   58 1  
    58   58   59 1  
    59   59   60 1  
    60   60   61 1  
    61   61   62 1  
    62   62   63 1  
    63   63   64 1  
    64   64   65 1  
    65   65   66 1  
    66   66   67 1  
    67   67   68 1  
    68   68   69 1  
    69   69   70 1  
    70   70   71 1  
    71   71   72 1  
    72   72   73 1  
    73   73   74 1  
    74   74   75 1  
    75   75   76 1  
    76    1   77 1  
    77    2   78 1  
    78    2   79 1  
    79    3   80 1  
    80    3   81 1  
    81    5   82 1  
    82    5   83 1  
    83    6   84 1  
    84    6   85 1  
    85    8   86 1  
    86    8   87 1  
    87    9   88 1  
    88    9   89 1  
    89   11   90 1  
    90   11   91 1  
    91   12   92 1  
    92   12   93 1  
    93   14   94 1  
    94   14   95 1  
    95   15   96 1  
    96   15   97 1  
    97   17   98 1  
    98   17   99 1  
    99   18  100 1  
   100   18  101 1  
   101   20  102 1  
   102   20  103 1  
   103   21  104 1  
   104   21  105 1  
   105   23  106 1  
   106   23  107 1  
   107   24  108 1  
   108   24  109 1  
   109   26  110 1  
   110   26  111 1  
   111   27  112 1  
   112   27  113 1  
   113   29  114 1  
   114   29  115 1  
   115   30  116 1  
   116   30  117 1  
   117   32  118 1  
   118   32  119 1  
   119   33  120 1  
   120   33  121 1  
   121   35  122 1  
   122   35  123 1  
   123   36  124 1  
   124   36  125 1  
   125   38  126 1  
   126   38  127 1  
   127   39  128 1  
   128   39  129 1  
   129   41  130 1  
   130   41  131 1  
   131   42  132 1  
   132   42  133 1  
   133   44  134 1  
   134   44  135 1  
   135   45  136 1  
   136   45  137 1  
   137   47  138 1  
   138   47  139 1  
   139   48  140 1  
   140   48  141 1  
   141   50  142 1  
   142   50  143 1  
   143   51  144 1  
   144   51  145 1  
   145   53  146 1  
   146   53  147 1  
   147   54  148 1  
   148   54  149 1  
   149   56  150 1  
   150   56  151 1  
   151   57  152 1  
   152   57  153 1  
   153   59  154 1  
   154   59  155 1  
   155   60  156 1  
   156   60  157 1  
   157   62  158 1  
   158   62  159 1  
   159   63  160 1  
   160   63  161 1  
   161   65  162 1  
   162   65  163 1  
   163   66  164 1  
   164   66  165 1  
   165   68  166 1  
   166   68  167 1  
   167   69  168 1  
   168   69  169 1  
   169   71  170 1  
   170   71  171 1  
   171   72  172 1  
   172   72  173 1  
   173   74  174 1  
   174   74  175 1  
   175   75  176 1  
   176   75  177 1  
   177   76  178 1  
@<TRIPOS>SUBSTRUCTURE
     1 PEU         1

