3src_ligand
  -I-interpret- 

 21 23  0  0  0  0  0  0  0  0999 V2000
  -23.2660  -34.2990    9.0950 C   0  0  0  0  0
  -23.5580  -35.2390   10.0770 C   0  0  0  0  0
  -23.5810  -37.6090   10.3980 C   0  0  0  0  0
  -24.3660  -37.2760   11.6400 C   0  0  0  0  0
  -25.3240  -33.8990   10.8740 C   0  0  0  0  0
  -25.9690  -34.9290   13.5960 O   0  0  0  0  0
  -25.4260  -35.9640   13.0690 C   0  0  0  0  0
  -25.4160  -37.2080   13.6120 O   0  0  0  0  0
  -24.7160  -38.0770   12.6910 N   0  0  0  0  0
  -24.7990  -36.0370   11.9040 N   0  3  0  0  0
  -22.8340  -36.4050   10.1550 O   0  0  0  0  0
  -24.5780  -35.0690   11.0080 C   0  0  0  0  0
  -25.0490  -32.9470    9.8990 C   0  0  0  0  0
  -26.1090  -31.3950    9.7900 Br  0  0  0  0  0
  -24.0180  -33.1400    8.9960 C   0  0  0  0  0
  -22.4435  -34.4745    8.4016 H   0  0  0  0  0
  -24.2174  -37.8880    9.5582 H   0  0  0  0  0
  -22.9430  -38.4838   10.5234 H   0  0  0  0  0
  -26.1536  -33.7242   11.5590 H   0  0  0  0  0
  -24.5249  -39.0728   12.8020 H   0  0  0  0  0
  -23.8032  -32.3986    8.2264 H   0  0  0  0  0
  2  1  4  0  0  0
  1 15  4  0  0  0
 11  2  1  0  0  0
  2 12  4  0  0  0
  4  3  1  0  0  0
  3 11  1  0  0  0
  4  9  1  0  0  0
 10  4  2  0  0  0
 12  5  4  0  0  0
  5 13  4  0  0  0
  7  6  2  0  0  0
  7  8  1  0  0  0
  7 10  1  0  0  0
  8  9  1  0  0  0
 10 12  1  0  0  0
 13 14  1  0  0  0
 13 15  4  0  0  0
  1 16  1  0  0  0
  3 17  1  0  0  0
  3 18  1  0  0  0
  5 19  1  0  0  0
  9 20  1  0  0  0
 15 21  1  0  0  0
M  END
$$$$
