### 
### Created by X-TOOL on Mon Sep 10 21:12:55 2018
### 

@<TRIPOS>MOLECULE
2ork_ligand
   27    27     1     0     0
SMALL
GAST_HUCK


@<TRIPOS>ATOM
      1 C1         28.7440   18.7160  -25.0230 C.3       1 IPD         0.1456
      2 C2         29.1360   20.1150  -25.5180 C.3       1 IPD         0.1165
      3 C3         27.9400   21.0370  -25.8060 C.3       1 IPD         0.1121
      4 C4         26.9790   21.1160  -24.6160 C.3       1 IPD         0.1118
      5 C5         26.5590   19.7060  -24.1970 C.3       1 IPD         0.1121
      6 C6         27.7730   18.8370  -23.8470 C.3       1 IPD         0.1165
      7 P1         30.4110   16.5600  -24.8880 P.3       1 IPD         0.2013
      8 O1         29.9220   18.0670  -24.5310 O.3       1 IPD        -0.2676
      9 O2         29.9490   20.7300  -24.5090 O.3       1 IPD        -0.3861
     10 O3         28.3830   22.3750  -26.0750 O.3       1 IPD        -0.3865
     11 O4         25.8390   21.8920  -24.9950 O.3       1 IPD        -0.3865
     12 O5         25.6580   19.8150  -23.0800 O.3       1 IPD        -0.3865
     13 O6         27.3730   17.5270  -23.4260 O.3       1 IPD        -0.3861
     14 O7         31.8140   16.5320  -24.3240 O.co2     1 IPD        -0.5537
     15 O8         29.4310   15.6560  -24.1780 O.co2     1 IPD        -0.5537
     16 O9         30.3660   16.4880  -26.3970 O.co2     1 IPD        -0.5537
     17 H1         28.2901   18.1357  -25.8398 H         1 IPD         0.0703
     18 H2         29.7190   20.0051  -26.4443 H         1 IPD         0.0650
     19 H3         27.4011   20.6461  -26.6817 H         1 IPD         0.0647
     20 H4         27.4844   21.6053  -23.7704 H         1 IPD         0.0647
     21 H5         26.0281   19.2318  -25.0356 H         1 IPD         0.0647
     22 H6         28.3027   19.3204  -23.0130 H         1 IPD         0.0650
     23 H7         30.6936   20.1711  -24.3198 H         1 IPD         0.2100
     24 H8         28.8242   22.7215  -25.3083 H         1 IPD         0.2100
     25 H9         26.1207   22.7623  -25.2512 H         1 IPD         0.2100
     26 H10        25.3517   18.9494  -22.8360 H         1 IPD         0.2100
     27 H11        26.8903   17.1041  -24.1265 H         1 IPD         0.2100
@<TRIPOS>BOND
     1    1    2 1  
     2    1    6 1  
     3    1    8 1  
     4    2    3 1  
     5    2    9 1  
     6    3    4 1  
     7    3   10 1  
     8    4    5 1  
     9    4   11 1  
    10    5    6 1  
    11    5   12 1  
    12    6   13 1  
    13    8    7 1  
    14    7   14 ar 
    15    7   15 ar 
    16    7   16 ar 
    17    1   17 1  
    18    2   18 1  
    19    3   19 1  
    20    4   20 1  
    21    5   21 1  
    22    6   22 1  
    23    9   23 1  
    24   10   24 1  
    25   11   25 1  
    26   12   26 1  
    27   13   27 1  
@<TRIPOS>SUBSTRUCTURE
     1 IPD         1

