2ork_ligand
  -I-interpret- 

 29 29  0  0  0  0  0  0  0  0999 V2000
   28.7440   18.7160  -25.0230 C   0  0  0  0  0
   29.1360   20.1150  -25.5180 C   0  0  0  0  0
   27.9400   21.0370  -25.8060 C   0  0  0  0  0
   26.9790   21.1160  -24.6160 C   0  0  0  0  0
   26.5590   19.7060  -24.1970 C   0  0  0  0  0
   27.7730   18.8370  -23.8470 C   0  0  0  0  0
   30.4110   16.5600  -24.8880 P   0  0  0  0  0
   29.9220   18.0670  -24.5310 O   0  0  0  0  0
   29.9490   20.7300  -24.5090 O   0  0  0  0  0
   28.3830   22.3750  -26.0750 O   0  0  0  0  0
   25.8390   21.8920  -24.9950 O   0  0  0  0  0
   25.6580   19.8150  -23.0800 O   0  0  0  0  0
   27.3730   17.5270  -23.4260 O   0  0  0  0  0
   31.8140   16.5320  -24.3240 O   0  0  0  0  0
   29.4310   15.6560  -24.1780 O   0  0  0  0  0
   30.3660   16.4880  -26.3970 O   0  0  0  0  0
   28.2852   18.1598  -25.8404 H   0  0  0  0  0
   29.6620   19.9830  -26.4635 H   0  0  0  0  0
   27.4296   20.6099  -26.6693 H   0  0  0  0  0
   27.4699   21.5920  -23.7672 H   0  0  0  0  0
   26.0568   19.2146  -25.0303 H   0  0  0  0  0
   28.2837   19.3365  -23.0237 H   0  0  0  0  0
   30.7014   20.1653  -24.3178 H   0  0  0  0  0
   28.9902   22.3664  -26.8185 H   0  0  0  0  0
   26.1237   22.7715  -25.2539 H   0  0  0  0  0
   24.9093   20.3629  -23.3266 H   0  0  0  0  0
   28.1525   17.0082  -23.2144 H   0  0  0  0  0
   32.3720   17.1295  -24.8272 H   0  0  0  0  0
   31.0168   17.0904  -26.7645 H   0  0  0  0  0
  1  2  1  0  0  0
  1  6  1  0  0  0
  1  8  1  0  0  0
  2  3  1  0  0  0
  2  9  1  0  0  0
  3  4  1  0  0  0
  3 10  1  0  0  0
  4  5  1  0  0  0
  4 11  1  0  0  0
  5  6  1  0  0  0
  5 12  1  0  0  0
  6 13  1  0  0  0
  8  7  1  0  0  0
  7 14  1  0  0  0
  7 15  2  0  0  0
  7 16  1  0  0  0
  1 17  1  0  0  0
  2 18  1  0  0  0
  3 19  1  0  0  0
  4 20  1  0  0  0
  5 21  1  0  0  0
  6 22  1  0  0  0
  9 23  1  0  0  0
 10 24  1  0  0  0
 11 25  1  0  0  0
 12 26  1  0  0  0
 13 27  1  0  0  0
 14 28  1  0  0  0
 16 29  1  0  0  0
M  END
$$$$
