1vyj_ligand
  -I-interpret- 

282285  0  0  0  0  0  0  0  0999 V2000
  -30.4110   49.9090   41.9340 N   0  3  0  0  0
  -31.3090   51.0360   41.6980 C   0  0  0  0  0
  -31.2140   52.0820   42.8170 C   0  0  0  0  0
  -30.2050   52.2270   43.4930 O   0  0  0  0  0
  -32.7340   50.4910   41.6040 C   0  0  0  0  0
  -32.7500   49.1330   42.0480 O   0  0  0  0  0
  -32.3020   52.8620   42.9700 N   0  0  0  0  0
  -32.3160   53.8530   44.0450 C   0  0  0  0  0
  -33.5360   54.7790   43.9790 C   0  0  0  0  0
  -33.9020   55.4370   44.9440 O   0  0  0  0  0
  -31.0260   54.6730   43.9670 C   0  0  0  0  0
  -34.1530   54.8520   42.7850 N   0  0  0  0  0
  -35.3120   55.7310   42.6400 C   0  0  0  0  0
  -36.1510   55.3850   41.4080 C   0  0  0  0  0
  -36.0760   54.3010   40.8450 O   0  0  0  0  0
  -34.8070   57.1720   42.5340 C   0  0  0  0  0
  -34.3930   57.6880   43.9110 C   0  0  0  0  0
  -33.6150   57.2360   41.5960 C   0  0  0  0  0
  -37.0090   56.3490   41.0190 N   0  0  0  0  0
  -37.8390   56.1500   39.8370 C   0  0  0  0  0
  -37.9410   57.4380   39.0070 C   0  0  0  0  0
  -37.7600   58.5470   39.4970 O   0  0  0  0  0
  -39.2220   55.6780   40.2970 C   0  0  0  0  0
  -39.1360   54.6050   41.3890 C   0  0  0  0  0
  -40.4640   54.4000   42.1230 C   0  0  0  0  0
  -38.7310   53.2330   40.8460 C   0  0  0  0  0
  -38.2000   57.2560   37.6960 N   0  0  0  0  0
  -38.1090   58.3830   36.7670 C   0  0  0  0  0
  -39.4280   59.1560   36.6320 C   0  0  0  0  0
  -40.3790   58.7040   36.0100 O   0  0  0  0  0
  -37.6800   57.8350   35.4030 C   0  0  0  0  0
  -37.7350   58.8980   34.3050 C   0  0  0  0  0
  -36.4890   59.7520   34.3680 C   0  0  0  0  0
  -35.3990   59.3640   33.9850 O   0  0  0  0  0
  -36.6980   60.9780   34.8870 N   0  0  0  0  0
  -39.3670   60.4030   37.0610 N   0  0  0  0  0
  -40.4790   61.2960   36.7960 C   0  0  0  0  0
  -40.6380   61.6090   35.3010 C   0  0  0  0  0
  -39.7490   61.3240   34.4940 O   0  0  0  0  0
  -40.3550   62.5240   37.6990 C   0  0  0  0  0
  -40.7930   62.1920   39.1440 C   0  0  0  0  0
  -42.1770   61.4820   39.1820 C   0  0  0  0  0
  -43.1320   62.0440   40.2400 C   0  0  0  0  0
  -43.8380   63.2730   39.7820 N   0  3  0  0  0
  -41.8080   62.1030   34.9020 N   0  0  0  0  0
  -41.9720   62.6210   33.5470 C   0  0  0  0  0
  -41.9150   64.1440   33.4990 C   0  0  0  0  0
  -41.9750   64.8250   34.5220 O   0  0  0  0  0
  -43.2590   62.1170   32.9220 C   0  0  0  0  0
  -43.5880   60.7010   33.2990 C   0  0  0  0  0
  -43.9890   59.8650   32.0860 C   0  0  0  0  0
  -45.4950   59.8830   31.8750 C   0  0  0  0  0
  -46.0190   58.5170   31.6140 N   0  3  0  0  0
  -41.7400   64.7040   32.3120 N   0  0  0  0  0
  -41.5890   66.1460   32.2800 C   0  0  0  0  0
  -42.9620   66.7920   32.4900 C   0  0  0  0  0
  -43.0750   67.8690   33.0590 O   0  0  0  0  0
  -40.8750   66.6060   31.0000 C   0  0  0  0  0
  -40.4500   68.0500   31.1590 C   0  0  0  0  0
  -41.7240   66.4270   29.7670 C   0  0  0  0  0
  -38.9530   68.0980   31.3920 C   0  0  0  0  0
  -44.0020   66.0660   32.1030 N   0  0  0  0  0
  -45.3840   66.4480   32.3650 C   0  0  0  0  0
  -45.7530   66.5900   33.8330 C   0  0  0  0  0
  -46.6480   67.3740   34.1310 O   0  0  0  0  0
  -46.3630   65.4470   31.7390 C   0  0  0  0  0
  -46.1710   64.1500   32.3130 O   0  0  0  0  0
  -46.0790   65.2040   30.2560 C   0  0  0  0  0
  -45.1330   65.8690   34.7650 N   0  0  0  0  0
  -45.4310   66.1150   36.1920 C   0  0  0  0  0
  -44.9670   67.4830   36.6910 C   0  0  0  0  0
  -45.0660   67.7400   37.8760 O   0  0  0  0  0
  -44.8980   65.0210   37.1350 C   0  0  0  0  0
  -44.9840   63.6190   36.5370 C   0  0  0  0  0
  -46.0520   63.2550   36.0130 O   0  0  0  0  0
  -44.0540   62.7780   36.5570 O   0  0  0  0  0
  -44.4260   68.3350   35.8240 N   0  0  0  0  0
  -43.7670   69.5760   36.2530 C   0  0  0  0  0
  -44.1860   70.7140   35.3320 C   0  0  0  0  0
  -44.1940   71.8650   35.7710 O   0  0  0  0  0
  -42.2230   69.5070   36.2120 C   0  0  0  0  0
  -41.5430   68.4540   37.0790 C   0  0  0  0  0
  -41.4290   67.1180   36.6640 C   0  0  0  0  0
  -40.9230   68.8160   38.2730 C   0  0  0  0  0
  -40.7880   66.1500   37.4800 C   0  0  0  0  0
  -40.2960   67.8690   39.0870 C   0  0  0  0  0
  -40.2430   66.5470   38.6890 C   0  0  0  0  0
  -39.6430   65.6520   39.5280 O   0  0  0  0  0
  -44.4500   70.4090   34.0590 N   0  0  0  0  0
  -44.8000   71.4250   33.0610 C   0  0  0  0  0
  -46.1440   71.0690   32.4680 C   0  0  0  0  0
  -46.3880   69.9140   32.0920 O   0  0  0  0  0
  -43.8020   71.5260   31.8880 C   0  0  0  0  0
  -42.4120   71.9480   32.2950 C   0  0  0  0  0
  -41.3000   71.5000   31.6030 C   0  0  0  0  0
  -42.2150   72.7600   33.3880 C   0  0  0  0  0
  -40.0350   71.8820   31.9840 C   0  0  0  0  0
  -40.9380   73.1230   33.7870 C   0  0  0  0  0
  -39.8550   72.6840   33.0910 C   0  0  0  0  0
  -47.0490   71.9180   32.4490 N   0  0  0  0  0
  -48.4390   71.6880   32.0730 C   0  0  0  0  0
  -48.8430   72.5400   30.8700 C   0  0  0  0  0
  -48.2500   73.5700   30.5690 O   0  0  0  0  0
  -49.3180   72.0330   33.2770 C   0  0  0  0  0
  -49.0360   71.0650   34.3960 C   0  0  0  0  0
  -48.6270   69.7890   34.1930 N   0  0  0  0  0
  -49.1230   71.2850   35.7760 C   0  0  0  0  0
  -48.4710   69.2560   35.4200 C   0  0  0  0  0
  -48.7610   70.1280   36.3870 N   0  0  0  0  0
  -49.8590   72.0480   30.1370 N   0  0  0  0  0
  -50.3950   72.7570   28.9910 C   0  0  0  0  0
  -50.4200   74.2740   29.2190 C   0  0  0  0  0
  -50.5220   74.7710   30.3350 O   0  0  0  0  0
  -51.7950   72.2100   28.7510 C   0  0  0  0  0
  -51.7980   70.7720   29.2690 C   0  0  0  0  0
  -50.5860   70.7980   30.3200 C   0  0  0  0  0
  -50.2670   75.0100   28.1010 N   0  0  0  0  0
  -50.1360   76.4600   28.1890 C   0  0  0  0  0
  -51.4190   77.1290   28.6860 C   0  0  0  0  0
  -52.4830   77.0460   28.0840 O   0  0  0  0  0
  -49.7590   76.9950   26.8060 C   0  0  0  0  0
  -48.4550   77.7990   26.8260 C   0  0  0  0  0
  -48.6300   79.1770   27.4710 C   0  0  0  0  0
  -48.7130   80.3100   26.4380 C   0  0  0  0  0
  -47.5090   81.1360   26.5120 N   0  3  0  0  0
  -51.2890   77.7830   29.8570 N   0  0  0  0  0
  -52.4290   78.4790   30.4410 C   0  0  0  0  0
  -53.4990   78.7890   29.3930 C   0  0  0  0  0
  -54.6020   78.2580   29.4180 O   0  0  0  0  0
  -51.9250   79.7800   31.0660 C   0  0  0  0  0
  -51.3200   79.5590   32.4520 C   0  0  0  0  0
  -50.2730   78.4440   32.4550 C   0  0  0  0  0
  -48.8850   78.9390   32.0300 C   0  0  0  0  0
  -49.0250   80.0030   31.0380 N   0  3  0  0  0
  -53.3010   79.5830   28.4810 O   0  0  0  0  0
  -29.4515   50.2485   42.0006 H   0  0  0  0  0
  -30.6703   49.4458   42.8050 H   0  0  0  0  0
  -30.4862   49.2482   41.1607 H   0  0  0  0  0
  -31.0238   51.5350   40.7718 H   0  0  0  0  0
  -33.0766   50.5412   40.5705 H   0  0  0  0  0
  -33.3954   51.0881   42.2318 H   0  0  0  0  0
  -33.6443   48.7890   41.9897 H   0  0  0  0  0
  -33.1028   52.7628   42.3461 H   0  0  0  0  0
  -32.3809   53.3234   44.9955 H   0  0  0  0  0
  -30.1683   54.0104   44.0824 H   0  0  0  0  0
  -30.9728   55.1732   43.0000 H   0  0  0  0  0
  -31.0214   55.4174   44.7632 H   0  0  0  0  0
  -33.8172   54.3027   41.9939 H   0  0  0  0  0
  -35.9565   55.6031   43.5097 H   0  0  0  0  0
  -35.6119   57.7944   42.1430 H   0  0  0  0  0
  -35.2516   57.6584   44.5819 H   0  0  0  0  0
  -33.5972   57.0586   44.3093 H   0  0  0  0  0
  -34.0359   58.7139   43.8209 H   0  0  0  0  0
  -32.8162   56.6026   41.9819 H   0  0  0  0  0
  -33.9128   56.8858   40.6077 H   0  0  0  0  0
  -33.2631   58.2654   41.5274 H   0  0  0  0  0
  -37.0775   57.2166   41.5509 H   0  0  0  0  0
  -37.3871   55.3961   39.1923 H   0  0  0  0  0
  -39.7355   55.2463   39.4379 H   0  0  0  0  0
  -39.7536   56.5366   40.7072 H   0  0  0  0  0
  -38.3743   54.9875   42.0685 H   0  0  0  0  0
  -40.7643   55.3350   42.5961 H   0  0  0  0  0
  -41.2279   54.0905   41.4097 H   0  0  0  0  0
  -40.3419   53.6292   42.8839 H   0  0  0  0  0
  -39.4663   52.9025   40.1124 H   0  0  0  0  0
  -37.7515   53.3054   40.3733 H   0  0  0  0  0
  -38.6877   52.5171   41.6668 H   0  0  0  0  0
  -38.4596   56.3317   37.3516 H   0  0  0  0  0
  -37.3799   59.0927   37.1579 H   0  0  0  0  0
  -38.3658   57.0327   35.1307 H   0  0  0  0  0
  -36.6496   57.4895   35.4870 H   0  0  0  0  0
  -38.6139   59.5260   34.4508 H   0  0  0  0  0
  -37.7936   58.4119   33.3311 H   0  0  0  0  0
  -35.9217   61.6338   34.9749 H   0  0  0  0  0
  -37.6325   61.2502   35.1920 H   0  0  0  0  0
  -38.5488   60.7342   37.5721 H   0  0  0  0  0
  -41.4175   60.8026   37.0487 H   0  0  0  0  0
  -40.9993   63.3122   37.3096 H   0  0  0  0  0
  -39.3135   62.8451   37.7133 H   0  0  0  0  0
  -40.8726   63.1260   39.7002 H   0  0  0  0  0
  -40.0527   61.5213   39.5800 H   0  0  0  0  0
  -41.9985   60.4354   39.4286 H   0  0  0  0  0
  -42.6456   61.6314   38.2093 H   0  0  0  0  0
  -42.5421   62.3046   41.1188 H   0  0  0  0  0
  -43.8847   61.2838   40.4491 H   0  0  0  0  0
  -44.4579   63.6031   40.5217 H   0  0  0  0  0
  -43.1525   63.9959   39.5634 H   0  0  0  0  0
  -44.3854   63.0586   38.9484 H   0  0  0  0  0
  -42.5967   62.1197   35.5486 H   0  0  0  0  0
  -41.1311   62.2458   32.9637 H   0  0  0  0  0
  -43.1341   62.1491   31.8397 H   0  0  0  0  0
  -44.0699   62.7504   33.2816 H   0  0  0  0  0
  -44.4281   60.7194   33.9932 H   0  0  0  0  0
  -42.7004   60.2517   33.7444 H   0  0  0  0  0
  -43.6749   58.8351   32.2556 H   0  0  0  0  0
  -43.5100   60.2852   31.2017 H   0  0  0  0  0
  -45.7174   60.5111   31.0123 H   0  0  0  0  0
  -45.9677   60.2697   32.7779 H   0  0  0  0  0
  -47.0288   58.5619   31.4770 H   0  0  0  0  0
  -45.5774   58.1392   30.7757 H   0  0  0  0  0
  -45.8092   57.9157   32.4107 H   0  0  0  0  0
  -41.7126   64.1462   31.4584 H   0  0  0  0  0
  -40.9426   66.4756   33.0934 H   0  0  0  0  0
  -39.9968   65.9761   30.8584 H   0  0  0  0  0
  -40.9695   68.4959   32.0072 H   0  0  0  0  0
  -40.7009   68.6095   30.2578 H   0  0  0  0  0
  -41.9755   65.3728   29.6505 H   0  0  0  0  0
  -42.6387   67.0110   29.8693 H   0  0  0  0  0
  -41.1694   66.7683   28.8929 H   0  0  0  0  0
  -38.7092   67.5397   32.2959 H   0  0  0  0  0
  -38.4394   67.6537   30.5394 H   0  0  0  0  0
  -38.6377   69.1350   31.5077 H   0  0  0  0  0
  -43.8263   65.1978   31.5973 H   0  0  0  0  0
  -45.4647   67.4356   31.9109 H   0  0  0  0  0
  -47.3526   65.8729   31.9047 H   0  0  0  0  0
  -46.7876   63.5309   31.9154 H   0  0  0  0  0
  -46.1645   66.1447   29.7121 H   0  0  0  0  0
  -45.0706   64.8067   30.1409 H   0  0  0  0  0
  -46.8002   64.4880   29.8618 H   0  0  0  0  0
  -44.4580   65.1529   34.4967 H   0  0  0  0  0
  -46.5202   66.0918   36.2255 H   0  0  0  0  0
  -45.5106   65.0342   38.0365 H   0  0  0  0  0
  -43.8467   65.2343   37.3281 H   0  0  0  0  0
  -43.2842   63.1639   36.9813 H   0  0  0  0  0
  -44.4703   68.1193   34.8280 H   0  0  0  0  0
  -44.0747   69.7350   37.2865 H   0  0  0  0  0
  -41.8760   70.4682   36.5912 H   0  0  0  0  0
  -41.9678   69.2502   35.1839 H   0  0  0  0  0
  -41.8394   66.8192   35.6994 H   0  0  0  0  0
  -40.9271   69.8621   38.5792 H   0  0  0  0  0
  -40.7257   65.1100   37.1598 H   0  0  0  0  0
  -39.8497   68.1726   40.0339 H   0  0  0  0  0
  -39.3283   66.1102   40.3107 H   0  0  0  0  0
  -44.4066   69.4319   33.7697 H   0  0  0  0  0
  -44.7957   72.3814   33.5839 H   0  0  0  0  0
  -44.1826   72.2862   31.2059 H   0  0  0  0  0
  -43.7209   70.5322   31.4477 H   0  0  0  0  0
  -41.4283   70.8374   30.7471 H   0  0  0  0  0
  -43.0761   73.1234   33.9488 H   0  0  0  0  0
  -39.1711   71.5494   31.4085 H   0  0  0  0  0
  -40.8016   73.7613   34.6600 H   0  0  0  0  0
  -38.8502   72.9647   33.4067 H   0  0  0  0  0
  -46.7963   72.8676   32.7226 H   0  0  0  0  0
  -48.5660   70.6439   31.7870 H   0  0  0  0  0
  -50.3680   71.9647   32.9926 H   0  0  0  0  0
  -49.0982   73.0476   33.6093 H   0  0  0  0  0
  -49.4244   72.2103   36.2670 H   0  0  0  0  0
  -48.1457   68.2317   35.6017 H   0  0  0  0  0
  -49.7618   72.5999   28.1178 H   0  0  0  0  0
  -52.0487   72.2422   27.6914 H   0  0  0  0  0
  -52.5417   72.8116   29.2693 H   0  0  0  0  0
  -51.6732   70.0280   28.4823 H   0  0  0  0  0
  -52.7483   70.4729   29.7111 H   0  0  0  0  0
  -50.9687   70.7302   31.3384 H   0  0  0  0  0
  -49.9236   69.9487   30.1525 H   0  0  0  0  0
  -50.2427   74.5517   27.1901 H   0  0  0  0  0
  -49.3596   76.6959   28.9168 H   0  0  0  0  0
  -50.5579   77.6566   26.4712 H   0  0  0  0  0
  -49.6193   76.1425   26.1413 H   0  0  0  0  0
  -48.1338   77.9471   25.7950 H   0  0  0  0  0
  -47.7239   77.2422   27.4122 H   0  0  0  0  0
  -47.7612   79.3633   28.1023 H   0  0  0  0  0
  -49.5645   79.1672   28.0321 H   0  0  0  0  0
  -49.5868   80.9266   26.6485 H   0  0  0  0  0
  -48.7957   79.8818   25.4390 H   0  0  0  0  0
  -47.5701   81.8864   25.8238 H   0  0  0  0  0
  -47.4295   81.5361   27.4469 H   0  0  0  0  0
  -46.6903   80.5598   26.3167 H   0  0  0  0  0
  -50.3890   77.7911   30.3369 H   0  0  0  0  0
  -52.8874   77.8380   31.1941 H   0  0  0  0  0
  -52.7732   80.4566   31.1704 H   0  0  0  0  0
  -51.1490   80.1886   30.4187 H   0  0  0  0  0
  -52.1232   79.2715   33.1305 H   0  0  0  0  0
  -50.8315   80.4835   32.7599 H   0  0  0  0  0
  -50.5909   77.6828   31.7425 H   0  0  0  0  0
  -50.1955   78.0588   33.4717 H   0  0  0  0  0
  -48.3232   78.1118   31.5963 H   0  0  0  0  0
  -48.3560   79.3244   32.9016 H   0  0  0  0  0
  -48.1000   80.3292   30.7582 H   0  0  0  0  0
  -49.5209   79.6429   30.2226 H   0  0  0  0  0
  -49.5515   80.7769   31.4433 H   0  0  0  0  0
  -52.4123   79.9384   28.5549 H   0  0  0  0  0
  1  2  1  0  0  0
  2  3  1  0  0  0
  2  5  1  0  0  0
  3  4  2  0  0  0
  3  7  1  0  0  0
  5  6  1  0  0  0
  7  8  1  0  0  0
  8  9  1  0  0  0
  8 11  1  0  0  0
  9 10  2  0  0  0
  9 12  1  0  0  0
 12 13  1  0  0  0
 13 14  1  0  0  0
 13 16  1  0  0  0
 14 15  2  0  0  0
 14 19  1  0  0  0
 16 17  1  0  0  0
 16 18  1  0  0  0
 19 20  1  0  0  0
 20 21  1  0  0  0
 20 23  1  0  0  0
 21 22  2  0  0  0
 21 27  1  0  0  0
 23 24  1  0  0  0
 24 25  1  0  0  0
 24 26  1  0  0  0
 27 28  1  0  0  0
 28 29  1  0  0  0
 28 31  1  0  0  0
 29 30  2  0  0  0
 29 36  1  0  0  0
 31 32  1  0  0  0
 32 33  1  0  0  0
 33 34  2  0  0  0
 33 35  1  0  0  0
 36 37  1  0  0  0
 37 38  1  0  0  0
 37 40  1  0  0  0
 38 39  2  0  0  0
 38 45  1  0  0  0
 40 41  1  0  0  0
 41 42  1  0  0  0
 42 43  1  0  0  0
 43 44  1  0  0  0
 45 46  1  0  0  0
 46 47  1  0  0  0
 46 49  1  0  0  0
 47 48  2  0  0  0
 47 54  1  0  0  0
 49 50  1  0  0  0
 50 51  1  0  0  0
 51 52  1  0  0  0
 52 53  1  0  0  0
 54 55  1  0  0  0
 55 56  1  0  0  0
 55 58  1  0  0  0
 56 57  2  0  0  0
 56 62  1  0  0  0
 58 59  1  0  0  0
 58 60  1  0  0  0
 59 61  1  0  0  0
 62 63  1  0  0  0
 63 64  1  0  0  0
 63 66  1  0  0  0
 64 65  2  0  0  0
 64 69  1  0  0  0
 66 67  1  0  0  0
 66 68  1  0  0  0
 69 70  1  0  0  0
 70 71  1  0  0  0
 70 73  1  0  0  0
 71 72  2  0  0  0
 71 77  1  0  0  0
 73 74  1  0  0  0
 74 75  2  0  0  0
 74 76  1  0  0  0
 77 78  1  0  0  0
 78 79  1  0  0  0
 78 81  1  0  0  0
 79 80  2  0  0  0
 79 89  1  0  0  0
 81 82  1  0  0  0
 82 83  4  0  0  0
 82 84  4  0  0  0
 83 85  4  0  0  0
 84 86  4  0  0  0
 85 87  4  0  0  0
 86 87  4  0  0  0
 87 88  1  0  0  0
 89 90  1  0  0  0
 90 91  1  0  0  0
 90 93  1  0  0  0
 91 92  2  0  0  0
 91100  1  0  0  0
 93 94  1  0  0  0
 94 95  4  0  0  0
 94 96  4  0  0  0
 95 97  4  0  0  0
 96 98  4  0  0  0
 97 99  4  0  0  0
 98 99  4  0  0  0
100101  1  0  0  0
101102  1  0  0  0
101104  1  0  0  0
102103  2  0  0  0
102110  1  0  0  0
104105  1  0  0  0
105106  4  0  0  0
105107  4  0  0  0
106108  4  0  0  0
107109  4  0  0  0
108109  4  0  0  0
110111  1  0  0  0
110116  1  0  0  0
111112  1  0  0  0
111114  1  0  0  0
112113  2  0  0  0
112117  1  0  0  0
114115  1  0  0  0
115116  1  0  0  0
117118  1  0  0  0
118119  1  0  0  0
118121  1  0  0  0
119120  2  0  0  0
119126  1  0  0  0
121122  1  0  0  0
122123  1  0  0  0
123124  1  0  0  0
124125  1  0  0  0
126127  1  0  0  0
127128  1  0  0  0
127130  1  0  0  0
128129  2  0  0  0
128135  1  0  0  0
130131  1  0  0  0
131132  1  0  0  0
132133  1  0  0  0
133134  1  0  0  0
  1136  1  0  0  0
  1137  1  0  0  0
  1138  1  0  0  0
  2139  1  0  0  0
  5140  1  0  0  0
  5141  1  0  0  0
  6142  1  0  0  0
  7143  1  0  0  0
  8144  1  0  0  0
 11145  1  0  0  0
 11146  1  0  0  0
 11147  1  0  0  0
 12148  1  0  0  0
 13149  1  0  0  0
 16150  1  0  0  0
 17151  1  0  0  0
 17152  1  0  0  0
 17153  1  0  0  0
 18154  1  0  0  0
 18155  1  0  0  0
 18156  1  0  0  0
 19157  1  0  0  0
 20158  1  0  0  0
 23159  1  0  0  0
 23160  1  0  0  0
 24161  1  0  0  0
 25162  1  0  0  0
 25163  1  0  0  0
 25164  1  0  0  0
 26165  1  0  0  0
 26166  1  0  0  0
 26167  1  0  0  0
 27168  1  0  0  0
 28169  1  0  0  0
 31170  1  0  0  0
 31171  1  0  0  0
 32172  1  0  0  0
 32173  1  0  0  0
 35174  1  0  0  0
 35175  1  0  0  0
 36176  1  0  0  0
 37177  1  0  0  0
 40178  1  0  0  0
 40179  1  0  0  0
 41180  1  0  0  0
 41181  1  0  0  0
 42182  1  0  0  0
 42183  1  0  0  0
 43184  1  0  0  0
 43185  1  0  0  0
 44186  1  0  0  0
 44187  1  0  0  0
 44188  1  0  0  0
 45189  1  0  0  0
 46190  1  0  0  0
 49191  1  0  0  0
 49192  1  0  0  0
 50193  1  0  0  0
 50194  1  0  0  0
 51195  1  0  0  0
 51196  1  0  0  0
 52197  1  0  0  0
 52198  1  0  0  0
 53199  1  0  0  0
 53200  1  0  0  0
 53201  1  0  0  0
 54202  1  0  0  0
 55203  1  0  0  0
 58204  1  0  0  0
 59205  1  0  0  0
 59206  1  0  0  0
 60207  1  0  0  0
 60208  1  0  0  0
 60209  1  0  0  0
 61210  1  0  0  0
 61211  1  0  0  0
 61212  1  0  0  0
 62213  1  0  0  0
 63214  1  0  0  0
 66215  1  0  0  0
 67216  1  0  0  0
 68217  1  0  0  0
 68218  1  0  0  0
 68219  1  0  0  0
 69220  1  0  0  0
 70221  1  0  0  0
 73222  1  0  0  0
 73223  1  0  0  0
 76224  1  0  0  0
 77225  1  0  0  0
 78226  1  0  0  0
 81227  1  0  0  0
 81228  1  0  0  0
 83229  1  0  0  0
 84230  1  0  0  0
 85231  1  0  0  0
 86232  1  0  0  0
 88233  1  0  0  0
 89234  1  0  0  0
 90235  1  0  0  0
 93236  1  0  0  0
 93237  1  0  0  0
 95238  1  0  0  0
 96239  1  0  0  0
 97240  1  0  0  0
 98241  1  0  0  0
 99242  1  0  0  0
100243  1  0  0  0
101244  1  0  0  0
104245  1  0  0  0
104246  1  0  0  0
107247  1  0  0  0
108248  1  0  0  0
111249  1  0  0  0
114250  1  0  0  0
114251  1  0  0  0
115252  1  0  0  0
115253  1  0  0  0
116254  1  0  0  0
116255  1  0  0  0
117256  1  0  0  0
118257  1  0  0  0
121258  1  0  0  0
121259  1  0  0  0
122260  1  0  0  0
122261  1  0  0  0
123262  1  0  0  0
123263  1  0  0  0
124264  1  0  0  0
124265  1  0  0  0
125266  1  0  0  0
125267  1  0  0  0
125268  1  0  0  0
126269  1  0  0  0
127270  1  0  0  0
130271  1  0  0  0
130272  1  0  0  0
131273  1  0  0  0
131274  1  0  0  0
132275  1  0  0  0
132276  1  0  0  0
133277  1  0  0  0
133278  1  0  0  0
134279  1  0  0  0
134280  1  0  0  0
134281  1  0  0  0
135282  1  0  0  0
M  END
$$$$
