### 
### Created by X-TOOL on Mon Sep 10 21:12:52 2018
### 

@<TRIPOS>MOLECULE
1vyj_ligand
  281   284     1     0     0
SMALL
GAST_HUCK


@<TRIPOS>ATOM
      1 N         -30.4110   49.9090   41.9340 N.4       1 SER         0.2396
      2 CA        -31.3090   51.0360   41.6980 C.3       1 SER         0.0885
      3 C         -31.2140   52.0820   42.8170 C.2       1 SER         0.2290
      4 O         -30.2050   52.2270   43.4930 O.2       1 SER        -0.3906
      5 CB        -32.7340   50.4910   41.6040 C.3       1 SER         0.1041
      6 OG        -32.7500   49.1330   42.0480 O.3       1 SER        -0.3870
      7 N         -32.3020   52.8620   42.9700 N.am      1 ALA        -0.2612
      8 CA        -32.3160   53.8530   44.0450 C.3       1 ALA         0.1283
      9 C         -33.5360   54.7790   43.9790 C.2       1 ALA         0.2036
     10 O         -33.9020   55.4370   44.9440 O.2       1 ALA        -0.3944
     11 CB        -31.0260   54.6730   43.9670 C.3       1 ALA        -0.0244
     12 N         -34.1530   54.8520   42.7850 N.am      1 VAL        -0.2635
     13 CA        -35.3120   55.7310   42.6400 C.3       1 VAL         0.1332
     14 C         -36.1510   55.3850   41.4080 C.2       1 VAL         0.2041
     15 O         -36.0760   54.3010   40.8450 O.2       1 VAL        -0.3944
     16 CB        -34.8070   57.1720   42.5340 C.3       1 VAL        -0.0063
     17 CG1       -34.3930   57.6880   43.9110 C.3       1 VAL        -0.0584
     18 CG2       -33.6150   57.2360   41.5960 C.3       1 VAL        -0.0584
     19 N         -37.0090   56.3490   41.0190 N.am      1 LEU        -0.2637
     20 CA        -37.8390   56.1500   39.8370 C.3       1 LEU         0.1312
     21 C         -37.9410   57.4380   39.0070 C.2       1 LEU         0.2039
     22 O         -37.7600   58.5470   39.4970 O.2       1 LEU        -0.3944
     23 CB        -39.2220   55.6780   40.2970 C.3       1 LEU        -0.0101
     24 CG        -39.1360   54.6050   41.3890 C.3       1 LEU        -0.0425
     25 CD1       -40.4640   54.4000   42.1230 C.3       1 LEU        -0.0625
     26 CD2       -38.7310   53.2330   40.8460 C.3       1 LEU        -0.0625
     27 N         -38.2000   57.2560   37.6960 N.am      1 GLN        -0.2636
     28 CA        -38.1090   58.3830   36.7670 C.3       1 GLN         0.1330
     29 C         -39.4280   59.1560   36.6320 C.2       1 GLN         0.2040
     30 O         -40.3790   58.7040   36.0100 O.2       1 GLN        -0.3944
     31 CB        -37.6800   57.8350   35.4030 C.3       1 GLN         0.0045
     32 CG        -37.7350   58.8980   34.3050 C.3       1 GLN         0.0412
     33 CD        -36.4890   59.7520   34.3680 C.2       1 GLN         0.1737
     34 OE1       -35.3990   59.3640   33.9850 O.2       1 GLN        -0.3973
     35 NE2       -36.6980   60.9780   34.8870 N.am      1 GLN        -0.3009
     36 N         -39.3670   60.4030   37.0610 N.am      1 LYS        -0.2637
     37 CA        -40.4790   61.2960   36.7960 C.3       1 LYS         0.1310
     38 C         -40.6380   61.6090   35.3010 C.2       1 LYS         0.2039
     39 O         -39.7490   61.3240   34.4940 O.2       1 LYS        -0.3944
     40 CB        -40.3550   62.5240   37.6990 C.3       1 LYS        -0.0122
     41 CG        -40.7930   62.1920   39.1440 C.3       1 LYS        -0.0440
     42 CD        -42.1770   61.4820   39.1820 C.3       1 LYS        -0.0124
     43 CE        -43.1320   62.0440   40.2400 C.3       1 LYS        -0.0354
     44 NZ        -43.8380   63.2730   39.7820 N.4       1 LYS         0.2185
     45 N         -41.8080   62.1030   34.9020 N.am      1 LYS        -0.2637
     46 CA        -41.9720   62.6210   33.5470 C.3       1 LYS         0.1310
     47 C         -41.9150   64.1440   33.4990 C.2       1 LYS         0.2039
     48 O         -41.9750   64.8250   34.5220 O.2       1 LYS        -0.3944
     49 CB        -43.2590   62.1170   32.9220 C.3       1 LYS        -0.0122
     50 CG        -43.5880   60.7010   33.2990 C.3       1 LYS        -0.0440
     51 CD        -43.9890   59.8650   32.0860 C.3       1 LYS        -0.0124
     52 CE        -45.4950   59.8830   31.8750 C.3       1 LYS        -0.0354
     53 NZ        -46.0190   58.5170   31.6140 N.4       1 LYS         0.2185
     54 N         -41.7400   64.7040   32.3120 N.am      1 ILE        -0.2635
     55 CA        -41.5890   66.1460   32.2800 C.3       1 ILE         0.1335
     56 C         -42.9620   66.7920   32.4900 C.2       1 ILE         0.2042
     57 O         -43.0750   67.8690   33.0590 O.2       1 ILE        -0.3944
     58 CB        -40.8750   66.6060   31.0000 C.3       1 ILE        -0.0037
     59 CG1       -40.4500   68.0500   31.1590 C.3       1 ILE        -0.0491
     60 CG2       -41.7240   66.4270   29.7670 C.3       1 ILE        -0.0582
     61 CD1       -38.9530   68.0980   31.3920 C.3       1 ILE        -0.0648
     62 N         -44.0020   66.0660   32.1030 N.am      1 THR        -0.2613
     63 CA        -45.3840   66.4480   32.3650 C.3       1 THR         0.1565
     64 C         -45.7530   66.5900   33.8330 C.2       1 THR         0.2066
     65 O         -46.6480   67.3740   34.1310 O.2       1 THR        -0.3943
     66 CB        -46.3630   65.4470   31.7390 C.3       1 THR         0.0924
     67 OG1       -46.1710   64.1500   32.3130 O.3       1 THR        -0.3874
     68 CG2       -46.0790   65.2040   30.2560 C.3       1 THR        -0.0346
     69 N         -45.1330   65.8690   34.7650 N.am      1 ASP        -0.2621
     70 CA        -45.4310   66.1150   36.1920 C.3       1 ASP         0.1423
     71 C         -44.9670   67.4830   36.6910 C.2       1 ASP         0.2057
     72 O         -45.0660   67.7400   37.8760 O.2       1 ASP        -0.3943
     73 CB        -44.8980   65.0210   37.1350 C.3       1 ASP         0.0406
     74 CG        -44.9840   63.6190   36.5370 C.2       1 ASP         0.0393
     75 OD1       -46.0520   63.2550   36.0130 O.co2     1 ASP        -0.5688
     76 OD2       -44.0540   62.7780   36.5570 O.co2     1 ASP        -0.5688
     77 N         -44.4260   68.3350   35.8240 N.am      1 TYR        -0.2620
     78 CA        -43.7670   69.5760   36.2530 C.3       1 TYR         0.1390
     79 C         -44.1860   70.7140   35.3320 C.2       1 TYR         0.2059
     80 O         -44.1940   71.8650   35.7710 O.2       1 TYR        -0.3942
     81 CB        -42.2230   69.5070   36.2120 C.3       1 TYR         0.0163
     82 CG        -41.5430   68.4540   37.0790 C.ar      1 TYR        -0.0493
     83 CD1       -41.4290   67.1180   36.6640 C.ar      1 TYR        -0.0685
     84 CD2       -40.9230   68.8160   38.2730 C.ar      1 TYR        -0.0685
     85 CE1       -40.7880   66.1500   37.4800 C.ar      1 TYR        -0.0398
     86 CE2       -40.2960   67.8690   39.0870 C.ar      1 TYR        -0.0398
     87 CZ        -40.2430   66.5470   38.6890 C.ar      1 TYR         0.0805
     88 OH        -39.6430   65.6520   39.5280 O.3       1 TYR        -0.3376
     89 N         -44.4500   70.4090   34.0590 N.am      1 PHE        -0.2618
     90 CA        -44.8000   71.4250   33.0610 C.3       1 PHE         0.1404
     91 C         -46.1440   71.0690   32.4680 C.2       1 PHE         0.2061
     92 O         -46.3880   69.9140   32.0920 O.2       1 PHE        -0.3942
     93 CB        -43.8020   71.5260   31.8880 C.3       1 PHE         0.0214
     94 CG        -42.4120   71.9480   32.2950 C.ar      1 PHE        -0.0386
     95 CD1       -41.3000   71.5000   31.6030 C.ar      1 PHE        -0.0601
     96 CD2       -42.2150   72.7600   33.3880 C.ar      1 PHE        -0.0601
     97 CE1       -40.0350   71.8820   31.9840 C.ar      1 PHE        -0.0686
     98 CE2       -40.9380   73.1230   33.7870 C.ar      1 PHE        -0.0686
     99 CZ        -39.8550   72.6840   33.0910 C.ar      1 PHE        -0.0687
    100 N         -47.0490   71.9180   32.4490 N.am      1 HIS        -0.2617
    101 CA        -48.4390   71.6880   32.0730 C.3       1 HIS         0.1423
    102 C         -48.8430   72.5400   30.8700 C.2       1 HIS         0.2085
    103 O         -48.2500   73.5700   30.5690 O.2       1 HIS        -0.3940
    104 CB        -49.3180   72.0330   33.2770 C.3       1 HIS         0.0427
    105 CG        -49.0360   71.0650   34.3960 C.2       1 HIS         0.0561
    106 ND1       -48.6270   69.7890   34.1930 N.pl3     1 HIS        -0.2623
    107 CD2       -49.1230   71.2850   35.7760 C.2       1 HIS        -0.0276
    108 CE1       -48.4710   69.2560   35.4200 C.2       1 HIS         0.0875
    109 NE2       -48.7610   70.1280   36.3870 N.2       1 HIS        -0.3437
    110 N         -49.8590   72.0480   30.1370 N.am      1 PRO        -0.2497
    111 CA        -50.3950   72.7570   28.9910 C.3       1 PRO         0.1338
    112 C         -50.4200   74.2740   29.2190 C.2       1 PRO         0.2041
    113 O         -50.5220   74.7710   30.3350 O.2       1 PRO        -0.3944
    114 CB        -51.7950   72.2100   28.7510 C.3       1 PRO        -0.0104
    115 CG        -51.7980   70.7720   29.2690 C.3       1 PRO        -0.0281
    116 CD        -50.5860   70.7980   30.3200 C.3       1 PRO         0.0369
    117 N         -50.2670   75.0100   28.1010 N.am      1 LYS        -0.2637
    118 CA        -50.1360   76.4600   28.1890 C.3       1 LYS         0.1309
    119 C         -51.4190   77.1290   28.6860 C.2       1 LYS         0.2033
    120 O         -52.4830   77.0460   28.0840 O.2       1 LYS        -0.3944
    121 CB        -49.7590   76.9950   26.8060 C.3       1 LYS        -0.0122
    122 CG        -48.4550   77.7990   26.8260 C.3       1 LYS        -0.0440
    123 CD        -48.6300   79.1770   27.4710 C.3       1 LYS        -0.0124
    124 CE        -48.7130   80.3100   26.4380 C.3       1 LYS        -0.0354
    125 NZ        -47.5090   81.1360   26.5120 N.4       1 LYS         0.2185
    126 N         -51.2890   77.7830   29.8570 N.am      1 LYS        -0.2695
    127 CA        -52.4290   78.4790   30.4410 C.3       1 LYS         0.0944
    128 C         -53.4990   78.7890   29.3930 C.2       1 LYS         0.0601
    129 O         -54.6020   78.2580   29.4180 O.co2     1 LYS        -0.5666
    130 CB        -51.9250   79.7800   31.0660 C.3       1 LYS        -0.0177
    131 CG        -51.3200   79.5590   32.4520 C.3       1 LYS        -0.0446
    132 CD        -50.2730   78.4440   32.4550 C.3       1 LYS        -0.0125
    133 CE        -48.8850   78.9390   32.0300 C.3       1 LYS        -0.0354
    134 NZ        -49.0250   80.0030   31.0380 N.4       1 LYS         0.2185
    135 OXT       -53.3010   79.5830   28.4810 O.co2     1 LYS        -0.5666
    136 H1        -30.5006   49.2447   41.1812 H         1 SER         0.2016
    137 H2        -30.6524   49.4637   42.8055 H         1 SER         0.2016
    138 H3        -29.4601   50.2405   41.9781 H         1 SER         0.2016
    139 H4        -31.0393   51.5161   40.7457 H         1 SER         0.1122
    140 H5        -33.0784   50.5405   40.5605 H         1 SER         0.0640
    141 H6        -33.4004   51.0931   42.2390 H         1 SER         0.0640
    142 H7        -33.6351   48.7925   41.9903 H         1 SER         0.2099
    143 H8        -33.0871   52.7647   42.3583 H         1 ALA         0.1884
    144 H9        -32.3426   53.3211   45.0075 H         1 ALA         0.0797
    145 H10       -31.0202   55.4246   44.7701 H         1 ALA         0.0277
    146 H11       -30.9711   55.1784   42.9915 H         1 ALA         0.0277
    147 H12       -30.1595   54.0054   44.0834 H         1 ALA         0.0277
    148 H13       -33.8238   54.3135   42.0094 H         1 VAL         0.1883
    149 H14       -35.9462   55.6324   43.5333 H         1 VAL         0.0802
    150 H15       -35.6136   57.8065   42.1380 H         1 VAL         0.0343
    151 H16       -34.0324   58.7233   43.8214 H         1 VAL         0.0234
    152 H17       -33.5898   57.0536   44.3141 H         1 VAL         0.0234
    153 H18       -35.2586   57.6587   44.5891 H         1 VAL         0.0234
    154 H19       -33.9094   56.8651   40.6031 H         1 VAL         0.0234
    155 H20       -32.8013   56.6120   41.9940 H         1 VAL         0.0234
    156 H21       -33.2707   58.2773   41.5111 H         1 VAL         0.0234
    157 H22       -37.0762   57.1996   41.5405 H         1 LEU         0.1883
    158 H23       -37.3854   55.3686   39.2097 H         1 LEU         0.0800
    159 H24       -39.7593   55.2609   39.4325 H         1 LEU         0.0315
    160 H25       -39.7773   56.5414   40.6922 H         1 LEU         0.0315
    161 H26       -38.3783   54.9342   42.1152 H         1 LEU         0.0298
    162 H27       -40.3420   53.6222   42.8912 H         1 LEU         0.0232
    163 H28       -41.2358   54.0875   41.4042 H         1 LEU         0.0232
    164 H29       -40.7682   55.3429   42.6009 H         1 LEU         0.0232
    165 H30       -37.7770   53.3197   40.3053 H         1 LEU         0.0232
    166 H31       -39.5089   52.8657   40.1605 H         1 LEU         0.0232
    167 H32       -38.6158   52.5272   41.6818 H         1 LEU         0.0232
    168 H33       -38.4545   56.3498   37.3584 H         1 GLN         0.1883
    169 H34       -37.3403   59.0787   37.1345 H         1 GLN         0.0801
    170 H35       -38.3506   57.0076   35.1277 H         1 GLN         0.0337
    171 H36       -36.6486   57.4606   35.4810 H         1 GLN         0.0337
    172 H37       -38.6218   59.5319   34.4523 H         1 GLN         0.0504
    173 H38       -37.7940   58.4074   33.3222 H         1 GLN         0.0504
    174 H39       -35.9370   61.6211   34.9725 H         1 GLN         0.1814
    175 H40       -37.6141   61.2446   35.1866 H         1 GLN         0.1814
    176 H41       -38.5648   60.7277   37.5620 H         1 LYS         0.1883
    177 H42       -41.3977   60.7715   37.0973 H         1 LYS         0.0800
    178 H43       -40.9944   63.3274   37.3044 H         1 LYS         0.0312
    179 H44       -39.3076   62.8601   37.7083 H         1 LYS         0.0312
    180 H45       -40.8571   63.1270   39.7199 H         1 LYS         0.0269
    181 H46       -40.0416   61.5309   39.6004 H         1 LYS         0.0269
    182 H47       -42.0137   60.4151   39.3942 H         1 LYS         0.0317
    183 H48       -42.6500   61.5914   38.1950 H         1 LYS         0.0317
    184 H49       -42.5531   62.2867   41.1433 H         1 LYS         0.0813
    185 H50       -43.8821   61.2762   40.4804 H         1 LYS         0.0813
    186 H51       -44.4510   63.6002   40.5122 H         1 LYS         0.1994
    187 H52       -44.3793   63.0623   38.9582 H         1 LYS         0.1994
    188 H53       -43.1615   63.9883   39.5657 H         1 LYS         0.1994
    189 H54       -42.5812   62.1194   35.5359 H         1 LYS         0.1883
    190 H55       -41.1345   62.2390   32.9449 H         1 LYS         0.0800
    191 H56       -43.1611   62.1731   31.8278 H         1 LYS         0.0312
    192 H57       -44.0841   62.7663   33.2501 H         1 LYS         0.0312
    193 H58       -44.4220   60.7090   34.0162 H         1 LYS         0.0269
    194 H59       -42.7046   60.2441   33.7689 H         1 LYS         0.0269
    195 H60       -43.6617   58.8266   32.2426 H         1 LYS         0.0317
    196 H61       -43.4971   60.2735   31.1910 H         1 LYS         0.0317
    197 H62       -45.7288   60.5271   31.0145 H         1 LYS         0.0813
    198 H63       -45.9786   60.2862   32.7770 H         1 LYS         0.0813
    199 H64       -47.0169   58.5602   31.4785 H         1 LYS         0.1994
    200 H65       -45.8123   57.9218   32.4008 H         1 LYS         0.1994
    201 H66       -45.5833   58.1426   30.7857 H         1 LYS         0.1994
    202 H67       -41.7132   64.1572   31.4752 H         1 ILE         0.1883
    203 H68       -40.9520   66.4400   33.1272 H         1 ILE         0.0803
    204 H69       -39.9715   65.9912   30.8751 H         1 ILE         0.0345
    205 H70       -40.9720   68.4961   32.0184 H         1 ILE         0.0267
    206 H71       -40.6999   68.6112   30.2465 H         1 ILE         0.0267
    207 H72       -42.0188   65.3713   29.6750 H         1 ILE         0.0235
    208 H73       -41.1481   66.7256   28.8787 H         1 ILE         0.0235
    209 H74       -42.6246   67.0534   29.8478 H         1 ILE         0.0235
    210 H75       -38.6335   69.1441   31.5090 H         1 ILE         0.0230
    211 H76       -38.4335   67.6500   30.5321 H         1 ILE         0.0230
    212 H77       -38.7056   67.5349   32.3040 H         1 ILE         0.0230
    213 H78       -43.8297   65.2148   31.6072 H         1 THR         0.1884
    214 H79       -45.5387   67.4275   31.8889 H         1 THR         0.0826
    215 H80       -47.3936   65.8019   31.8871 H         1 THR         0.0639
    216 H81       -46.7811   63.5373   31.9195 H         1 THR         0.2101
    217 H82       -46.8062   64.4816   29.8570 H         1 THR         0.0257
    218 H83       -45.0615   64.8029   30.1384 H         1 THR         0.0257
    219 H84       -46.1651   66.1527   29.7059 H         1 THR         0.0257
    220 H85       -44.4713   65.1669   34.5019 H         1 ASP         0.1884
    221 H86       -46.5276   66.1011   36.2777 H         1 ASP         0.0819
    222 H87       -45.4873   65.0420   38.0636 H         1 ASP         0.0478
    223 H88       -43.8446   65.2395   37.3642 H         1 ASP         0.0478
    224 H89       -44.4694   68.1235   34.8476 H         1 TYR         0.1885
    225 H90       -44.0840   69.7975   37.2828 H         1 TYR         0.0821
    226 H91       -41.8407   70.4894   36.5260 H         1 TYR         0.0453
    227 H92       -41.9292   69.3153   35.1695 H         1 TYR         0.0453
    228 H93       -41.8372   66.8209   35.7047 H         1 TYR         0.0530
    229 H94       -40.9271   69.8563   38.5776 H         1 TYR         0.0530
    230 H95       -40.7261   65.1157   37.1615 H         1 TYR         0.0525
    231 H96       -39.8521   68.1709   40.0287 H         1 TYR         0.0525
    232 H97       -39.6734   64.7857   39.1393 H         1 TYR         0.2458
    233 H98       -44.4074   69.4510   33.7753 H         1 PHE         0.1885
    234 H99       -44.8578   72.4023   33.5625 H         1 PHE         0.0823
    235 H100      -44.1891   72.2618   31.1677 H         1 PHE         0.0474
    236 H101      -43.7358   70.5399   31.4051 H         1 PHE         0.0474
    237 H102      -41.4276   70.8411   30.7518 H         1 PHE         0.0557
    238 H103      -43.0714   73.1214   33.9457 H         1 PHE         0.0557
    239 H104      -39.1759   71.5512   31.4116 H         1 PHE         0.0599
    240 H105      -40.8023   73.7578   34.6552 H         1 PHE         0.0599
    241 H106      -38.8557   72.9632   33.4050 H         1 PHE         0.0559
    242 H107      -46.8013   72.8490   32.7172 H         1 HIS         0.1885
    243 H108      -48.5717   70.6270   31.8150 H         1 HIS         0.0824
    244 H109      -50.3776   71.9634   32.9898 H         1 HIS         0.0491
    245 H110      -49.0955   73.0567   33.6125 H         1 HIS         0.0491
    246 H111      -48.4684   69.3234   33.2880 H         1 HIS         0.2386
    247 H112      -49.4241   72.2095   36.2665 H         1 HIS         0.0324
    248 H113      -48.1460   68.2326   35.6015 H         1 HIS         0.1149
    249 H114      -49.7678   72.5499   28.1114 H         1 PRO         0.0802
    250 H115      -52.0297   72.2266   27.6765 H         1 PRO         0.0313
    251 H116      -52.5362   72.8116   29.2976 H         1 PRO         0.0313
    252 H117      -51.6089   70.0538   28.4576 H         1 PRO         0.0287
    253 H118      -52.7501   70.5260   29.7619 H         1 PRO         0.0287
    254 H119      -50.9798   70.7417   31.3455 H         1 PRO         0.0524
    255 H120      -49.9151   69.9456   30.1375 H         1 PRO         0.0524
    256 H121      -50.2432   74.5607   27.2079 H         1 LYS         0.1883
    257 H122      -49.3281   76.6970   28.8969 H         1 LYS         0.0800
    258 H123      -50.5696   77.6457   26.4460 H         1 LYS         0.0312
    259 H124      -49.6389   76.1444   26.1189 H         1 LYS         0.0312
    260 H125      -48.1075   77.9347   25.7912 H         1 LYS         0.0269
    261 H126      -47.7010   77.2355   27.3952 H         1 LYS         0.0269
    262 H127      -47.7723   79.3669   28.1330 H         1 LYS         0.0317
    263 H128      -49.5567   79.1728   28.0635 H         1 LYS         0.0317
    264 H129      -49.5959   80.9317   26.6478 H         1 LYS         0.0813
    265 H130      -48.7990   79.8793   25.4295 H         1 LYS         0.0813
    266 H131      -47.5683   81.8780   25.8323 H         1 LYS         0.1994
    267 H132      -46.6992   80.5676   26.3191 H         1 LYS         0.1994
    268 H133      -47.4294   81.5320   27.4355 H         1 LYS         0.1994
    269 H134      -50.4066   77.7909   30.3275 H         1 LYS         0.1875
    270 H135      -52.8736   77.8459   31.2230 H         1 LYS         0.0726
    271 H136      -52.7688   80.4800   31.1555 H         1 LYS         0.0305
    272 H137      -51.1566   80.2139   30.4093 H         1 LYS         0.0305
    273 H138      -52.1255   79.2902   33.1513 H         1 LYS         0.0269
    274 H139      -50.8433   80.4933   32.7834 H         1 LYS         0.0269
    275 H140      -50.5949   77.6562   31.7581 H         1 LYS         0.0317
    276 H141      -50.2032   78.0286   33.4711 H         1 LYS         0.0317
    277 H142      -48.3168   78.1044   31.5935 H         1 LYS         0.0813
    278 H143      -48.3498   79.3268   32.9093 H         1 LYS         0.0813
    279 H144      -48.1114   80.3262   30.7607 H         1 LYS         0.1994
    280 H145      -49.5452   80.7685   31.4374 H         1 LYS         0.1994
    281 H146      -49.5149   79.6483   30.2316 H         1 LYS         0.1994
@<TRIPOS>BOND
     1    1    2 1  
     2    2    3 1  
     3    2    5 1  
     4    3    4 2  
     5    3    7 am 
     6    5    6 1  
     7    7    8 1  
     8    8    9 1  
     9    8   11 1  
    10    9   10 2  
    11    9   12 am 
    12   12   13 1  
    13   13   14 1  
    14   13   16 1  
    15   14   15 2  
    16   14   19 am 
    17   16   17 1  
    18   16   18 1  
    19   19   20 1  
    20   20   21 1  
    21   20   23 1  
    22   21   22 2  
    23   21   27 am 
    24   23   24 1  
    25   24   25 1  
    26   24   26 1  
    27   27   28 1  
    28   28   29 1  
    29   28   31 1  
    30   29   30 2  
    31   29   36 am 
    32   31   32 1  
    33   32   33 1  
    34   33   34 2  
    35   33   35 am 
    36   36   37 1  
    37   37   38 1  
    38   37   40 1  
    39   38   39 2  
    40   38   45 am 
    41   40   41 1  
    42   41   42 1  
    43   42   43 1  
    44   43   44 1  
    45   45   46 1  
    46   46   47 1  
    47   46   49 1  
    48   47   48 2  
    49   47   54 am 
    50   49   50 1  
    51   50   51 1  
    52   51   52 1  
    53   52   53 1  
    54   54   55 1  
    55   55   56 1  
    56   55   58 1  
    57   56   57 2  
    58   56   62 am 
    59   58   59 1  
    60   58   60 1  
    61   59   61 1  
    62   62   63 1  
    63   63   64 1  
    64   63   66 1  
    65   64   65 2  
    66   64   69 am 
    67   66   67 1  
    68   66   68 1  
    69   69   70 1  
    70   70   71 1  
    71   70   73 1  
    72   71   72 2  
    73   71   77 am 
    74   73   74 1  
    75   74   75 ar 
    76   74   76 ar 
    77   77   78 1  
    78   78   79 1  
    79   78   81 1  
    80   79   80 2  
    81   79   89 am 
    82   81   82 1  
    83   82   83 ar 
    84   82   84 ar 
    85   83   85 ar 
    86   84   86 ar 
    87   85   87 ar 
    88   86   87 ar 
    89   87   88 1  
    90   89   90 1  
    91   90   91 1  
    92   90   93 1  
    93   91   92 2  
    94   91  100 am 
    95   93   94 1  
    96   94   95 ar 
    97   94   96 ar 
    98   95   97 ar 
    99   96   98 ar 
   100   97   99 ar 
   101   98   99 ar 
   102  100  101 1  
   103  101  102 1  
   104  101  104 1  
   105  102  103 2  
   106  102  110 am 
   107  104  105 1  
   108  105  106 1  
   109  105  107 2  
   110  106  108 1  
   111  107  109 1  
   112  108  109 2  
   113  110  111 1  
   114  110  116 1  
   115  111  112 1  
   116  111  114 1  
   117  112  113 2  
   118  112  117 am 
   119  114  115 1  
   120  115  116 1  
   121  117  118 1  
   122  118  119 1  
   123  118  121 1  
   124  119  120 2  
   125  119  126 am 
   126  121  122 1  
   127  122  123 1  
   128  123  124 1  
   129  124  125 1  
   130  126  127 1  
   131  127  128 1  
   132  127  130 1  
   133  128  129 ar 
   134  128  135 ar 
   135  130  131 1  
   136  131  132 1  
   137  132  133 1  
   138  133  134 1  
   139    1  136 1  
   140    1  137 1  
   141    1  138 1  
   142    2  139 1  
   143    5  140 1  
   144    5  141 1  
   145    6  142 1  
   146    7  143 1  
   147    8  144 1  
   148   11  145 1  
   149   11  146 1  
   150   11  147 1  
   151   12  148 1  
   152   13  149 1  
   153   16  150 1  
   154   17  151 1  
   155   17  152 1  
   156   17  153 1  
   157   18  154 1  
   158   18  155 1  
   159   18  156 1  
   160   19  157 1  
   161   20  158 1  
   162   23  159 1  
   163   23  160 1  
   164   24  161 1  
   165   25  162 1  
   166   25  163 1  
   167   25  164 1  
   168   26  165 1  
   169   26  166 1  
   170   26  167 1  
   171   27  168 1  
   172   28  169 1  
   173   31  170 1  
   174   31  171 1  
   175   32  172 1  
   176   32  173 1  
   177   35  174 1  
   178   35  175 1  
   179   36  176 1  
   180   37  177 1  
   181   40  178 1  
   182   40  179 1  
   183   41  180 1  
   184   41  181 1  
   185   42  182 1  
   186   42  183 1  
   187   43  184 1  
   188   43  185 1  
   189   44  186 1  
   190   44  187 1  
   191   44  188 1  
   192   45  189 1  
   193   46  190 1  
   194   49  191 1  
   195   49  192 1  
   196   50  193 1  
   197   50  194 1  
   198   51  195 1  
   199   51  196 1  
   200   52  197 1  
   201   52  198 1  
   202   53  199 1  
   203   53  200 1  
   204   53  201 1  
   205   54  202 1  
   206   55  203 1  
   207   58  204 1  
   208   59  205 1  
   209   59  206 1  
   210   60  207 1  
   211   60  208 1  
   212   60  209 1  
   213   61  210 1  
   214   61  211 1  
   215   61  212 1  
   216   62  213 1  
   217   63  214 1  
   218   66  215 1  
   219   67  216 1  
   220   68  217 1  
   221   68  218 1  
   222   68  219 1  
   223   69  220 1  
   224   70  221 1  
   225   73  222 1  
   226   73  223 1  
   227   77  224 1  
   228   78  225 1  
   229   81  226 1  
   230   81  227 1  
   231   83  228 1  
   232   84  229 1  
   233   85  230 1  
   234   86  231 1  
   235   88  232 1  
   236   89  233 1  
   237   90  234 1  
   238   93  235 1  
   239   93  236 1  
   240   95  237 1  
   241   96  238 1  
   242   97  239 1  
   243   98  240 1  
   244   99  241 1  
   245  100  242 1  
   246  101  243 1  
   247  104  244 1  
   248  104  245 1  
   249  106  246 1  
   250  107  247 1  
   251  108  248 1  
   252  111  249 1  
   253  114  250 1  
   254  114  251 1  
   255  115  252 1  
   256  115  253 1  
   257  116  254 1  
   258  116  255 1  
   259  117  256 1  
   260  118  257 1  
   261  121  258 1  
   262  121  259 1  
   263  122  260 1  
   264  122  261 1  
   265  123  262 1  
   266  123  263 1  
   267  124  264 1  
   268  124  265 1  
   269  125  266 1  
   270  125  267 1  
   271  125  268 1  
   272  126  269 1  
   273  127  270 1  
   274  130  271 1  
   275  130  272 1  
   276  131  273 1  
   277  131  274 1  
   278  132  275 1  
   279  132  276 1  
   280  133  277 1  
   281  133  278 1  
   282  134  279 1  
   283  134  280 1  
   284  134  281 1  
@<TRIPOS>SUBSTRUCTURE
     1 SER         1

