6d4t_ligand
  -I-interpret- 

 54 58  0  0  0  0  0  0  0  0999 V2000
   45.7480  165.7080   -1.3320 C   0  0  0  0  0
   39.7080  159.4120   -6.3580 C   0  0  0  0  0
   41.1070  157.7130   -5.3570 C   0  0  0  0  0
   38.9360  157.9410   -4.5610 C   0  0  0  0  0
   42.9130  164.8780   -8.7830 C   0  0  0  0  0
   42.3930  164.5230   -7.3850 C   0  0  0  0  0
   41.2900  163.4910   -7.4720 C   0  0  0  0  0
   41.7490  162.1380   -7.6690 N   0  0  0  0  0
   43.0520  161.7240   -7.1610 C   0  0  0  0  0
   44.0570  162.8700   -7.0840 C   0  0  0  0  0
   43.4260  163.9830   -6.5620 N   0  0  0  0  0
   43.7260  164.4960   -5.2540 C   0  0  0  0  0
   43.1640  165.4160   -4.8320 O   0  0  0  0  0
   44.8060  163.8290   -4.5110 N   0  0  0  0  0
   45.1900  164.2090   -3.1560 C   0  0  0  0  0
   45.4040  165.5050   -2.7220 C   0  0  0  0  0
   45.8470  164.6700   -0.4830 C   0  0  0  0  0
   46.1900  165.1350    0.8160 O   0  0  0  0  0
   46.0950  166.5740    0.7620 C   0  0  0  0  0
   46.0360  166.9030   -0.6220 O   0  0  0  0  0
   45.6080  163.3270   -0.9430 C   0  0  0  0  0
   45.2800  163.1320   -2.2640 C   0  0  0  0  0
   40.7600  161.0490   -8.4560 S   0  0  0  0  0
   41.5770  159.9350   -9.0400 O   0  0  0  0  0
   40.1150  161.6960   -9.5410 O   0  0  0  0  0
   39.4700  160.4820   -7.2900 C   0  0  0  0  0
   40.9310  158.7530   -6.2760 C   0  0  0  0  0
   40.0960  157.3400   -4.5260 N   0  0  0  0  0
   38.7140  159.0290   -5.5250 C   0  0  0  0  0
   37.4150  159.7060   -5.5500 C   0  0  0  0  0
   37.1940  160.7380   -6.4540 C   0  0  0  0  0
   38.2110  161.1350   -7.3310 C   0  0  0  0  0
   42.0650  157.1955   -5.3060 H   0  0  0  0  0
   38.1396  157.6382   -3.8812 H   0  0  0  0  0
   43.7076  165.6191   -8.6963 H   0  0  0  0  0
   43.3025  163.9803   -9.2632 H   0  0  0  0  0
   42.0973  165.2861   -9.3799 H   0  0  0  0  0
   42.0200  165.4487   -6.9467 H   0  0  0  0  0
   40.6797  163.7494   -8.3374 H   0  0  0  0  0
   40.7588  163.5117   -6.5204 H   0  0  0  0  0
   43.4528  160.9778   -7.8470 H   0  0  0  0  0
   42.9072  161.3423   -6.1503 H   0  0  0  0  0
   44.4371  163.0949   -8.0805 H   0  0  0  0  0
   44.8924  162.5856   -6.4442 H   0  0  0  0  0
   45.3093  163.0661   -4.9638 H   0  0  0  0  0
   45.3160  166.3481   -3.4073 H   0  0  0  0  0
   46.9480  167.0478    1.2478 H   0  0  0  0  0
   45.2154  166.9352    1.2949 H   0  0  0  0  0
   45.6854  162.4823   -0.2584 H   0  0  0  0  0
   45.0865  162.1215   -2.6238 H   0  0  0  0  0
   41.7528  159.0475   -6.9286 H   0  0  0  0  0
   36.6256  159.4016   -4.8628 H   0  0  0  0  0
   36.2267  161.2397   -6.4805 H   0  0  0  0  0
   38.0361  161.9423   -8.0422 H   0  0  0  0  0
 16  1  4  0  0  0
  1 17  4  0  0  0
  1 20  1  0  0  0
 26  2  4  0  0  0
  2 27  4  0  0  0
  2 29  4  0  0  0
 27  3  4  0  0  0
  3 28  4  0  0  0
  4 28  4  0  0  0
 29  4  4  0  0  0
  6  5  1  0  0  0
  7  6  1  0  0  0
  6 11  1  0  0  0
  8  7  1  0  0  0
  8  9  1  0  0  0
 23  8  1  0  0  0
  9 10  1  0  0  0
 10 11  1  0  0  0
 11 12  1  0  0  0
 12 13  2  0  0  0
 12 14  1  0  0  0
 14 15  1  0  0  0
 15 16  4  0  0  0
 15 22  4  0  0  0
 17 18  1  0  0  0
 21 17  4  0  0  0
 18 19  1  0  0  0
 20 19  1  0  0  0
 22 21  4  0  0  0
 23 24  2  0  0  0
 23 25  2  0  0  0
 23 26  1  0  0  0
 26 32  4  0  0  0
 29 30  4  0  0  0
 30 31  4  0  0  0
 31 32  4  0  0  0
  3 33  1  0  0  0
  4 34  1  0  0  0
  5 35  1  0  0  0
  5 36  1  0  0  0
  5 37  1  0  0  0
  6 38  1  0  0  0
  7 39  1  0  0  0
  7 40  1  0  0  0
  9 41  1  0  0  0
  9 42  1  0  0  0
 10 43  1  0  0  0
 10 44  1  0  0  0
 14 45  1  0  0  0
 16 46  1  0  0  0
 19 47  1  0  0  0
 19 48  1  0  0  0
 21 49  1  0  0  0
 22 50  1  0  0  0
 27 51  1  0  0  0
 30 52  1  0  0  0
 31 53  1  0  0  0
 32 54  1  0  0  0
M  END
$$$$
