6qz5_ligand
  -I-interpret- 

 53 57  0  0  0  0  0  0  0  0999 V2000
    4.6700    1.6370   -6.2580 C   0  0  0  0  0
    4.3610    2.1140   -7.5230 C   0  0  0  0  0
    3.8580    0.6230   -5.7460 C   0  0  0  0  0
    2.6110    0.6310   -7.6870 C   0  0  0  0  0
    6.2370    3.2970   -6.5970 C   0  0  0  0  0
    3.3460    1.6140   -8.2310 N   0  0  0  0  0
    2.2630    2.8900   -0.7230 C   0  0  0  0  0
    3.6220    2.5580   -0.8430 C   0  0  0  0  0
    3.9170    1.3350   -1.3710 C   0  0  0  0  0
    2.9370    0.4240   -1.7550 C   0  0  0  0  0
    3.3570   -0.9350   -2.3590 C   0  0  0  0  0
    5.7670    2.3420   -5.7220 C   0  0  0  0  0
    2.8740    0.1090   -6.4940 N   0  0  0  0  0
    7.7590    1.3360   -2.0670 C   0  0  0  0  0
    7.6220    0.4150   -3.0980 C   0  0  0  0  0
    6.9760    0.8010   -4.2740 C   0  0  0  0  0
    7.2140    2.6080   -2.2080 C   0  0  0  0  0
    6.4270    2.0790   -4.4250 C   0  0  0  0  0
    6.5880    2.9900   -3.3900 C   0  0  0  0  0
    3.1090   -0.8670   -3.8990 C   0  0  0  0  0
    6.5970    4.7020   -1.9760 C   0  0  0  0  0
    6.1830    4.3050   -3.2370 C   0  0  0  0  0
    1.2680    1.9730   -1.0540 C   0  0  0  0  0
    1.6100    0.7140   -1.5640 C   0  0  0  0  0
    3.4780   -2.2510   -4.5480 C   0  0  0  0  0
    4.5460   -2.4020   -5.1420 O   0  0  0  0  0
    2.6930   -3.1910   -4.4800 O   0  0  0  0  0
    4.0310    0.0860   -4.4670 N   0  0  0  0  0
    5.3350    3.4070   -8.0370 S   0  0  0  0  0
    7.4000    4.2220   -6.3680 C   0  0  0  0  0
    8.2080    4.2890   -7.6170 C   0  0  0  0  0
    7.2400    3.6710   -1.3760 N   0  0  0  0  0
    1.7609    0.2441   -8.2490 H   0  0  0  0  0
    1.9822    3.8806   -0.3653 H   0  0  0  0  0
    4.4062    3.2465   -0.5284 H   0  0  0  0  0
    4.9641    1.0597   -1.4975 H   0  0  0  0  0
    2.7746   -1.7430   -1.9163 H   0  0  0  0  0
    4.4088   -1.1330   -2.1526 H   0  0  0  0  0
    8.2895    1.0639   -1.1545 H   0  0  0  0  0
    8.0140   -0.5964   -2.9902 H   0  0  0  0  0
    6.8974    0.0887   -5.0953 H   0  0  0  0  0
    2.0675   -0.6017   -4.0804 H   0  0  0  0  0
    6.4320    5.6859   -1.5368 H   0  0  0  0  0
    5.6438    4.9097   -3.9662 H   0  0  0  0  0
    0.2193    2.2362   -0.9156 H   0  0  0  0  0
    0.8392   -0.0185   -1.8036 H   0  0  0  0  0
    5.0475   -1.5841   -5.1092 H   0  0  0  0  0
    4.8379    0.3784   -3.9158 H   0  0  0  0  0
    8.0144    3.8493   -5.5484 H   0  0  0  0  0
    7.0372    5.2162   -6.1073 H   0  0  0  0  0
    8.5702    3.2920   -7.8678 H   0  0  0  0  0
    7.5876    4.6666   -8.4298 H   0  0  0  0  0
    9.0555    4.9572   -7.4645 H   0  0  0  0  0
  1  2  4  0  0  0
  3  1  4  0  0  0
  1 12  4  0  0  0
  2  6  4  0  0  0
  2 29  4  0  0  0
  3 13  4  0  0  0
 28  3  1  0  0  0
  4  6  4  0  0  0
 13  4  4  0  0  0
 12  5  4  0  0  0
  5 29  4  0  0  0
  5 30  1  0  0  0
  8  7  4  0  0  0
  7 23  4  0  0  0
  9  8  4  0  0  0
 10  9  4  0  0  0
 11 10  1  0  0  0
 10 24  4  0  0  0
 20 11  1  0  0  0
 12 18  1  0  0  0
 15 14  4  0  0  0
 17 14  4  0  0  0
 16 15  4  0  0  0
 18 16  4  0  0  0
 19 17  4  0  0  0
 17 32  4  0  0  0
 18 19  4  0  0  0
 19 22  4  0  0  0
 20 25  1  0  0  0
 20 28  1  0  0  0
 22 21  4  0  0  0
 21 32  4  0  0  0
 23 24  4  0  0  0
 25 26  1  0  0  0
 25 27  2  0  0  0
 30 31  1  0  0  0
  4 33  1  0  0  0
  7 34  1  0  0  0
  8 35  1  0  0  0
  9 36  1  0  0  0
 11 37  1  0  0  0
 11 38  1  0  0  0
 14 39  1  0  0  0
 15 40  1  0  0  0
 16 41  1  0  0  0
 20 42  1  0  0  0
 21 43  1  0  0  0
 22 44  1  0  0  0
 23 45  1  0  0  0
 24 46  1  0  0  0
 26 47  1  0  0  0
 28 48  1  0  0  0
 30 49  1  0  0  0
 30 50  1  0  0  0
 31 51  1  0  0  0
 31 52  1  0  0  0
 31 53  1  0  0  0
M  END
$$$$
