### 
### Created by X-TOOL on Mon Aug  2 16:12:01 2021
### 

@<TRIPOS>MOLECULE
6hzx_ligand
  245   261     1     0     0
SMALL
GAST_HUCK


@<TRIPOS>ATOM
      1 O1         37.6670   39.9710    5.1170 O.2       1 MOL        -0.3886
      2 C2         37.9910   41.1510    5.1760 C.2       1 MOL         0.2913
      3 C4         35.6930   41.8590    4.8520 C.3       1 MOL         0.0320
      4 C5         34.9510   43.1860    4.6740 C.3       1 MOL        -0.0305
      5 C6         33.4670   42.9230    4.8420 C.3       1 MOL        -0.0233
      6 C7         32.7030   44.1980    4.5870 C.3       1 MOL         0.0703
      7 C8         32.1560   46.1730    5.6670 C.ar      1 MOL         0.0845
      8 C9         32.7440   47.2070    6.3710 C.ar      1 MOL        -0.0401
      9 N3         37.1110   42.1290    5.0220 N.am      1 MOL        -0.2671
     10 O7         32.6320   44.9220    5.8130 O.3       1 MOL        -0.3198
     11 C13        31.0850   46.4430    4.8170 C.ar      1 MOL        -0.0303
     12 C10        32.2460   48.5010    6.2260 C.ar      1 MOL        -0.0771
     13 C11        31.1670   48.7680    5.3730 C.ar      1 MOL        -0.0695
     14 C12        30.5680   47.7290    4.6630 C.ar      1 MOL        -0.0300
     15 C14        29.4910   47.9520    3.7890 C.3       1 MOL         0.0616
     16 N15        28.3260   48.5560    4.4530 N.am      1 MOL        -0.2750
     17 C16        27.7560   49.6950    3.9810 C.2       1 MOL         0.2068
     18 O17        28.2250   50.3200    3.0280 O.2       1 MOL        -0.3845
     19 C18        26.6290   50.2060    4.6630 C.ar      1 MOL         0.0501
     20 C19        25.8180   49.4120    5.4910 C.ar      1 MOL        -0.0401
     21 C20        24.7210   49.9410    6.1640 C.ar      1 MOL        -0.0295
     22 C21        24.4100   51.2880    6.0040 C.ar      1 MOL         0.1122
     23 S24        23.1070   51.9430    6.8070 S.o2      1 MOL         0.0677
     24 O27        22.6170   53.1080    5.9790 O.2       1 MOL        -0.1499
     25 O25        23.5230   52.3510    8.2100 O.2       1 MOL        -0.1499
     26 N26        21.9720   50.8250    7.0560 N.am      1 MOL        -0.2605
     27 C22        25.1850   52.1050    5.1780 C.ar      1 MOL        -0.0295
     28 C23        26.2840   51.5610    4.5140 C.ar      1 MOL        -0.0401
     29 O          43.5700   45.7090    6.1120 O.2       1 MOL        -0.3788
     30 C          42.5640   45.0030    6.2190 C.2       1 MOL         0.2212
     31 C10        42.6530   43.5980    6.0690 C.ar      1 MOL         0.1027
     32 N11        41.5510   42.8430    5.8730 N.ar      1 MOL        -0.2949
     33 C7         41.5750   41.4890    5.7380 C.ar      1 MOL         0.0712
     34 C2         40.3630   40.7920    5.5310 C.ar      1 MOL         0.0933
     35 N          39.2240   41.5690    5.4570 N.am      1 MOL        -0.2130
     36 C9         43.8900   42.9390    6.1440 C.ar      1 MOL         0.0084
     37 C8         43.9760   41.5450    6.0230 C.ar      1 MOL         0.1174
     38 C6         42.7890   40.8140    5.8190 C.ar      1 MOL         0.0312
     39 C5         42.7890   39.4250    5.7000 C.ar      1 MOL        -0.0642
     40 C4         41.6010   38.7250    5.5010 C.ar      1 MOL        -0.0772
     41 C3         40.3880   39.3920    5.4140 C.ar      1 MOL        -0.0395
     42 OB         45.2290   40.9430    6.1120 O.3       1 MOL        -0.3188
     43 O          35.5670   45.9700    7.9500 O.2       1 MOL        -0.3653
     44 C          36.7710   45.7110    7.8450 C.2       1 MOL         0.2529
     45 C10        37.6840   46.7320    7.5010 C.ar      1 MOL         0.1207
     46 N11        38.9810   46.4030    7.2500 N.ar      1 MOL        -0.2756
     47 C9         37.2580   48.0610    7.3330 C.ar      1 MOL        -0.0207
     48 C8         38.1970   49.0250    6.9580 C.ar      1 MOL        -0.0434
     49 C6         39.5250   48.6510    6.7430 C.ar      1 MOL        -0.0264
     50 C7         39.9080   47.3160    6.8960 C.ar      1 MOL         0.0553
     51 C2         41.2210   46.9770    6.6850 C.3       1 MOL         0.0805
     52 N          41.3730   45.5230    6.5050 N.am      1 MOL        -0.2705
     53 O          41.9300   40.9380    8.9020 O.2       1 MOL        -0.3653
     54 C          41.0180   41.7680    8.9620 C.2       1 MOL         0.2504
     55 C10        39.6730   41.4020    8.8160 C.ar      1 MOL         0.1097
     56 N11        38.8000   42.3820    8.5430 N.ar      1 MOL        -0.2944
     57 C7         37.4800   42.1970    8.4310 C.ar      1 MOL         0.0714
     58 C2         36.6410   43.2940    8.1820 C.ar      1 MOL         0.0930
     59 N          37.3040   44.4700    7.9670 N.am      1 MOL        -0.2247
     60 C9         39.2090   40.1080    8.9940 C.ar      1 MOL         0.0094
     61 C8         37.8410   39.8720    8.8780 C.ar      1 MOL         0.1232
     62 OB         37.2860   38.6370    9.0460 O.3       1 MOL        -0.2897
     63 CG         37.7310   37.6280    8.1170 C.3       1 MOL         0.1274
     64 CD         38.5970   36.6560    8.9330 C.2       1 MOL         0.0662
     65 OE2        39.8150   36.9370    9.0980 O.co2     1 MOL        -0.5662
     66 OE1        38.0390   35.6080    9.3460 O.co2     1 MOL        -0.5662
     67 C6         36.9620   40.9200    8.5970 C.ar      1 MOL         0.0319
     68 C5         35.5890   40.7280    8.4750 C.ar      1 MOL        -0.0639
     69 C4         34.7520   41.8100    8.1970 C.ar      1 MOL        -0.0768
     70 C3         35.2670   43.0840    8.0290 C.ar      1 MOL        -0.0390
     71 OB         44.2320   48.0980   10.4880 O.3       1 MOL        -0.3188
     72 C8         43.1570   47.2840   10.3070 C.ar      1 MOL         0.1175
     73 C9         41.8790   47.7870   10.4740 C.ar      1 MOL         0.0085
     74 C10        40.8160   46.9250   10.2790 C.ar      1 MOL         0.1028
     75 C          39.5200   47.3700   10.4660 C.2       1 MOL         0.2213
     76 O          39.1970   48.5460   10.2870 O.2       1 MOL        -0.3788
     77 N11        41.0210   45.6390    9.9500 N.ar      1 MOL        -0.2948
     78 C7         42.2500   45.1120    9.7760 C.ar      1 MOL         0.0715
     79 C6         43.3680   45.9360    9.9580 C.ar      1 MOL         0.0315
     80 C5         44.6430   45.3940    9.7890 C.ar      1 MOL        -0.0639
     81 C4         44.7950   44.0540    9.4430 C.ar      1 MOL        -0.0768
     82 C3         43.6920   43.2230    9.2670 C.ar      1 MOL        -0.0390
     83 C2         42.4020   43.7460    9.4390 C.ar      1 MOL         0.0930
     84 N          41.2130   43.0700    9.2580 N.am      1 MOL        -0.2248
     85 O          37.3290   40.9030   12.1130 O.2       1 MOL        -0.3650
     86 C          37.7760   42.0470   12.0210 C.2       1 MOL         0.2534
     87 C10        36.9220   43.1330   11.7920 C.ar      1 MOL         0.1208
     88 N11        37.4350   44.3660   11.5940 N.ar      1 MOL        -0.2756
     89 C9         35.5430   42.9610   11.7380 C.ar      1 MOL        -0.0207
     90 C8         34.7320   44.0650   11.4900 C.ar      1 MOL        -0.0434
     91 C6         35.2980   45.3220   11.3010 C.ar      1 MOL        -0.0264
     92 C7         36.6780   45.4520   11.3610 C.ar      1 MOL         0.0553
     93 C2         37.2490   46.6870   11.1550 C.3       1 MOL         0.0805
     94 N          38.6720   46.4310   10.8790 N.am      1 MOL        -0.2705
     95 OD1        45.8090   40.4970   11.4590 O.co2     1 MOL        -0.5658
     96 CG         45.7850   41.4850   12.2280 C.2       1 MOL         0.0493
     97 OD2        46.4530   42.5380   12.1470 O.co2     1 MOL        -0.5658
     98 CB         44.9300   41.3850   13.4160 C.3       1 MOL         0.0422
     99 C8         43.6950   42.0050   13.1260 C.ar      1 MOL        -0.0040
    100 C9         43.6450   43.3900   13.3120 C.ar      1 MOL        -0.0164
    101 C10        42.4680   44.1000   13.1250 C.ar      1 MOL         0.1077
    102 C          42.3900   45.4830   13.3630 C.2       1 MOL         0.2228
    103 O          43.3960   46.1850   13.3690 O.2       1 MOL        -0.3788
    104 N11        41.3750   43.4110   12.7810 N.ar      1 MOL        -0.2865
    105 C7         41.3540   42.0740   12.5770 C.ar      1 MOL         0.0749
    106 C6         42.5190   41.3270   12.7520 C.ar      1 MOL         0.0034
    107 C5         42.4410   39.9470   12.5490 C.ar      1 MOL        -0.0655
    108 C4         41.2400   39.3360   12.1790 C.ar      1 MOL        -0.0761
    109 C3         40.0820   40.0770   12.0010 C.ar      1 MOL        -0.0379
    110 C2         40.1310   41.4590   12.2200 C.ar      1 MOL         0.0952
    111 N          39.0890   42.3380   12.0530 N.am      1 MOL        -0.2239
    112 O          35.5690   45.4020   14.5040 O.2       1 MOL        -0.3653
    113 C          36.7560   45.4180   14.8350 C.2       1 MOL         0.2529
    114 C10        37.4750   46.6150   14.7590 C.ar      1 MOL         0.1207
    115 N11        38.7860   46.5180   14.4420 N.ar      1 MOL        -0.2756
    116 C9         36.8660   47.8570   14.9100 C.ar      1 MOL        -0.0207
    117 C8         37.6660   48.9820   14.7730 C.ar      1 MOL        -0.0434
    118 C6         39.0250   48.8360   14.4640 C.ar      1 MOL        -0.0264
    119 C7         39.5910   47.5750   14.2900 C.ar      1 MOL         0.0553
    120 C2         40.9330   47.4170   13.9760 C.3       1 MOL         0.0805
    121 N          41.1820   45.9800   13.6570 N.am      1 MOL        -0.2704
    122 O          42.5470   41.4130   15.9040 O.2       1 MOL        -0.3654
    123 C          41.5320   42.1220   15.9400 C.2       1 MOL         0.2501
    124 C10        40.2580   41.5740   15.7300 C.ar      1 MOL         0.1097
    125 N11        39.2530   42.4500   15.5470 N.ar      1 MOL        -0.2945
    126 C7         37.9800   42.0690   15.3640 C.ar      1 MOL         0.0714
    127 C2         36.9800   43.0440   15.2140 C.ar      1 MOL         0.0930
    128 N          37.4610   44.3190   15.1870 N.am      1 MOL        -0.2247
    129 C9         39.9950   40.2030   15.7370 C.ar      1 MOL         0.0094
    130 C8         38.6770   39.7790   15.5370 C.ar      1 MOL         0.1232
    131 OB         38.2800   38.4740   15.5440 O.3       1 MOL        -0.2897
    132 CG         38.9510   37.5050   14.7160 C.3       1 MOL         0.1274
    133 CD         38.4200   36.1870   15.2530 C.2       1 MOL         0.0662
    134 OE2        37.1720   36.0240   15.1970 O.co2     1 MOL        -0.5662
    135 OE1        39.2650   35.3710   15.7060 O.co2     1 MOL        -0.5662
    136 C6         37.6590   40.7120   15.3560 C.ar      1 MOL         0.0319
    137 C5         36.3370   40.3180   15.1710 C.ar      1 MOL        -0.0639
    138 C4         35.3440   41.2830   14.9930 C.ar      1 MOL        -0.0768
    139 C3         35.6530   42.6400   14.9970 C.ar      1 MOL        -0.0390
    140 O          38.6500   48.5120   17.7240 O.co2     1 MOL        -0.5572
    141 C          39.0960   47.3630   17.7690 C.2       1 MOL         0.0764
    142 C10        40.4560   47.0970   17.5730 C.ar      1 MOL         0.0629
    143 N11        40.8710   45.8860   17.1470 N.ar      1 MOL        -0.3011
    144 C7         42.1790   45.5780   16.9520 C.ar      1 MOL         0.0692
    145 C2         42.5640   44.2840   16.5290 C.ar      1 MOL         0.0919
    146 N          41.5050   43.4340   16.2870 N.am      1 MOL        -0.2253
    147 C9         41.3900   48.0930   17.8290 C.ar      1 MOL         0.0039
    148 C8         42.7440   47.8270   17.6370 C.ar      1 MOL         0.1201
    149 C6         43.1510   46.5520   17.1920 C.ar      1 MOL         0.0307
    150 C5         44.4950   46.2320   17.0020 C.ar      1 MOL        -0.0645
    151 C4         44.8750   44.9700   16.5700 C.ar      1 MOL        -0.0773
    152 C3         43.9220   43.9940   16.3350 C.ar      1 MOL        -0.0396
    153 OB         43.7400   48.7540   17.8660 O.3       1 MOL        -0.3036
    154 CG         43.4820   50.0540   18.4440 C.3       1 MOL         0.0802
    155 CD         44.8040   50.5450   19.0450 C.3       1 MOL         0.0160
    156 CE         45.9470   50.7220   18.0330 C.3       1 MOL        -0.0328
    157 OXT        38.3240   46.4480   18.0440 O.co2     1 MOL        -0.5572
    158 N1         45.6240   50.1820   16.7240 N.4       1 MOL         0.2186
    159 H1         35.5415   41.2295    3.9627 H         1 MOL         0.0518
    160 H2         35.3078   41.3373    5.7405 H         1 MOL         0.0518
    161 H3         35.1465   43.5906    3.6700 H         1 MOL         0.0285
    162 H4         35.2899   43.9072    5.4323 H         1 MOL         0.0285
    163 H5         33.2692   42.5748    5.8665 H         1 MOL         0.0292
    164 H6         33.1467   42.1530    4.1247 H         1 MOL         0.0292
    165 H7         31.6884   43.9610    4.2342 H         1 MOL         0.0614
    166 H8         33.2240   44.7998    3.8278 H         1 MOL         0.0614
    167 H9         33.5835   47.0138    7.0289 H         1 MOL         0.0486
    168 H10        37.4302   43.0767    5.0227 H         1 MOL         0.1853
    169 H11        30.6399   45.6278    4.2581 H         1 MOL         0.0479
    170 H12        32.7006   49.3131    6.7818 H         1 MOL         0.0572
    171 H13        30.7985   49.7817    5.2654 H         1 MOL         0.0465
    172 H14        29.1863   46.9881    3.3555 H         1 MOL         0.0681
    173 H15        29.8250   48.6259    2.9863 H         1 MOL         0.0681
    174 H16        27.9458   48.1194    5.2684 H         1 MOL         0.1872
    175 H17        26.0529   48.3603    5.6086 H         1 MOL         0.0670
    176 H18        24.1155   49.3111    6.8056 H         1 MOL         0.0649
    177 H19        21.1254   51.0687    7.5292 H         1 MOL         0.1635
    178 H20        22.1147   49.8880    6.7372 H         1 MOL         0.1635
    179 H21        24.9346   53.1524    5.0542 H         1 MOL         0.0649
    180 H22        26.8837   52.1947    3.8708 H         1 MOL         0.0670
    181 H23        39.3365   42.5470    5.6326 H         1 MOL         0.2309
    182 H24        44.7937   43.5175    6.2980 H         1 MOL         0.0605
    183 H25        43.7254   38.8826    5.7631 H         1 MOL         0.0480
    184 H26        41.6250   37.6448    5.4130 H         1 MOL         0.0572
    185 H27        39.4689   38.8390    5.2574 H         1 MOL         0.0474
    186 H28        45.8908   41.6106    6.2496 H         1 MOL         0.2560
    187 H29        36.2206   48.3327    7.4914 H         1 MOL         0.0705
    188 H30        37.8959   50.0590    6.8345 H         1 MOL         0.0729
    189 H31        40.2587   49.3962    6.4575 H         1 MOL         0.0685
    190 H32        41.8178   47.2955    7.5524 H         1 MOL         0.0714
    191 H33        41.5835   47.4902    5.7821 H         1 MOL         0.0714
    192 H34        40.5777   44.9240    6.5981 H         1 MOL         0.1878
    193 H35        38.2991   44.4078    7.8907 H         1 MOL         0.2309
    194 H36        39.8945   39.2988    9.2182 H         1 MOL         0.0605
    195 H37        38.3244   38.0849    7.3113 H         1 MOL         0.0795
    196 H38        36.8687   37.1003    7.6834 H         1 MOL         0.0795
    197 H39        35.1687   39.7362    8.5961 H         1 MOL         0.0482
    198 H40        33.6832   41.6503    8.1114 H         1 MOL         0.0572
    199 H41        34.6114   43.9109    7.7812 H         1 MOL         0.0477
    200 H42        45.0300   47.6051   10.3372 H         1 MOL         0.2560
    201 H43        41.7166   48.8230   10.7487 H         1 MOL         0.0605
    202 H44        45.5181   46.0186    9.9276 H         1 MOL         0.0482
    203 H45        45.7917   43.6498    9.3080 H         1 MOL         0.0573
    204 H46        43.8289   42.1815    8.9995 H         1 MOL         0.0477
    205 H47        40.3835   43.6192    9.3600 H         1 MOL         0.2309
    206 H48        35.1055   41.9805   11.8870 H         1 MOL         0.0705
    207 H49        33.6556   43.9449   11.4440 H         1 MOL         0.0729
    208 H50        34.6711   46.1855   11.1100 H         1 MOL         0.0685
    209 H51        37.1398   47.3138   12.0523 H         1 MOL         0.0714
    210 H52        36.7770   47.1888   10.2975 H         1 MOL         0.0714
    211 H53        39.0200   45.5025   11.0087 H         1 MOL         0.1878
    212 H54        45.4112   41.8932   14.2646 H         1 MOL         0.0625
    213 H55        44.7651   40.3270   13.6678 H         1 MOL         0.0625
    214 H56        44.5435   43.9192   13.6081 H         1 MOL         0.0637
    215 H57        43.3286   39.3389   12.6810 H         1 MOL         0.0478
    216 H58        41.2133   38.2628   12.0284 H         1 MOL         0.0582
    217 H59        39.1584   39.5968   11.6987 H         1 MOL         0.0478
    218 H60        39.3335   43.3014   11.9430 H         1 MOL         0.2315
    219 H61        35.8072   47.9422   15.1264 H         1 MOL         0.0705
    220 H62        37.2413   49.9706   14.9045 H         1 MOL         0.0729
    221 H63        39.6458   49.7184   14.3587 H         1 MOL         0.0685
    222 H64        41.5522   47.7188   14.8336 H         1 MOL         0.0714
    223 H65        41.1854   48.0390   13.1046 H         1 MOL         0.0714
    224 H66        40.4027   45.3534   13.6633 H         1 MOL         0.1878
    225 H67        38.4165   44.4532   15.4498 H         1 MOL         0.2309
    226 H68        40.7920   39.4851   15.8935 H         1 MOL         0.0605
    227 H69        40.0428   37.5706   14.8330 H         1 MOL         0.0795
    228 H70        38.6872   37.6373   13.6563 H         1 MOL         0.0795
    229 H71        36.0792   39.2651   15.1651 H         1 MOL         0.0482
    230 H72        34.3160   40.9704   14.8494 H         1 MOL         0.0572
    231 H73        34.8762   43.3783   14.8341 H         1 MOL         0.0477
    232 H74        40.5952   43.8386   16.3796 H         1 MOL         0.2306
    233 H75        41.0681   49.0685   18.1751 H         1 MOL         0.0595
    234 H76        45.2544   46.9811   17.1949 H         1 MOL         0.0481
    235 H77        45.9244   44.7467   16.4155 H         1 MOL         0.0568
    236 H78        44.2248   43.0079   16.0018 H         1 MOL         0.0476
    237 H79        42.7163   49.9734   19.2296 H         1 MOL         0.0626
    238 H80        43.1377   50.7520   17.6666 H         1 MOL         0.0626
    239 H81        45.1274   49.8154   19.8020 H         1 MOL         0.0344
    240 H82        44.6206   51.5166   19.5270 H         1 MOL         0.0344
    241 H83        46.8397   50.2060   18.4162 H         1 MOL         0.0814
    242 H84        46.1610   51.7958   17.9278 H         1 MOL         0.0814
    243 H85        46.4035   50.3232   16.1006 H         1 MOL         0.1994
    244 H86        44.8113   50.6525   16.3576 H         1 MOL         0.1994
    245 H87        45.4332   49.1956   16.8052 H         1 MOL         0.1994
@<TRIPOS>BOND
     1    2    1 2  
     2    2    9 am 
     3   35    2 am 
     4    3    4 1  
     5    9    3 1  
     6    4    5 1  
     7    5    6 1  
     8    6   10 1  
     9    7    8 ar 
    10   10    7 1  
    11    7   11 ar 
    12    8   12 ar 
    13   11   14 ar 
    14   12   13 ar 
    15   14   13 ar 
    16   14   15 1  
    17   15   16 1  
    18   16   17 am 
    19   17   18 2  
    20   17   19 1  
    21   19   20 ar 
    22   19   28 ar 
    23   20   21 ar 
    24   21   22 ar 
    25   22   23 1  
    26   27   22 ar 
    27   23   24 2  
    28   23   25 2  
    29   23   26 am 
    30   28   27 ar 
    31   30   29 2  
    32   30   31 1  
    33   52   30 am 
    34   31   32 ar 
    35   31   36 ar 
    36   32   33 ar 
    37   33   34 ar 
    38   33   38 ar 
    39   34   35 1  
    40   34   41 ar 
    41   36   37 ar 
    42   37   38 ar 
    43   37   42 1  
    44   38   39 ar 
    45   39   40 ar 
    46   41   40 ar 
    47   44   43 2  
    48   44   45 1  
    49   59   44 am 
    50   45   46 ar 
    51   45   47 ar 
    52   46   50 ar 
    53   47   48 ar 
    54   48   49 ar 
    55   50   49 ar 
    56   50   51 1  
    57   51   52 1  
    58   54   53 2  
    59   54   55 1  
    60   84   54 am 
    61   55   56 ar 
    62   55   60 ar 
    63   56   57 ar 
    64   57   58 ar 
    65   57   67 ar 
    66   58   59 1  
    67   58   70 ar 
    68   60   61 ar 
    69   61   62 1  
    70   61   67 ar 
    71   62   63 1  
    72   63   64 1  
    73   64   65 ar 
    74   64   66 ar 
    75   67   68 ar 
    76   68   69 ar 
    77   70   69 ar 
    78   72   71 1  
    79   73   72 ar 
    80   72   79 ar 
    81   74   73 ar 
    82   75   74 1  
    83   74   77 ar 
    84   75   76 2  
    85   94   75 am 
    86   77   78 ar 
    87   78   79 ar 
    88   78   83 ar 
    89   79   80 ar 
    90   80   81 ar 
    91   82   81 ar 
    92   83   82 ar 
    93   83   84 1  
    94   86   85 2  
    95   86   87 1  
    96  111   86 am 
    97   87   88 ar 
    98   87   89 ar 
    99   88   92 ar 
   100   89   90 ar 
   101   90   91 ar 
   102   92   91 ar 
   103   92   93 1  
   104   93   94 1  
   105   96   95 ar 
   106   96   97 ar 
   107   98   96 1  
   108   99   98 1  
   109  100   99 ar 
   110   99  106 ar 
   111  101  100 ar 
   112  102  101 1  
   113  101  104 ar 
   114  102  103 2  
   115  121  102 am 
   116  104  105 ar 
   117  105  106 ar 
   118  105  110 ar 
   119  106  107 ar 
   120  107  108 ar 
   121  109  108 ar 
   122  110  109 ar 
   123  110  111 1  
   124  113  112 2  
   125  113  114 1  
   126  128  113 am 
   127  114  115 ar 
   128  114  116 ar 
   129  115  119 ar 
   130  116  117 ar 
   131  117  118 ar 
   132  119  118 ar 
   133  119  120 1  
   134  120  121 1  
   135  123  122 2  
   136  123  124 1  
   137  146  123 am 
   138  124  125 ar 
   139  124  129 ar 
   140  125  126 ar 
   141  126  127 ar 
   142  126  136 ar 
   143  127  128 1  
   144  127  139 ar 
   145  129  130 ar 
   146  130  131 1  
   147  130  136 ar 
   148  131  132 1  
   149  132  133 1  
   150  133  134 ar 
   151  133  135 ar 
   152  136  137 ar 
   153  137  138 ar 
   154  139  138 ar 
   155  141  140 ar 
   156  142  141 1  
   157  141  157 ar 
   158  143  142 ar 
   159  142  147 ar 
   160  144  143 ar 
   161  145  144 ar 
   162  144  149 ar 
   163  145  146 1  
   164  145  152 ar 
   165  147  148 ar 
   166  148  149 ar 
   167  148  153 1  
   168  149  150 ar 
   169  150  151 ar 
   170  151  152 ar 
   171  153  154 1  
   172  154  155 1  
   173  155  156 1  
   174  156  158 1  
   175    3  159 1  
   176    3  160 1  
   177    4  161 1  
   178    4  162 1  
   179    5  163 1  
   180    5  164 1  
   181    6  165 1  
   182    6  166 1  
   183    8  167 1  
   184    9  168 1  
   185   11  169 1  
   186   12  170 1  
   187   13  171 1  
   188   15  172 1  
   189   15  173 1  
   190   16  174 1  
   191   20  175 1  
   192   21  176 1  
   193   26  177 1  
   194   26  178 1  
   195   27  179 1  
   196   28  180 1  
   197   35  181 1  
   198   36  182 1  
   199   39  183 1  
   200   40  184 1  
   201   41  185 1  
   202   42  186 1  
   203   47  187 1  
   204   48  188 1  
   205   49  189 1  
   206   51  190 1  
   207   51  191 1  
   208   52  192 1  
   209   59  193 1  
   210   60  194 1  
   211   63  195 1  
   212   63  196 1  
   213   68  197 1  
   214   69  198 1  
   215   70  199 1  
   216   71  200 1  
   217   73  201 1  
   218   80  202 1  
   219   81  203 1  
   220   82  204 1  
   221   84  205 1  
   222   89  206 1  
   223   90  207 1  
   224   91  208 1  
   225   93  209 1  
   226   93  210 1  
   227   94  211 1  
   228   98  212 1  
   229   98  213 1  
   230  100  214 1  
   231  107  215 1  
   232  108  216 1  
   233  109  217 1  
   234  111  218 1  
   235  116  219 1  
   236  117  220 1  
   237  118  221 1  
   238  120  222 1  
   239  120  223 1  
   240  121  224 1  
   241  128  225 1  
   242  129  226 1  
   243  132  227 1  
   244  132  228 1  
   245  137  229 1  
   246  138  230 1  
   247  139  231 1  
   248  146  232 1  
   249  147  233 1  
   250  150  234 1  
   251  151  235 1  
   252  152  236 1  
   253  154  237 1  
   254  154  238 1  
   255  155  239 1  
   256  155  240 1  
   257  156  241 1  
   258  156  242 1  
   259  158  243 1  
   260  158  244 1  
   261  158  245 1  
@<TRIPOS>SUBSTRUCTURE
     1 MOL         1

