6hzx_ligand
  -I-interpret- 

249265  0  0  0  0  0  0  0  0999 V2000
   37.6670   39.9710    5.1170 O   0  0  0  0  0
   37.9910   41.1510    5.1760 C   0  0  0  0  0
   35.6930   41.8590    4.8520 C   0  0  0  0  0
   34.9510   43.1860    4.6740 C   0  0  0  0  0
   33.4670   42.9230    4.8420 C   0  0  0  0  0
   32.7030   44.1980    4.5870 C   0  0  0  0  0
   32.1560   46.1730    5.6670 C   0  0  0  0  0
   32.7440   47.2070    6.3710 C   0  0  0  0  0
   37.1110   42.1290    5.0220 N   0  0  0  0  0
   32.6320   44.9220    5.8130 O   0  0  0  0  0
   31.0850   46.4430    4.8170 C   0  0  0  0  0
   32.2460   48.5010    6.2260 C   0  0  0  0  0
   31.1670   48.7680    5.3730 C   0  0  0  0  0
   30.5680   47.7290    4.6630 C   0  0  0  0  0
   29.4910   47.9520    3.7890 C   0  0  0  0  0
   28.3260   48.5560    4.4530 N   0  0  0  0  0
   27.7560   49.6950    3.9810 C   0  0  0  0  0
   28.2250   50.3200    3.0280 O   0  0  0  0  0
   26.6290   50.2060    4.6630 C   0  0  0  0  0
   25.8180   49.4120    5.4910 C   0  0  0  0  0
   24.7210   49.9410    6.1640 C   0  0  0  0  0
   24.4100   51.2880    6.0040 C   0  0  0  0  0
   23.1070   51.9430    6.8070 S   0  0  0  0  0
   22.6170   53.1080    5.9790 O   0  0  0  0  0
   23.5230   52.3510    8.2100 O   0  0  0  0  0
   21.9720   50.8250    7.0560 N   0  0  0  0  0
   25.1850   52.1050    5.1780 C   0  0  0  0  0
   26.2840   51.5610    4.5140 C   0  0  0  0  0
   43.5700   45.7090    6.1120 O   0  0  0  0  0
   42.5640   45.0030    6.2190 C   0  0  0  0  0
   42.6530   43.5980    6.0690 C   0  0  0  0  0
   41.5510   42.8430    5.8730 N   0  0  0  0  0
   41.5750   41.4890    5.7380 C   0  0  0  0  0
   40.3630   40.7920    5.5310 C   0  0  0  0  0
   39.2240   41.5690    5.4570 N   0  0  0  0  0
   43.8900   42.9390    6.1440 C   0  0  0  0  0
   43.9760   41.5450    6.0230 C   0  0  0  0  0
   42.7890   40.8140    5.8190 C   0  0  0  0  0
   42.7890   39.4250    5.7000 C   0  0  0  0  0
   41.6010   38.7250    5.5010 C   0  0  0  0  0
   40.3880   39.3920    5.4140 C   0  0  0  0  0
   45.2290   40.9430    6.1120 O   0  0  0  0  0
   35.5670   45.9700    7.9500 O   0  0  0  0  0
   36.7710   45.7110    7.8450 C   0  0  0  0  0
   37.6840   46.7320    7.5010 C   0  0  0  0  0
   38.9810   46.4030    7.2500 N   0  0  0  0  0
   37.2580   48.0610    7.3330 C   0  0  0  0  0
   38.1970   49.0250    6.9580 C   0  0  0  0  0
   39.5250   48.6510    6.7430 C   0  0  0  0  0
   39.9080   47.3160    6.8960 C   0  0  0  0  0
   41.2210   46.9770    6.6850 C   0  0  0  0  0
   41.3730   45.5230    6.5050 N   0  0  0  0  0
   41.9300   40.9380    8.9020 O   0  0  0  0  0
   41.0180   41.7680    8.9620 C   0  0  0  0  0
   39.6730   41.4020    8.8160 C   0  0  0  0  0
   38.8000   42.3820    8.5430 N   0  0  0  0  0
   37.4800   42.1970    8.4310 C   0  0  0  0  0
   36.6410   43.2940    8.1820 C   0  0  0  0  0
   37.3040   44.4700    7.9670 N   0  0  0  0  0
   39.2090   40.1080    8.9940 C   0  0  0  0  0
   37.8410   39.8720    8.8780 C   0  0  0  0  0
   37.2860   38.6370    9.0460 O   0  0  0  0  0
   37.7310   37.6280    8.1170 C   0  0  0  0  0
   38.5970   36.6560    8.9330 C   0  0  0  0  0
   39.8150   36.9370    9.0980 O   0  0  0  0  0
   38.0390   35.6080    9.3460 O   0  0  0  0  0
   36.9620   40.9200    8.5970 C   0  0  0  0  0
   35.5890   40.7280    8.4750 C   0  0  0  0  0
   34.7520   41.8100    8.1970 C   0  0  0  0  0
   35.2670   43.0840    8.0290 C   0  0  0  0  0
   44.2320   48.0980   10.4880 O   0  0  0  0  0
   43.1570   47.2840   10.3070 C   0  0  0  0  0
   41.8790   47.7870   10.4740 C   0  0  0  0  0
   40.8160   46.9250   10.2790 C   0  0  0  0  0
   39.5200   47.3700   10.4660 C   0  0  0  0  0
   39.1970   48.5460   10.2870 O   0  0  0  0  0
   41.0210   45.6390    9.9500 N   0  0  0  0  0
   42.2500   45.1120    9.7760 C   0  0  0  0  0
   43.3680   45.9360    9.9580 C   0  0  0  0  0
   44.6430   45.3940    9.7890 C   0  0  0  0  0
   44.7950   44.0540    9.4430 C   0  0  0  0  0
   43.6920   43.2230    9.2670 C   0  0  0  0  0
   42.4020   43.7460    9.4390 C   0  0  0  0  0
   41.2130   43.0700    9.2580 N   0  0  0  0  0
   37.3290   40.9030   12.1130 O   0  0  0  0  0
   37.7760   42.0470   12.0210 C   0  0  0  0  0
   36.9220   43.1330   11.7920 C   0  0  0  0  0
   37.4350   44.3660   11.5940 N   0  0  0  0  0
   35.5430   42.9610   11.7380 C   0  0  0  0  0
   34.7320   44.0650   11.4900 C   0  0  0  0  0
   35.2980   45.3220   11.3010 C   0  0  0  0  0
   36.6780   45.4520   11.3610 C   0  0  0  0  0
   37.2490   46.6870   11.1550 C   0  0  0  0  0
   38.6720   46.4310   10.8790 N   0  0  0  0  0
   45.8090   40.4970   11.4590 O   0  0  0  0  0
   45.7850   41.4850   12.2280 C   0  0  0  0  0
   46.4530   42.5380   12.1470 O   0  0  0  0  0
   44.9300   41.3850   13.4160 C   0  0  0  0  0
   43.6950   42.0050   13.1260 C   0  0  0  0  0
   43.6450   43.3900   13.3120 C   0  0  0  0  0
   42.4680   44.1000   13.1250 C   0  0  0  0  0
   42.3900   45.4830   13.3630 C   0  0  0  0  0
   43.3960   46.1850   13.3690 O   0  0  0  0  0
   41.3750   43.4110   12.7810 N   0  0  0  0  0
   41.3540   42.0740   12.5770 C   0  0  0  0  0
   42.5190   41.3270   12.7520 C   0  0  0  0  0
   42.4410   39.9470   12.5490 C   0  0  0  0  0
   41.2400   39.3360   12.1790 C   0  0  0  0  0
   40.0820   40.0770   12.0010 C   0  0  0  0  0
   40.1310   41.4590   12.2200 C   0  0  0  0  0
   39.0890   42.3380   12.0530 N   0  0  0  0  0
   35.5690   45.4020   14.5040 O   0  0  0  0  0
   36.7560   45.4180   14.8350 C   0  0  0  0  0
   37.4750   46.6150   14.7590 C   0  0  0  0  0
   38.7860   46.5180   14.4420 N   0  0  0  0  0
   36.8660   47.8570   14.9100 C   0  0  0  0  0
   37.6660   48.9820   14.7730 C   0  0  0  0  0
   39.0250   48.8360   14.4640 C   0  0  0  0  0
   39.5910   47.5750   14.2900 C   0  0  0  0  0
   40.9330   47.4170   13.9760 C   0  0  0  0  0
   41.1820   45.9800   13.6570 N   0  0  0  0  0
   42.5470   41.4130   15.9040 O   0  0  0  0  0
   41.5320   42.1220   15.9400 C   0  0  0  0  0
   40.2580   41.5740   15.7300 C   0  0  0  0  0
   39.2530   42.4500   15.5470 N   0  0  0  0  0
   37.9800   42.0690   15.3640 C   0  0  0  0  0
   36.9800   43.0440   15.2140 C   0  0  0  0  0
   37.4610   44.3190   15.1870 N   0  0  0  0  0
   39.9950   40.2030   15.7370 C   0  0  0  0  0
   38.6770   39.7790   15.5370 C   0  0  0  0  0
   38.2800   38.4740   15.5440 O   0  0  0  0  0
   38.9510   37.5050   14.7160 C   0  0  0  0  0
   38.4200   36.1870   15.2530 C   0  0  0  0  0
   37.1720   36.0240   15.1970 O   0  0  0  0  0
   39.2650   35.3710   15.7060 O   0  0  0  0  0
   37.6590   40.7120   15.3560 C   0  0  0  0  0
   36.3370   40.3180   15.1710 C   0  0  0  0  0
   35.3440   41.2830   14.9930 C   0  0  0  0  0
   35.6530   42.6400   14.9970 C   0  0  0  0  0
   38.6500   48.5120   17.7240 O   0  0  0  0  0
   39.0960   47.3630   17.7690 C   0  0  0  0  0
   40.4560   47.0970   17.5730 C   0  0  0  0  0
   40.8710   45.8860   17.1470 N   0  0  0  0  0
   42.1790   45.5780   16.9520 C   0  0  0  0  0
   42.5640   44.2840   16.5290 C   0  0  0  0  0
   41.5050   43.4340   16.2870 N   0  0  0  0  0
   41.3900   48.0930   17.8290 C   0  0  0  0  0
   42.7440   47.8270   17.6370 C   0  0  0  0  0
   43.1510   46.5520   17.1920 C   0  0  0  0  0
   44.4950   46.2320   17.0020 C   0  0  0  0  0
   44.8750   44.9700   16.5700 C   0  0  0  0  0
   43.9220   43.9940   16.3350 C   0  0  0  0  0
   43.7400   48.7540   17.8660 O   0  0  0  0  0
   43.4820   50.0540   18.4440 C   0  0  0  0  0
   44.8040   50.5450   19.0450 C   0  0  0  0  0
   45.9470   50.7220   18.0330 C   0  0  0  0  0
   38.3240   46.4480   18.0440 O   0  0  0  0  0
   45.6240   50.1820   16.7240 N   0  3  0  0  0
   35.5409   41.2320    3.9734 H   0  0  0  0  0
   35.3100   41.3386    5.7298 H   0  0  0  0  0
   35.1497   43.5974    3.6844 H   0  0  0  0  0
   35.2906   43.9085    5.4161 H   0  0  0  0  0
   33.2704   42.5764    5.8566 H   0  0  0  0  0
   33.1492   42.1590    4.1325 H   0  0  0  0  0
   31.7002   43.9702    4.2257 H   0  0  0  0  0
   33.2079   44.7938    3.8266 H   0  0  0  0  0
   33.5882   47.0127    7.0326 H   0  0  0  0  0
   37.4366   43.0956    5.0227 H   0  0  0  0  0
   30.6374   45.6233    4.2550 H   0  0  0  0  0
   32.7031   49.3176    6.7848 H   0  0  0  0  0
   30.7964   49.7873    5.2648 H   0  0  0  0  0
   29.1816   46.9857    3.3907 H   0  0  0  0  0
   29.8282   48.6437    3.0170 H   0  0  0  0  0
   27.9382   48.1106    5.2847 H   0  0  0  0  0
   26.0542   48.3545    5.6092 H   0  0  0  0  0
   24.1122   49.3076    6.8092 H   0  0  0  0  0
   21.0377   50.9513    6.6668 H   0  0  0  0  0
   22.1884   49.9915    7.6028 H   0  0  0  0  0
   24.9332   53.1582    5.0535 H   0  0  0  0  0
   26.8870   52.1982    3.8672 H   0  0  0  0  0
   39.3388   42.5666    5.6361 H   0  0  0  0  0
   44.7987   43.5207    6.2989 H   0  0  0  0  0
   43.7306   38.8796    5.7635 H   0  0  0  0  0
   41.6251   37.6389    5.4125 H   0  0  0  0  0
   39.4638   38.8359    5.2565 H   0  0  0  0  0
   45.1342   39.9930    6.0117 H   0  0  0  0  0
   36.2149   48.3342    7.4923 H   0  0  0  0  0
   37.8942   50.0647    6.8338 H   0  0  0  0  0
   40.2627   49.4003    6.4559 H   0  0  0  0  0
   41.8034   47.2829    7.5541 H   0  0  0  0  0
   41.5689   47.4778    5.7815 H   0  0  0  0  0
   40.5618   44.9120    6.6000 H   0  0  0  0  0
   38.3190   44.4066    7.8892 H   0  0  0  0  0
   39.8983   39.2943    9.2194 H   0  0  0  0  0
   38.2971   38.0683    7.2962 H   0  0  0  0  0
   36.8869   37.1145    7.6566 H   0  0  0  0  0
   40.0035   37.7875    8.6946 H   0  0  0  0  0
   35.1664   39.7307    8.5968 H   0  0  0  0  0
   33.6773   41.6495    8.1109 H   0  0  0  0  0
   34.6077   43.9155    7.7798 H   0  0  0  0  0
   45.0384   47.5999   10.3357 H   0  0  0  0  0
   41.7157   48.8287   10.7502 H   0  0  0  0  0
   45.5229   46.0220    9.9284 H   0  0  0  0  0
   45.7972   43.6476    9.3073 H   0  0  0  0  0
   43.8296   42.1757    8.9980 H   0  0  0  0  0
   40.3669   43.6302    9.3620 H   0  0  0  0  0
   35.1031   41.9750   11.8878 H   0  0  0  0  0
   33.6497   43.9443   11.4437 H   0  0  0  0  0
   34.6676   46.1902   11.1090 H   0  0  0  0  0
   37.1239   47.3314   12.0252 H   0  0  0  0  0
   36.7726   47.2104   10.3260 H   0  0  0  0  0
   39.0269   45.4839   11.0112 H   0  0  0  0  0
   45.1879   39.8349   11.7711 H   0  0  0  0  0
   45.4068   41.8787   14.2628 H   0  0  0  0  0
   44.7713   40.3384   13.6758 H   0  0  0  0  0
   44.5485   43.9221   13.6097 H   0  0  0  0  0
   43.3335   39.3355   12.6817 H   0  0  0  0  0
   41.2132   38.2569   12.0276 H   0  0  0  0  0
   39.1533   39.5941   11.6971 H   0  0  0  0  0
   39.3384   43.3206   11.9408 H   0  0  0  0  0
   35.8014   47.9426   15.1275 H   0  0  0  0  0
   37.2390   49.9761   14.9053 H   0  0  0  0  0
   39.6492   49.7233   14.3581 H   0  0  0  0  0
   41.5501   47.7217   14.8212 H   0  0  0  0  0
   41.1885   48.0374   13.1170 H   0  0  0  0  0
   40.3871   45.3408   13.6634 H   0  0  0  0  0
   38.4356   44.4559   15.4551 H   0  0  0  0  0
   40.7964   39.4811   15.8943 H   0  0  0  0  0
   40.0372   37.5796   14.7672 H   0  0  0  0  0
   38.7536   37.6428   13.6529 H   0  0  0  0  0
   36.7661   36.8015   14.8067 H   0  0  0  0  0
   36.0778   39.2593   15.1651 H   0  0  0  0  0
   34.3103   40.9687   14.8486 H   0  0  0  0  0
   34.8719   43.3824   14.8332 H   0  0  0  0  0
   39.3580   49.1203   17.4998 H   0  0  0  0  0
   40.5770   43.8467   16.3815 H   0  0  0  0  0
   41.0663   49.0739   18.1770 H   0  0  0  0  0
   45.2586   46.9853   17.1960 H   0  0  0  0  0
   45.9302   44.7455   16.4146 H   0  0  0  0  0
   44.2265   43.0025   16.0000 H   0  0  0  0  0
   42.7093   49.9899   19.2101 H   0  0  0  0  0
   43.1202   50.7490   17.6863 H   0  0  0  0  0
   45.1278   49.7869   19.7581 H   0  0  0  0  0
   44.6095   51.5267   19.4770 H   0  0  0  0  0
   46.8162   50.1845   18.4120 H   0  0  0  0  0
   46.1308   51.7903   17.9187 H   0  0  0  0  0
   46.4134   50.3254   16.0941 H   0  0  0  0  0
   45.4311   49.1839   16.8074 H   0  0  0  0  0
   44.8015   50.6588   16.3544 H   0  0  0  0  0
  2  1  2  0  0  0
  2  9  1  0  0  0
 35  2  1  0  0  0
  3  4  1  0  0  0
  9  3  1  0  0  0
  4  5  1  0  0  0
  5  6  1  0  0  0
  6 10  1  0  0  0
  7  8  4  0  0  0
 10  7  1  0  0  0
  7 11  4  0  0  0
  8 12  4  0  0  0
 11 14  4  0  0  0
 12 13  4  0  0  0
 14 13  4  0  0  0
 14 15  1  0  0  0
 15 16  1  0  0  0
 16 17  1  0  0  0
 17 18  2  0  0  0
 17 19  1  0  0  0
 19 20  4  0  0  0
 19 28  4  0  0  0
 20 21  4  0  0  0
 21 22  4  0  0  0
 22 23  1  0  0  0
 27 22  4  0  0  0
 23 24  2  0  0  0
 23 25  2  0  0  0
 23 26  1  0  0  0
 28 27  4  0  0  0
 30 29  2  0  0  0
 30 31  1  0  0  0
 52 30  1  0  0  0
 31 32  4  0  0  0
 31 36  4  0  0  0
 32 33  4  0  0  0
 33 34  4  0  0  0
 33 38  4  0  0  0
 34 35  1  0  0  0
 34 41  4  0  0  0
 36 37  4  0  0  0
 37 38  4  0  0  0
 37 42  1  0  0  0
 38 39  4  0  0  0
 39 40  4  0  0  0
 41 40  4  0  0  0
 44 43  2  0  0  0
 44 45  1  0  0  0
 59 44  1  0  0  0
 45 46  4  0  0  0
 45 47  4  0  0  0
 46 50  4  0  0  0
 47 48  4  0  0  0
 48 49  4  0  0  0
 50 49  4  0  0  0
 50 51  1  0  0  0
 51 52  1  0  0  0
 54 53  2  0  0  0
 54 55  1  0  0  0
 84 54  1  0  0  0
 55 56  4  0  0  0
 55 60  4  0  0  0
 56 57  4  0  0  0
 57 58  4  0  0  0
 57 67  4  0  0  0
 58 59  1  0  0  0
 58 70  4  0  0  0
 60 61  4  0  0  0
 61 62  1  0  0  0
 61 67  4  0  0  0
 62 63  1  0  0  0
 63 64  1  0  0  0
 64 65  1  0  0  0
 64 66  2  0  0  0
 67 68  4  0  0  0
 68 69  4  0  0  0
 70 69  4  0  0  0
 72 71  1  0  0  0
 73 72  4  0  0  0
 72 79  4  0  0  0
 74 73  4  0  0  0
 75 74  1  0  0  0
 74 77  4  0  0  0
 75 76  2  0  0  0
 94 75  1  0  0  0
 77 78  4  0  0  0
 78 79  4  0  0  0
 78 83  4  0  0  0
 79 80  4  0  0  0
 80 81  4  0  0  0
 82 81  4  0  0  0
 83 82  4  0  0  0
 83 84  1  0  0  0
 86 85  2  0  0  0
 86 87  1  0  0  0
111 86  1  0  0  0
 87 88  4  0  0  0
 87 89  4  0  0  0
 88 92  4  0  0  0
 89 90  4  0  0  0
 90 91  4  0  0  0
 92 91  4  0  0  0
 92 93  1  0  0  0
 93 94  1  0  0  0
 96 95  1  0  0  0
 96 97  2  0  0  0
 98 96  1  0  0  0
 99 98  1  0  0  0
100 99  4  0  0  0
 99106  4  0  0  0
101100  4  0  0  0
102101  1  0  0  0
101104  4  0  0  0
102103  2  0  0  0
121102  1  0  0  0
104105  4  0  0  0
105106  4  0  0  0
105110  4  0  0  0
106107  4  0  0  0
107108  4  0  0  0
109108  4  0  0  0
110109  4  0  0  0
110111  1  0  0  0
113112  2  0  0  0
113114  1  0  0  0
128113  1  0  0  0
114115  4  0  0  0
114116  4  0  0  0
115119  4  0  0  0
116117  4  0  0  0
117118  4  0  0  0
119118  4  0  0  0
119120  1  0  0  0
120121  1  0  0  0
123122  2  0  0  0
123124  1  0  0  0
146123  1  0  0  0
124125  4  0  0  0
124129  4  0  0  0
125126  4  0  0  0
126127  4  0  0  0
126136  4  0  0  0
127128  1  0  0  0
127139  4  0  0  0
129130  4  0  0  0
130131  1  0  0  0
130136  4  0  0  0
131132  1  0  0  0
132133  1  0  0  0
133134  1  0  0  0
133135  2  0  0  0
136137  4  0  0  0
137138  4  0  0  0
139138  4  0  0  0
141140  1  0  0  0
142141  1  0  0  0
141157  2  0  0  0
143142  4  0  0  0
142147  4  0  0  0
144143  4  0  0  0
145144  4  0  0  0
144149  4  0  0  0
145146  1  0  0  0
145152  4  0  0  0
147148  4  0  0  0
148149  4  0  0  0
148153  1  0  0  0
149150  4  0  0  0
150151  4  0  0  0
151152  4  0  0  0
153154  1  0  0  0
154155  1  0  0  0
155156  1  0  0  0
156158  1  0  0  0
  3159  1  0  0  0
  3160  1  0  0  0
  4161  1  0  0  0
  4162  1  0  0  0
  5163  1  0  0  0
  5164  1  0  0  0
  6165  1  0  0  0
  6166  1  0  0  0
  8167  1  0  0  0
  9168  1  0  0  0
 11169  1  0  0  0
 12170  1  0  0  0
 13171  1  0  0  0
 15172  1  0  0  0
 15173  1  0  0  0
 16174  1  0  0  0
 20175  1  0  0  0
 21176  1  0  0  0
 26177  1  0  0  0
 26178  1  0  0  0
 27179  1  0  0  0
 28180  1  0  0  0
 35181  1  0  0  0
 36182  1  0  0  0
 39183  1  0  0  0
 40184  1  0  0  0
 41185  1  0  0  0
 42186  1  0  0  0
 47187  1  0  0  0
 48188  1  0  0  0
 49189  1  0  0  0
 51190  1  0  0  0
 51191  1  0  0  0
 52192  1  0  0  0
 59193  1  0  0  0
 60194  1  0  0  0
 63195  1  0  0  0
 63196  1  0  0  0
 65197  1  0  0  0
 68198  1  0  0  0
 69199  1  0  0  0
 70200  1  0  0  0
 71201  1  0  0  0
 73202  1  0  0  0
 80203  1  0  0  0
 81204  1  0  0  0
 82205  1  0  0  0
 84206  1  0  0  0
 89207  1  0  0  0
 90208  1  0  0  0
 91209  1  0  0  0
 93210  1  0  0  0
 93211  1  0  0  0
 94212  1  0  0  0
 95213  1  0  0  0
 98214  1  0  0  0
 98215  1  0  0  0
100216  1  0  0  0
107217  1  0  0  0
108218  1  0  0  0
109219  1  0  0  0
111220  1  0  0  0
116221  1  0  0  0
117222  1  0  0  0
118223  1  0  0  0
120224  1  0  0  0
120225  1  0  0  0
121226  1  0  0  0
128227  1  0  0  0
129228  1  0  0  0
132229  1  0  0  0
132230  1  0  0  0
134231  1  0  0  0
137232  1  0  0  0
138233  1  0  0  0
139234  1  0  0  0
140235  1  0  0  0
146236  1  0  0  0
147237  1  0  0  0
150238  1  0  0  0
151239  1  0  0  0
152240  1  0  0  0
154241  1  0  0  0
154242  1  0  0  0
155243  1  0  0  0
155244  1  0  0  0
156245  1  0  0  0
156246  1  0  0  0
158247  1  0  0  0
158248  1  0  0  0
158249  1  0  0  0
M  END
$$$$
