1cin_ligand
  -I-interpret- 

 33 34  0  0  0  0  0  0  0  0999 V2000
   -6.1220    3.6020   15.5180 S   0  0  0  0  0
   -5.2970    2.1280   15.6510 C   0  0  0  0  0
   -4.0240    2.1630   15.0510 C   0  0  0  0  0
   -3.7950    3.4340   14.4350 C   0  0  0  0  0
   -2.5480    3.8070   13.7010 C   0  0  0  0  0
   -2.4560    5.3470   13.4550 C   0  0  0  0  0
   -3.7100    5.9440   12.8360 C   0  0  0  0  0
   -4.9690    5.9070   14.0730 S   0  0  0  0  0
   -4.9220    4.2820   14.5570 C   0  0  0  0  0
   -5.8630    0.9030   16.7140 S   0  0  0  0  0
   -7.2960    0.8830   16.6510 O   0  0  0  0  0
   -5.2860    1.0350   18.0140 O   0  0  0  0  0
   -5.3260   -0.6530   16.1270 N   0  0  0  0  0
   -2.5240    3.0910   12.4030 N   0  3  0  0  0
   -3.5370    7.4160   12.4500 C   0  0  0  0  0
   -6.2160    6.2230   13.4320 O   0  0  0  0  0
   -4.5920    6.6940   15.2230 O   0  0  0  0  0
   -1.1720    3.2170   11.8390 C   0  0  0  0  0
   -3.3124    1.3374   15.0551 H   0  0  0  0  0
   -1.6916    3.5215   14.3119 H   0  0  0  0  0
   -1.6359    5.5169   12.7573 H   0  0  0  0  0
   -2.3130    5.8237   14.4248 H   0  0  0  0  0
   -3.9452    5.3704   11.9395 H   0  0  0  0  0
   -4.7251   -1.2376   16.7080 H   0  0  0  0  0
   -5.6135   -0.9766   15.2034 H   0  0  0  0  0
   -3.2106    3.4943   11.7655 H   0  0  0  0  0
   -2.7588    2.1077   12.5387 H   0  0  0  0  0
   -4.4801    7.8021   12.0633 H   0  0  0  0  0
   -3.2417    7.9886   13.3292 H   0  0  0  0  0
   -2.7665    7.5012   11.6837 H   0  0  0  0  0
   -0.9378    4.2714   11.6922 H   0  0  0  0  0
   -0.4504    2.7755   12.5263 H   0  0  0  0  0
   -1.1291    2.6972   10.8819 H   0  0  0  0  0
  1  9  4  0  0  0
  1  2  4  0  0  0
  2 10  1  0  0  0
  2  3  4  0  0  0
  3  4  4  0  0  0
  4  9  4  0  0  0
  4  5  1  0  0  0
  5 14  1  0  0  0
  5  6  1  0  0  0
  6  7  1  0  0  0
  7 15  1  0  0  0
  7  8  1  0  0  0
  8 17  2  0  0  0
  8 16  2  0  0  0
  8  9  1  0  0  0
 14 18  1  0  0  0
 10 13  1  0  0  0
 10 12  2  0  0  0
 10 11  2  0  0  0
  3 19  1  0  0  0
  5 20  1  0  0  0
  6 21  1  0  0  0
  6 22  1  0  0  0
  7 23  1  0  0  0
 13 24  1  0  0  0
 13 25  1  0  0  0
 14 26  1  0  0  0
 14 27  1  0  0  0
 15 28  1  0  0  0
 15 29  1  0  0  0
 15 30  1  0  0  0
 18 31  1  0  0  0
 18 32  1  0  0  0
 18 33  1  0  0  0
M  END
$$$$
