4uwl_ligand
  -I-interpret- 

 54 56  0  0  0  0  0  0  0  0999 V2000
  -30.5910   16.8560   -7.0370 C   0  0  0  0  0
  -29.7620   15.7320   -7.1110 C   0  0  0  0  0
  -28.4270   15.8450   -6.8820 N   0  0  0  0  0
  -30.0580   18.1380   -6.6640 C   0  0  0  0  0
  -30.7170   19.1700   -6.5340 O   0  0  0  0  0
  -28.6760   18.1740   -6.4280 N   0  0  0  0  0
  -27.8930   16.9850   -6.5270 C   0  0  0  0  0
  -26.4520   17.0200   -6.2720 N   0  0  0  0  0
  -25.8660   18.2690   -5.7560 C   0  0  0  0  0
  -26.5650   19.5040   -6.3360 C   0  0  0  0  0
  -28.0760   19.4770   -6.0730 C   0  0  0  0  0
  -30.3180   14.4060   -7.4980 N   0  0  0  0  0
  -25.8830   18.2900   -4.1650 C   0  0  0  0  0
  -27.0980   18.1440   -3.6480 F   0  0  0  0  0
  -25.1470   17.2910   -3.6970 F   0  0  0  0  0
  -25.3820   19.4090   -3.6570 F   0  0  0  0  0
  -29.3560   13.2950   -7.4460 C   0  0  0  0  0
  -29.8110   12.1620   -8.3290 C   0  0  0  0  0
  -31.1360   11.7380   -8.0030 O   0  0  0  0  0
  -32.1010   12.8140   -8.1190 C   0  0  0  0  0
  -31.7540   13.9960   -7.2580 C   0  0  0  0  0
  -32.0420   13.7800   -5.7800 C   0  0  0  0  0
  -25.6590   15.8070   -6.3840 C   0  0  0  0  0
  -25.3080   15.4640   -7.8170 C   0  0  0  0  0
  -25.4940   16.2800   -8.6940 O   0  0  0  0  0
  -24.7400   14.0820   -8.0600 C   0  0  0  0  0
  -25.7630   13.2190   -8.7750 C   0  0  0  0  0
  -23.4410   14.1790   -8.8450 C   0  0  0  0  0
  -31.2939   16.6169   -6.2389 H   0  0  0  0  0
  -30.9383   16.9990   -8.0602 H   0  0  0  0  0
  -24.8265   18.3041   -6.0821 H   0  0  0  0  0
  -26.4043   19.5148   -7.4140 H   0  0  0  0  0
  -26.1490   20.3905   -5.8572 H   0  0  0  0  0
  -28.2401   19.6496   -5.0093 H   0  0  0  0  0
  -28.5430   20.2463   -6.6879 H   0  0  0  0  0
  -29.2835   12.9368   -6.4191 H   0  0  0  0  0
  -28.3863   13.6493   -7.7956 H   0  0  0  0  0
  -29.1349   11.3196   -8.1829 H   0  0  0  0  0
  -29.8055   12.5082   -9.3625 H   0  0  0  0  0
  -33.0688   12.4335   -7.7925 H   0  0  0  0  0
  -32.1102   13.1461   -9.1571 H   0  0  0  0  0
  -32.4114   14.8127   -7.5562 H   0  0  0  0  0
  -31.3927   12.9933   -5.3958 H   0  0  0  0  0
  -31.8548   14.7056   -5.2356 H   0  0  0  0  0
  -33.0842   13.4869   -5.6533 H   0  0  0  0  0
  -26.2488   14.9846   -5.9792 H   0  0  0  0  0
  -24.7271   15.9666   -5.8416 H   0  0  0  0  0
  -24.5142   13.6102   -7.1037 H   0  0  0  0  0
  -26.6595   13.1361   -8.1606 H   0  0  0  0  0
  -26.0173   13.6762   -9.7312 H   0  0  0  0  0
  -25.3444   12.2270   -8.9450 H   0  0  0  0  0
  -23.6326   14.6605   -9.8039 H   0  0  0  0  0
  -22.7191   14.7678   -8.2791 H   0  0  0  0  0
  -23.0436   13.1779   -9.0126 H   0  0  0  0  0
  1  2  1  0  0  0
  1  4  1  0  0  0
  2  3  2  0  0  0
  2 12  1  0  0  0
  3  7  4  0  0  0
  4  5  2  0  0  0
  4  6  1  0  0  0
  6  7  4  0  0  0
  6 11  1  0  0  0
  7  8  1  0  0  0
  8  9  1  0  0  0
  8 23  1  0  0  0
  9 10  1  0  0  0
  9 13  1  0  0  0
 10 11  1  0  0  0
 12 17  1  0  0  0
 12 21  1  0  0  0
 13 14  1  0  0  0
 13 15  1  0  0  0
 13 16  1  0  0  0
 17 18  1  0  0  0
 18 19  1  0  0  0
 19 20  1  0  0  0
 20 21  1  0  0  0
 21 22  1  0  0  0
 23 24  1  0  0  0
 24 25  2  0  0  0
 24 26  1  0  0  0
 26 27  1  0  0  0
 26 28  1  0  0  0
  1 29  1  0  0  0
  1 30  1  0  0  0
  9 31  1  0  0  0
 10 32  1  0  0  0
 10 33  1  0  0  0
 11 34  1  0  0  0
 11 35  1  0  0  0
 17 36  1  0  0  0
 17 37  1  0  0  0
 18 38  1  0  0  0
 18 39  1  0  0  0
 20 40  1  0  0  0
 20 41  1  0  0  0
 21 42  1  0  0  0
 22 43  1  0  0  0
 22 44  1  0  0  0
 22 45  1  0  0  0
 23 46  1  0  0  0
 23 47  1  0  0  0
 26 48  1  0  0  0
 27 49  1  0  0  0
 27 50  1  0  0  0
 27 51  1  0  0  0
 28 52  1  0  0  0
 28 53  1  0  0  0
 28 54  1  0  0  0
M  END
$$$$
