1mtr_ligand
  -I-interpret- 

 92 94  0  0  0  0  0  0  0  0999 V2000
    3.8120   -0.1510   12.1280 O   0  0  0  0  0
    3.8390    1.0700   12.4190 C   0  0  0  0  0
    2.8460    1.9070   12.1390 O   0  0  0  0  0
    1.6090    1.3620   11.6690 C   0  0  0  0  0
    1.0660    0.3590   12.6570 C   0  0  0  0  0
    0.6500    2.5150   11.5790 C   0  0  0  0  0
    1.8150    0.7460   10.2690 C   0  0  0  0  0
    4.8260   -0.3500   15.1620 C   0  0  0  0  0
    4.8920    1.6410   12.9920 N   0  0  0  0  0
    6.0860    0.8980   13.3940 C   0  0  0  0  0
    7.3250    1.7310   13.1470 C   0  0  0  0  0
    7.5170    2.0830   11.7380 C   0  0  0  0  0
    7.8520    1.1030   10.8180 C   0  0  0  0  0
    7.2770    3.3810   11.3000 C   0  0  0  0  0
    7.9340    1.4070    9.4770 C   0  0  0  0  0
    7.3590    3.6950    9.9590 C   0  0  0  0  0
    7.6860    2.7010    9.0420 C   0  0  0  0  0
    6.0250    0.5400   14.8670 C   0  0  0  0  0
    7.2140   -0.1580   15.2100 O   0  0  0  0  0
    4.9800   -0.7490   16.5650 N   0  3  0  0  0
    4.7330   -2.1850   16.8660 C   0  0  0  0  0
    5.7270   -3.1840   16.2610 C   0  0  0  0  0
    5.9380   -3.2130   15.0430 O   0  0  0  0  0
    3.3070   -2.6010   16.4850 C   0  0  0  0  0
    3.0880   -4.0880   16.5880 C   0  0  0  0  0
    3.0430   -4.7290   17.8400 C   0  0  0  0  0
    3.0690   -4.8820   15.4370 C   0  0  0  0  0
    3.0070   -6.1030   17.9280 C   0  0  0  0  0
    3.0270   -6.2650   15.5160 C   0  0  0  0  0
    3.0060   -6.8700   16.7570 C   0  0  0  0  0
    3.0180   -8.2490   16.7780 O   0  0  0  0  0
    6.3020   -4.0050   17.1410 N   0  0  0  0  0
    7.2390   -5.1000   16.8040 C   0  0  0  0  0
    6.8690   -6.1580   17.8470 C   0  0  0  0  0
    6.8500   -5.8730   19.0590 O   0  0  0  0  0
    8.7390   -4.7770   17.0390 C   0  0  0  0  0
    9.2220   -3.6210   16.1610 C   0  0  0  0  0
    9.5760   -6.0270   16.7730 C   0  0  0  0  0
    9.7030   -4.0590   14.8430 C   0  0  0  0  0
    6.5430   -7.3550   17.3700 N   0  0  0  0  0
    6.1610   -8.4480   18.2470 C   0  0  0  0  0
    5.0770   -9.2840   17.5770 C   0  0  0  0  0
    3.6870   -8.7600   17.9160 C   0  0  0  0  0
    0.1038   -0.0123   12.3042 H   0  0  0  0  0
    1.7653   -0.4718   12.7509 H   0  0  0  0  0
    0.9380    0.8392   13.6271 H   0  0  0  0  0
    1.0553    3.2714   10.9069 H   0  0  0  0  0
   -0.3068    2.1610   11.1950 H   0  0  0  0  0
    0.5082    2.9462   12.5700 H   0  0  0  0  0
    2.5223   -0.0805   10.3376 H   0  0  0  0  0
    0.8608    0.3790    9.8910 H   0  0  0  0  0
    2.2069    1.5061    9.5931 H   0  0  0  0  0
    4.7939   -1.2146   14.4990 H   0  0  0  0  0
    3.8850    0.1738   14.9936 H   0  0  0  0  0
    4.8670    2.6468   13.1600 H   0  0  0  0  0
    6.1280   -0.0161   12.8018 H   0  0  0  0  0
    8.1862    1.1399   13.4586 H   0  0  0  0  0
    7.2134    2.6602   13.7058 H   0  0  0  0  0
    8.0517    0.0864   11.1569 H   0  0  0  0  0
    7.0220    4.1566   12.0221 H   0  0  0  0  0
    8.1938    0.6307    8.7573 H   0  0  0  0  0
    7.1691    4.7136    9.6207 H   0  0  0  0  0
    7.7475    2.9392    7.9801 H   0  0  0  0  0
    5.9276    1.4554   15.4507 H   0  0  0  0  0
    7.9746    0.3982   15.0262 H   0  0  0  0  0
    5.9539   -0.5688   16.8086 H   0  0  0  0  0
    4.2825   -0.2222   17.0907 H   0  0  0  0  0
    4.8807   -2.2392   17.9446 H   0  0  0  0  0
    3.1389   -2.3090   15.4484 H   0  0  0  0  0
    2.6200   -2.1129   17.1763 H   0  0  0  0  0
    3.0366   -4.1308   18.7512 H   0  0  0  0  0
    3.0876   -4.4034   14.4578 H   0  0  0  0  0
    2.9795   -6.5899   18.9028 H   0  0  0  0  0
    3.0107   -6.8685   14.6085 H   0  0  0  0  0
    6.0777   -3.8670   18.1264 H   0  0  0  0  0
    7.1478   -5.3558   15.7484 H   0  0  0  0  0
    8.8575   -4.4647   18.0766 H   0  0  0  0  0
   10.0551   -3.1410   16.6746 H   0  0  0  0  0
    8.3764   -2.9525   15.9993 H   0  0  0  0  0
    9.2642   -6.8223   17.4500 H   0  0  0  0  0
    9.4297   -6.3479   15.7416 H   0  0  0  0  0
   10.6291   -5.7995   16.9382 H   0  0  0  0  0
   10.5385   -4.7470   14.9728 H   0  0  0  0  0
    8.8953   -4.5624   14.3118 H   0  0  0  0  0
   10.0307   -3.1913   14.2705 H   0  0  0  0  0
    6.5616   -7.5100   16.3620 H   0  0  0  0  0
    7.0307   -9.0741   18.4463 H   0  0  0  0  0
    5.7799   -8.0442   19.1850 H   0  0  0  0  0
    5.1584  -10.3102   17.9353 H   0  0  0  0  0
    5.2147   -9.2305   16.4971 H   0  0  0  0  0
    3.0991   -9.5878   18.3126 H   0  0  0  0  0
    3.7956   -7.9508   18.6382 H   0  0  0  0  0
  2  1  2  0  0  0
  2  3  1  0  0  0
  3  4  1  0  0  0
  4  7  1  0  0  0
  4  6  1  0  0  0
  4  5  1  0  0  0
 18  8  1  0  0  0
 18 19  1  0  0  0
 10 18  1  0  0  0
 10 11  1  0  0  0
  9 10  1  0  0  0
 11 12  1  0  0  0
 12 14  4  0  0  0
 12 13  4  0  0  0
 13 15  4  0  0  0
 15 17  4  0  0  0
 16 17  4  0  0  0
 14 16  4  0  0  0
 21 22  1  0  0  0
 21 24  1  0  0  0
 20 21  1  0  0  0
 24 25  1  0  0  0
 25 27  4  0  0  0
 25 26  4  0  0  0
 26 28  4  0  0  0
 28 30  4  0  0  0
 30 31  1  0  0  0
 29 30  4  0  0  0
 27 29  4  0  0  0
 22 23  2  0  0  0
 33 34  1  0  0  0
 33 36  1  0  0  0
 32 33  1  0  0  0
 36 37  1  0  0  0
 36 38  1  0  0  0
 37 39  1  0  0  0
 34 35  2  0  0  0
 41 42  1  0  0  0
 40 41  1  0  0  0
 22 32  1  0  0  0
 34 40  1  0  0  0
  8 20  1  0  0  0
 31 43  1  0  0  0
 43 42  1  0  0  0
  9  2  1  0  0  0
  5 44  1  0  0  0
  5 45  1  0  0  0
  5 46  1  0  0  0
  6 47  1  0  0  0
  6 48  1  0  0  0
  6 49  1  0  0  0
  7 50  1  0  0  0
  7 51  1  0  0  0
  7 52  1  0  0  0
  8 53  1  0  0  0
  8 54  1  0  0  0
  9 55  1  0  0  0
 10 56  1  0  0  0
 11 57  1  0  0  0
 11 58  1  0  0  0
 13 59  1  0  0  0
 14 60  1  0  0  0
 15 61  1  0  0  0
 16 62  1  0  0  0
 17 63  1  0  0  0
 18 64  1  0  0  0
 19 65  1  0  0  0
 20 66  1  0  0  0
 20 67  1  0  0  0
 21 68  1  0  0  0
 24 69  1  0  0  0
 24 70  1  0  0  0
 26 71  1  0  0  0
 27 72  1  0  0  0
 28 73  1  0  0  0
 29 74  1  0  0  0
 32 75  1  0  0  0
 33 76  1  0  0  0
 36 77  1  0  0  0
 37 78  1  0  0  0
 37 79  1  0  0  0
 38 80  1  0  0  0
 38 81  1  0  0  0
 38 82  1  0  0  0
 39 83  1  0  0  0
 39 84  1  0  0  0
 39 85  1  0  0  0
 40 86  1  0  0  0
 41 87  1  0  0  0
 41 88  1  0  0  0
 42 89  1  0  0  0
 42 90  1  0  0  0
 43 91  1  0  0  0
 43 92  1  0  0  0
M  END
$$$$
