6hk7_ligand
  -I-interpret- 

 55 57  0  0  0  0  0  0  0  0999 V2000
  -14.8810  -17.1030  -63.7340 N   0  3  0  0  0
  -15.5180  -17.8650  -62.8310 C   0  0  0  0  0
   -9.1170  -20.0550  -56.1810 N   0  0  0  0  0
  -14.7040  -15.5190  -61.7940 C   0  0  0  0  0
   -7.2360  -15.5750  -56.5470 N   0  0  0  0  0
  -13.8430  -17.5460  -57.8280 C   0  0  0  0  0
  -12.4870  -16.0640  -59.2130 C   0  0  0  0  0
  -10.1930  -18.1350  -56.9830 C   0  0  0  0  0
  -10.2050  -19.4950  -56.6950 C   0  0  0  0  0
   -8.0070  -17.9880  -56.2580 C   0  0  0  0  0
   -6.8440  -17.0050  -56.1080 C   0  0  0  0  0
   -6.3210  -14.4080  -56.5070 C   0  0  0  0  0
   -5.5960  -14.4340  -55.0970 C   0  0  0  0  0
  -15.0060  -17.6410  -61.3950 C   0  0  0  0  0
   -4.4050  -12.5520  -55.7270 C   0  0  0  0  0
  -15.3040  -17.2550  -64.9840 C   0  0  0  0  0
  -14.7330  -15.8160  -63.3210 C   0  0  0  0  0
  -15.3120  -16.4010  -60.9810 N   0  0  0  0  0
  -15.2540  -16.0740  -59.4740 S   0  0  0  0  0
  -16.4440  -16.7970  -58.4690 O   0  0  0  0  0
  -15.4630  -14.4570  -59.3260 O   0  0  0  0  0
  -13.6970  -16.5600  -58.7900 C   0  0  0  0  0
  -12.6850  -18.0490  -57.2460 C   0  0  0  0  0
  -11.4490  -17.5460  -57.6060 C   0  0  0  0  0
  -11.3120  -16.5640  -58.6210 C   0  0  0  0  0
   -7.9900  -19.3780  -55.9580 C   0  0  0  0  0
   -9.1170  -17.4090  -56.7790 N   0  0  0  0  0
   -5.7440  -17.3780  -55.7340 O   0  0  0  0  0
   -6.8670  -20.1880  -55.4390 N   0  0  0  0  0
   -5.0670  -13.2060  -54.6640 O   0  0  0  0  0
  -15.3408  -18.9088  -63.0900 H   0  0  0  0  0
  -16.5746  -17.5984  -62.8545 H   0  0  0  0  0
  -15.2434  -14.5805  -61.6663 H   0  0  0  0  0
  -13.6515  -15.5346  -61.5109 H   0  0  0  0  0
   -8.1860  -15.4243  -56.8863 H   0  0  0  0  0
  -14.8276  -17.9132  -57.5386 H   0  0  0  0  0
  -12.4384  -15.3006  -59.9895 H   0  0  0  0  0
  -11.0955  -20.0930  -56.8886 H   0  0  0  0  0
   -6.8757  -13.4789  -56.6379 H   0  0  0  0  0
   -5.5924  -14.4618  -57.3159 H   0  0  0  0  0
   -4.7524  -15.1173  -55.1950 H   0  0  0  0  0
   -6.3515  -14.7210  -54.3655 H   0  0  0  0  0
  -13.9232  -17.7651  -61.3792 H   0  0  0  0  0
  -15.4782  -18.3652  -60.7311 H   0  0  0  0  0
   -3.5920  -13.1813  -56.0890 H   0  0  0  0  0
   -5.1122  -12.3688  -56.5359 H   0  0  0  0  0
   -4.0018  -11.6031  -55.3733 H   0  0  0  0  0
  -16.2786  -16.7801  -65.0967 H   0  0  0  0  0
  -14.5915  -16.7914  -65.6662 H   0  0  0  0  0
  -15.3878  -18.3178  -65.2112 H   0  0  0  0  0
  -14.6365  -15.0077  -64.0459 H   0  0  0  0  0
  -12.7521  -18.8434  -56.5027 H   0  0  0  0  0
  -10.3296  -16.2087  -58.9319 H   0  0  0  0  0
   -6.9907  -21.1877  -55.2785 H   0  0  0  0  0
   -5.9687  -19.7471  -55.2415 H   0  0  0  0  0
  2  1  1  0  0  0
  1 16  1  0  0  0
 17  1  2  0  0  0
 14  2  1  0  0  0
  9  3  4  0  0  0
  3 26  4  0  0  0
  4 17  1  0  0  0
 18  4  1  0  0  0
 11  5  1  0  0  0
  5 12  1  0  0  0
  6 22  4  0  0  0
 23  6  4  0  0  0
 22  7  4  0  0  0
  7 25  4  0  0  0
  8  9  4  0  0  0
 24  8  1  0  0  0
  8 27  4  0  0  0
 10 11  1  0  0  0
 10 26  4  0  0  0
 27 10  4  0  0  0
 11 28  2  0  0  0
 12 13  1  0  0  0
 13 30  1  0  0  0
 18 14  1  0  0  0
 30 15  1  0  0  0
 19 18  1  0  0  0
 19 20  2  0  0  0
 19 21  2  0  0  0
 22 19  1  0  0  0
 23 24  4  0  0  0
 24 25  4  0  0  0
 26 29  1  0  0  0
  2 31  1  0  0  0
  2 32  1  0  0  0
  4 33  1  0  0  0
  4 34  1  0  0  0
  5 35  1  0  0  0
  6 36  1  0  0  0
  7 37  1  0  0  0
  9 38  1  0  0  0
 12 39  1  0  0  0
 12 40  1  0  0  0
 13 41  1  0  0  0
 13 42  1  0  0  0
 14 43  1  0  0  0
 14 44  1  0  0  0
 15 45  1  0  0  0
 15 46  1  0  0  0
 15 47  1  0  0  0
 16 48  1  0  0  0
 16 49  1  0  0  0
 16 50  1  0  0  0
 17 51  1  0  0  0
 23 52  1  0  0  0
 25 53  1  0  0  0
 29 54  1  0  0  0
 29 55  1  0  0  0
M  END
$$$$
