2wmv_ligand
  -I-interpret- 

 31 33  0  0  0  0  0  0  0  0999 V2000
   12.1790   -1.6350    7.5780 C   0  0  0  0  0
   11.0220   -1.9050    8.1590 N   0  0  0  0  0
   10.1690   -0.9350    7.8400 C   0  0  0  0  0
   10.7770   -0.0500    7.0580 N   0  0  0  0  0
   12.0230   -0.4580    6.8760 C   0  0  0  0  0
   13.0570    0.0410    6.1890 N   0  0  0  0  0
   14.2190   -0.5830    6.1830 C   0  0  0  0  0
   14.4000   -1.7120    6.8440 N   0  0  0  0  0
   13.4100   -2.2650    7.5550 C   0  0  0  0  0
   13.6300   -3.4650    8.2390 N   0  0  0  0  0
   12.5460   -4.2530    8.8430 C   0  0  0  0  0
   14.9330   -4.1310    8.2130 C   0  0  0  0  0
   15.2900   -4.6580    9.5940 C   0  0  0  0  0
   14.3150   -5.5980   10.0630 O   0  0  0  0  0
   13.0580   -4.9020   10.1350 C   0  0  0  0  0
   13.5060   -3.8390   11.1240 C   0  0  0  0  0
   13.9960   -4.4980   12.3410 N   0  3  0  0  0
    9.1317   -0.8757    8.1694 H   0  0  0  0  0
   15.0491   -0.1571    5.6195 H   0  0  0  0  0
   12.2230   -5.0269    8.1467 H   0  0  0  0  0
   11.7013   -3.6022    9.0691 H   0  0  0  0  0
   15.6914   -3.4128    7.9013 H   0  0  0  0  0
   14.8891   -4.9674    7.5154 H   0  0  0  0  0
   15.3224   -3.8177   10.2875 H   0  0  0  0  0
   16.2550   -5.1612    9.5337 H   0  0  0  0  0
   12.2144   -5.5477   10.3791 H   0  0  0  0  0
   12.6673   -3.1876   11.3699 H   0  0  0  0  0
   14.3022   -3.2386   10.6840 H   0  0  0  0  0
   14.2990   -3.7908   13.0107 H   0  0  0  0  0
   13.2461   -5.0558   12.7496 H   0  0  0  0  0
   14.7821   -5.1036   12.1052 H   0  0  0  0  0
  1  2  4  0  0  0
  1  5  4  0  0  0
  1  9  4  0  0  0
  2  3  4  0  0  0
  3  4  4  0  0  0
  4  5  4  0  0  0
  5  6  4  0  0  0
  6  7  4  0  0  0
  7  8  4  0  0  0
  8  9  4  0  0  0
  9 10  1  0  0  0
 10 11  1  0  0  0
 10 12  1  0  0  0
 11 15  1  0  0  0
 12 13  1  0  0  0
 13 14  1  0  0  0
 14 15  1  0  0  0
 15 16  1  0  0  0
 16 17  1  0  0  0
  3 18  1  0  0  0
  7 19  1  0  0  0
 11 20  1  0  0  0
 11 21  1  0  0  0
 12 22  1  0  0  0
 12 23  1  0  0  0
 13 24  1  0  0  0
 13 25  1  0  0  0
 15 26  1  0  0  0
 16 27  1  0  0  0
 16 28  1  0  0  0
 17 29  1  0  0  0
 17 30  1  0  0  0
 17 31  1  0  0  0
M  END
$$$$
