5ax9_ligand
  -I-interpret- 

 55 58  0  0  0  0  0  0  0  0999 V2000
  -13.4470  -56.1860  -28.4730 C   0  0  0  0  0
  -14.1960  -57.0360  -29.3120 C   0  0  0  0  0
  -15.2130  -57.8880  -28.8150 C   0  0  0  0  0
  -16.4510  -61.0290  -30.8500 C   0  0  0  0  0
  -18.0460  -59.4400  -30.9600 C   0  0  0  0  0
  -15.6850  -60.1890  -29.7490 C   0  0  0  0  0
  -15.4330  -57.8570  -27.4110 C   0  0  0  0  0
  -14.6680  -57.0120  -26.5930 C   0  0  0  0  0
   -6.8530  -53.9130  -31.1100 C   0  0  0  0  0
   -7.3870  -53.4370  -28.8630 C   0  0  0  0  0
   -8.7330  -53.8620  -28.9580 C   0  0  0  0  0
   -8.1900  -54.3400  -31.2830 C   0  0  0  0  0
  -10.3540  -52.6490  -25.7070 C   0  0  0  0  0
  -11.6940  -54.4370  -26.4280 C   0  0  0  0  0
   -9.6740  -53.7610  -27.7640 C   0  0  0  0  0
  -16.8190  -58.4330  -25.4810 C   0  0  0  0  0
   -9.1540  -54.3280  -30.2620 C   0  0  0  0  0
   -6.3880  -53.4310  -29.8680 C   0  0  0  0  0
  -10.7920  -54.5910  -27.5590 C   0  0  0  0  0
  -11.4310  -53.4530  -25.5130 N   0  0  0  0  0
   -9.4780  -52.7680  -26.7930 C   0  0  0  0  0
   -5.0120  -52.9650  -29.6150 C   0  0  0  0  0
  -10.4600  -54.7760  -30.5180 O   0  0  0  0  0
  -10.8570  -55.2960  -31.7860 C   0  0  0  0  0
  -13.6570  -56.1460  -27.0650 C   0  0  0  0  0
  -16.4180  -58.6780  -26.8440 O   0  0  0  0  0
  -15.9560  -58.7530  -29.6820 N   0  0  0  0  0
  -17.1290  -60.1840  -31.7530 O   0  0  0  0  0
  -17.3590  -58.4660  -29.9380 C   0  0  0  0  0
  -12.8600  -55.2630  -26.1930 N   0  0  0  0  0
   -3.9300  -52.5930  -29.3850 N   0  0  0  0  0
  -12.6863  -55.5418  -28.9140 H   0  0  0  0  0
  -13.9851  -57.0378  -30.3814 H   0  0  0  0  0
  -17.1818  -61.6685  -30.3550 H   0  0  0  0  0
  -15.7237  -61.6212  -31.4055 H   0  0  0  0  0
  -18.6304  -60.1562  -30.3825 H   0  0  0  0  0
  -18.6412  -58.8298  -31.6394 H   0  0  0  0  0
  -14.6274  -60.2758  -29.9981 H   0  0  0  0  0
  -16.0131  -60.5936  -28.7915 H   0  0  0  0  0
  -14.8672  -57.0247  -25.5214 H   0  0  0  0  0
   -6.1661  -53.9572  -31.9552 H   0  0  0  0  0
   -7.0770  -53.0645  -27.8866 H   0  0  0  0  0
   -8.4900  -54.6998  -32.2672 H   0  0  0  0  0
  -10.1601  -51.8653  -24.9747 H   0  0  0  0  0
  -15.9554  -58.5405  -24.8246 H   0  0  0  0  0
  -17.2173  -57.4218  -25.3970 H   0  0  0  0  0
  -17.5864  -59.1521  -25.1945 H   0  0  0  0  0
  -10.9908  -55.3843  -28.2795 H   0  0  0  0  0
   -8.6357  -52.0823  -26.8846 H   0  0  0  0  0
  -10.7112  -54.5339  -32.5516 H   0  0  0  0  0
  -10.2529  -56.1717  -32.0234 H   0  0  0  0  0
  -11.9091  -55.5782  -31.7482 H   0  0  0  0  0
  -17.8854  -58.5750  -28.9898 H   0  0  0  0  0
  -17.4069  -57.4658  -30.3685 H   0  0  0  0  0
  -13.1980  -55.2269  -25.2313 H   0  0  0  0  0
  1  2  4  0  0  0
 25  1  4  0  0  0
  2  3  4  0  0  0
  7  3  4  0  0  0
  3 27  1  0  0  0
  6  4  1  0  0  0
  4 28  1  0  0  0
 28  5  1  0  0  0
  5 29  1  0  0  0
 27  6  1  0  0  0
  8  7  4  0  0  0
  7 26  1  0  0  0
 25  8  4  0  0  0
 12  9  4  0  0  0
 18  9  4  0  0  0
 11 10  4  0  0  0
 10 18  4  0  0  0
 15 11  1  0  0  0
 11 17  4  0  0  0
 17 12  4  0  0  0
 20 13  4  0  0  0
 13 21  4  0  0  0
 14 19  4  0  0  0
 14 20  4  0  0  0
 30 14  1  0  0  0
 19 15  4  0  0  0
 15 21  4  0  0  0
 26 16  1  0  0  0
 17 23  1  0  0  0
 18 22  1  0  0  0
 22 31  3  0  0  0
 23 24  1  0  0  0
 25 30  1  0  0  0
 27 29  1  0  0  0
  1 32  1  0  0  0
  2 33  1  0  0  0
  4 34  1  0  0  0
  4 35  1  0  0  0
  5 36  1  0  0  0
  5 37  1  0  0  0
  6 38  1  0  0  0
  6 39  1  0  0  0
  8 40  1  0  0  0
  9 41  1  0  0  0
 10 42  1  0  0  0
 12 43  1  0  0  0
 13 44  1  0  0  0
 16 45  1  0  0  0
 16 46  1  0  0  0
 16 47  1  0  0  0
 19 48  1  0  0  0
 21 49  1  0  0  0
 24 50  1  0  0  0
 24 51  1  0  0  0
 24 52  1  0  0  0
 29 53  1  0  0  0
 29 54  1  0  0  0
 30 55  1  0  0  0
M  END
$$$$
