2zx5_ligand
  -I-interpret- 

 50 52  0  0  0  0  0  0  0  0999 V2000
   -4.8310   27.3170   29.2230 C   0  0  0  0  0
   -4.6060   27.8180   27.9450 C   0  0  0  0  0
   -5.5490   27.6040   26.9460 C   0  0  0  0  0
   -6.7130   26.8940   27.2200 C   0  0  0  0  0
   -6.9370   26.3970   28.4990 C   0  0  0  0  0
   -5.9940   26.6100   29.4990 C   0  0  0  0  0
   -5.9350   26.2430   30.7770 N   0  0  0  0  0
   -4.7990   26.6780   31.3190 C   0  0  0  0  0
   -4.0940   27.3350   30.4020 C   0  0  0  0  0
   -2.7100   27.9510   30.6040 C   0  0  0  0  0
   -1.6340   26.8640   30.5820 C   0  0  0  0  0
   -1.6930   26.0310   29.2980 C   0  0  0  0  0
   -1.8070   24.8080   29.3570 O   0  0  0  0  0
   -1.6040   26.7010   28.1520 N   0  0  0  0  0
   -1.6410   26.0200   26.8490 C   0  0  0  0  0
   -1.4040   27.0300   25.7230 C   0  0  0  0  0
    0.0300   27.3410   25.6130 N   0  3  0  0  0
    0.2420   28.4320   24.6470 C   0  0  0  0  0
    1.7310   28.7740   24.6030 C   0  0  0  0  0
   -0.2690   28.0510   23.2530 C   0  0  0  0  0
    0.5370   27.0070   22.6980 O   0  0  0  0  0
   -1.7240   27.5840   23.3100 C   0  0  0  0  0
   -2.0950   27.0690   22.0290 O   0  0  0  0  0
   -1.8760   26.4890   24.3710 C   0  0  0  0  0
   -3.2430   26.0790   24.4590 O   0  0  0  0  0
   -3.6949   28.3756   27.7278 H   0  0  0  0  0
   -5.3752   27.9945   25.9433 H   0  0  0  0  0
   -7.4487   26.7274   26.4331 H   0  0  0  0  0
   -7.8492   25.8419   28.7175 H   0  0  0  0  0
   -4.4942   26.5202   32.3535 H   0  0  0  0  0
   -2.6840   28.4567   31.5692 H   0  0  0  0  0
   -2.5157   28.6592   29.7985 H   0  0  0  0  0
   -1.8012   26.1993   31.4296 H   0  0  0  0  0
   -0.6581   27.3469   30.6325 H   0  0  0  0  0
   -1.5073   27.7161   28.1779 H   0  0  0  0  0
   -2.6181   25.5560   26.7146 H   0  0  0  0  0
   -0.8600   25.2602   26.8193 H   0  0  0  0  0
   -1.9748   27.9248   25.9713 H   0  0  0  0  0
    0.5279   26.5104   25.2927 H   0  0  0  0  0
    0.3793   27.6315   26.5262 H   0  0  0  0  0
   -0.3249   29.3056   24.9690 H   0  0  0  0  0
    2.0594   29.0896   25.5933 H   0  0  0  0  0
    2.2956   27.8940   24.2949 H   0  0  0  0  0
    1.8961   29.5814   23.8896 H   0  0  0  0  0
   -0.2071   28.9381   22.6226 H   0  0  0  0  0
    0.2066   26.7783   21.8262 H   0  0  0  0  0
   -2.3697   28.4221   23.5724 H   0  0  0  0  0
   -3.0080   26.7734   22.0564 H   0  0  0  0  0
   -1.2705   25.6265   24.0925 H   0  0  0  0  0
   -3.5301   25.7415   23.6074 H   0  0  0  0  0
  1  2  4  0  0  0
  1  6  4  0  0  0
  1  9  4  0  0  0
  2  3  4  0  0  0
  3  4  4  0  0  0
  4  5  4  0  0  0
  5  6  4  0  0  0
  6  7  4  0  0  0
  7  8  4  0  0  0
  8  9  4  0  0  0
  9 10  1  0  0  0
 10 11  1  0  0  0
 11 12  1  0  0  0
 12 13  2  0  0  0
 12 14  1  0  0  0
 14 15  1  0  0  0
 15 16  1  0  0  0
 16 17  1  0  0  0
 16 24  1  0  0  0
 17 18  1  0  0  0
 18 19  1  0  0  0
 18 20  1  0  0  0
 20 21  1  0  0  0
 20 22  1  0  0  0
 22 23  1  0  0  0
 22 24  1  0  0  0
 24 25  1  0  0  0
  2 26  1  0  0  0
  3 27  1  0  0  0
  4 28  1  0  0  0
  5 29  1  0  0  0
  8 30  1  0  0  0
 10 31  1  0  0  0
 10 32  1  0  0  0
 11 33  1  0  0  0
 11 34  1  0  0  0
 14 35  1  0  0  0
 15 36  1  0  0  0
 15 37  1  0  0  0
 16 38  1  0  0  0
 17 39  1  0  0  0
 17 40  1  0  0  0
 18 41  1  0  0  0
 19 42  1  0  0  0
 19 43  1  0  0  0
 19 44  1  0  0  0
 20 45  1  0  0  0
 21 46  1  0  0  0
 22 47  1  0  0  0
 23 48  1  0  0  0
 24 49  1  0  0  0
 25 50  1  0  0  0
M  END
$$$$
