4aml_ligand
  -I-interpret- 

 43 43  0  0  0  0  0  0  0  0999 V2000
   -6.1140   42.9680    5.0490 C   0  0  0  0  0
   -6.5730   44.0800    5.2990 O   0  0  0  0  0
   -7.1390   41.8820    5.0090 O   0  0  0  0  0
   -3.8200   43.4560    4.6210 C   0  0  0  0  0
   -3.2050   43.6130    5.9940 C   0  0  0  0  0
   -2.5210   42.3370    6.4600 C   0  0  0  0  0
   -8.4400   40.5440    6.3690 C   0  0  0  0  0
   -7.2390   40.0190    6.8640 N   0  0  0  0  0
   -7.0020   39.6840    8.2060 C   0  0  0  0  0
   -7.9550   39.8300    8.9500 O   0  0  0  0  0
   -5.6330   39.2050    8.6190 C   0  0  0  0  0
   -8.7870   39.7270    5.1160 C   0  0  0  0  0
   -9.0600   38.3270    5.6070 O   0  0  0  0  0
  -10.0070   40.2310    4.5270 C   0  0  0  0  0
  -10.2710   39.4510    3.3160 O   0  0  0  0  0
   -8.3010   42.0310    5.8530 C   0  0  0  0  0
   -9.4310   42.4380    5.2200 O   0  0  0  0  0
   -4.9430   42.5030    4.8310 N   0  0  0  0  0
   -9.8020   41.7010    4.0420 C   0  0  0  0  0
  -11.1220   42.3050    3.6830 C   0  0  0  0  0
  -11.0580   43.7250    3.2410 O   0  0  0  0  0
   -3.1014   43.0898    3.8878 H   0  0  0  0  0
   -4.1590   44.4073    4.2109 H   0  0  0  0  0
   -4.0013   43.8505    6.6994 H   0  0  0  0  0
   -2.4558   44.4031    5.9440 H   0  0  0  0  0
   -3.2519   41.5296    6.5036 H   0  0  0  0  0
   -1.7287   42.0742    5.7591 H   0  0  0  0  0
   -2.0939   42.4960    7.4501 H   0  0  0  0  0
   -9.1738   40.5090    7.1743 H   0  0  0  0  0
   -6.4801   39.8691    6.1992 H   0  0  0  0  0
   -5.2171   39.8904    9.3575 H   0  0  0  0  0
   -5.7136   38.2078    9.0517 H   0  0  0  0  0
   -4.9822   39.1718    7.7452 H   0  0  0  0  0
   -7.9850   39.7745    4.3793 H   0  0  0  0  0
   -9.2844   37.7656    4.8613 H   0  0  0  0  0
  -10.8086   40.1704    5.2631 H   0  0  0  0  0
  -11.0786   39.7661    2.9035 H   0  0  0  0  0
   -8.1805   42.8075    6.6084 H   0  0  0  0  0
   -4.7816   41.4963    4.8016 H   0  0  0  0  0
   -9.0963   41.7244    3.2116 H   0  0  0  0  0
  -11.7368   42.2806    4.5827 H   0  0  0  0  0
  -11.5163   41.7299    2.8452 H   0  0  0  0  0
  -11.9424   44.0337    3.0309 H   0  0  0  0  0
  1  2  2  0  0  0
  3  1  1  0  0  0
  1 18  1  0  0  0
 16  3  1  0  0  0
  4  5  1  0  0  0
 18  4  1  0  0  0
  5  6  1  0  0  0
  7  8  1  0  0  0
  7 12  1  0  0  0
  7 16  1  0  0  0
  8  9  1  0  0  0
  9 10  2  0  0  0
  9 11  1  0  0  0
 12 13  1  0  0  0
 12 14  1  0  0  0
 14 15  1  0  0  0
 14 19  1  0  0  0
 16 17  1  0  0  0
 17 19  1  0  0  0
 19 20  1  0  0  0
 20 21  1  0  0  0
  4 22  1  0  0  0
  4 23  1  0  0  0
  5 24  1  0  0  0
  5 25  1  0  0  0
  6 26  1  0  0  0
  6 27  1  0  0  0
  6 28  1  0  0  0
  7 29  1  0  0  0
  8 30  1  0  0  0
 11 31  1  0  0  0
 11 32  1  0  0  0
 11 33  1  0  0  0
 12 34  1  0  0  0
 13 35  1  0  0  0
 14 36  1  0  0  0
 15 37  1  0  0  0
 16 38  1  0  0  0
 18 39  1  0  0  0
 19 40  1  0  0  0
 20 41  1  0  0  0
 20 42  1  0  0  0
 21 43  1  0  0  0
M  END
$$$$
