4jbo_ligand
  -I-interpret- 

 73 77  0  0  0  0  0  0  0  0999 V2000
   -0.3580  -37.7430   -0.2280 C   0  0  0  0  0
   -0.8140  -37.4240    1.1390 N   0  3  0  0  0
   -1.8140  -38.4010    1.6240 C   0  0  0  0  0
    0.3440  -37.3860    2.0540 C   0  0  0  0  0
    0.0170  -36.4670    3.2330 C   0  0  0  0  0
   -0.6120  -35.2720    2.7170 O   0  0  0  0  0
   -1.2470  -34.4650    3.6170 C   0  0  0  0  0
   -1.0630  -34.6130    4.9890 C   0  0  0  0  0
   -1.7230  -33.7600    5.8700 C   0  0  0  0  0
   -2.0910  -33.4580    3.1430 C   0  0  0  0  0
   -2.7570  -32.6020    4.0250 C   0  0  0  0  0
   -2.5690  -32.7480    5.4030 C   0  0  0  0  0
   -3.2200  -31.9410    6.3390 C   0  0  0  0  0
   -2.9480  -32.1060    7.6650 O   0  0  0  0  0
   -4.1580  -30.9880    6.1990 C   0  0  0  0  0
   -4.4770  -30.5270    7.4180 C   0  0  0  0  0
   -3.7150  -31.2300    8.3490 C   0  0  0  0  0
   -3.8280  -30.9780    9.6600 N   0  0  0  0  0
   -4.6730  -30.0520   10.0850 C   0  0  0  0  0
   -5.4180  -29.3560    9.2400 N   0  0  0  0  0
   -5.3570  -29.5580    7.9120 C   0  0  0  0  0
   -6.1470  -28.8320    7.1210 N   0  0  0  0  0
   -6.9990  -27.7540    7.6680 C   0  0  0  0  0
   -8.4130  -28.2390    8.0190 C   0  0  0  0  0
   -9.2530  -27.0500    8.5060 C   0  0  0  0  0
  -10.2150  -26.4720    7.6810 C   0  0  0  0  0
  -10.9610  -25.3800    8.1220 C   0  0  0  0  0
   -9.0390  -26.5220    9.7760 C   0  0  0  0  0
   -9.7860  -25.4350   10.2220 C   0  0  0  0  0
  -10.7390  -24.8430    9.3950 C   0  0  0  0  0
  -11.4570  -23.8120    9.8750 N   0  0  0  0  0
  -11.7590  -22.6860    9.2090 C   0  0  0  0  0
  -11.3650  -22.4670    8.0640 O   0  0  0  0  0
  -12.5210  -21.8190    9.8960 N   0  0  0  0  0
  -12.9760  -20.6320    9.4570 C   0  0  0  0  0
  -13.6420  -19.8140   10.3710 C   0  0  0  0  0
  -14.1560  -18.5760    9.9960 C   0  0  0  0  0
  -14.0110  -18.1450    8.6830 C   0  0  0  0  0
  -13.3570  -18.9530    7.7570 C   0  0  0  0  0
  -12.8450  -20.1930    8.1390 C   0  0  0  0  0
    0.3432  -36.9788   -0.5633 H   0  0  0  0  0
    0.1349  -38.7152   -0.2276 H   0  0  0  0  0
   -1.2165  -37.7698   -0.8991 H   0  0  0  0  0
   -1.2633  -36.5086    1.1160 H   0  0  0  0  0
   -1.3605  -39.3912    1.6691 H   0  0  0  0  0
   -2.1525  -38.1094    2.6182 H   0  0  0  0  0
   -2.6630  -38.4196    0.9407 H   0  0  0  0  0
    1.2186  -37.0079    1.5247 H   0  0  0  0  0
    0.5573  -38.3907    2.4191 H   0  0  0  0  0
    0.9301  -36.2071    3.7686 H   0  0  0  0  0
   -0.6547  -36.9732    3.9262 H   0  0  0  0  0
   -0.4052  -35.3932    5.3720 H   0  0  0  0  0
   -1.5779  -33.8830    6.9433 H   0  0  0  0  0
   -2.2325  -33.3378    2.0689 H   0  0  0  0  0
   -3.4187  -31.8256    3.6410 H   0  0  0  0  0
   -4.5862  -30.6479    5.2561 H   0  0  0  0  0
   -4.7575  -29.8581   11.1543 H   0  0  0  0  0
   -6.1642  -29.0236    6.1193 H   0  0  0  0  0
   -7.0896  -26.9793    6.9066 H   0  0  0  0  0
   -6.5326  -27.3899    8.5834 H   0  0  0  0  0
   -8.3552  -28.9908    8.8061 H   0  0  0  0  0
   -8.8781  -28.6758    7.1352 H   0  0  0  0  0
  -10.3858  -26.8764    6.6833 H   0  0  0  0  0
  -11.7198  -24.9430    7.4730 H   0  0  0  0  0
   -8.2821  -26.9621   10.4252 H   0  0  0  0  0
   -9.6242  -25.0437   11.2264 H   0  0  0  0  0
  -11.8033  -23.8928   10.8310 H   0  0  0  0  0
  -12.7804  -22.0877   10.8452 H   0  0  0  0  0
  -13.7622  -20.1518   11.4003 H   0  0  0  0  0
  -14.6681  -17.9497   10.7264 H   0  0  0  0  0
  -14.4083  -17.1767    8.3788 H   0  0  0  0  0
  -13.2443  -18.6145    6.7270 H   0  0  0  0  0
  -12.3406  -20.8215    7.4051 H   0  0  0  0  0
  1  2  1  0  0  0
  2  3  1  0  0  0
  2  4  1  0  0  0
  4  5  1  0  0  0
  5  6  1  0  0  0
  6  7  1  0  0  0
  7  8  4  0  0  0
  7 10  4  0  0  0
  8  9  4  0  0  0
  9 12  4  0  0  0
 10 11  4  0  0  0
 11 12  4  0  0  0
 12 13  1  0  0  0
 13 14  4  0  0  0
 13 15  4  0  0  0
 14 17  4  0  0  0
 15 16  4  0  0  0
 16 17  4  0  0  0
 16 21  4  0  0  0
 17 18  4  0  0  0
 18 19  4  0  0  0
 19 20  4  0  0  0
 20 21  4  0  0  0
 21 22  1  0  0  0
 22 23  1  0  0  0
 23 24  1  0  0  0
 24 25  1  0  0  0
 25 26  4  0  0  0
 25 28  4  0  0  0
 26 27  4  0  0  0
 27 30  4  0  0  0
 28 29  4  0  0  0
 29 30  4  0  0  0
 30 31  1  0  0  0
 31 32  1  0  0  0
 32 33  2  0  0  0
 32 34  1  0  0  0
 34 35  1  0  0  0
 35 36  4  0  0  0
 35 40  4  0  0  0
 36 37  4  0  0  0
 37 38  4  0  0  0
 38 39  4  0  0  0
 39 40  4  0  0  0
  1 41  1  0  0  0
  1 42  1  0  0  0
  1 43  1  0  0  0
  2 44  1  0  0  0
  3 45  1  0  0  0
  3 46  1  0  0  0
  3 47  1  0  0  0
  4 48  1  0  0  0
  4 49  1  0  0  0
  5 50  1  0  0  0
  5 51  1  0  0  0
  8 52  1  0  0  0
  9 53  1  0  0  0
 10 54  1  0  0  0
 11 55  1  0  0  0
 15 56  1  0  0  0
 19 57  1  0  0  0
 22 58  1  0  0  0
 23 59  1  0  0  0
 23 60  1  0  0  0
 24 61  1  0  0  0
 24 62  1  0  0  0
 26 63  1  0  0  0
 27 64  1  0  0  0
 28 65  1  0  0  0
 29 66  1  0  0  0
 31 67  1  0  0  0
 34 68  1  0  0  0
 36 69  1  0  0  0
 37 70  1  0  0  0
 38 71  1  0  0  0
 39 72  1  0  0  0
 40 73  1  0  0  0
M  END
$$$$
