4est_ligand
  -I-interpret- 

 72 73  0  0  0  0  0  0  0  0999 V2000
  -15.7140   18.5650   39.5850 C   0  0  0  0  0
  -15.1390   17.4920   39.2350 O   0  0  0  0  0
  -16.6380   18.6530   40.8010 C   0  0  0  0  0
  -15.6320   19.7190   38.9060 N   0  0  0  0  0
  -14.8230   19.8430   37.7090 C   0  0  0  0  0
  -13.5520   20.6370   38.0640 C   0  0  0  0  0
  -13.5300   21.8720   38.0000 O   0  0  0  0  0
  -15.6560   20.5910   36.6980 C   0  0  0  0  0
  -12.5350   19.9370   38.5850 N   0  0  0  0  0
  -11.2670   20.5480   38.9520 C   0  0  0  0  0
  -10.8150   21.3500   37.7690 C   0  0  0  0  0
  -10.7290   20.8130   36.6500 O   0  0  0  0  0
  -10.2700   19.4580   39.1440 C   0  0  0  0  0
  -10.9600   18.1360   38.7770 C   0  0  0  0  0
  -12.4030   18.5000   38.4260 C   0  0  0  0  0
  -10.5810   22.6310   38.0010 N   0  0  0  0  0
  -10.1080   23.6630   37.0890 C   0  0  0  0  0
   -8.5480   23.7550   37.1250 C   0  0  0  0  0
   -8.1160   24.9530   36.5630 O   0  0  0  0  0
  -10.7780   24.9550   37.5420 C   0  0  0  0  0
  -12.1960   24.7750   37.1310 C   0  0  0  0  0
  -10.6960   25.1770   39.0450 C   0  0  0  0  0
   -7.9720   22.7280   36.1770 C   0  0  0  0  0
   -7.9340   21.4980   36.5290 F   0  0  0  0  0
   -8.6720   22.5810   35.1320 F   0  0  0  0  0
   -6.7660   22.9560   35.3890 C   0  0  0  0  0
   -5.9140   22.0690   35.4780 O   0  0  0  0  0
   -7.0740   23.4350   34.1790 N   0  0  0  0  0
   -6.0850   23.4870   33.1180 C   0  0  0  0  0
   -6.8730   23.4210   31.8320 C   0  0  0  0  0
   -6.1460   23.8760   30.5680 C   0  0  0  0  0
   -6.7500   24.8570   29.7430 C   0  0  0  0  0
   -6.1170   25.2590   28.5520 C   0  0  0  0  0
   -4.8410   24.7240   28.2550 C   0  0  0  0  0
   -4.2110   23.7600   29.0910 C   0  0  0  0  0
   -4.8920   23.2880   30.2330 C   0  0  0  0  0
  -17.4763   17.9690   40.6690 H   0  0  0  0  0
  -16.0826   18.3801   41.6983 H   0  0  0  0  0
  -17.0112   19.6724   40.8991 H   0  0  0  0  0
  -16.1522   20.5302   39.2403 H   0  0  0  0  0
  -14.5252   18.8751   37.3057 H   0  0  0  0  0
  -15.9477   21.5561   37.1122 H   0  0  0  0  0
  -15.0720   20.7451   35.7907 H   0  0  0  0  0
  -16.5481   20.0103   36.4632 H   0  0  0  0  0
  -11.3647   21.1559   39.8515 H   0  0  0  0  0
   -9.9234   19.4345   40.1771 H   0  0  0  0  0
   -9.3974   19.6222   38.5118 H   0  0  0  0  0
  -10.9207   17.4264   39.6035 H   0  0  0  0  0
  -10.4603   17.6478   37.9403 H   0  0  0  0  0
  -12.6351   18.2044   37.4028 H   0  0  0  0  0
  -13.1005   17.9761   39.0796 H   0  0  0  0  0
  -10.7573   22.9407   38.9567 H   0  0  0  0  0
  -10.3640   23.4463   36.0519 H   0  0  0  0  0
   -8.2454   23.6342   38.1652 H   0  0  0  0  0
   -7.1573   24.9922   36.5936 H   0  0  0  0  0
  -10.2911   25.8260   37.1034 H   0  0  0  0  0
  -12.2453   24.6387   36.0507 H   0  0  0  0  0
  -12.6085   23.8972   37.6284 H   0  0  0  0  0
  -12.7697   25.6576   37.4137 H   0  0  0  0  0
  -11.1878   24.3519   39.5602 H   0  0  0  0  0
   -9.6499   25.2240   39.3475 H   0  0  0  0  0
  -11.1918   26.1136   39.3002 H   0  0  0  0  0
   -8.0205   23.7696   33.9986 H   0  0  0  0  0
   -5.3730   22.6652   33.1938 H   0  0  0  0  0
   -5.4853   24.3955   33.1739 H   0  0  0  0  0
   -7.7164   24.0999   31.9579 H   0  0  0  0  0
   -7.1173   22.3697   31.6796 H   0  0  0  0  0
   -7.7037   25.2997   30.0304 H   0  0  0  0  0
   -6.5978   25.9651   27.8750 H   0  0  0  0  0
   -4.3239   25.0613   27.3567 H   0  0  0  0  0
   -3.2138   23.3905   28.8518 H   0  0  0  0  0
   -4.4685   22.4917   30.8451 H   0  0  0  0  0
  1  2  2  0  0  0
  1  3  1  0  0  0
  1  4  1  0  0  0
  4  5  1  0  0  0
  5  6  1  0  0  0
  5  8  1  0  0  0
  6  7  2  0  0  0
  6  9  1  0  0  0
  9 10  1  0  0  0
  9 15  1  0  0  0
 10 11  1  0  0  0
 10 13  1  0  0  0
 11 12  2  0  0  0
 11 16  1  0  0  0
 13 14  1  0  0  0
 14 15  1  0  0  0
 16 17  1  0  0  0
 17 18  1  0  0  0
 17 20  1  0  0  0
 18 19  1  0  0  0
 18 23  1  0  0  0
 20 21  1  0  0  0
 20 22  1  0  0  0
 23 24  1  0  0  0
 23 25  1  0  0  0
 23 26  1  0  0  0
 26 27  2  0  0  0
 26 28  1  0  0  0
 28 29  1  0  0  0
 29 30  1  0  0  0
 30 31  1  0  0  0
 31 32  4  0  0  0
 31 36  4  0  0  0
 32 33  4  0  0  0
 33 34  4  0  0  0
 34 35  4  0  0  0
 35 36  4  0  0  0
  3 37  1  0  0  0
  3 38  1  0  0  0
  3 39  1  0  0  0
  4 40  1  0  0  0
  5 41  1  0  0  0
  8 42  1  0  0  0
  8 43  1  0  0  0
  8 44  1  0  0  0
 10 45  1  0  0  0
 13 46  1  0  0  0
 13 47  1  0  0  0
 14 48  1  0  0  0
 14 49  1  0  0  0
 15 50  1  0  0  0
 15 51  1  0  0  0
 16 52  1  0  0  0
 17 53  1  0  0  0
 18 54  1  0  0  0
 19 55  1  0  0  0
 20 56  1  0  0  0
 21 57  1  0  0  0
 21 58  1  0  0  0
 21 59  1  0  0  0
 22 60  1  0  0  0
 22 61  1  0  0  0
 22 62  1  0  0  0
 28 63  1  0  0  0
 29 64  1  0  0  0
 29 65  1  0  0  0
 30 66  1  0  0  0
 30 67  1  0  0  0
 32 68  1  0  0  0
 33 69  1  0  0  0
 34 70  1  0  0  0
 35 71  1  0  0  0
 36 72  1  0  0  0
M  END
$$$$
