4do4_ligand
  -I-interpret- 

 31 31  0  0  0  0  0  0  0  0999 V2000
   58.0300   -1.9300   18.0920 O   0  0  0  0  0
   57.3240   -2.5520   18.8880 C   0  0  0  0  0
   56.4130   -1.8710   19.8950 C   0  0  0  0  0
   57.3220   -3.8880   18.8960 N   0  0  0  0  0
   58.2610   -4.6800   18.1140 C   0  0  0  0  0
   57.6440   -5.5760   17.0750 C   0  0  0  0  0
   56.7370   -4.8760   16.2140 O   0  0  0  0  0
   58.7910   -6.1900   16.2720 C   0  0  0  0  0
   59.5020   -5.1490   15.5950 O   0  0  0  0  0
   59.7340   -6.9340   17.2110 C   0  0  0  0  0
   60.9630   -7.4480   16.4340 C   0  0  0  0  0
   61.8690   -8.1030   17.3410 O   0  0  0  0  0
   60.1930   -6.2030   18.3970 N   0  3  0  0  0
   59.0680   -5.5520   19.0820 C   0  0  0  0  0
   57.0096   -1.2411   20.5549 H   0  0  0  0  0
   55.6837   -1.2573   19.3663 H   0  0  0  0  0
   55.8944   -2.6277   20.4838 H   0  0  0  0  0
   56.6349   -4.3729   19.4732 H   0  0  0  0  0
   58.8705   -3.9640   17.5627 H   0  0  0  0  0
   57.0489   -6.3459   17.5661 H   0  0  0  0  0
   56.0263   -4.4994   16.7381 H   0  0  0  0  0
   58.3911   -6.8921   15.5404 H   0  0  0  0  0
   58.9030   -4.6848   15.0057 H   0  0  0  0  0
   59.1216   -7.7480   17.5989 H   0  0  0  0  0
   61.4697   -6.6070   15.9606 H   0  0  0  0  0
   60.6390   -8.1563   15.6715 H   0  0  0  0  0
   62.6326   -8.4216   16.8542 H   0  0  0  0  0
   60.8564   -5.4861   18.1032 H   0  0  0  0  0
   60.6297   -6.8635   19.0399 H   0  0  0  0  0
   58.4121   -6.3236   19.4852 H   0  0  0  0  0
   59.4632   -4.9177   19.8754 H   0  0  0  0  0
  1  2  2  0  0  0
  2  3  1  0  0  0
  2  4  1  0  0  0
  4  5  1  0  0  0
  5  6  1  0  0  0
  5 14  1  0  0  0
  6  7  1  0  0  0
  6  8  1  0  0  0
  8  9  1  0  0  0
  8 10  1  0  0  0
 10 11  1  0  0  0
 10 13  1  0  0  0
 11 12  1  0  0  0
 13 14  1  0  0  0
  3 15  1  0  0  0
  3 16  1  0  0  0
  3 17  1  0  0  0
  4 18  1  0  0  0
  5 19  1  0  0  0
  6 20  1  0  0  0
  7 21  1  0  0  0
  8 22  1  0  0  0
  9 23  1  0  0  0
 10 24  1  0  0  0
 11 25  1  0  0  0
 11 26  1  0  0  0
 12 27  1  0  0  0
 13 28  1  0  0  0
 13 29  1  0  0  0
 14 30  1  0  0  0
 14 31  1  0  0  0
M  END
$$$$
