4ua8_ligand
  -I-interpret- 

 66 68  0  0  0  0  0  0  0  0999 V2000
  -34.7210    8.5310   -5.8200 C   0  0  0  0  0
  -34.4890    9.3370   -4.5690 C   0  0  0  0  0
  -33.0780    9.7720   -4.4540 C   0  0  0  0  0
  -32.1720    8.5750   -4.4660 C   0  0  0  0  0
  -32.3690    7.7790   -5.7310 C   0  0  0  0  0
  -31.6290    6.4680   -5.6710 C   0  0  0  0  0
  -34.5810    9.2900   -6.9580 O   0  0  0  0  0
  -35.4300   10.4570   -4.5310 O   0  0  0  0  0
  -32.9520   10.4560   -3.1740 O   0  0  0  0  0
  -30.7930    9.0200   -4.3700 O   0  0  0  0  0
  -33.7690    7.4130   -5.8610 O   0  0  0  0  0
  -31.8080    5.7680   -6.9090 O   0  0  0  0  0
  -30.1300    8.6210   -3.1800 C   0  0  0  0  0
  -29.4940    9.7970   -2.5450 C   0  0  0  0  0
  -28.4400   10.3630   -3.4310 C   0  0  0  0  0
  -27.4200    9.3390   -3.8310 C   0  0  0  0  0
  -28.0920    8.1170   -4.3990 C   0  0  0  0  0
  -27.0860    6.9830   -4.5320 C   0  0  0  0  0
  -30.5160   10.7820   -2.2300 O   0  0  0  0  0
  -27.7700   11.4810   -2.7850 O   0  0  0  0  0
  -26.4880    9.8860   -4.8180 O   0  0  0  0  0
  -29.1230    7.6240   -3.5180 O   0  0  0  0  0
  -27.6810    5.8390   -5.1350 O   0  0  0  0  0
  -25.3240   10.2820   -4.2930 C   0  0  0  0  0
  -24.8270   11.5950   -4.7810 C   0  0  0  0  0
  -24.6030   11.5670   -6.2080 C   0  0  0  0  0
  -23.5920   10.6680   -6.6820 C   0  0  0  0  0
  -24.0420    9.2820   -6.2610 C   0  0  0  0  0
  -23.0800    8.2180   -6.5370 C   0  0  0  0  0
  -25.8720   12.5140   -4.3310 O   0  0  0  0  0
  -24.2450   13.0270   -6.6230 O   0  0  0  0  0
  -23.4420   10.6390   -8.1360 O   0  0  0  0  0
  -24.2050    9.2210   -4.7140 O   0  0  0  0  0
  -23.6490    6.8880   -6.3680 O   0  0  0  0  0
  -35.7460    8.1613   -5.7917 H   0  0  0  0  0
  -34.6755    8.7091   -3.6978 H   0  0  0  0  0
  -32.8030   10.4226   -5.2842 H   0  0  0  0  0
  -32.4113    7.9355   -3.6163 H   0  0  0  0  0
  -32.0127    8.3984   -6.5541 H   0  0  0  0  0
  -32.0188    5.8654   -4.8506 H   0  0  0  0  0
  -30.5677    6.6544   -5.5066 H   0  0  0  0  0
  -35.2028   10.0210   -6.9322 H   0  0  0  0  0
  -36.3266   10.1229   -4.6088 H   0  0  0  0  0
  -33.5304   11.2221   -3.1635 H   0  0  0  0  0
  -31.3374    4.9320   -6.8736 H   0  0  0  0  0
  -30.8456    8.1928   -2.4781 H   0  0  0  0  0
  -29.0066    9.4950   -1.6180 H   0  0  0  0  0
  -28.9455   10.7070   -4.3334 H   0  0  0  0  0
  -26.8623    9.0599   -2.9370 H   0  0  0  0  0
  -28.5117    8.4112   -5.3610 H   0  0  0  0  0
  -26.7343    6.7100   -3.5371 H   0  0  0  0  0
  -26.2615    7.3197   -5.1605 H   0  0  0  0  0
  -30.1062   11.5461   -1.8179 H   0  0  0  0  0
  -27.0955   11.8308   -3.3718 H   0  0  0  0  0
  -27.0269    5.1400   -5.2071 H   0  0  0  0  0
  -25.5023   10.3654   -3.2209 H   0  0  0  0  0
  -23.8517   11.8944   -4.3972 H   0  0  0  0  0
  -25.5149   11.1829   -6.6652 H   0  0  0  0  0
  -22.6362   10.9937   -6.2714 H   0  0  0  0  0
  -24.9587    9.1245   -6.8292 H   0  0  0  0  0
  -22.2553    8.3213   -5.8318 H   0  0  0  0  0
  -22.7610    8.3161   -7.5746 H   0  0  0  0  0
  -25.6473   13.4081   -4.5987 H   0  0  0  0  0
  -24.0862   13.0597   -7.5692 H   0  0  0  0  0
  -22.7501   10.0171   -8.3728 H   0  0  0  0  0
  -22.9792    6.2278   -6.5604 H   0  0  0  0  0
  1  2  1  0  0  0
  1  7  1  0  0  0
  1 11  1  0  0  0
  2  3  1  0  0  0
  2  8  1  0  0  0
  3  4  1  0  0  0
  3  9  1  0  0  0
  4  5  1  0  0  0
  4 10  1  0  0  0
  5  6  1  0  0  0
  5 11  1  0  0  0
  6 12  1  0  0  0
 10 13  1  0  0  0
 13 14  1  0  0  0
 13 22  1  0  0  0
 14 15  1  0  0  0
 14 19  1  0  0  0
 15 16  1  0  0  0
 15 20  1  0  0  0
 16 17  1  0  0  0
 16 21  1  0  0  0
 17 18  1  0  0  0
 17 22  1  0  0  0
 18 23  1  0  0  0
 21 24  1  0  0  0
 24 25  1  0  0  0
 24 33  1  0  0  0
 25 26  1  0  0  0
 25 30  1  0  0  0
 26 27  1  0  0  0
 26 31  1  0  0  0
 27 28  1  0  0  0
 27 32  1  0  0  0
 28 29  1  0  0  0
 28 33  1  0  0  0
 29 34  1  0  0  0
  1 35  1  0  0  0
  2 36  1  0  0  0
  3 37  1  0  0  0
  4 38  1  0  0  0
  5 39  1  0  0  0
  6 40  1  0  0  0
  6 41  1  0  0  0
  7 42  1  0  0  0
  8 43  1  0  0  0
  9 44  1  0  0  0
 12 45  1  0  0  0
 13 46  1  0  0  0
 14 47  1  0  0  0
 15 48  1  0  0  0
 16 49  1  0  0  0
 17 50  1  0  0  0
 18 51  1  0  0  0
 18 52  1  0  0  0
 19 53  1  0  0  0
 20 54  1  0  0  0
 23 55  1  0  0  0
 24 56  1  0  0  0
 25 57  1  0  0  0
 26 58  1  0  0  0
 27 59  1  0  0  0
 28 60  1  0  0  0
 29 61  1  0  0  0
 29 62  1  0  0  0
 30 63  1  0  0  0
 31 64  1  0  0  0
 32 65  1  0  0  0
 34 66  1  0  0  0
M  END
$$$$
