### 
### Created by X-TOOL on Mon Sep 10 21:13:14 2018
### 

@<TRIPOS>MOLECULE
4mzl_ligand
  302   303     1     0     0
SMALL
GAST_HUCK


@<TRIPOS>ATOM
      1 C1         29.7760   -7.6130   19.0550 C.2       1 BUA        -0.0946
      2 C2         29.4450   -8.9560   19.6280 C.3       1 BUA        -0.0194
      3 C3         29.2900   -8.9080   21.0760 C.3       1 BUA         0.0439
      4 C4         28.3160   -7.8330   21.4120 C.2       1 BUA         0.1800
      5 O2         27.0710   -7.9780   21.1140 O.2       1 BUA        -0.3968
      6 N          28.7300   -6.6250   21.9710 N.am      1 ASN        -0.2634
      7 CA         27.8630   -5.4660   22.1850 C.3       1 ASN         0.1475
      8 C          27.7860   -4.5120   20.9950 C.2       1 ASN         0.2063
      9 O          26.7110   -4.0030   20.6740 O.2       1 ASN        -0.3942
     10 CB         28.3110   -4.6810   23.4190 C.3       1 ASN         0.0773
     11 CG         28.0480   -5.4270   24.7170 C.2       1 ASN         0.1780
     12 OD1        27.1530   -6.2770   24.7890 O.2       1 ASN        -0.3970
     13 ND2        28.8400   -5.1270   25.7450 N.am      1 ASN        -0.3007
     14 N          28.9210   -4.2510   20.3520 N.am      1 ILE        -0.2633
     15 CA         28.9600   -3.1970   19.3250 C.3       1 ILE         0.1338
     16 C          28.0890   -3.5640   18.1140 C.2       1 ILE         0.2081
     17 O          27.3490   -2.7350   17.6060 O.2       1 ILE        -0.3940
     18 CB         30.4090   -2.8290   18.9270 C.3       1 ILE        -0.0037
     19 CG1        31.0270   -1.9730   20.0170 C.3       1 ILE        -0.0491
     20 CG2        30.4530   -2.0050   17.6610 C.3       1 ILE        -0.0582
     21 CD1        30.3470   -0.6010   20.1900 C.3       1 ILE        -0.0648
     22 N          28.1480   -4.8150   17.6760 N.am      1 2JC        -0.2446
     23 CA         27.3210   -5.2520   16.5660 C.3       1 2JC         0.1247
     24 C          25.8370   -5.1240   16.8530 C.2       1 2JC         0.2012
     25 O          25.0460   -4.7500   15.9720 O.2       1 2JC        -0.3947
     26 C1         28.9630   -7.0250   18.1790 C.2       1 2JC        -0.0763
     27 C3         29.3100   -5.6930   17.6160 C.3       1 2JC         0.0534
     28 N          25.4480   -5.4330   18.0870 N.am      1 SER        -0.2618
     29 CA         24.0570   -5.2430   18.4900 C.3       1 SER         0.1539
     30 C          23.7040   -3.7670   18.4700 C.2       1 SER         0.2062
     31 O          22.6060   -3.4140   18.0680 O.2       1 SER        -0.3943
     32 CB         23.7680   -5.8430   19.8670 C.3       1 SER         0.0843
     33 OG         24.2690   -5.0330   20.9010 O.3       1 SER        -0.3903
     34 N          24.6200   -2.9060   18.9100 N.am      1 LEU        -0.2636
     35 CA         24.3740   -1.4510   18.8320 C.3       1 LEU         0.1312
     36 C          24.0840   -0.9660   17.4010 C.2       1 LEU         0.2039
     37 O          23.1800   -0.1260   17.1720 O.2       1 LEU        -0.3944
     38 CB         25.5300   -0.6520   19.4670 C.3       1 LEU        -0.0101
     39 CG         25.3260    0.8720   19.4770 C.3       1 LEU        -0.0425
     40 CD1        24.1350    1.2620   20.3680 C.3       1 LEU        -0.0625
     41 CD2        26.5920    1.6160   19.9460 C.3       1 LEU        -0.0625
     42 N          24.8240   -1.4850   16.4290 N.am      1 LEU        -0.2637
     43 CA         24.5580   -1.1200   15.0250 C.3       1 LEU         0.1312
     44 C          23.1550   -1.4820   14.5900 C.2       1 LEU         0.2039
     45 O          22.5540   -0.7840   13.7770 O.2       1 LEU        -0.3944
     46 CB         25.5450   -1.8150   14.0910 C.3       1 LEU        -0.0101
     47 CG         26.7130   -0.9330   13.6740 C.3       1 LEU        -0.0425
     48 CD1        27.5810   -0.5890   14.8570 C.3       1 LEU        -0.0625
     49 CD2        27.5380   -1.6230   12.5940 C.3       1 LEU        -0.0625
     50 N          22.6330   -2.5910   15.1010 N.am      1 ARG        -0.2637
     51 CA         21.2870   -2.9830   14.7270 C.3       1 ARG         0.1311
     52 C          20.2710   -2.0330   15.3590 C.2       1 ARG         0.2039
     53 O          19.2540   -1.6990   14.7430 O.2       1 ARG        -0.3944
     54 CB         21.0210   -4.4430   15.1300 C.3       1 ARG        -0.0092
     55 CG         22.0370   -5.4270   14.5790 C.3       1 ARG        -0.0156
     56 CD         22.1340   -5.3030   13.1000 C.3       1 ARG         0.0627
     57 NE         20.7990   -5.2440   12.5120 N.pl3     1 ARG        -0.2723
     58 CZ         20.4790   -4.5710   11.4140 C.cat     1 ARG         0.2882
     59 NH1        21.4250   -3.9030   10.7560 N.pl3     1 ARG        -0.2849
     60 NH2        19.2100   -4.5750   10.9800 N.pl3     1 ARG        -0.2849
     61 N          20.5520   -1.5770   16.5780 N.am      1 VAL        -0.2635
     62 CA         19.7090   -0.5670   17.2290 C.3       1 VAL         0.1332
     63 C          19.7070    0.7430   16.4450 C.2       1 VAL         0.2042
     64 O          18.6550    1.3320   16.1760 O.2       1 VAL        -0.3944
     65 CB         20.1880   -0.3040   18.6890 C.3       1 VAL        -0.0063
     66 CG1        19.4090    0.8310   19.3300 C.3       1 VAL        -0.0584
     67 CG2        20.0560   -1.5740   19.5400 C.3       1 VAL        -0.0584
     68 N          20.8900    1.1890   16.0520 N.am      1 GLN        -0.2636
     69 CA         21.0120    2.4580   15.3600 C.3       1 GLN         0.1330
     70 C          20.3780    2.3210   13.9830 C.2       1 GLN         0.2040
     71 O          19.7750    3.2610   13.4760 O.2       1 GLN        -0.3944
     72 CB         22.4870    2.8760   15.2720 C.3       1 GLN         0.0045
     73 CG         23.0840    3.2520   16.6340 C.3       1 GLN         0.0412
     74 CD         24.6040    3.1880   16.6620 C.2       1 GLN         0.1737
     75 OE1        25.2120    2.3230   16.0220 O.2       1 GLN        -0.3973
     76 NE2        25.2330    4.1110   17.4130 N.am      1 GLN        -0.3009
     77 N          20.4640    1.1290   13.4030 N.am      1 ALA        -0.2640
     78 CA         19.8730    0.9080   12.0840 C.3       1 ALA         0.1282
     79 C          18.3500    1.0030   12.1290 C.2       1 ALA         0.2037
     80 O          17.7030    1.5830   11.2370 O.2       1 ALA        -0.3944
     81 CB         20.3380   -0.4130   11.5080 C.3       1 ALA        -0.0244
     82 N          17.7560    0.4330   13.1670 N.am      1 HIS        -0.2619
     83 CA         16.2940    0.4730   13.2710 C.3       1 HIS         0.1421
     84 C          15.8320    1.8600   13.6220 C.2       1 HIS         0.2060
     85 O          14.7580    2.2720   13.2110 O.2       1 HIS        -0.3942
     86 CB         15.7680   -0.5710   14.2560 C.3       1 HIS         0.0427
     87 CG         15.7780   -1.9470   13.6840 C.2       1 HIS         0.0561
     88 ND1        14.7770   -2.3950   12.8560 N.pl3     1 HIS        -0.2623
     89 CD2        16.6860   -2.9440   13.7760 C.2       1 HIS        -0.0276
     90 CE1        15.0550   -3.6330   12.4750 C.2       1 HIS         0.0875
     91 NE2        16.1920   -3.9960   13.0320 N.2       1 HIS        -0.3437
     92 N          16.6450    2.5980   14.3720 N.am      1 ILE        -0.2633
     93 CA         16.2990    3.9900   14.6560 C.3       1 ILE         0.1335
     94 C          16.3280    4.8080   13.3590 C.2       1 ILE         0.2042
     95 O          15.4630    5.6480   13.1330 O.2       1 ILE        -0.3944
     96 CB         17.2150    4.6060   15.7530 C.3       1 ILE        -0.0037
     97 CG1        16.8560    4.0470   17.1240 C.3       1 ILE        -0.0491
     98 CG2        17.0930    6.1220   15.7910 C.3       1 ILE        -0.0582
     99 CD1        17.8570    4.4180   18.1910 C.3       1 ILE        -0.0648
    100 N          17.3100    4.5710   12.4950 N.am      1 ARG        -0.2637
    101 CA         17.3760    5.3370   11.2590 C.3       1 ARG         0.1311
    102 C          16.2420    4.9840   10.3210 C.2       1 ARG         0.2039
    103 O          15.7460    5.8270    9.5700 O.2       1 ARG        -0.3944
    104 CB         18.7470    5.1620   10.5780 C.3       1 ARG        -0.0092
    105 CG         19.8910    5.8850   11.3070 C.3       1 ARG        -0.0156
    106 CD         21.1090    6.0420   10.3980 C.3       1 ARG         0.0627
    107 NE         22.0990    6.9090   11.0280 N.pl3     1 ARG        -0.2723
    108 CZ         23.0360    6.4860   11.8700 C.cat     1 ARG         0.2882
    109 NH1        23.1240    5.1950   12.1530 N.pl3     1 ARG        -0.2849
    110 NH2        23.8780    7.3540   12.4280 N.pl3     1 ARG        -0.2849
    111 N          15.8480    3.7250   10.3620 N.am      1 LYS        -0.2637
    112 CA         14.6740    3.2570    9.6330 C.3       1 LYS         0.1310
    113 C          13.4080    3.9850   10.0720 C.2       1 LYS         0.2039
    114 O          12.6180    4.3980    9.2390 O.2       1 LYS        -0.3944
    115 CB         14.4870    1.7510    9.8620 C.3       1 LYS        -0.0122
    116 CG         13.1620    1.2180    9.3230 C.3       1 LYS        -0.0440
    117 CD         12.7960   -0.1440    9.9770 C.3       1 LYS        -0.0124
    118 CE         12.3790    0.0340   11.4460 C.3       1 LYS        -0.0354
    119 NZ         12.1190   -1.2760   12.1220 N.4       1 LYS         0.2185
    120 N          13.2080    4.1310   11.3800 N.am      1 LYS        -0.2637
    121 CA         12.0550    4.8820   11.9040 C.3       1 LYS         0.1310
    122 C          12.0480    6.3670   11.5110 C.2       1 LYS         0.2039
    123 O          10.9740    6.9550   11.3540 O.2       1 LYS        -0.3944
    124 CB         12.0020    4.7610   13.4350 C.3       1 LYS        -0.0126
    125 CG         11.6910    3.3650   13.9600 C.3       1 LYS        -0.0517
    126 CD         10.2070    3.0230   13.7690 C.3       1 LYS        -0.0651
    127 N          13.2290    6.9740   11.3630 N.am      1 MET        -0.2637
    128 CA         13.3300    8.3920   10.9770 C.3       1 MET         0.1317
    129 C          12.7380    8.5680    9.6070 C.2       1 MET         0.2034
    130 O          11.9480    9.4780    9.3500 O.2       1 MET        -0.3944
    131 CB         14.7910    8.8340   10.8710 C.3       1 MET        -0.0034
    132 CG         15.4950    9.1710   12.1620 C.3       1 MET        -0.0024
    133 SD         17.2520    9.4520   11.7900 S.3       1 MET        -0.1639
    134 CE         18.0170    8.5470   13.1330 C.3       1 MET        -0.0181
    135 N          13.1550    7.6840    8.7140 N.am      1 VAL        -0.2668
    136 CA         12.6190    7.6320    7.3650 C.3       1 VAL         0.1249
    137 C          11.2090    7.0890    7.3940 C.2       1 VAL         0.2152
    138 O          11.0110    5.8760    7.3710 O.co2     1 VAL        -0.4120
    139 CB         13.4440    6.6840    6.5160 C.3       1 VAL        -0.0094
    140 CG1        13.0050    6.7440    5.0880 C.3       1 VAL        -0.0589
    141 CG2        14.9110    7.0390    6.6370 C.3       1 VAL        -0.0589
    142 H          30.6933   -7.1104   19.3583 H         1 BUA         0.0452
    143 H          30.2555   -9.6573   19.3806 H         1 BUA         0.0412
    144 H          28.5042   -9.3106   19.1817 H         1 BUA         0.0412
    145 H          30.2603   -8.6895   21.5459 H         1 BUA         0.0522
    146 H          28.9152   -9.8755   21.4413 H         1 BUA         0.0522
    147 H          29.6883   -6.5448   22.2454 H         1 ASN         0.1884
    148 H          26.8482   -5.8485   22.3692 H         1 ASN         0.0826
    149 H          27.7658   -3.7260   23.4455 H         1 ASN         0.0551
    150 H          29.3904   -4.4849   23.3385 H         1 ASN         0.0551
    151 H          28.7136   -5.5863   26.6243 H         1 ASN         0.1814
    152 H          29.5611   -4.4425   25.6376 H         1 ASN         0.1814
    153 H          29.7479   -4.7709   20.5663 H         1 ILE         0.1883
    154 H          28.5173   -2.2956   19.7738 H         1 ILE         0.0803
    155 H          30.9918   -3.7518   18.7904 H         1 ILE         0.0345
    156 H          32.0857   -1.8066   19.7691 H         1 ILE         0.0267
    157 H          30.9547   -2.5185   20.9694 H         1 ILE         0.0267
    158 H          30.0145   -2.5813   16.8330 H         1 ILE         0.0235
    159 H          31.4974   -1.7560   17.4217 H         1 ILE         0.0235
    160 H          29.8791   -1.0780   17.8067 H         1 ILE         0.0235
    161 H          30.8484   -0.0421   20.9939 H         1 ILE         0.0230
    162 H          29.2882   -0.7467   20.4500 H         1 ILE         0.0230
    163 H          30.4191   -0.0348   19.2497 H         1 ILE         0.0230
    164 H          27.5480   -6.3069   16.3525 H         1 2JC         0.0767
    165 H          27.5627   -4.6393   15.6850 H         1 2JC         0.0767
    166 H          28.0424   -7.5206   17.8745 H         1 2JC         0.0470
    167 H          30.1315   -5.2523   18.1999 H         1 2JC         0.0648
    168 H          29.6259   -5.8100   16.5689 H         1 2JC         0.0648
    169 H          26.1107   -5.7969   18.7415 H         1 SER         0.1884
    170 H          23.4194   -5.7592   17.7572 H         1 SER         0.0823
    171 H          24.2398   -6.8347   19.9303 H         1 SER         0.0606
    172 H          22.6798   -5.9461   19.9900 H         1 SER         0.0606
    173 H          25.2098   -4.9435   20.8041 H         1 SER         0.2097
    174 H          25.4782   -3.2458   19.2949 H         1 LEU         0.1883
    175 H          23.4718   -1.2475   19.4275 H         1 LEU         0.0800
    176 H          26.4487   -0.8713   18.9033 H         1 LEU         0.0315
    177 H          25.6489   -0.9889   20.5074 H         1 LEU         0.0315
    178 H          25.1048    1.1895   18.4473 H         1 LEU         0.0298
    179 H          24.0116    2.3550   20.3573 H         1 LEU         0.0232
    180 H          24.3215    0.9242   21.3981 H         1 LEU         0.0232
    181 H          23.2199    0.7860   19.9860 H         1 LEU         0.0232
    182 H          27.4411    1.3341   19.3061 H         1 LEU         0.0232
    183 H          26.8124    1.3435   20.9887 H         1 LEU         0.0232
    184 H          26.4260    2.7012   19.8779 H         1 LEU         0.0232
    185 H          25.5617   -2.1234   16.6486 H         1 LEU         0.1883
    186 H          24.6832   -0.0316   14.9270 H         1 LEU         0.0800
    187 H          25.0052   -2.1284   13.1853 H         1 LEU         0.0315
    188 H          25.9448   -2.7016   14.6048 H         1 LEU         0.0315
    189 H          26.3088    0.0020   13.2588 H         1 LEU         0.0298
    190 H          28.4151    0.0476   14.5269 H         1 LEU         0.0232
    191 H          27.9788   -1.5134   15.3011 H         1 LEU         0.0232
    192 H          26.9827   -0.0501   15.6064 H         1 LEU         0.0232
    193 H          26.8911   -1.8673   11.7385 H         1 LEU         0.0232
    194 H          27.9736   -2.5478   13.0001 H         1 LEU         0.0232
    195 H          28.3446   -0.9519   12.2639 H         1 LEU         0.0232
    196 H          23.1629   -3.1510   15.7379 H         1 ARG         0.1883
    197 H          21.1941   -2.9076   13.6335 H         1 ARG         0.0800
    198 H          20.0255   -4.7289   14.7595 H         1 ARG         0.0313
    199 H          21.0362   -4.5077   16.2280 H         1 ARG         0.0313
    200 H          21.7264   -6.4503   14.8367 H         1 ARG         0.0301
    201 H          23.0209   -5.2191   15.0248 H         1 ARG         0.0301
    202 H          22.6709   -6.1741   12.6964 H         1 ARG         0.0689
    203 H          22.6835   -4.3842   12.8473 H         1 ARG         0.0689
    204 H          20.0475   -5.7650   12.9860 H         1 ARG         0.2642
    205 H          21.1858   -3.3778    9.9028 H         1 ARG         0.2615
    206 H          22.3957   -3.9116   11.1004 H         1 ARG         0.2615
    207 H          18.4896   -5.0963   11.4997 H         1 ARG         0.2615
    208 H          18.9558   -4.0567   10.1269 H         1 ARG         0.2615
    209 H          21.3540   -1.9299   17.0600 H         1 VAL         0.1883
    210 H          18.6790   -0.9515   17.2642 H         1 VAL         0.0802
    211 H          21.2495   -0.0177   18.6546 H         1 VAL         0.0343
    212 H          19.7708    0.9901   20.3565 H         1 VAL         0.0234
    213 H          18.3397    0.5742   19.3538 H         1 VAL         0.0234
    214 H          19.5523    1.7509   18.7441 H         1 VAL         0.0234
    215 H          20.6226   -2.3911   19.0695 H         1 VAL         0.0234
    216 H          18.9958   -1.8578   19.6133 H         1 VAL         0.0234
    217 H          20.4551   -1.3836   20.5472 H         1 VAL         0.0234
    218 H          21.7089    0.6448   16.2343 H         1 GLN         0.1883
    219 H          20.4665    3.2285   15.9246 H         1 GLN         0.0801
    220 H          22.5660    3.7451   14.6024 H         1 GLN         0.0337
    221 H          23.0649    2.0380   14.8550 H         1 GLN         0.0337
    222 H          22.6911    2.5577   17.3913 H         1 GLN         0.0504
    223 H          22.7730    4.2779   16.8806 H         1 GLN         0.0504
    224 H          26.2315    4.1153   17.4675 H         1 GLN         0.1814
    225 H          24.7018    4.7924   17.9165 H         1 GLN         0.1814
    226 H          20.9345    0.3803   13.8700 H         1 ALA         0.1883
    227 H          20.2332    1.7064   11.4186 H         1 ALA         0.0797
    228 H          19.8836   -0.5612   10.5173 H         1 ALA         0.0277
    229 H          20.0344   -1.2318   12.1768 H         1 ALA         0.0277
    230 H          21.4337   -0.4055   11.4114 H         1 ALA         0.0277
    231 H          18.2998   -0.0204   13.8732 H         1 HIS         0.1885
    232 H          15.8825    0.2260   12.2812 H         1 HIS         0.0824
    233 H          14.7352   -0.3097   14.5298 H         1 HIS         0.0491
    234 H          16.4004   -0.5579   15.1559 H         1 HIS         0.0491
    235 H          13.9452   -1.8556   12.5768 H         1 HIS         0.2386
    236 H          17.6239   -2.9215   14.3290 H         1 HIS         0.0324
    237 H          14.4461   -4.2470   11.8130 H         1 HIS         0.1149
    238 H          17.4874    2.2037   14.7393 H         1 ILE         0.1883
    239 H          15.2688    4.0078   15.0412 H         1 ILE         0.0803
    240 H          18.2577    4.3418   15.5229 H         1 ILE         0.0345
    241 H          16.8080    2.9503   17.0541 H         1 ILE         0.0267
    242 H          15.8706    4.4393   17.4158 H         1 ILE         0.0267
    243 H          17.3505    6.5354   14.8047 H         1 ILE         0.0235
    244 H          17.7803    6.5263   16.5487 H         1 ILE         0.0235
    245 H          16.0601    6.4005   16.0470 H         1 ILE         0.0235
    246 H          17.5437    3.9870   19.1534 H         1 ILE         0.0230
    247 H          17.9097    5.5132   18.2795 H         1 ILE         0.0230
    248 H          18.8471    4.0241   17.9178 H         1 ILE         0.0230
    249 H          17.9976    3.8723   12.6925 H         1 ARG         0.1883
    250 H          17.2682    6.3999   11.5211 H         1 ARG         0.0800
    251 H          18.6805    5.5593    9.5544 H         1 ARG         0.0313
    252 H          18.9823    4.0881   10.5400 H         1 ARG         0.0313
    253 H          20.1776    5.3012   12.1942 H         1 ARG         0.0301
    254 H          19.5451    6.8813   11.6196 H         1 ARG         0.0301
    255 H          20.7941    6.4850    9.4417 H         1 ARG         0.0689
    256 H          21.5556    5.0536   10.2149 H         1 ARG         0.0689
    257 H          22.0697    7.9143   10.8057 H         1 ARG         0.2642
    258 H          23.8474    4.8588   12.8046 H         1 ARG         0.2615
    259 H          22.4691    4.5274   11.7215 H         1 ARG         0.2615
    260 H          23.8062    8.3571   12.2053 H         1 ARG         0.2615
    261 H          24.6010    7.0222   13.0823 H         1 ARG         0.2615
    262 H          16.3704    3.0715   10.9098 H         1 LYS         0.1883
    263 H          14.8324    3.4409    8.5601 H         1 LYS         0.0800
    264 H          14.5282    1.5546   10.9435 H         1 LYS         0.0312
    265 H          15.3078    1.2171    9.3608 H         1 LYS         0.0312
    266 H          13.2460    1.0823    8.2346 H         1 LYS         0.0269
    267 H          12.3669    1.9460    9.5415 H         1 LYS         0.0269
    268 H          13.6705   -0.8096    9.9313 H         1 LYS         0.0317
    269 H          11.9618   -0.5958    9.4203 H         1 LYS         0.0317
    270 H          11.4618    0.6400   11.4831 H         1 LYS         0.0813
    271 H          13.1852    0.5557   11.9825 H         1 LYS         0.0813
    272 H          11.8495   -1.1124   13.0794 H         1 LYS         0.1994
    273 H          12.9558   -1.8375   12.0998 H         1 LYS         0.1994
    274 H          11.3765   -1.7602   11.6421 H         1 LYS         0.1994
    275 H          13.8561    3.7210   12.0218 H         1 LYS         0.1883
    276 H          11.1457    4.4237   11.4881 H         1 LYS         0.0800
    277 H          11.2245    5.4457   13.8048 H         1 LYS         0.0312
    278 H          12.9800    5.0661   13.8355 H         1 LYS         0.0312
    279 H          11.9351    3.3211   15.0317 H         1 LYS         0.0265
    280 H          12.3023    2.6311   13.4144 H         1 LYS         0.0265
    281 H          10.0110    2.0121   14.1558 H         1 LYS         0.0230
    282 H           9.9568    3.0608   12.6985 H         1 LYS         0.0230
    283 H           9.5896    3.7509   14.3158 H         1 LYS         0.0230
    284 H          14.0673    6.4514   11.5185 H         1 MET         0.1883
    285 H          12.7980    9.0139   11.7120 H         1 MET         0.0800
    286 H          14.8226    9.7284   10.2315 H         1 MET         0.0320
    287 H          15.3512    8.0190   10.3895 H         1 MET         0.0320
    288 H          15.3929    8.3365   12.8713 H         1 MET         0.0378
    289 H          15.0565   10.0800   12.5996 H         1 MET         0.0378
    290 H          19.1112    8.6214   13.0488 H         1 MET         0.0340
    291 H          17.7163    7.4902   13.0812 H         1 MET         0.0340
    292 H          17.6934    8.9737   14.0939 H         1 MET         0.0340
    293 H          13.8636    7.0294    8.9774 H         1 VAL         0.1876
    294 H          12.6283    8.6402    6.9251 H         1 VAL         0.0754
    295 O1         10.2320    7.8832    7.4420 O.co2     1 VAL        -0.4120
    296 H          13.2966    5.6584    6.8854 H         1 VAL         0.0336
    297 H          13.6133    6.0512    4.4880 H         1 VAL         0.0234
    298 H          13.1333    7.7681    4.7076 H         1 VAL         0.0234
    299 H          11.9455    6.4568    5.0177 H         1 VAL         0.0234
    300 H          15.2144    6.9892    7.6932 H         1 VAL         0.0234
    301 H          15.0743    8.0580    6.2563 H         1 VAL         0.0234
    302 H          15.5101    6.3276    6.0496 H         1 VAL         0.0234
@<TRIPOS>BOND
     1    1    2 1  
     2    1   26 2  
     3    2    3 1  
     4    3    4 1  
     5    4    5 2  
     6    4    6 am 
     7    6    7 1  
     8    7    8 1  
     9    7   10 1  
    10    8    9 2  
    11    8   14 am 
    12   10   11 1  
    13   11   12 2  
    14   11   13 am 
    15   14   15 1  
    16   15   16 1  
    17   15   18 1  
    18   16   17 2  
    19   16   22 am 
    20   18   19 1  
    21   18   20 1  
    22   19   21 1  
    23   22   23 1  
    24   22   27 1  
    25   23   24 1  
    26   24   25 2  
    27   24   28 am 
    28   26   27 1  
    29   28   29 1  
    30   29   30 1  
    31   29   32 1  
    32   30   31 2  
    33   30   34 am 
    34   32   33 1  
    35   34   35 1  
    36   35   36 1  
    37   35   38 1  
    38   36   37 2  
    39   36   42 am 
    40   38   39 1  
    41   39   40 1  
    42   39   41 1  
    43   42   43 1  
    44   43   44 1  
    45   43   46 1  
    46   44   45 2  
    47   44   50 am 
    48   46   47 1  
    49   47   48 1  
    50   47   49 1  
    51   50   51 1  
    52   51   52 1  
    53   51   54 1  
    54   52   53 2  
    55   52   61 am 
    56   54   55 1  
    57   55   56 1  
    58   56   57 1  
    59   57   58 ar 
    60   58   59 ar 
    61   58   60 ar 
    62   61   62 1  
    63   62   63 1  
    64   62   65 1  
    65   63   64 2  
    66   63   68 am 
    67   65   66 1  
    68   65   67 1  
    69   68   69 1  
    70   69   70 1  
    71   69   72 1  
    72   70   71 2  
    73   70   77 am 
    74   72   73 1  
    75   73   74 1  
    76   74   75 2  
    77   74   76 am 
    78   77   78 1  
    79   78   79 1  
    80   78   81 1  
    81   79   80 2  
    82   79   82 am 
    83   82   83 1  
    84   83   84 1  
    85   83   86 1  
    86   84   85 2  
    87   84   92 am 
    88   86   87 1  
    89   87   88 1  
    90   87   89 2  
    91   88   90 1  
    92   89   91 1  
    93   90   91 2  
    94   92   93 1  
    95   93   94 1  
    96   93   96 1  
    97   94   95 2  
    98   94  100 am 
    99   96   97 1  
   100   96   98 1  
   101   97   99 1  
   102  100  101 1  
   103  101  102 1  
   104  101  104 1  
   105  102  103 2  
   106  102  111 am 
   107  104  105 1  
   108  105  106 1  
   109  106  107 1  
   110  107  108 ar 
   111  108  109 ar 
   112  108  110 ar 
   113  111  112 1  
   114  112  113 1  
   115  112  115 1  
   116  113  114 2  
   117  113  120 am 
   118  115  116 1  
   119  116  117 1  
   120  117  118 1  
   121  118  119 1  
   122  120  121 1  
   123  121  122 1  
   124  121  124 1  
   125  122  123 2  
   126  122  127 am 
   127  124  125 1  
   128  125  126 1  
   129  127  128 1  
   130  128  129 1  
   131  128  131 1  
   132  129  130 2  
   133  129  135 am 
   134  131  132 1  
   135  132  133 1  
   136  133  134 1  
   137  135  136 1  
   138  136  137 1  
   139  136  139 1  
   140  137  138 ar 
   141  139  140 1  
   142  139  141 1  
   143    1  142 1  
   144    2  143 1  
   145    2  144 1  
   146    3  145 1  
   147    3  146 1  
   148    6  147 1  
   149    7  148 1  
   150   10  149 1  
   151   10  150 1  
   152   13  151 1  
   153   13  152 1  
   154   14  153 1  
   155   15  154 1  
   156   18  155 1  
   157   19  156 1  
   158   19  157 1  
   159   20  158 1  
   160   20  159 1  
   161   20  160 1  
   162   21  161 1  
   163   21  162 1  
   164   21  163 1  
   165   23  164 1  
   166   23  165 1  
   167   26  166 1  
   168   27  167 1  
   169   27  168 1  
   170   28  169 1  
   171   29  170 1  
   172   32  171 1  
   173   32  172 1  
   174   33  173 1  
   175   34  174 1  
   176   35  175 1  
   177   38  176 1  
   178   38  177 1  
   179   39  178 1  
   180   40  179 1  
   181   40  180 1  
   182   40  181 1  
   183   41  182 1  
   184   41  183 1  
   185   41  184 1  
   186   42  185 1  
   187   43  186 1  
   188   46  187 1  
   189   46  188 1  
   190   47  189 1  
   191   48  190 1  
   192   48  191 1  
   193   48  192 1  
   194   49  193 1  
   195   49  194 1  
   196   49  195 1  
   197   50  196 1  
   198   51  197 1  
   199   54  198 1  
   200   54  199 1  
   201   55  200 1  
   202   55  201 1  
   203   56  202 1  
   204   56  203 1  
   205   57  204 1  
   206   59  205 1  
   207   59  206 1  
   208   60  207 1  
   209   60  208 1  
   210   61  209 1  
   211   62  210 1  
   212   65  211 1  
   213   66  212 1  
   214   66  213 1  
   215   66  214 1  
   216   67  215 1  
   217   67  216 1  
   218   67  217 1  
   219   68  218 1  
   220   69  219 1  
   221   72  220 1  
   222   72  221 1  
   223   73  222 1  
   224   73  223 1  
   225   76  224 1  
   226   76  225 1  
   227   77  226 1  
   228   78  227 1  
   229   81  228 1  
   230   81  229 1  
   231   81  230 1  
   232   82  231 1  
   233   83  232 1  
   234   86  233 1  
   235   86  234 1  
   236   88  235 1  
   237   89  236 1  
   238   90  237 1  
   239   92  238 1  
   240   93  239 1  
   241   96  240 1  
   242   97  241 1  
   243   97  242 1  
   244   98  243 1  
   245   98  244 1  
   246   98  245 1  
   247   99  246 1  
   248   99  247 1  
   249   99  248 1  
   250  100  249 1  
   251  101  250 1  
   252  104  251 1  
   253  104  252 1  
   254  105  253 1  
   255  105  254 1  
   256  106  255 1  
   257  106  256 1  
   258  107  257 1  
   259  109  258 1  
   260  109  259 1  
   261  110  260 1  
   262  110  261 1  
   263  111  262 1  
   264  112  263 1  
   265  115  264 1  
   266  115  265 1  
   267  116  266 1  
   268  116  267 1  
   269  117  268 1  
   270  117  269 1  
   271  118  270 1  
   272  118  271 1  
   273  119  272 1  
   274  119  273 1  
   275  119  274 1  
   276  120  275 1  
   277  121  276 1  
   278  124  277 1  
   279  124  278 1  
   280  125  279 1  
   281  125  280 1  
   282  126  281 1  
   283  126  282 1  
   284  126  283 1  
   285  127  284 1  
   286  128  285 1  
   287  131  286 1  
   288  131  287 1  
   289  132  288 1  
   290  132  289 1  
   291  134  290 1  
   292  134  291 1  
   293  134  292 1  
   294  135  293 1  
   295  136  294 1  
   296  137  295 ar 
   297  139  296 1  
   298  140  297 1  
   299  140  298 1  
   300  140  299 1  
   301  141  300 1  
   302  141  301 1  
   303  141  302 1  
@<TRIPOS>SUBSTRUCTURE
     1 BUA         1

