4mzl_ligand
  -I-interpret- 

300301  0  0  0  0  0  0  0  0999 V2000
   29.7760   -7.6130   19.0550 C   0  0  0  0  0
   29.4450   -8.9560   19.6280 C   0  0  0  0  0
   29.2900   -8.9080   21.0760 C   0  0  0  0  0
   28.3160   -7.8330   21.4120 C   0  0  0  0  0
   27.0710   -7.9780   21.1140 O   0  0  0  0  0
   28.7300   -6.6250   21.9710 N   0  0  0  0  0
   27.8630   -5.4660   22.1850 C   0  0  0  0  0
   27.7860   -4.5120   20.9950 C   0  0  0  0  0
   26.7110   -4.0030   20.6740 O   0  0  0  0  0
   28.3110   -4.6810   23.4190 C   0  0  0  0  0
   28.0480   -5.4270   24.7170 C   0  0  0  0  0
   27.1530   -6.2770   24.7890 O   0  0  0  0  0
   28.8400   -5.1270   25.7450 N   0  0  0  0  0
   28.9210   -4.2510   20.3520 N   0  0  0  0  0
   28.9600   -3.1970   19.3250 C   0  0  0  0  0
   28.0890   -3.5640   18.1140 C   0  0  0  0  0
   27.3490   -2.7350   17.6060 O   0  0  0  0  0
   30.4090   -2.8290   18.9270 C   0  0  0  0  0
   31.0270   -1.9730   20.0170 C   0  0  0  0  0
   30.4530   -2.0050   17.6610 C   0  0  0  0  0
   30.3470   -0.6010   20.1900 C   0  0  0  0  0
   28.1480   -4.8150   17.6760 N   0  0  0  0  0
   27.3210   -5.2520   16.5660 C   0  0  0  0  0
   25.8370   -5.1240   16.8530 C   0  0  0  0  0
   25.0460   -4.7500   15.9720 O   0  0  0  0  0
   28.9630   -7.0250   18.1790 C   0  0  0  0  0
   29.3100   -5.6930   17.6160 C   0  0  0  0  0
   25.4480   -5.4330   18.0870 N   0  0  0  0  0
   24.0570   -5.2430   18.4900 C   0  0  0  0  0
   23.7040   -3.7670   18.4700 C   0  0  0  0  0
   22.6060   -3.4140   18.0680 O   0  0  0  0  0
   23.7680   -5.8430   19.8670 C   0  0  0  0  0
   24.2690   -5.0330   20.9010 O   0  0  0  0  0
   24.6200   -2.9060   18.9100 N   0  0  0  0  0
   24.3740   -1.4510   18.8320 C   0  0  0  0  0
   24.0840   -0.9660   17.4010 C   0  0  0  0  0
   23.1800   -0.1260   17.1720 O   0  0  0  0  0
   25.5300   -0.6520   19.4670 C   0  0  0  0  0
   25.3260    0.8720   19.4770 C   0  0  0  0  0
   24.1350    1.2620   20.3680 C   0  0  0  0  0
   26.5920    1.6160   19.9460 C   0  0  0  0  0
   24.8240   -1.4850   16.4290 N   0  0  0  0  0
   24.5580   -1.1200   15.0250 C   0  0  0  0  0
   23.1550   -1.4820   14.5900 C   0  0  0  0  0
   22.5540   -0.7840   13.7770 O   0  0  0  0  0
   25.5450   -1.8150   14.0910 C   0  0  0  0  0
   26.7130   -0.9330   13.6740 C   0  0  0  0  0
   27.5810   -0.5890   14.8570 C   0  0  0  0  0
   27.5380   -1.6230   12.5940 C   0  0  0  0  0
   22.6330   -2.5910   15.1010 N   0  0  0  0  0
   21.2870   -2.9830   14.7270 C   0  0  0  0  0
   20.2710   -2.0330   15.3590 C   0  0  0  0  0
   19.2540   -1.6990   14.7430 O   0  0  0  0  0
   21.0210   -4.4430   15.1300 C   0  0  0  0  0
   22.0370   -5.4270   14.5790 C   0  0  0  0  0
   22.1340   -5.3030   13.1000 C   0  0  0  0  0
   20.7990   -5.2440   12.5120 N   0  0  0  0  0
   20.4790   -4.5710   11.4140 C   0  0  0  0  0
   21.4250   -3.9030   10.7560 N   0  0  0  0  0
   19.2100   -4.5750   10.9800 N   0  0  0  0  0
   20.5520   -1.5770   16.5780 N   0  0  0  0  0
   19.7090   -0.5670   17.2290 C   0  0  0  0  0
   19.7070    0.7430   16.4450 C   0  0  0  0  0
   18.6550    1.3320   16.1760 O   0  0  0  0  0
   20.1880   -0.3040   18.6890 C   0  0  0  0  0
   19.4090    0.8310   19.3300 C   0  0  0  0  0
   20.0560   -1.5740   19.5400 C   0  0  0  0  0
   20.8900    1.1890   16.0520 N   0  0  0  0  0
   21.0120    2.4580   15.3600 C   0  0  0  0  0
   20.3780    2.3210   13.9830 C   0  0  0  0  0
   19.7750    3.2610   13.4760 O   0  0  0  0  0
   22.4870    2.8760   15.2720 C   0  0  0  0  0
   23.0840    3.2520   16.6340 C   0  0  0  0  0
   24.6040    3.1880   16.6620 C   0  0  0  0  0
   25.2120    2.3230   16.0220 O   0  0  0  0  0
   25.2330    4.1110   17.4130 N   0  0  0  0  0
   20.4640    1.1290   13.4030 N   0  0  0  0  0
   19.8730    0.9080   12.0840 C   0  0  0  0  0
   18.3500    1.0030   12.1290 C   0  0  0  0  0
   17.7030    1.5830   11.2370 O   0  0  0  0  0
   20.3380   -0.4130   11.5080 C   0  0  0  0  0
   17.7560    0.4330   13.1670 N   0  0  0  0  0
   16.2940    0.4730   13.2710 C   0  0  0  0  0
   15.8320    1.8600   13.6220 C   0  0  0  0  0
   14.7580    2.2720   13.2110 O   0  0  0  0  0
   15.7680   -0.5710   14.2560 C   0  0  0  0  0
   15.7780   -1.9470   13.6840 C   0  0  0  0  0
   14.7770   -2.3950   12.8560 N   0  0  0  0  0
   16.6860   -2.9440   13.7760 C   0  0  0  0  0
   15.0550   -3.6330   12.4750 C   0  0  0  0  0
   16.1920   -3.9960   13.0320 N   0  0  0  0  0
   16.6450    2.5980   14.3720 N   0  0  0  0  0
   16.2990    3.9900   14.6560 C   0  0  0  0  0
   16.3280    4.8080   13.3590 C   0  0  0  0  0
   15.4630    5.6480   13.1330 O   0  0  0  0  0
   17.2150    4.6060   15.7530 C   0  0  0  0  0
   16.8560    4.0470   17.1240 C   0  0  0  0  0
   17.0930    6.1220   15.7910 C   0  0  0  0  0
   17.8570    4.4180   18.1910 C   0  0  0  0  0
   17.3100    4.5710   12.4950 N   0  0  0  0  0
   17.3760    5.3370   11.2590 C   0  0  0  0  0
   16.2420    4.9840   10.3210 C   0  0  0  0  0
   15.7460    5.8270    9.5700 O   0  0  0  0  0
   18.7470    5.1620   10.5780 C   0  0  0  0  0
   19.8910    5.8850   11.3070 C   0  0  0  0  0
   21.1090    6.0420   10.3980 C   0  0  0  0  0
   22.0990    6.9090   11.0280 N   0  0  0  0  0
   23.0360    6.4860   11.8700 C   0  0  0  0  0
   23.1240    5.1950   12.1530 N   0  0  0  0  0
   23.8780    7.3540   12.4280 N   0  0  0  0  0
   15.8480    3.7250   10.3620 N   0  0  0  0  0
   14.6740    3.2570    9.6330 C   0  0  0  0  0
   13.4080    3.9850   10.0720 C   0  0  0  0  0
   12.6180    4.3980    9.2390 O   0  0  0  0  0
   14.4870    1.7510    9.8620 C   0  0  0  0  0
   13.1620    1.2180    9.3230 C   0  0  0  0  0
   12.7960   -0.1440    9.9770 C   0  0  0  0  0
   12.3790    0.0340   11.4460 C   0  0  0  0  0
   12.1190   -1.2760   12.1220 N   0  3  0  0  0
   13.2080    4.1310   11.3800 N   0  0  0  0  0
   12.0550    4.8820   11.9040 C   0  0  0  0  0
   12.0480    6.3670   11.5110 C   0  0  0  0  0
   10.9740    6.9550   11.3540 O   0  0  0  0  0
   12.0020    4.7610   13.4350 C   0  0  0  0  0
   11.6910    3.3650   13.9600 C   0  0  0  0  0
   10.2070    3.0230   13.7690 C   0  0  0  0  0
   13.2290    6.9740   11.3630 N   0  0  0  0  0
   13.3300    8.3920   10.9770 C   0  0  0  0  0
   12.7380    8.5680    9.6070 C   0  0  0  0  0
   11.9480    9.4780    9.3500 O   0  0  0  0  0
   14.7910    8.8340   10.8710 C   0  0  0  0  0
   15.4950    9.1710   12.1620 C   0  0  0  0  0
   17.2520    9.4520   11.7900 S   0  0  0  0  0
   18.0170    8.5470   13.1330 C   0  0  0  0  0
   13.1550    7.6840    8.7140 N   0  0  0  0  0
   12.6190    7.6320    7.3650 C   0  0  0  0  0
   11.2090    7.0890    7.3940 C   0  0  0  0  0
   11.0110    5.8760    7.3710 O   0  0  0  0  0
   13.4440    6.6840    6.5160 C   0  0  0  0  0
   13.0050    6.7440    5.0880 C   0  0  0  0  0
   14.9110    7.0390    6.6370 C   0  0  0  0  0
   10.2320    7.8832    7.4420 O   0  0  0  0  0
   30.6941   -7.1100   19.3586 H   0  0  0  0  0
   30.2634   -9.6372   19.3950 H   0  0  0  0  0
   28.5016   -9.2884   19.1949 H   0  0  0  0  0
   30.2510   -8.6994   21.5462 H   0  0  0  0  0
   28.9260   -9.8676   21.4431 H   0  0  0  0  0
   29.7074   -6.5432   22.2509 H   0  0  0  0  0
   26.8645   -5.8795   22.3270 H   0  0  0  0  0
   27.7442   -3.7504   23.4473 H   0  0  0  0  0
   29.3857   -4.5172   23.3392 H   0  0  0  0  0
   28.7206   -5.6061   26.6375 H   0  0  0  0  0
   29.5659   -4.4182   25.6397 H   0  0  0  0  0
   29.7644   -4.7813   20.5706 H   0  0  0  0  0
   28.5290   -2.2963   19.7621 H   0  0  0  0  0
   30.9466   -3.7656   18.7789 H   0  0  0  0  0
   32.0643   -1.7890   19.7372 H   0  0  0  0  0
   30.9146   -2.5126   20.9574 H   0  0  0  0  0
   30.0073   -2.5725   16.8440 H   0  0  0  0  0
   29.8941   -1.0812   17.8107 H   0  0  0  0  0
   31.4891   -1.7691   17.4184 H   0  0  0  0  0
   30.4191   -0.0410   19.2576 H   0  0  0  0  0
   29.2979   -0.7468   20.4475 H   0  0  0  0  0
   30.8446   -0.0482   20.9868 H   0  0  0  0  0
   27.5362   -6.3048   16.3835 H   0  0  0  0  0
   27.5511   -4.6193   15.7088 H   0  0  0  0  0
   28.0415   -7.5211   17.8742 H   0  0  0  0  0
   30.1225   -5.2564   18.1967 H   0  0  0  0  0
   29.6207   -5.8099   16.5778 H   0  0  0  0  0
   26.1240   -5.8042   18.7546 H   0  0  0  0  0
   23.4323   -5.7727   17.7708 H   0  0  0  0  0
   24.2539   -6.8169   19.9268 H   0  0  0  0  0
   22.6877   -5.9247   19.9868 H   0  0  0  0  0
   24.0705   -5.4384   21.7483 H   0  0  0  0  0
   25.4953   -3.2525   19.3026 H   0  0  0  0  0
   23.4696   -1.2630   19.4106 H   0  0  0  0  0
   26.4194   -0.8497   18.8686 H   0  0  0  0  0
   25.6024   -0.9698   20.5071 H   0  0  0  0  0
   25.1159    1.1704   18.4499 H   0  0  0  0  0
   23.2289    0.7897   19.9885 H   0  0  0  0  0
   24.3210    0.9267   21.3883 H   0  0  0  0  0
   24.0137    2.3452   20.3566 H   0  0  0  0  0
   26.8455    1.2974   20.9571 H   0  0  0  0  0
   27.4178    1.3851   19.2731 H   0  0  0  0  0
   26.4047    2.6898   19.9382 H   0  0  0  0  0
   25.5765   -2.1361   16.6530 H   0  0  0  0  0
   24.6733   -0.0378   14.9647 H   0  0  0  0  0
   25.0021   -2.0880   13.1861 H   0  0  0  0  0
   25.9562   -2.6701   14.6275 H   0  0  0  0  0
   26.3093   -0.0048   13.2695 H   0  0  0  0  0
   26.9870   -0.0551   15.5988 H   0  0  0  0  0
   27.9744   -1.5058   15.2961 H   0  0  0  0  0
   28.4071    0.0418   14.5287 H   0  0  0  0  0
   27.9240   -2.5663   12.9805 H   0  0  0  0  0
   26.9086   -1.8152   11.7251 H   0  0  0  0  0
   28.3693   -0.9792   12.3068 H   0  0  0  0  0
   23.1735   -3.1622   15.7506 H   0  0  0  0  0
   21.1830   -2.9164   13.6440 H   0  0  0  0  0
   20.0480   -4.7196   14.7239 H   0  0  0  0  0
   21.0759   -4.4946   16.2174 H   0  0  0  0  0
   21.7208   -6.4396   14.8293 H   0  0  0  0  0
   23.0117   -5.2118   15.0169 H   0  0  0  0  0
   22.6616   -6.1700   12.7025 H   0  0  0  0  0
   22.6742   -4.3892   12.8526 H   0  0  0  0  0
   20.0548   -5.7599   12.9814 H   0  0  0  0  0
   22.3863   -3.9115   11.0970 H   0  0  0  0  0
   18.9583   -4.0618   10.1352 H   0  0  0  0  0
   18.4966   -5.0913   11.4947 H   0  0  0  0  0
   21.3700   -1.9370   17.0696 H   0  0  0  0  0
   18.6919   -0.9583   17.2527 H   0  0  0  0  0
   21.2381   -0.0156   18.6425 H   0  0  0  0  0
   19.5517    1.7418   18.7485 H   0  0  0  0  0
   18.3497    0.5753   19.3530 H   0  0  0  0  0
   19.7684    0.9877   20.3470 H   0  0  0  0  0
   19.0125   -1.8882   19.5621 H   0  0  0  0  0
   20.6661   -2.3659   19.1056 H   0  0  0  0  0
   20.3959   -1.3668   20.5547 H   0  0  0  0  0
   21.7253    0.6339   16.2380 H   0  0  0  0  0
   20.4912    3.2424   15.9091 H   0  0  0  0  0
   22.5461    3.7542   14.6291 H   0  0  0  0  0
   23.0507    2.0273   14.8846 H   0  0  0  0  0
   22.7102    2.5368   17.3667 H   0  0  0  0  0
   22.7932    4.2802   16.8491 H   0  0  0  0  0
   26.2514    4.1144   17.4699 H   0  0  0  0  0
   24.6913    4.8071   17.9252 H   0  0  0  0  0
   20.9439    0.3654   13.8794 H   0  0  0  0  0
   20.2177    1.7012   11.4206 H   0  0  0  0  0
   21.4238   -0.4043   11.4128 H   0  0  0  0  0
   20.0366   -1.2235   12.1716 H   0  0  0  0  0
   19.8871   -0.5587   10.5264 H   0  0  0  0  0
   18.3107   -0.0295   13.8873 H   0  0  0  0  0
   15.8767    0.2168   12.2972 H   0  0  0  0  0
   14.7372   -0.3148   14.5006 H   0  0  0  0  0
   16.4165   -0.5651   15.1321 H   0  0  0  0  0
   17.6247   -2.9215   14.3295 H   0  0  0  0  0
   14.4456   -4.2475   11.8124 H   0  0  0  0  0
   17.5042    2.1958   14.7467 H   0  0  0  0  0
   15.2862    4.0174   15.0580 H   0  0  0  0  0
   18.2422    4.3405   15.5031 H   0  0  0  0  0
   16.8403    2.9599   17.0462 H   0  0  0  0  0
   15.8920    4.4662   17.4121 H   0  0  0  0  0
   17.3851    6.5331   14.8247 H   0  0  0  0  0
   16.0606    6.3968   16.0071 H   0  0  0  0  0
   17.7462    6.5184   16.5683 H   0  0  0  0  0
   18.8375    4.0272   17.9191 H   0  0  0  0  0
   17.9083    5.5033   18.2777 H   0  0  0  0  0
   17.5455    3.9904   19.1440 H   0  0  0  0  0
   18.0114    3.8584   12.6964 H   0  0  0  0  0
   17.2612    6.3902   11.5155 H   0  0  0  0  0
   18.6732    5.5904    9.5785 H   0  0  0  0  0
   18.9795    4.0971   10.5789 H   0  0  0  0  0
   20.1785    5.2949   12.1771 H   0  0  0  0  0
   19.5457    6.8758   11.6023 H   0  0  0  0  0
   20.7947    6.4865    9.4537 H   0  0  0  0  0
   21.5526    5.0618   10.2232 H   0  0  0  0  0
   22.0700    7.9045   10.8078 H   0  0  0  0  0
   22.4754    4.5338   11.7257 H   0  0  0  0  0
   24.5940    7.0255   13.0759 H   0  0  0  0  0
   23.8069    8.3473   12.2074 H   0  0  0  0  0
   16.3808    3.0584   10.9207 H   0  0  0  0  0
   14.8403    3.4637    8.5758 H   0  0  0  0  0
   14.4985    1.5776   10.9381 H   0  0  0  0  0
   15.2888    1.2354    9.3335 H   0  0  0  0  0
   13.2574    1.0727    8.2469 H   0  0  0  0  0
   12.3771    1.9377    9.5556 H   0  0  0  0  0
   13.6719   -0.7918    9.9416 H   0  0  0  0  0
   11.9591   -0.5774    9.4294 H   0  0  0  0  0
   11.4580    0.6165   11.4691 H   0  0  0  0  0
   13.1937    0.5316   11.9721 H   0  0  0  0  0
   11.8465   -1.1092   13.0907 H   0  0  0  0  0
   11.3676   -1.7650   11.6355 H   0  0  0  0  0
   12.9664   -1.8433   12.0988 H   0  0  0  0  0
   13.8690    3.7128   12.0346 H   0  0  0  0  0
   11.1724    4.4337   11.4478 H   0  0  0  0  0
   11.1961    5.4117   13.7744 H   0  0  0  0  0
   12.9928    5.0232   13.8059 H   0  0  0  0  0
   11.9231    3.3322   15.0245 H   0  0  0  0  0
   12.2903    2.6420   13.4067 H   0  0  0  0  0
    9.5964    3.7449   14.3113 H   0  0  0  0  0
    9.9604    3.0609   12.7079 H   0  0  0  0  0
   10.0141    2.0212   14.1526 H   0  0  0  0  0
   14.0840    6.4410   11.5216 H   0  0  0  0  0
   12.8110    8.9788   11.7349 H   0  0  0  0  0
   14.7839    9.7532   10.2852 H   0  0  0  0  0
   15.3303    7.9862   10.4485 H   0  0  0  0  0
   15.3878    8.3521   12.8734 H   0  0  0  0  0
   15.0573   10.0649   12.6065 H   0  0  0  0  0
   17.6956    8.9707   14.0845 H   0  0  0  0  0
   17.7182    7.5001   13.0806 H   0  0  0  0  0
   19.1012    8.6214   13.0484 H   0  0  0  0  0
   13.8778    7.0163    8.9826 H   0  0  0  0  0
   12.6403    8.6406    6.9523 H   0  0  0  0  0
   13.2953    5.6650    6.8732 H   0  0  0  0  0
   11.9551    6.4592    5.0197 H   0  0  0  0  0
   13.1326    7.7592    4.7123 H   0  0  0  0  0
   13.6084    6.0571    4.4946 H   0  0  0  0  0
   15.0656    8.0617    6.2931 H   0  0  0  0  0
   15.2193    6.9542    7.6791 H   0  0  0  0  0
   15.5005    6.3557    6.0256 H   0  0  0  0  0
   10.5559    8.7868    7.4539 H   0  0  0  0  0
  1  2  1  0  0  0
  1 26  2  0  0  0
  2  3  1  0  0  0
  3  4  1  0  0  0
  4  5  2  0  0  0
  4  6  1  0  0  0
  6  7  1  0  0  0
  7  8  1  0  0  0
  7 10  1  0  0  0
  8  9  2  0  0  0
  8 14  1  0  0  0
 10 11  1  0  0  0
 11 12  2  0  0  0
 11 13  1  0  0  0
 14 15  1  0  0  0
 15 16  1  0  0  0
 15 18  1  0  0  0
 16 17  2  0  0  0
 16 22  1  0  0  0
 18 19  1  0  0  0
 18 20  1  0  0  0
 19 21  1  0  0  0
 22 23  1  0  0  0
 22 27  1  0  0  0
 23 24  1  0  0  0
 24 25  2  0  0  0
 24 28  1  0  0  0
 26 27  1  0  0  0
 28 29  1  0  0  0
 29 30  1  0  0  0
 29 32  1  0  0  0
 30 31  2  0  0  0
 30 34  1  0  0  0
 32 33  1  0  0  0
 34 35  1  0  0  0
 35 36  1  0  0  0
 35 38  1  0  0  0
 36 37  2  0  0  0
 36 42  1  0  0  0
 38 39  1  0  0  0
 39 40  1  0  0  0
 39 41  1  0  0  0
 42 43  1  0  0  0
 43 44  1  0  0  0
 43 46  1  0  0  0
 44 45  2  0  0  0
 44 50  1  0  0  0
 46 47  1  0  0  0
 47 48  1  0  0  0
 47 49  1  0  0  0
 50 51  1  0  0  0
 51 52  1  0  0  0
 51 54  1  0  0  0
 52 53  2  0  0  0
 52 61  1  0  0  0
 54 55  1  0  0  0
 55 56  1  0  0  0
 56 57  1  0  0  0
 57 58  1  0  0  0
 58 59  2  0  0  0
 58 60  1  0  0  0
 61 62  1  0  0  0
 62 63  1  0  0  0
 62 65  1  0  0  0
 63 64  2  0  0  0
 63 68  1  0  0  0
 65 66  1  0  0  0
 65 67  1  0  0  0
 68 69  1  0  0  0
 69 70  1  0  0  0
 69 72  1  0  0  0
 70 71  2  0  0  0
 70 77  1  0  0  0
 72 73  1  0  0  0
 73 74  1  0  0  0
 74 75  2  0  0  0
 74 76  1  0  0  0
 77 78  1  0  0  0
 78 79  1  0  0  0
 78 81  1  0  0  0
 79 80  2  0  0  0
 79 82  1  0  0  0
 82 83  1  0  0  0
 83 84  1  0  0  0
 83 86  1  0  0  0
 84 85  2  0  0  0
 84 92  1  0  0  0
 86 87  1  0  0  0
 87 88  4  0  0  0
 87 89  4  0  0  0
 88 90  4  0  0  0
 89 91  4  0  0  0
 90 91  4  0  0  0
 92 93  1  0  0  0
 93 94  1  0  0  0
 93 96  1  0  0  0
 94 95  2  0  0  0
 94100  1  0  0  0
 96 97  1  0  0  0
 96 98  1  0  0  0
 97 99  1  0  0  0
100101  1  0  0  0
101102  1  0  0  0
101104  1  0  0  0
102103  2  0  0  0
102111  1  0  0  0
104105  1  0  0  0
105106  1  0  0  0
106107  1  0  0  0
107108  1  0  0  0
108109  2  0  0  0
108110  1  0  0  0
111112  1  0  0  0
112113  1  0  0  0
112115  1  0  0  0
113114  2  0  0  0
113120  1  0  0  0
115116  1  0  0  0
116117  1  0  0  0
117118  1  0  0  0
118119  1  0  0  0
120121  1  0  0  0
121122  1  0  0  0
121124  1  0  0  0
122123  2  0  0  0
122127  1  0  0  0
124125  1  0  0  0
125126  1  0  0  0
127128  1  0  0  0
128129  1  0  0  0
128131  1  0  0  0
129130  2  0  0  0
129135  1  0  0  0
131132  1  0  0  0
132133  1  0  0  0
133134  1  0  0  0
135136  1  0  0  0
136137  1  0  0  0
136139  1  0  0  0
137138  2  0  0  0
139140  1  0  0  0
139141  1  0  0  0
137142  1  0  0  0
  1143  1  0  0  0
  2144  1  0  0  0
  2145  1  0  0  0
  3146  1  0  0  0
  3147  1  0  0  0
  6148  1  0  0  0
  7149  1  0  0  0
 10150  1  0  0  0
 10151  1  0  0  0
 13152  1  0  0  0
 13153  1  0  0  0
 14154  1  0  0  0
 15155  1  0  0  0
 18156  1  0  0  0
 19157  1  0  0  0
 19158  1  0  0  0
 20159  1  0  0  0
 20160  1  0  0  0
 20161  1  0  0  0
 21162  1  0  0  0
 21163  1  0  0  0
 21164  1  0  0  0
 23165  1  0  0  0
 23166  1  0  0  0
 26167  1  0  0  0
 27168  1  0  0  0
 27169  1  0  0  0
 28170  1  0  0  0
 29171  1  0  0  0
 32172  1  0  0  0
 32173  1  0  0  0
 33174  1  0  0  0
 34175  1  0  0  0
 35176  1  0  0  0
 38177  1  0  0  0
 38178  1  0  0  0
 39179  1  0  0  0
 40180  1  0  0  0
 40181  1  0  0  0
 40182  1  0  0  0
 41183  1  0  0  0
 41184  1  0  0  0
 41185  1  0  0  0
 42186  1  0  0  0
 43187  1  0  0  0
 46188  1  0  0  0
 46189  1  0  0  0
 47190  1  0  0  0
 48191  1  0  0  0
 48192  1  0  0  0
 48193  1  0  0  0
 49194  1  0  0  0
 49195  1  0  0  0
 49196  1  0  0  0
 50197  1  0  0  0
 51198  1  0  0  0
 54199  1  0  0  0
 54200  1  0  0  0
 55201  1  0  0  0
 55202  1  0  0  0
 56203  1  0  0  0
 56204  1  0  0  0
 57205  1  0  0  0
 59206  1  0  0  0
 60207  1  0  0  0
 60208  1  0  0  0
 61209  1  0  0  0
 62210  1  0  0  0
 65211  1  0  0  0
 66212  1  0  0  0
 66213  1  0  0  0
 66214  1  0  0  0
 67215  1  0  0  0
 67216  1  0  0  0
 67217  1  0  0  0
 68218  1  0  0  0
 69219  1  0  0  0
 72220  1  0  0  0
 72221  1  0  0  0
 73222  1  0  0  0
 73223  1  0  0  0
 76224  1  0  0  0
 76225  1  0  0  0
 77226  1  0  0  0
 78227  1  0  0  0
 81228  1  0  0  0
 81229  1  0  0  0
 81230  1  0  0  0
 82231  1  0  0  0
 83232  1  0  0  0
 86233  1  0  0  0
 86234  1  0  0  0
 89235  1  0  0  0
 90236  1  0  0  0
 92237  1  0  0  0
 93238  1  0  0  0
 96239  1  0  0  0
 97240  1  0  0  0
 97241  1  0  0  0
 98242  1  0  0  0
 98243  1  0  0  0
 98244  1  0  0  0
 99245  1  0  0  0
 99246  1  0  0  0
 99247  1  0  0  0
100248  1  0  0  0
101249  1  0  0  0
104250  1  0  0  0
104251  1  0  0  0
105252  1  0  0  0
105253  1  0  0  0
106254  1  0  0  0
106255  1  0  0  0
107256  1  0  0  0
109257  1  0  0  0
110258  1  0  0  0
110259  1  0  0  0
111260  1  0  0  0
112261  1  0  0  0
115262  1  0  0  0
115263  1  0  0  0
116264  1  0  0  0
116265  1  0  0  0
117266  1  0  0  0
117267  1  0  0  0
118268  1  0  0  0
118269  1  0  0  0
119270  1  0  0  0
119271  1  0  0  0
119272  1  0  0  0
120273  1  0  0  0
121274  1  0  0  0
124275  1  0  0  0
124276  1  0  0  0
125277  1  0  0  0
125278  1  0  0  0
126279  1  0  0  0
126280  1  0  0  0
126281  1  0  0  0
127282  1  0  0  0
128283  1  0  0  0
131284  1  0  0  0
131285  1  0  0  0
132286  1  0  0  0
132287  1  0  0  0
134288  1  0  0  0
134289  1  0  0  0
134290  1  0  0  0
135291  1  0  0  0
136292  1  0  0  0
139293  1  0  0  0
140294  1  0  0  0
140295  1  0  0  0
140296  1  0  0  0
141297  1  0  0  0
141298  1  0  0  0
141299  1  0  0  0
142300  1  0  0  0
M  END
$$$$
