4c66_ligand
  -I-interpret- 

 38 41  0  0  0  0  0  0  0  0999 V2000
   29.3350   51.2990    1.7690 C   0  0  0  0  0
   23.7170   50.2220    0.2760 N   0  0  0  0  0
   26.0480   50.9790    1.5380 S   0  0  0  0  0
   25.0280   53.4370   -4.4410 Cl  0  0  0  0  0
   28.5100   52.3040    1.1120 C   0  0  0  0  0
   21.9810   48.9480    0.7390 N   0  0  0  0  0
   27.2170   51.7740    0.5390 C   0  0  0  0  0
   21.5650   49.9550   -0.1250 N   0  0  0  0  0
   26.8550   51.9090   -0.7510 C   0  0  0  0  0
   23.5990   51.4980   -2.4850 N   0  0  0  0  0
   25.5650   51.3440   -0.9650 C   0  0  0  0  0
   25.0150   50.8180    0.1850 C   0  0  0  0  0
   23.2570   49.1190    0.9810 C   0  0  0  0  0
   24.0940   48.2520    1.8550 C   0  0  0  0  0
   22.6130   50.6900   -0.4040 C   0  0  0  0  0
   22.7190   51.8370   -1.3530 C   0  0  0  0  0
   24.9200   51.3200   -2.2450 C   0  0  0  0  0
   25.7970   51.0380   -3.4140 C   0  0  0  0  0
   26.5650   49.8710   -3.4620 C   0  0  0  0  0
   27.3280   49.5790   -4.5790 C   0  0  0  0  0
   27.3610   50.4470   -5.6470 C   0  0  0  0  0
   26.6430   51.6280   -5.6060 C   0  0  0  0  0
   25.8710   51.9170   -4.4890 C   0  0  0  0  0
   28.7782   50.8574    2.5954 H   0  0  0  0  0
   29.5997   50.5224    1.0514 H   0  0  0  0  0
   30.2422   51.7680    2.1500 H   0  0  0  0  0
   29.0907   52.6988    0.2784 H   0  0  0  0  0
   28.2451   53.0436    1.8676 H   0  0  0  0  0
   27.4626   52.3831   -1.5218 H   0  0  0  0  0
   24.8948   47.8076    1.2639 H   0  0  0  0  0
   24.5231   48.8529    2.6568 H   0  0  0  0  0
   23.4749   47.4630    2.2819 H   0  0  0  0  0
   21.7256   52.0693   -1.7367 H   0  0  0  0  0
   23.1388   52.6931   -0.8249 H   0  0  0  0  0
   26.5629   49.1863   -2.6139 H   0  0  0  0  0
   27.9065   48.6558   -4.6134 H   0  0  0  0  0
   27.9550   50.2025   -6.5277 H   0  0  0  0  0
   26.6828   52.3254   -6.4427 H   0  0  0  0  0
  5  1  1  0  0  0
 12  2  1  0  0  0
  2 13  4  0  0  0
  2 15  4  0  0  0
  3  7  4  0  0  0
 12  3  4  0  0  0
 23  4  1  0  0  0
  7  5  1  0  0  0
  8  6  4  0  0  0
 13  6  4  0  0  0
  9  7  4  0  0  0
 15  8  4  0  0  0
 11  9  4  0  0  0
 10 16  1  0  0  0
 17 10  2  0  0  0
 11 12  4  0  0  0
 17 11  1  0  0  0
 13 14  1  0  0  0
 16 15  1  0  0  0
 18 17  1  0  0  0
 18 19  4  0  0  0
 18 23  4  0  0  0
 19 20  4  0  0  0
 20 21  4  0  0  0
 21 22  4  0  0  0
 22 23  4  0  0  0
  1 24  1  0  0  0
  1 25  1  0  0  0
  1 26  1  0  0  0
  5 27  1  0  0  0
  5 28  1  0  0  0
  9 29  1  0  0  0
 14 30  1  0  0  0
 14 31  1  0  0  0
 14 32  1  0  0  0
 16 33  1  0  0  0
 16 34  1  0  0  0
 19 35  1  0  0  0
 20 36  1  0  0  0
 21 37  1  0  0  0
 22 38  1  0  0  0
M  END
$$$$
