1gt4_ligand
  -I-interpret- 

 34 33  0  0  0  0  0  0  0  0999 V2000
    0.3270   -0.6110    4.0530 C   0  0  0  0  0
    0.7400    0.7480    4.0240 C   0  0  0  0  0
   -0.4410    1.4870    3.4850 C   0  0  0  0  0
   -1.2870    0.9060    2.3390 C   0  0  0  0  0
   -2.0830   -0.3720    2.4620 C   0  0  0  0  0
   -3.3270   -0.4150    3.3690 C   0  0  0  0  0
   -3.0150   -0.7000    4.8570 C   0  0  0  0  0
   -1.7760   -0.1000    5.6070 C   0  0  0  0  0
   -1.8700   -0.1860    7.0830 C   0  0  0  0  0
   -0.4990   -0.4690    7.5560 C   0  0  0  0  0
   -0.1480   -1.8300    7.4530 C   0  0  0  0  0
   -0.4070   -2.5440    8.4170 O   0  0  0  0  0
   -0.5450   -0.7107    4.6994 H   0  0  0  0  0
    0.0714   -0.9333    3.0436 H   0  0  0  0  0
    1.1388   -1.2280    4.4382 H   0  0  0  0  0
    1.6277    0.8919    3.4080 H   0  0  0  0  0
    1.0310    1.1075    5.0110 H   0  0  0  0  0
   -0.0125    2.3954    3.0617 H   0  0  0  0  0
   -1.1319    1.5295    4.3270 H   0  0  0  0  0
   -0.5413    0.6596    1.5832 H   0  0  0  0  0
   -2.0578    1.6629    2.1941 H   0  0  0  0  0
   -1.3909   -1.0837    2.9122 H   0  0  0  0  0
   -2.4690   -0.5520    1.4587 H   0  0  0  0  0
   -3.9590   -1.2277    3.0109 H   0  0  0  0  0
   -3.7953    0.5681    3.3205 H   0  0  0  0  0
   -2.8120   -1.7709    4.8648 H   0  0  0  0  0
   -3.8596   -0.2471    5.3763 H   0  0  0  0  0
   -1.7192    0.9568    5.3463 H   0  0  0  0  0
   -0.9022   -0.6764    5.3032 H   0  0  0  0  0
   -2.5657   -0.9661    7.3919 H   0  0  0  0  0
   -2.2548    0.7396    7.5111 H   0  0  0  0  0
   -0.4486   -0.1930    8.6093 H   0  0  0  0  0
    0.1905    0.0989    6.9313 H   0  0  0  0  0
    0.3310   -2.2297    6.5592 H   0  0  0  0  0
  1  2  1  0  0  0
  2  3  1  0  0  0
  3  4  1  0  0  0
  4  5  1  0  0  0
  5  6  1  0  0  0
  6  7  1  0  0  0
  7  8  1  0  0  0
  8  9  1  0  0  0
  9 10  1  0  0  0
 10 11  1  0  0  0
 11 12  2  0  0  0
  1 13  1  0  0  0
  1 14  1  0  0  0
  1 15  1  0  0  0
  2 16  1  0  0  0
  2 17  1  0  0  0
  3 18  1  0  0  0
  3 19  1  0  0  0
  4 20  1  0  0  0
  4 21  1  0  0  0
  5 22  1  0  0  0
  5 23  1  0  0  0
  6 24  1  0  0  0
  6 25  1  0  0  0
  7 26  1  0  0  0
  7 27  1  0  0  0
  8 28  1  0  0  0
  8 29  1  0  0  0
  9 30  1  0  0  0
  9 31  1  0  0  0
 10 32  1  0  0  0
 10 33  1  0  0  0
 11 34  1  0  0  0
M  END
$$$$
