5ikb_ligand
  -I-interpret- 

 31 31  0  0  0  0  0  0  0  0999 V2000
   15.7050   20.5010   62.2950 N   0  3  0  0  0
   16.7640   21.5310   62.0930 C   0  0  0  0  0
   18.0800   23.7940   64.8920 C   0  0  0  0  0
   19.3290   22.7830   63.0470 C   0  0  0  0  0
   15.3530   20.3710   63.7090 C   0  0  0  0  0
   16.4870   21.1120   64.4140 C   0  0  0  0  0
   17.7190   20.2170   64.6850 C   0  0  0  0  0
   16.8030   22.2320   63.4380 C   0  0  0  0  0
   17.5820   19.1250   65.7530 C   0  0  0  0  0
   18.0690   23.0060   63.8350 C   0  0  0  0  0
   14.0060   21.0150   63.9190 C   0  0  0  0  0
   13.3950   21.4220   62.8700 O   0  0  0  0  0
   16.5290   19.0680   66.4150 O   0  0  0  0  0
   18.5010   18.3280   65.9200 O   0  0  0  0  0
   13.6690   21.2070   65.1120 O   0  0  0  0  0
   16.0581   19.6030   61.9643 H   0  0  0  0  0
   14.8729   20.7850   61.7780 H   0  0  0  0  0
   16.5490   22.2072   61.2656 H   0  0  0  0  0
   17.7251   21.1041   61.8064 H   0  0  0  0  0
   17.1815   23.9039   65.4992 H   0  0  0  0  0
   18.9876   24.3356   65.1586 H   0  0  0  0  0
   19.6876   23.7368   62.6600 H   0  0  0  0  0
   20.0879   22.3437   63.6944 H   0  0  0  0  0
   19.1222   22.1073   62.2171 H   0  0  0  0  0
   15.2615   19.3507   64.0816 H   0  0  0  0  0
   16.2067   21.4612   65.4078 H   0  0  0  0  0
   18.4944   20.8896   65.0518 H   0  0  0  0  0
   17.9092   19.6899   63.7501 H   0  0  0  0  0
   16.0977   23.0629   63.4206 H   0  0  0  0  0
   13.8736   21.1326   62.0897 H   0  0  0  0  0
   15.9394   19.7730   66.1376 H   0  0  0  0  0
  2  1  1  0  0  0
  5  1  1  0  0  0
  8  2  1  0  0  0
 10  3  2  0  0  0
 10  4  1  0  0  0
  6  5  1  0  0  0
  5 11  1  0  0  0
  6  7  1  0  0  0
  8  6  1  0  0  0
  7  9  1  0  0  0
  8 10  1  0  0  0
  9 13  1  0  0  0
  9 14  2  0  0  0
 11 12  1  0  0  0
 11 15  2  0  0  0
  1 16  1  0  0  0
  1 17  1  0  0  0
  2 18  1  0  0  0
  2 19  1  0  0  0
  3 20  1  0  0  0
  3 21  1  0  0  0
  4 22  1  0  0  0
  4 23  1  0  0  0
  4 24  1  0  0  0
  5 25  1  0  0  0
  6 26  1  0  0  0
  7 27  1  0  0  0
  7 28  1  0  0  0
  8 29  1  0  0  0
 12 30  1  0  0  0
 13 31  1  0  0  0
M  END
$$$$
