2wmu_ligand
  -I-interpret- 

 25 27  0  0  0  0  0  0  0  0999 V2000
   14.5360   -3.3190    9.0330 C   0  0  0  0  0
   14.3770   -4.8290    8.9910 C   0  0  0  0  0
   13.3390   -5.3460    9.8410 O   0  0  0  0  0
   12.1420   -4.7290    9.3330 C   0  0  0  0  0
   12.1560   -3.2090    9.4020 C   0  0  0  0  0
   13.1720   -1.6050    7.7920 C   0  0  0  0  0
   14.2450   -1.0080    7.2690 N   0  0  0  0  0
   14.0990    0.0540    6.5030 C   0  0  0  0  0
   12.9160    0.5840    6.2730 N   0  0  0  0  0
   11.8140    0.0530    6.8010 C   0  0  0  0  0
   11.9240   -1.0590    7.5900 C   0  0  0  0  0
   10.7100   -1.3910    7.9900 N   0  0  0  0  0
    9.8560   -0.5220    7.4730 C   0  0  0  0  0
   10.5280    0.3620    6.7470 N   0  0  0  0  0
   13.2830   -2.6980    8.6270 N   0  0  0  0  0
   15.3333   -3.0147    8.3549 H   0  0  0  0  0
   14.7907   -3.0046   10.0451 H   0  0  0  0  0
   15.3165   -5.2574    9.3400 H   0  0  0  0  0
   14.1103   -5.0922    7.9674 H   0  0  0  0  0
   11.3122   -5.0742    9.9497 H   0  0  0  0  0
   12.0553   -5.0054    8.2822 H   0  0  0  0  0
   12.2556   -2.8930   10.4404 H   0  0  0  0  0
   11.2251   -2.8177    8.9916 H   0  0  0  0  0
   14.9805    0.5055    6.0479 H   0  0  0  0  0
    8.7760   -0.5311    7.6199 H   0  0  0  0  0
  1  2  1  0  0  0
 15  1  1  0  0  0
  2  3  1  0  0  0
  4  3  1  0  0  0
  5  4  1  0  0  0
 15  5  1  0  0  0
  6  7  4  0  0  0
  6 11  4  0  0  0
  6 15  1  0  0  0
  7  8  4  0  0  0
  8  9  4  0  0  0
  9 10  4  0  0  0
 10 11  4  0  0  0
 10 14  4  0  0  0
 11 12  4  0  0  0
 12 13  4  0  0  0
 13 14  4  0  0  0
  1 16  1  0  0  0
  1 17  1  0  0  0
  2 18  1  0  0  0
  2 19  1  0  0  0
  4 20  1  0  0  0
  4 21  1  0  0  0
  5 22  1  0  0  0
  5 23  1  0  0  0
  8 24  1  0  0  0
 13 25  1  0  0  0
M  END
$$$$
