6b31_ligand
  -I-interpret- 

 61 63  0  0  0  0  0  0  0  0999 V2000
   31.3360   -9.9600    0.7190 N   0  0  0  0  0
   30.4290   -8.8990    0.9300 C   0  0  0  0  0
   29.0380   -9.0300    0.7830 C   0  0  0  0  0
   28.2110   -7.9310    0.9460 C   0  0  0  0  0
   28.7290   -6.6770    1.2930 C   0  0  0  0  0
   26.8160   -0.9490    0.0720 C   0  0  0  0  0
   27.5090   -4.3510   -1.3980 C   0  0  0  0  0
   32.0800   -6.0150   -1.7750 C   0  0  0  0  0
   31.6380   -7.3290   -2.0690 C   0  0  0  0  0
   32.5420   -8.4130   -2.2710 C   0  0  0  0  0
   30.2670   -7.6360   -2.1810 C   0  0  0  0  0
   29.3480   -6.6120   -1.9820 C   0  0  0  0  0
   30.9680   -7.6220    1.2430 C   0  0  0  0  0
   30.4200  -12.0070    1.6360 C   0  0  0  0  0
   30.8520  -11.2950    0.3560 C   0  0  0  0  0
   27.8520   -5.5720    1.3970 N   0  0  0  0  0
   28.2290   -4.2590    1.5240 C   0  0  0  0  0
   29.4140   -3.9500    1.6280 O   0  0  0  0  0
   27.1800   -3.1490    1.4800 C   0  0  0  0  0
   27.3330   -2.3950    0.1070 C   0  0  0  0  0
   26.7000   -3.1000   -1.1100 C   0  0  0  0  0
   26.9090   -5.4180   -1.4770 O   0  0  0  0  0
   28.8800   -4.2450   -1.4880 N   0  0  0  0  0
   29.7750   -5.2970   -1.6940 C   0  0  0  0  0
   31.1400   -5.0000   -1.5810 C   0  0  0  0  0
   33.2520   -9.2780   -2.4350 N   0  0  0  0  0
   29.7880   -9.2900   -2.5470 Cl  0  0  0  0  0
   30.1090   -6.5370    1.4150 C   0  0  0  0  0
   32.4440   -7.4490    1.3700 C   0  0  0  0  0
   32.9130   -6.3400    1.6380 O   0  0  0  0  0
   33.2450   -8.5390    1.1300 N   0  0  0  0  0
   34.7190   -8.4250    1.2400 C   0  0  0  0  0
   35.3280   -7.6350    0.0900 C   0  0  0  0  0
   32.6850   -9.7480    0.8100 C   0  0  0  0  0
   33.4290  -10.6940    0.5980 O   0  0  0  0  0
   28.6075  -10.0013    0.5395 H   0  0  0  0  0
   27.1366   -8.0443    0.8015 H   0  0  0  0  0
   25.7516   -0.9393    0.3066 H   0  0  0  0  0
   27.3568   -0.3532    0.8073 H   0  0  0  0  0
   26.9740   -0.5320   -0.9226 H   0  0  0  0  0
   33.1456   -5.7979   -1.7008 H   0  0  0  0  0
   28.2816   -6.8274   -2.0493 H   0  0  0  0  0
   31.2719  -12.0864    2.3113 H   0  0  0  0  0
   29.6254  -11.4366    2.1170 H   0  0  0  0  0
   30.0554  -13.0044    1.3901 H   0  0  0  0  0
   31.6420  -11.8592   -0.1395 H   0  0  0  0  0
   30.0104  -11.2153   -0.3321 H   0  0  0  0  0
   26.8514   -5.7687    1.3757 H   0  0  0  0  0
   27.3266   -2.4573    2.3095 H   0  0  0  0  0
   26.1791   -3.5711    1.5700 H   0  0  0  0  0
   28.4202   -2.4017    0.0291 H   0  0  0  0  0
   25.6635   -3.3617   -0.8974 H   0  0  0  0  0
   26.7080   -2.4379   -1.9758 H   0  0  0  0  0
   29.2784   -3.3106   -1.3955 H   0  0  0  0  0
   31.4650   -3.9869   -1.3441 H   0  0  0  0  0
   30.5269   -5.5581    1.6500 H   0  0  0  0  0
   35.1375   -9.4312    1.2166 H   0  0  0  0  0
   34.9482   -7.9007    2.1677 H   0  0  0  0  0
   35.0978   -8.1318   -0.8525 H   0  0  0  0  0
   34.9117   -6.6276    0.0823 H   0  0  0  0  0
   36.4090   -7.5819    0.2197 H   0  0  0  0  0
  2  1  1  0  0  0
  1 15  1  0  0  0
  1 34  1  0  0  0
  3  2  4  0  0  0
 13  2  4  0  0  0
  4  3  4  0  0  0
  5  4  4  0  0  0
 16  5  1  0  0  0
  5 28  4  0  0  0
 20  6  1  0  0  0
  7 21  1  0  0  0
  7 22  2  0  0  0
 23  7  1  0  0  0
  9  8  4  0  0  0
  8 25  4  0  0  0
  9 10  1  0  0  0
 11  9  4  0  0  0
 10 26  3  0  0  0
 12 11  4  0  0  0
 11 27  1  0  0  0
 24 12  4  0  0  0
 28 13  4  0  0  0
 13 29  1  0  0  0
 15 14  1  0  0  0
 17 16  1  0  0  0
 17 18  2  0  0  0
 19 17  1  0  0  0
 20 19  1  0  0  0
 21 20  1  0  0  0
 23 24  1  0  0  0
 24 25  4  0  0  0
 29 30  2  0  0  0
 29 31  1  0  0  0
 31 32  1  0  0  0
 31 34  1  0  0  0
 32 33  1  0  0  0
 34 35  2  0  0  0
  3 36  1  0  0  0
  4 37  1  0  0  0
  6 38  1  0  0  0
  6 39  1  0  0  0
  6 40  1  0  0  0
  8 41  1  0  0  0
 12 42  1  0  0  0
 14 43  1  0  0  0
 14 44  1  0  0  0
 14 45  1  0  0  0
 15 46  1  0  0  0
 15 47  1  0  0  0
 16 48  1  0  0  0
 19 49  1  0  0  0
 19 50  1  0  0  0
 20 51  1  0  0  0
 21 52  1  0  0  0
 21 53  1  0  0  0
 23 54  1  0  0  0
 25 55  1  0  0  0
 28 56  1  0  0  0
 32 57  1  0  0  0
 32 58  1  0  0  0
 33 59  1  0  0  0
 33 60  1  0  0  0
 33 61  1  0  0  0
M  END
$$$$
