### 
### Created by X-TOOL on Mon Sep 10 21:12:58 2018
### 

@<TRIPOS>MOLECULE
3eg6_ligand
  136   136     1     0     0
SMALL
GAST_HUCK


@<TRIPOS>ATOM
      1 C         -12.7110  -30.9050  -13.5060 C.2       1 ACE         0.1749
      2 O         -12.5880  -30.2860  -14.5610 O.2       1 ACE        -0.3972
      3 CH3       -14.0050  -31.5940  -13.1620 C.3       1 ACE         0.0258
      4 N         -11.7290  -31.0150  -12.6170 N.am      1 GLY        -0.2685
      5 CA        -10.4370  -30.3920  -12.8650 C.3       1 GLY         0.1200
      6 C         -10.0070  -29.4860  -11.7320 C.2       1 GLY         0.2008
      7 O          -8.8330  -29.1500  -11.6060 O.2       1 GLY        -0.3947
      8 N         -10.9660  -29.0820  -10.9080 N.am      1 SER        -0.2618
      9 CA        -10.6790  -28.2350   -9.7600 C.3       1 SER         0.1539
     10 C         -11.7020  -28.5660   -8.6790 C.2       1 SER         0.2062
     11 O         -12.8150  -28.9980   -8.9840 O.2       1 SER        -0.3943
     12 CB        -10.7680  -26.7530  -10.1360 C.3       1 SER         0.0843
     13 OG        -12.1010  -26.3660  -10.4060 O.3       1 SER        -0.3903
     14 N         -11.3250  -28.3640   -7.4210 N.am      1 ALA        -0.2639
     15 CA        -12.2080  -28.6620   -6.3030 C.3       1 ALA         0.1282
     16 C         -13.6520  -28.1800   -6.4660 C.2       1 ALA         0.2036
     17 O         -14.5850  -28.9440   -6.2460 O.2       1 ALA        -0.3944
     18 CB        -11.6140  -28.1020   -5.0100 C.3       1 ALA        -0.0244
     19 N         -13.8510  -26.9230   -6.8550 N.am      1 ARG        -0.2637
     20 CA        -15.2160  -26.4230   -6.9940 C.3       1 ARG         0.1311
     21 C         -16.0560  -27.1290   -8.0520 C.2       1 ARG         0.2039
     22 O         -17.2770  -27.1700   -7.9450 O.2       1 ARG        -0.3944
     23 CB        -15.2220  -24.9210   -7.2800 C.3       1 ARG        -0.0092
     24 CG        -16.6210  -24.3190   -7.1820 C.3       1 ARG        -0.0156
     25 CD        -16.5870  -22.8190   -7.3480 C.3       1 ARG         0.0627
     26 NE        -15.7440  -22.1700   -6.3470 N.pl3     1 ARG        -0.2723
     27 CZ        -16.1640  -21.7450   -5.1600 C.cat     1 ARG         0.2882
     28 NH1       -17.4320  -21.9000   -4.7980 N.pl3     1 ARG        -0.2849
     29 NH2       -15.3180  -21.1300   -4.3420 N.pl3     1 ARG        -0.2849
     30 N         -15.4100  -27.6810   -9.0730 N.am      1 ALA        -0.2640
     31 CA        -16.1350  -28.3690  -10.1380 C.3       1 ALA         0.1282
     32 C         -16.3540  -29.8400   -9.7920 C.2       1 ALA         0.2036
     33 O         -16.8380  -30.6140  -10.6160 O.2       1 ALA        -0.3944
     34 CB        -15.3710  -28.2450  -11.4540 C.3       1 ALA        -0.0244
     35 N         -15.9990  -30.2160   -8.5680 N.am      1 GLU        -0.2636
     36 CA        -16.1560  -31.5980   -8.1150 C.3       1 GLU         0.1325
     37 C         -17.1160  -31.6680   -6.9330 C.2       1 GLU         0.2040
     38 O         -17.3770  -30.6630   -6.2690 O.2       1 GLU        -0.3944
     39 CB        -14.7990  -32.1690   -7.6880 C.3       1 GLU        -0.0008
     40 CG        -13.7160  -32.1020   -8.7570 C.3       1 GLU         0.0044
     41 CD        -13.8920  -33.1420   -9.8440 C.2       1 GLU         0.0350
     42 OE1       -14.9320  -33.8380   -9.8480 O.co2     1 GLU        -0.5690
     43 OE2       -12.9870  -33.2640  -10.6980 O.co2     1 GLU        -0.5690
     44 N         -17.6440  -32.8590   -6.6710 N.am      1 VAL        -0.2635
     45 CA        -18.5500  -33.0460   -5.5470 C.3       1 VAL         0.1333
     46 C         -17.7150  -33.5200   -4.3640 C.2       1 VAL         0.2042
     47 O         -16.8140  -34.3410   -4.5280 O.2       1 VAL        -0.3944
     48 CB        -19.6260  -34.1090   -5.8570 C.3       1 VAL        -0.0063
     49 CG1       -20.4930  -34.3470   -4.6290 C.3       1 VAL        -0.0584
     50 CG2       -20.4810  -33.6550   -7.0260 C.3       1 VAL        -0.0584
     51 N         -18.0060  -32.9920   -3.1800 N.am      1 HIS        -0.2625
     52 CA        -17.2770  -33.3780   -1.9770 C.3       1 HIS         0.1369
     53 C         -18.1950  -34.0540   -0.9660 C.2       1 HIS         0.2048
     54 O         -19.2460  -33.5220   -0.6110 O.2       1 HIS        -0.3943
     55 CB        -16.6250  -32.1570   -1.3230 C.3       1 HIS         0.0145
     56 CG        -15.8730  -32.4770   -0.0660 C.2       1 HIS        -0.0027
     57 ND1       -14.6860  -33.1760   -0.0660 N.2       1 HIS        -0.3252
     58 CD2       -16.1530  -32.2130    1.2330 C.2       1 HIS         0.0291
     59 CE1       -14.2660  -33.3300    1.1780 C.2       1 HIS         0.0907
     60 NE2       -15.1390  -32.7550    1.9850 N.pl3     1 HIS        -0.2752
     61 N         -17.7860  -35.2270   -0.5010 N.am      1 LEU        -0.2694
     62 CA        -18.5590  -35.9820    0.4760 C.3       1 LEU         0.0946
     63 C         -18.1310  -35.6330    1.9000 C.2       1 LEU         0.0601
     64 O         -17.1381  -36.2401    2.3828 O.co2     1 LEU        -0.5666
     65 CB        -18.3920  -37.4850    0.2320 C.3       1 LEU        -0.0156
     66 CG        -19.1430  -38.0960   -0.9580 C.3       1 LEU        -0.0431
     67 CD1       -18.7500  -37.4080   -2.2570 C.3       1 LEU        -0.0625
     68 CD2       -18.8340  -39.5820   -1.0280 C.3       1 LEU        -0.0625
     69 O59       -18.7513  -34.7653    2.5708 O.co2     1 LEU        -0.5666
     70 H1        -13.9091  -32.0867  -12.1832 H         1 ACE         0.0467
     71 H2        -14.2352  -32.3467  -13.9304 H         1 ACE         0.0467
     72 H3        -14.8160  -30.8519  -13.1210 H         1 ACE         0.0467
     73 H4        -11.8787  -31.5290  -11.7724 H         1 GLY         0.1880
     74 H5        -10.5030  -29.7968  -13.7877 H         1 GLY         0.0763
     75 H6         -9.6822  -31.1821  -12.9915 H         1 GLY         0.0763
     76 H7        -11.9090  -29.3667  -11.0804 H         1 SER         0.1884
     77 H8         -9.6659  -28.4497   -9.3892 H         1 SER         0.0823
     78 H9        -10.1555  -26.5741  -11.0320 H         1 SER         0.0606
     79 H10       -10.3825  -26.1487   -9.3016 H         1 SER         0.0606
     80 H11       -12.1217  -25.4443  -10.6353 H         1 SER         0.2097
     81 H12       -10.4124  -27.9983   -7.2379 H         1 ALA         0.1883
     82 H13       -12.2466  -29.7574   -6.2105 H         1 ALA         0.0797
     83 H14       -12.2854  -28.3302   -4.1691 H         1 ALA         0.0277
     84 H15       -11.4985  -27.0119   -5.1015 H         1 ALA         0.0277
     85 H16       -10.6309  -28.5610   -4.8292 H         1 ALA         0.0277
     86 H17       -13.0728  -26.3262   -7.0504 H         1 ARG         0.1883
     87 H18       -15.7122  -26.5850   -6.0257 H         1 ARG         0.0800
     88 H19       -14.8347  -24.7526   -8.2957 H         1 ARG         0.0313
     89 H20       -14.5690  -24.4193   -6.5507 H         1 ARG         0.0313
     90 H21       -17.0466  -24.5606   -6.1969 H         1 ARG         0.0301
     91 H22       -17.2533  -24.7523   -7.9709 H         1 ARG         0.0301
     92 H23       -17.6114  -22.4293   -7.2543 H         1 ARG         0.0689
     93 H24       -16.1947  -22.5824   -8.3481 H         1 ARG         0.0689
     94 H25       -14.7499  -22.0315   -6.5785 H         1 ARG         0.2642
     95 H26       -17.7487  -21.5675   -3.8760 H         1 ARG         0.2615
     96 H27       -18.0990  -22.3527   -5.4392 H         1 ARG         0.2615
     97 H28       -14.3331  -21.0068   -4.6173 H         1 ARG         0.2615
     98 H29       -15.6466  -20.7762   -3.4322 H         1 ARG         0.2615
     99 H30       -14.4124  -27.6247   -9.1131 H         1 ALA         0.1883
    100 H31       -17.1180  -27.8897  -10.2559 H         1 ALA         0.0797
    101 H32       -15.9241  -28.7657  -12.2495 H         1 ALA         0.0277
    102 H33       -14.3746  -28.6977  -11.3436 H         1 ALA         0.0277
    103 H34       -15.2639  -27.1823  -11.7171 H         1 ALA         0.0277
    104 H35       -15.6152  -29.5378   -7.9413 H         1 GLU         0.1883
    105 H36       -16.5584  -32.2008   -8.9425 H         1 GLU         0.0801
    106 H37       -14.9427  -33.2239   -7.4114 H         1 GLU         0.0330
    107 H38       -14.4502  -31.6042   -6.8109 H         1 GLU         0.0330
    108 H39       -12.7390  -32.2591   -8.2765 H         1 GLU         0.0433
    109 H40       -13.7411  -31.1042   -9.2193 H         1 GLU         0.0433
    110 H41       -17.4156  -33.6383   -7.2546 H         1 VAL         0.1883
    111 H42       -19.0408  -32.0916   -5.3059 H         1 VAL         0.0802
    112 H43       -19.1275  -35.0516   -6.1271 H         1 VAL         0.0343
    113 H44       -21.2557  -35.1052   -4.8600 H         1 VAL         0.0234
    114 H45       -20.9861  -33.4070   -4.3405 H         1 VAL         0.0234
    115 H46       -19.8639  -34.7009   -3.7989 H         1 VAL         0.0234
    116 H47       -19.8411  -33.4873   -7.9049 H         1 VAL         0.0234
    117 H48       -20.9949  -32.7188   -6.7626 H         1 VAL         0.0234
    118 H49       -21.2265  -34.4299   -7.2578 H         1 VAL         0.0234
    119 H50       -18.7399  -32.3161   -3.1122 H         1 HIS         0.1885
    120 H51       -16.4878  -34.0882   -2.2645 H         1 HIS         0.0817
    121 H52       -17.4141  -31.4301   -1.0802 H         1 HIS         0.0420
    122 H53       -15.9237  -31.7102   -2.0431 H         1 HIS         0.0420
    123 H54       -17.0197  -31.6723    1.6104 H         1 HIS         0.0729
    124 H55       -13.3558  -33.8432    1.4848 H         1 HIS         0.1199
    125 H56       -15.0707  -32.7187    3.0121 H         1 HIS         0.2361
    126 H57       -16.9208  -35.6045   -0.8311 H         1 LEU         0.1875
    127 H58       -19.6211  -35.7217    0.3569 H         1 LEU         0.0726
    128 H59       -18.7320  -38.0061    1.1391 H         1 LEU         0.0308
    129 H60       -17.3198  -37.6771    0.0789 H         1 LEU         0.0308
    130 H61       -20.2239  -37.9627   -0.8035 H         1 LEU         0.0297
    131 H62       -19.3005  -37.8627   -3.0938 H         1 LEU         0.0232
    132 H63       -17.6689  -37.5262   -2.4220 H         1 LEU         0.0232
    133 H64       -18.9966  -36.3378   -2.1943 H         1 LEU         0.0232
    134 H65       -19.1243  -40.0618   -0.0817 H         1 LEU         0.0232
    135 H66       -17.7564  -39.7249   -1.1960 H         1 LEU         0.0232
    136 H67       -19.3976  -40.0351   -1.8568 H         1 LEU         0.0232
@<TRIPOS>BOND
     1    1    2 2  
     2    1    3 1  
     3    1    4 am 
     4    4    5 1  
     5    5    6 1  
     6    6    7 2  
     7    6    8 am 
     8    8    9 1  
     9    9   10 1  
    10    9   12 1  
    11   10   11 2  
    12   10   14 am 
    13   12   13 1  
    14   14   15 1  
    15   15   16 1  
    16   15   18 1  
    17   16   17 2  
    18   16   19 am 
    19   19   20 1  
    20   20   21 1  
    21   20   23 1  
    22   21   22 2  
    23   21   30 am 
    24   23   24 1  
    25   24   25 1  
    26   25   26 1  
    27   26   27 ar 
    28   27   28 ar 
    29   27   29 ar 
    30   30   31 1  
    31   31   32 1  
    32   31   34 1  
    33   32   33 2  
    34   32   35 am 
    35   35   36 1  
    36   36   37 1  
    37   36   39 1  
    38   37   38 2  
    39   37   44 am 
    40   39   40 1  
    41   40   41 1  
    42   41   42 ar 
    43   41   43 ar 
    44   44   45 1  
    45   45   46 1  
    46   45   48 1  
    47   46   47 2  
    48   46   51 am 
    49   48   49 1  
    50   48   50 1  
    51   51   52 1  
    52   52   53 1  
    53   52   55 1  
    54   53   54 2  
    55   53   61 am 
    56   55   56 1  
    57   56   57 1  
    58   56   58 2  
    59   57   59 2  
    60   58   60 1  
    61   59   60 1  
    62   61   62 1  
    63   62   63 1  
    64   62   65 1  
    65   63   64 ar 
    66   65   66 1  
    67   66   67 1  
    68   66   68 1  
    69   63   69 ar 
    70    3   70 1  
    71    3   71 1  
    72    3   72 1  
    73    4   73 1  
    74    5   74 1  
    75    5   75 1  
    76    8   76 1  
    77    9   77 1  
    78   12   78 1  
    79   12   79 1  
    80   13   80 1  
    81   14   81 1  
    82   15   82 1  
    83   18   83 1  
    84   18   84 1  
    85   18   85 1  
    86   19   86 1  
    87   20   87 1  
    88   23   88 1  
    89   23   89 1  
    90   24   90 1  
    91   24   91 1  
    92   25   92 1  
    93   25   93 1  
    94   26   94 1  
    95   28   95 1  
    96   28   96 1  
    97   29   97 1  
    98   29   98 1  
    99   30   99 1  
   100   31  100 1  
   101   34  101 1  
   102   34  102 1  
   103   34  103 1  
   104   35  104 1  
   105   36  105 1  
   106   39  106 1  
   107   39  107 1  
   108   40  108 1  
   109   40  109 1  
   110   44  110 1  
   111   45  111 1  
   112   48  112 1  
   113   49  113 1  
   114   49  114 1  
   115   49  115 1  
   116   50  116 1  
   117   50  117 1  
   118   50  118 1  
   119   51  119 1  
   120   52  120 1  
   121   55  121 1  
   122   55  122 1  
   123   58  123 1  
   124   59  124 1  
   125   60  125 1  
   126   61  126 1  
   127   62  127 1  
   128   65  128 1  
   129   65  129 1  
   130   66  130 1  
   131   67  131 1  
   132   67  132 1  
   133   67  133 1  
   134   68  134 1  
   135   68  135 1  
   136   68  136 1  
@<TRIPOS>SUBSTRUCTURE
     1 ACE         1

