3eg6_ligand
  -I-interpret- 

136136  0  0  0  0  0  0  0  0999 V2000
  -12.7110  -30.9050  -13.5060 C   0  0  0  0  0
  -12.5880  -30.2860  -14.5610 O   0  0  0  0  0
  -14.0050  -31.5940  -13.1620 C   0  0  0  0  0
  -11.7290  -31.0150  -12.6170 N   0  0  0  0  0
  -10.4370  -30.3920  -12.8650 C   0  0  0  0  0
  -10.0070  -29.4860  -11.7320 C   0  0  0  0  0
   -8.8330  -29.1500  -11.6060 O   0  0  0  0  0
  -10.9660  -29.0820  -10.9080 N   0  0  0  0  0
  -10.6790  -28.2350   -9.7600 C   0  0  0  0  0
  -11.7020  -28.5660   -8.6790 C   0  0  0  0  0
  -12.8150  -28.9980   -8.9840 O   0  0  0  0  0
  -10.7680  -26.7530  -10.1360 C   0  0  0  0  0
  -12.1010  -26.3660  -10.4060 O   0  0  0  0  0
  -11.3250  -28.3640   -7.4210 N   0  0  0  0  0
  -12.2080  -28.6620   -6.3030 C   0  0  0  0  0
  -13.6520  -28.1800   -6.4660 C   0  0  0  0  0
  -14.5850  -28.9440   -6.2460 O   0  0  0  0  0
  -11.6140  -28.1020   -5.0100 C   0  0  0  0  0
  -13.8510  -26.9230   -6.8550 N   0  0  0  0  0
  -15.2160  -26.4230   -6.9940 C   0  0  0  0  0
  -16.0560  -27.1290   -8.0520 C   0  0  0  0  0
  -17.2770  -27.1700   -7.9450 O   0  0  0  0  0
  -15.2220  -24.9210   -7.2800 C   0  0  0  0  0
  -16.6210  -24.3190   -7.1820 C   0  0  0  0  0
  -16.5870  -22.8190   -7.3480 C   0  0  0  0  0
  -15.7440  -22.1700   -6.3470 N   0  0  0  0  0
  -16.1640  -21.7450   -5.1600 C   0  0  0  0  0
  -17.4320  -21.9000   -4.7980 N   0  0  0  0  0
  -15.3180  -21.1300   -4.3420 N   0  0  0  0  0
  -15.4100  -27.6810   -9.0730 N   0  0  0  0  0
  -16.1350  -28.3690  -10.1380 C   0  0  0  0  0
  -16.3540  -29.8400   -9.7920 C   0  0  0  0  0
  -16.8380  -30.6140  -10.6160 O   0  0  0  0  0
  -15.3710  -28.2450  -11.4540 C   0  0  0  0  0
  -15.9990  -30.2160   -8.5680 N   0  0  0  0  0
  -16.1560  -31.5980   -8.1150 C   0  0  0  0  0
  -17.1160  -31.6680   -6.9330 C   0  0  0  0  0
  -17.3770  -30.6630   -6.2690 O   0  0  0  0  0
  -14.7990  -32.1690   -7.6880 C   0  0  0  0  0
  -13.7160  -32.1020   -8.7570 C   0  0  0  0  0
  -13.8920  -33.1420   -9.8440 C   0  0  0  0  0
  -14.9320  -33.8380   -9.8480 O   0  0  0  0  0
  -12.9870  -33.2640  -10.6980 O   0  0  0  0  0
  -17.6440  -32.8590   -6.6710 N   0  0  0  0  0
  -18.5500  -33.0460   -5.5470 C   0  0  0  0  0
  -17.7150  -33.5200   -4.3640 C   0  0  0  0  0
  -16.8140  -34.3410   -4.5280 O   0  0  0  0  0
  -19.6260  -34.1090   -5.8570 C   0  0  0  0  0
  -20.4930  -34.3470   -4.6290 C   0  0  0  0  0
  -20.4810  -33.6550   -7.0260 C   0  0  0  0  0
  -18.0060  -32.9920   -3.1800 N   0  0  0  0  0
  -17.2770  -33.3780   -1.9770 C   0  0  0  0  0
  -18.1950  -34.0540   -0.9660 C   0  0  0  0  0
  -19.2460  -33.5220   -0.6110 O   0  0  0  0  0
  -16.6250  -32.1570   -1.3230 C   0  0  0  0  0
  -15.8730  -32.4770   -0.0660 C   0  0  0  0  0
  -14.6860  -33.1760   -0.0660 N   0  0  0  0  0
  -16.1530  -32.2130    1.2330 C   0  0  0  0  0
  -14.2660  -33.3300    1.1780 C   0  0  0  0  0
  -15.1390  -32.7550    1.9850 N   0  0  0  0  0
  -17.7860  -35.2270   -0.5010 N   0  0  0  0  0
  -18.5590  -35.9820    0.4760 C   0  0  0  0  0
  -18.1310  -35.6330    1.9000 C   0  0  0  0  0
  -17.1381  -36.2401    2.3828 O   0  0  0  0  0
  -18.3920  -37.4850    0.2320 C   0  0  0  0  0
  -19.1430  -38.0960   -0.9580 C   0  0  0  0  0
  -18.7500  -37.4080   -2.2570 C   0  0  0  0  0
  -18.8340  -39.5820   -1.0280 C   0  0  0  0  0
  -18.7513  -34.7653    2.5708 O   0  0  0  0  0
  -14.8077  -30.8577  -13.1218 H   0  0  0  0  0
  -14.2320  -32.3395  -13.9241 H   0  0  0  0  0
  -13.9087  -32.0818  -12.1920 H   0  0  0  0  0
  -11.8817  -31.5393  -11.7555 H   0  0  0  0  0
  -10.5220  -29.7866  -13.7674 H   0  0  0  0  0
   -9.6943  -31.1836  -12.9645 H   0  0  0  0  0
  -11.9279  -29.3724  -11.0838 H   0  0  0  0  0
   -9.6654  -28.4194   -9.4040 H   0  0  0  0  0
  -10.1721  -26.5881  -11.0337 H   0  0  0  0  0
  -10.3998  -26.1614   -9.2978 H   0  0  0  0  0
  -12.1219  -25.4346  -10.6377 H   0  0  0  0  0
  -10.3942  -27.9910   -7.2342 H   0  0  0  0  0
  -12.2718  -29.7495   -6.2674 H   0  0  0  0  0
  -10.6399  -28.5576   -4.8320 H   0  0  0  0  0
  -11.5000  -27.0219   -5.1020 H   0  0  0  0  0
  -12.2802  -28.3288   -4.1776 H   0  0  0  0  0
  -13.0572  -26.3142   -7.0543 H   0  0  0  0  0
  -15.6807  -26.6394   -6.0321 H   0  0  0  0  0
  -14.8584  -24.7686   -8.2962 H   0  0  0  0  0
  -14.5907  -24.4326   -6.5377 H   0  0  0  0  0
  -17.0293  -24.5495   -6.1980 H   0  0  0  0  0
  -17.2365  -24.7416   -7.9762 H   0  0  0  0  0
  -17.6031  -22.4424   -7.2303 H   0  0  0  0  0
  -16.1754  -22.5968   -8.3325 H   0  0  0  0  0
  -14.7596  -22.0328   -6.5762 H   0  0  0  0  0
  -18.0925  -22.3483   -5.4329 H   0  0  0  0  0
  -15.6434  -20.7796   -3.4410 H   0  0  0  0  0
  -14.3427  -21.0080   -4.6146 H   0  0  0  0  0
  -14.3924  -27.6235   -9.1139 H   0  0  0  0  0
  -17.1122  -27.8982  -10.2454 H   0  0  0  0  0
  -15.2655  -27.1916  -11.7135 H   0  0  0  0  0
  -14.3839  -28.6938  -11.3433 H   0  0  0  0  0
  -15.9201  -28.7613  -12.2414 H   0  0  0  0  0
  -15.6075  -29.5242   -7.9288 H   0  0  0  0  0
  -16.5590  -32.1828   -8.9419 H   0  0  0  0  0
  -14.9557  -33.2234   -7.4605 H   0  0  0  0  0
  -14.4524  -31.5685   -6.8469 H   0  0  0  0  0
  -12.7581  -32.2882   -8.2713 H   0  0  0  0  0
  -13.7722  -31.1194   -9.2254 H   0  0  0  0  0
  -15.4895  -33.5825   -9.1094 H   0  0  0  0  0
  -17.4110  -33.6539   -7.2662 H   0  0  0  0  0
  -19.0606  -32.1066   -5.3352 H   0  0  0  0  0
  -19.1351  -35.0448   -6.1243 H   0  0  0  0  0
  -19.8685  -34.6975   -3.8073 H   0  0  0  0  0
  -20.9810  -33.4149   -4.3441 H   0  0  0  0  0
  -21.2483  -35.0984   -4.8592 H   0  0  0  0  0
  -20.9681  -32.7130   -6.7740 H   0  0  0  0  0
  -19.8498  -33.5156   -7.9036 H   0  0  0  0  0
  -21.2369  -34.4114   -7.2370 H   0  0  0  0  0
  -18.7545  -32.3026   -3.1109 H   0  0  0  0  0
  -16.5045  -34.0845   -2.2808 H   0  0  0  0  0
  -17.4233  -31.4637   -1.0580 H   0  0  0  0  0
  -15.9092  -31.7483   -2.0362 H   0  0  0  0  0
  -17.0205  -31.6718    1.6108 H   0  0  0  0  0
  -13.3550  -33.8437    1.4851 H   0  0  0  0  0
  -16.9035  -35.6120   -0.8377 H   0  0  0  0  0
  -19.6092  -35.7144    0.3591 H   0  0  0  0  0
  -18.7982  -37.9733    1.1178 H   0  0  0  0  0
  -17.3334  -37.6320    0.0181 H   0  0  0  0  0
  -20.2144  -37.9523   -0.8182 H   0  0  0  0  0
  -18.9948  -36.3477   -2.1936 H   0  0  0  0  0
  -17.6786  -37.5258   -2.4193 H   0  0  0  0  0
  -19.2961  -37.8594   -3.0854 H   0  0  0  0  0
  -17.7610  -39.7229   -1.1582 H   0  0  0  0  0
  -19.1554  -40.0625   -0.1039 H   0  0  0  0  0
  -19.3647  -40.0228   -1.8719 H   0  0  0  0  0
  -19.4728  -34.4118    2.0454 H   0  0  0  0  0
  1  2  2  0  0  0
  1  3  1  0  0  0
  1  4  1  0  0  0
  4  5  1  0  0  0
  5  6  1  0  0  0
  6  7  2  0  0  0
  6  8  1  0  0  0
  8  9  1  0  0  0
  9 10  1  0  0  0
  9 12  1  0  0  0
 10 11  2  0  0  0
 10 14  1  0  0  0
 12 13  1  0  0  0
 14 15  1  0  0  0
 15 16  1  0  0  0
 15 18  1  0  0  0
 16 17  2  0  0  0
 16 19  1  0  0  0
 19 20  1  0  0  0
 20 21  1  0  0  0
 20 23  1  0  0  0
 21 22  2  0  0  0
 21 30  1  0  0  0
 23 24  1  0  0  0
 24 25  1  0  0  0
 25 26  1  0  0  0
 26 27  1  0  0  0
 27 28  2  0  0  0
 27 29  1  0  0  0
 30 31  1  0  0  0
 31 32  1  0  0  0
 31 34  1  0  0  0
 32 33  2  0  0  0
 32 35  1  0  0  0
 35 36  1  0  0  0
 36 37  1  0  0  0
 36 39  1  0  0  0
 37 38  2  0  0  0
 37 44  1  0  0  0
 39 40  1  0  0  0
 40 41  1  0  0  0
 41 42  1  0  0  0
 41 43  2  0  0  0
 44 45  1  0  0  0
 45 46  1  0  0  0
 45 48  1  0  0  0
 46 47  2  0  0  0
 46 51  1  0  0  0
 48 49  1  0  0  0
 48 50  1  0  0  0
 51 52  1  0  0  0
 52 53  1  0  0  0
 52 55  1  0  0  0
 53 54  2  0  0  0
 53 61  1  0  0  0
 55 56  1  0  0  0
 56 57  4  0  0  0
 56 58  4  0  0  0
 57 59  4  0  0  0
 58 60  4  0  0  0
 59 60  4  0  0  0
 61 62  1  0  0  0
 62 63  1  0  0  0
 62 65  1  0  0  0
 63 64  2  0  0  0
 65 66  1  0  0  0
 66 67  1  0  0  0
 66 68  1  0  0  0
 63 69  1  0  0  0
  3 70  1  0  0  0
  3 71  1  0  0  0
  3 72  1  0  0  0
  4 73  1  0  0  0
  5 74  1  0  0  0
  5 75  1  0  0  0
  8 76  1  0  0  0
  9 77  1  0  0  0
 12 78  1  0  0  0
 12 79  1  0  0  0
 13 80  1  0  0  0
 14 81  1  0  0  0
 15 82  1  0  0  0
 18 83  1  0  0  0
 18 84  1  0  0  0
 18 85  1  0  0  0
 19 86  1  0  0  0
 20 87  1  0  0  0
 23 88  1  0  0  0
 23 89  1  0  0  0
 24 90  1  0  0  0
 24 91  1  0  0  0
 25 92  1  0  0  0
 25 93  1  0  0  0
 26 94  1  0  0  0
 28 95  1  0  0  0
 29 96  1  0  0  0
 29 97  1  0  0  0
 30 98  1  0  0  0
 31 99  1  0  0  0
 34100  1  0  0  0
 34101  1  0  0  0
 34102  1  0  0  0
 35103  1  0  0  0
 36104  1  0  0  0
 39105  1  0  0  0
 39106  1  0  0  0
 40107  1  0  0  0
 40108  1  0  0  0
 42109  1  0  0  0
 44110  1  0  0  0
 45111  1  0  0  0
 48112  1  0  0  0
 49113  1  0  0  0
 49114  1  0  0  0
 49115  1  0  0  0
 50116  1  0  0  0
 50117  1  0  0  0
 50118  1  0  0  0
 51119  1  0  0  0
 52120  1  0  0  0
 55121  1  0  0  0
 55122  1  0  0  0
 58123  1  0  0  0
 59124  1  0  0  0
 61125  1  0  0  0
 62126  1  0  0  0
 65127  1  0  0  0
 65128  1  0  0  0
 66129  1  0  0  0
 67130  1  0  0  0
 67131  1  0  0  0
 67132  1  0  0  0
 68133  1  0  0  0
 68134  1  0  0  0
 68135  1  0  0  0
 69136  1  0  0  0
M  END
$$$$
