1q9d_ligand
  -I-interpret- 

 75 79  0  0  0  0  0  0  0  0999 V2000
   45.4720   74.5560   22.4890 O   0  0  0  0  0
   44.8790   75.5310   21.6990 C   0  0  0  0  0
   44.4870   76.7430   22.2660 C   0  0  0  0  0
   43.8980   77.7090   21.4760 C   0  0  0  0  0
   43.6800   77.5020   20.1130 C   0  0  0  0  0
   44.0780   76.2880   19.5600 C   0  0  0  0  0
   44.6760   75.3020   20.3400 C   0  0  0  0  0
   43.1380   78.6090   19.2410 C   0  0  0  0  0
   41.6980   78.3420   18.9180 C   0  0  0  0  0
   41.5770   77.1660   17.8900 C   0  0  0  0  0
   42.0290   77.2820   16.7390 O   0  0  0  0  0
   40.9680   75.9240   18.2660 N   0  0  0  0  0
   40.4390   75.6900   19.6430 C   0  0  0  0  0
   40.2810   76.9960   20.4380 C   0  0  0  0  0
   39.6060   76.9450   21.4660 O   0  0  0  0  0
   40.9380   78.2180   20.0830 N   0  0  0  0  0
   40.7730   79.4250   20.9360 C   0  0  0  0  0
   41.4310   79.1910   22.3710 C   0  0  0  0  0
   42.3440   79.9450   22.6760 O   0  0  0  0  0
   41.0270   78.2210   23.1890 N   0  0  0  0  0
   41.6650   78.0190   24.4890 C   0  0  0  0  0
   40.6110   77.9750   25.5880 C   0  0  0  0  0
   39.6600   79.1470   25.5390 C   0  0  0  0  0
   40.0560   80.4020   26.0110 C   0  0  0  0  0
   39.2360   81.5140   25.8950 C   0  0  0  0  0
   37.9970   81.3900   25.3070 C   0  0  0  0  0
   37.1980   82.5040   25.2220 O   0  0  0  0  0
   37.5640   80.1570   24.8160 C   0  0  0  0  0
   38.4010   79.0330   24.9370 C   0  0  0  0  0
   39.2090   79.7280   21.0520 C   0  0  0  0  0
   38.9360   81.1500   21.3290 C   0  0  0  0  0
   37.4520   81.4930   21.2890 C   0  0  0  0  0
   41.2460   74.5520   20.3280 C   0  0  0  0  0
   41.6810   73.4710   19.3340 C   0  0  0  0  0
   42.2690   72.3090   19.8520 C   0  0  0  0  0
   42.6930   71.2730   18.9850 C   0  0  0  0  0
   42.5410   71.4000   17.5860 C   0  0  0  0  0
   41.9430   72.5710   17.0400 C   0  0  0  0  0
   41.5100   73.6090   17.9110 C   0  0  0  0  0
   40.8740   74.8580   17.3260 C   0  0  0  0  0
   45.6791   73.7901   21.9485 H   0  0  0  0  0
   44.6451   76.9266   23.3287 H   0  0  0  0  0
   43.5963   78.6546   21.9264 H   0  0  0  0  0
   43.9186   76.1062   18.4972 H   0  0  0  0  0
   44.9831   74.3577   19.8906 H   0  0  0  0  0
   43.7127   78.6534   18.3159 H   0  0  0  0  0
   43.2186   79.5579   19.7713 H   0  0  0  0  0
   41.2589   79.1994   18.4080 H   0  0  0  0  0
   39.4130   75.3251   19.5951 H   0  0  0  0  0
   41.2810   80.2813   20.4923 H   0  0  0  0  0
   40.2613   77.6100   22.9045 H   0  0  0  0  0
   42.3503   78.8441   24.6833 H   0  0  0  0  0
   42.2095   77.0748   24.4775 H   0  0  0  0  0
   41.1287   78.0067   26.5467 H   0  0  0  0  0
   40.0256   77.0658   25.4510 H   0  0  0  0  0
   41.0333   80.5089   26.4817 H   0  0  0  0  0
   39.5706   82.4821   26.2676 H   0  0  0  0  0
   36.3714   82.2715   24.7928 H   0  0  0  0  0
   36.5861   80.0661   24.3431 H   0  0  0  0  0
   38.0672   78.0665   24.5595 H   0  0  0  0  0
   38.8099   79.1390   21.8778 H   0  0  0  0  0
   38.7427   79.4723   20.1005 H   0  0  0  0  0
   39.4328   81.7388   20.5579 H   0  0  0  0  0
   39.2990   81.3672   22.3336 H   0  0  0  0  0
   37.0546   81.2666   20.2996 H   0  0  0  0  0
   36.9237   80.9029   22.0379 H   0  0  0  0  0
   37.3198   82.5540   21.5011 H   0  0  0  0  0
   40.6057   74.0859   21.0768 H   0  0  0  0  0
   42.1427   74.9893   20.7670 H   0  0  0  0  0
   42.4007   72.2022   20.9287 H   0  0  0  0  0
   43.1404   70.3700   19.4003 H   0  0  0  0  0
   42.8812   70.6024   16.9256 H   0  0  0  0  0
   41.8178   72.6715   15.9619 H   0  0  0  0  0
   41.3944   75.1352   16.4093 H   0  0  0  0  0
   39.8252   74.6614   17.1036 H   0  0  0  0  0
  1  2  1  0  0  0
  2  3  4  0  0  0
  2  7  4  0  0  0
  3  4  4  0  0  0
  4  5  4  0  0  0
  5  6  4  0  0  0
  5  8  1  0  0  0
  6  7  4  0  0  0
  8  9  1  0  0  0
  9 10  1  0  0  0
  9 16  1  0  0  0
 10 11  2  0  0  0
 10 12  1  0  0  0
 12 13  1  0  0  0
 12 40  1  0  0  0
 13 14  1  0  0  0
 13 33  1  0  0  0
 14 15  2  0  0  0
 14 16  1  0  0  0
 16 17  1  0  0  0
 17 18  1  0  0  0
 17 30  1  0  0  0
 18 19  2  0  0  0
 18 20  1  0  0  0
 20 21  1  0  0  0
 21 22  1  0  0  0
 22 23  1  0  0  0
 23 24  4  0  0  0
 23 29  4  0  0  0
 24 25  4  0  0  0
 25 26  4  0  0  0
 26 27  1  0  0  0
 26 28  4  0  0  0
 28 29  4  0  0  0
 30 31  1  0  0  0
 31 32  1  0  0  0
 33 34  1  0  0  0
 34 35  4  0  0  0
 34 39  4  0  0  0
 35 36  4  0  0  0
 36 37  4  0  0  0
 37 38  4  0  0  0
 38 39  4  0  0  0
 39 40  1  0  0  0
  1 41  1  0  0  0
  3 42  1  0  0  0
  4 43  1  0  0  0
  6 44  1  0  0  0
  7 45  1  0  0  0
  8 46  1  0  0  0
  8 47  1  0  0  0
  9 48  1  0  0  0
 13 49  1  0  0  0
 17 50  1  0  0  0
 20 51  1  0  0  0
 21 52  1  0  0  0
 21 53  1  0  0  0
 22 54  1  0  0  0
 22 55  1  0  0  0
 24 56  1  0  0  0
 25 57  1  0  0  0
 27 58  1  0  0  0
 28 59  1  0  0  0
 29 60  1  0  0  0
 30 61  1  0  0  0
 30 62  1  0  0  0
 31 63  1  0  0  0
 31 64  1  0  0  0
 32 65  1  0  0  0
 32 66  1  0  0  0
 32 67  1  0  0  0
 33 68  1  0  0  0
 33 69  1  0  0  0
 35 70  1  0  0  0
 36 71  1  0  0  0
 37 72  1  0  0  0
 38 73  1  0  0  0
 40 74  1  0  0  0
 40 75  1  0  0  0
M  END
$$$$
