1apb_ligand
  -I-interpret- 

 23 23  0  0  0  0  0  0  0  0999 V2000
   14.2590   56.4290   55.0020 C   0  0  0  0  0
   12.8940   56.9600   54.6440 C   0  0  0  0  0
   12.4620   56.2850   53.3440 C   0  0  0  0  0
   13.4770   56.4860   52.2310 C   0  0  0  0  0
   14.8130   55.9620   52.7210 C   0  0  0  0  0
   15.8950   56.1350   51.6700 C   0  0  0  0  0
   14.8690   57.0610   56.1230 O   0  0  0  0  0
   11.8910   56.6950   55.6320 O   0  0  0  0  0
   11.1250   56.6440   52.9780 O   0  0  0  0  0
   13.4710   57.8220   51.7090 O   0  0  0  0  0
   15.1850   56.6440   53.9280 O   0  0  0  0  0
   14.0717   55.3782   55.2232 H   0  0  0  0  0
   12.9799   58.0434   54.5601 H   0  0  0  0  0
   12.4397   55.2099   53.5222 H   0  0  0  0  0
   13.2100   55.9064   51.3473 H   0  0  0  0  0
   14.7094   54.8954   52.9201 H   0  0  0  0  0
   16.0261   57.1958   51.4566 H   0  0  0  0  0
   16.8313   55.7196   52.0425 H   0  0  0  0  0
   15.6016   55.6134   50.7590 H   0  0  0  0  0
   14.3038   56.9603   56.8924 H   0  0  0  0  0
   12.1416   57.1107   56.4603 H   0  0  0  0  0
   10.5389   56.4930   53.7232 H   0  0  0  0  0
   12.5816   58.0511   51.4295 H   0  0  0  0  0
  1  2  1  0  0  0
  1  7  1  0  0  0
  1 11  1  0  0  0
  2  3  1  0  0  0
  2  8  1  0  0  0
  3  4  1  0  0  0
  3  9  1  0  0  0
  4  5  1  0  0  0
  4 10  1  0  0  0
  5  6  1  0  0  0
  5 11  1  0  0  0
  1 12  1  0  0  0
  2 13  1  0  0  0
  3 14  1  0  0  0
  4 15  1  0  0  0
  5 16  1  0  0  0
  6 17  1  0  0  0
  6 18  1  0  0  0
  6 19  1  0  0  0
  7 20  1  0  0  0
  8 21  1  0  0  0
  9 22  1  0  0  0
 10 23  1  0  0  0
M  END
$$$$
