### 
### Created by X-TOOL on Mon Sep 10 21:13:18 2018
### 

@<TRIPOS>MOLECULE
4o5g_ligand
   24    25     1     0     0
SMALL
GAST_HUCK


@<TRIPOS>ATOM
      1 OAC        56.9420  460.7870   30.7580 O.2       1 2PV        -0.3707
      2 CAN        57.9420  460.2980   30.2450 C.2       1 2PV         0.2541
      3 NAI        57.9640  458.9860   29.9470 N.am      1 2PV        -0.1894
      4 CAM        59.1150  458.5910   29.4040 C.2       1 2PV         0.1924
      5 NAA        59.4020  457.3530   29.0100 N.2       1 2PV        -0.3843
      6 SAJ        60.1040  459.8400   29.3010 S.3       1 2PV         0.0356
      7 CAO        59.0870  460.9510   29.9590 C.2       1 2PV         0.1198
      8 CAD        59.5240  462.2210   30.0690 C.2       1 2PV        -0.0357
      9 CAL        58.8390  463.3510   30.5380 C.ar      1 2PV        -0.0371
     10 CAG        59.6070  464.5040   30.6160 C.ar      1 2PV        -0.0651
     11 CAE        59.0740  465.6930   31.0880 C.ar      1 2PV        -0.0422
     12 CAK        57.7490  465.7580   31.4840 C.ar      1 2PV         0.0381
     13 NAB        57.2400  466.9030   31.9260 N.pl3     1 2PV        -0.3353
     14 CAF        56.9660  464.6180   31.4160 C.ar      1 2PV        -0.0422
     15 CAH        57.5170  463.4280   30.9600 C.ar      1 2PV        -0.0651
     16 H          57.1946  458.3699   30.1159 H         1 2PV         0.2437
     17 H          60.3036  457.1482   28.6084 H         1 2PV         0.0547
     18 H          60.5507  462.3935   29.7496 H         1 2PV         0.0586
     19 H          60.6440  464.4742   30.3016 H         1 2PV         0.0592
     20 H          59.6982  466.5773   31.1475 H         1 2PV         0.0525
     21 H          56.2539  466.9488   32.2200 H         1 2PV         0.1734
     22 H          57.8315  467.7448   31.9746 H         1 2PV         0.1734
     23 H          55.9256  464.6545   31.7180 H         1 2PV         0.0525
     24 H          56.9007  462.5367   30.9324 H         1 2PV         0.0592
@<TRIPOS>BOND
     1    1    2 2  
     2    2    3 am 
     3    2    7 1  
     4    3    4 1  
     5    4    5 2  
     6    4    6 1  
     7    6    7 1  
     8    7    8 2  
     9    8    9 1  
    10    9   10 ar 
    11    9   15 ar 
    12   10   11 ar 
    13   11   12 ar 
    14   12   13 1  
    15   12   14 ar 
    16   14   15 ar 
    17    3   16 1  
    18    5   17 1  
    19    8   18 1  
    20   10   19 1  
    21   11   20 1  
    22   13   21 1  
    23   13   22 1  
    24   14   23 1  
    25   15   24 1  
@<TRIPOS>SUBSTRUCTURE
     1 2PV         1

