4o5g_ligand
  -I-interpret- 

 24 25  0  0  0  0  0  0  0  0999 V2000
   56.9420  460.7870   30.7580 O   0  0  0  0  0
   57.9420  460.2980   30.2450 C   0  0  0  0  0
   57.9640  458.9860   29.9470 N   0  0  0  0  0
   59.1150  458.5910   29.4040 C   0  0  0  0  0
   59.4020  457.3530   29.0100 N   0  0  0  0  0
   60.1040  459.8400   29.3010 S   0  0  0  0  0
   59.0870  460.9510   29.9590 C   0  0  0  0  0
   59.5240  462.2210   30.0690 C   0  0  0  0  0
   58.8390  463.3510   30.5380 C   0  0  0  0  0
   59.6070  464.5040   30.6160 C   0  0  0  0  0
   59.0740  465.6930   31.0880 C   0  0  0  0  0
   57.7490  465.7580   31.4840 C   0  0  0  0  0
   57.2400  466.9030   31.9260 N   0  0  0  0  0
   56.9660  464.6180   31.4160 C   0  0  0  0  0
   57.5170  463.4280   30.9600 C   0  0  0  0  0
   57.1793  458.3576   30.1193 H   0  0  0  0  0
   60.3150  457.1453   28.6054 H   0  0  0  0  0
   60.5517  462.3936   29.7493 H   0  0  0  0  0
   60.6497  464.4740   30.2999 H   0  0  0  0  0
   59.7016  466.5822   31.1478 H   0  0  0  0  0
   57.8258  467.7366   31.9741 H   0  0  0  0  0
   56.2635  466.9483   32.2172 H   0  0  0  0  0
   55.9198  464.6548   31.7197 H   0  0  0  0  0
   56.8973  462.5317   30.9323 H   0  0  0  0  0
  1  2  2  0  0  0
  2  3  1  0  0  0
  2  7  1  0  0  0
  3  4  1  0  0  0
  4  5  2  0  0  0
  4  6  1  0  0  0
  6  7  1  0  0  0
  7  8  2  0  0  0
  8  9  1  0  0  0
  9 10  4  0  0  0
  9 15  4  0  0  0
 10 11  4  0  0  0
 11 12  4  0  0  0
 12 13  1  0  0  0
 12 14  4  0  0  0
 14 15  4  0  0  0
  3 16  1  0  0  0
  5 17  1  0  0  0
  8 18  1  0  0  0
 10 19  1  0  0  0
 11 20  1  0  0  0
 13 21  1  0  0  0
 13 22  1  0  0  0
 14 23  1  0  0  0
 15 24  1  0  0  0
M  END
$$$$
