5e91_ligand
  -I-interpret- 

 55 58  0  0  0  0  0  0  0  0999 V2000
   14.1930   -1.0530    2.6290 C   0  0  0  0  0
   16.9160   -1.6600    8.7740 C   0  0  0  0  0
   13.4080   -0.3770    0.3370 C   0  0  0  0  0
   11.6020   -1.2800    3.5540 C   0  0  0  0  0
   11.8490   -0.8870    2.2490 C   0  0  0  0  0
   17.3420   -2.0960   10.0410 C   0  0  0  0  0
   19.4600   -1.2640    9.6930 C   0  0  0  0  0
   19.1260   -0.7440    8.4530 C   0  0  0  0  0
   17.8260   -0.9410    7.9860 C   0  0  0  0  0
   13.6030   -1.5860   -0.5520 C   0  0  0  0  0
   12.6520   -1.5570    4.4410 C   0  0  0  0  0
   13.9540   -1.4640    3.9350 C   0  0  0  0  0
   16.5260    0.8510    6.9490 C   0  0  0  0  0
   11.1210   -2.2480    6.3480 C   0  0  0  0  0
   12.3990   -1.9200    5.8630 C   0  0  0  0  0
   13.4620   -1.9400    6.6970 N   0  0  0  0  0
   13.2610   -2.2590    7.9990 C   0  0  0  0  0
   11.9500   -2.5930    8.4750 C   0  0  0  0  0
   10.9100   -2.5980    7.6140 N   0  0  0  0  0
   11.6800   -2.8090    9.7680 N   0  0  0  0  0
   14.4720   -2.2220    8.8930 C   0  0  0  0  0
   14.3900   -2.5160   10.0870 O   0  0  0  0  0
   15.6060   -1.8450    8.2720 N   0  0  0  0  0
   13.1460   -0.7630    1.7690 C   0  0  0  0  0
   18.5920   -1.9000   10.4960 N   0  0  0  0  0
   13.6220   -1.2300   -1.8910 O   0  0  0  0  0
   17.3550   -0.3480    6.7930 N   0  0  0  0  0
   15.6770    1.0060    5.7420 C   0  0  0  0  0
   16.4860    1.1210    4.5190 O   0  0  0  0  0
   17.4610    0.0500    4.3620 C   0  0  0  0  0
   18.2510   -0.2730    5.6330 C   0  0  0  0  0
   15.2198   -0.9573    2.2759 H   0  0  0  0  0
   12.5443    0.1783   -0.0289 H   0  0  0  0  0
   14.3208    0.2179    0.3068 H   0  0  0  0  0
   10.5721   -1.3757    3.8979 H   0  0  0  0  0
   11.0103   -0.6712    1.5871 H   0  0  0  0  0
   16.6288   -2.6148   10.6815 H   0  0  0  0  0
   20.4880   -1.1501   10.0369 H   0  0  0  0  0
   19.8580   -0.1966    7.8592 H   0  0  0  0  0
   12.7736   -2.2740   -0.3881 H   0  0  0  0  0
   14.5579   -2.0489   -0.3029 H   0  0  0  0  0
   14.7966   -1.7189    4.5777 H   0  0  0  0  0
   17.1630    1.7275    7.0675 H   0  0  0  0  0
   15.8963    0.7521    7.8332 H   0  0  0  0  0
   10.2737   -2.2144    5.6631 H   0  0  0  0  0
   12.4233   -2.7385   10.4629 H   0  0  0  0  0
   10.7309   -3.0441   10.0585 H   0  0  0  0  0
   15.5035   -1.6624    7.2737 H   0  0  0  0  0
   13.7468   -2.0158   -2.4281 H   0  0  0  0  0
   15.0880    1.9166    5.8510 H   0  0  0  0  0
   15.0428    0.1240    5.6526 H   0  0  0  0  0
   18.1803    0.3782    3.6116 H   0  0  0  0  0
   16.9088   -0.8495    4.0900 H   0  0  0  0  0
   18.7459   -1.2358    5.5061 H   0  0  0  0  0
   18.9840    0.5156    5.8033 H   0  0  0  0  0
 12  1  4  0  0  0
  1 24  4  0  0  0
  2  6  4  0  0  0
  2  9  4  0  0  0
 23  2  1  0  0  0
  3 10  1  0  0  0
 24  3  1  0  0  0
  4  5  4  0  0  0
 11  4  4  0  0  0
  5 24  4  0  0  0
  6 25  4  0  0  0
  8  7  4  0  0  0
 25  7  4  0  0  0
  9  8  4  0  0  0
  9 27  1  0  0  0
 10 26  1  0  0  0
 11 12  4  0  0  0
 15 11  1  0  0  0
 27 13  1  0  0  0
 13 28  1  0  0  0
 15 14  4  0  0  0
 19 14  4  0  0  0
 16 15  4  0  0  0
 17 16  4  0  0  0
 17 18  4  0  0  0
 21 17  1  0  0  0
 18 19  4  0  0  0
 18 20  1  0  0  0
 21 22  2  0  0  0
 21 23  1  0  0  0
 27 31  1  0  0  0
 28 29  1  0  0  0
 29 30  1  0  0  0
 30 31  1  0  0  0
  1 32  1  0  0  0
  3 33  1  0  0  0
  3 34  1  0  0  0
  4 35  1  0  0  0
  5 36  1  0  0  0
  6 37  1  0  0  0
  7 38  1  0  0  0
  8 39  1  0  0  0
 10 40  1  0  0  0
 10 41  1  0  0  0
 12 42  1  0  0  0
 13 43  1  0  0  0
 13 44  1  0  0  0
 14 45  1  0  0  0
 20 46  1  0  0  0
 20 47  1  0  0  0
 23 48  1  0  0  0
 26 49  1  0  0  0
 28 50  1  0  0  0
 28 51  1  0  0  0
 30 52  1  0  0  0
 30 53  1  0  0  0
 31 54  1  0  0  0
 31 55  1  0  0  0
M  END
$$$$
