3iaw_ligand
  -I-interpret- 

125124  0  0  0  0  0  0  0  0999 V2000
    6.3610    4.0060    7.8700 C   0  0  0  0  0
    7.1490    4.4330    8.7040 O   0  0  0  0  0
    6.8310    3.3070    6.6270 C   0  0  0  0  0
    5.0490    3.9520    8.0950 N   0  0  0  0  0
    4.3950    4.7810    9.1130 C   0  0  0  0  0
    4.0020    4.0510   10.3950 C   0  0  0  0  0
    3.7380    4.6900   11.4230 O   0  0  0  0  0
    3.1100    5.3850    8.5450 C   0  0  0  0  0
    2.3380    4.3570    7.9130 O   0  0  0  0  0
    3.4630    6.4560    7.5450 C   0  0  0  0  0
    3.9140    2.7330   10.3330 N   0  0  0  0  0
    3.4130    1.9640   11.4680 C   0  0  0  0  0
    4.4340    0.9570   12.0330 C   0  0  0  0  0
    4.7860   -0.0430   11.3960 O   0  0  0  0  0
    2.1160    1.2180   11.1120 C   0  0  0  0  0
    1.1040    2.1540   10.4410 C   0  0  0  0  0
    1.5060    0.6180   12.3570 C   0  0  0  0  0
    0.7760    3.4480   11.2220 C   0  0  0  0  0
    5.1750    1.6830   12.8580 N   0  0  0  0  0
    6.1750    0.8670   13.5130 C   0  0  0  0  0
    5.6570    0.5180   14.8890 C   0  0  0  0  0
    7.4920    1.6360   13.6130 C   0  0  0  0  0
    8.0470    2.0450   12.2380 C   0  0  0  0  0
    7.6880    1.0500   11.1340 C   0  0  0  0  0
    8.8150    0.0920   10.8090 C   0  0  0  0  0
    4.7950   -0.6440   14.7860 N   0  3  0  0  0
    4.6970   -1.9480   15.4030 C   0  0  0  0  0
    6.0400   -2.6600   15.3530 C   0  0  0  0  0
    6.5350   -3.0180   14.2840 O   0  0  0  0  0
    3.6390   -2.7360   14.6580 C   0  0  0  0  0
    3.1260   -3.8260   15.5850 C   0  0  0  0  0
    3.5130   -5.1960   15.0340 C   0  0  0  0  0
    2.5410   -5.6150   13.9500 C   0  0  0  0  0
    6.3490   -3.7610   16.0460 N   0  3  0  0  0
    7.4110   -4.7610   15.9100 C   0  0  0  0  0
    7.3040   -5.8120   17.0130 C   0  0  0  0  0
    7.2050   -5.4800   18.2020 O   0  0  0  0  0
    8.7920   -4.0850   15.9220 C   0  0  0  0  0
   10.0010   -5.0230   15.7200 C   0  0  0  0  0
   10.4650   -5.6570   17.0100 C   0  0  0  0  0
   10.3160   -5.0640   18.0710 O   0  0  0  0  0
   11.0270   -6.8660   16.9320 N   0  0  0  0  0
    7.3100   -7.0770   16.6120 N   0  0  0  0  0
    7.2960   -8.1900   17.5410 C   0  0  0  0  0
    8.6530   -8.8720   17.4260 C   0  0  0  0  0
    9.0490   -9.2840   16.3270 O   0  0  0  0  0
    6.1970   -9.2070   17.1890 C   0  0  0  0  0
    4.7390   -8.7120   17.2320 C   0  0  0  0  0
    3.9790   -9.0300   15.9120 C   0  0  0  0  0
    2.9370  -10.0710   15.9360 N   0  0  0  0  0
    3.0680  -11.3320   16.3600 C   0  0  0  0  0
    4.2010  -11.7880   16.8760 N   0  0  0  0  0
    2.0280  -12.1530   16.2830 N   0  0  0  0  0
    9.4720   -8.8680   18.4790 N   0  0  0  0  0
    7.4620    3.9819    6.0487 H   0  0  0  0  0
    7.4025    2.4211    6.9039 H   0  0  0  0  0
    5.9685    3.0123    6.0292 H   0  0  0  0  0
    4.4800    3.3124    7.5405 H   0  0  0  0  0
    5.1455    5.5275    9.3730 H   0  0  0  0  0
    2.5221    5.8262    9.3499 H   0  0  0  0  0
    2.1188    3.6807    8.5581 H   0  0  0  0  0
    4.0454    6.0171    6.7349 H   0  0  0  0  0
    2.5483    6.8910    7.1423 H   0  0  0  0  0
    4.0497    7.2317    8.0372 H   0  0  0  0  0
    4.1995    2.2482    9.4822 H   0  0  0  0  0
    3.2168    2.7032   12.2446 H   0  0  0  0  0
    2.3669    0.4236   10.4091 H   0  0  0  0  0
    0.1714    1.5958   10.3588 H   0  0  0  0  0
    1.5483    2.4657    9.4957 H   0  0  0  0  0
    2.2115   -0.0820   12.8046 H   0  0  0  0  0
    1.2796    1.4124   13.0682 H   0  0  0  0  0
    0.5883    0.0923   12.0933 H   0  0  0  0  0
    0.3580    3.1878   12.1945 H   0  0  0  0  0
    1.6882    4.0283   11.3606 H   0  0  0  0  0
    0.0514    4.0366   10.6594 H   0  0  0  0  0
    5.0562    2.6844   13.0111 H   0  0  0  0  0
    6.3622   -0.0431   12.9431 H   0  0  0  0  0
    5.0948    1.3589   15.2952 H   0  0  0  0  0
    6.4933    0.2986   15.5527 H   0  0  0  0  0
    8.2246    0.9842   14.0890 H   0  0  0  0  0
    7.3054    2.5464   14.1827 H   0  0  0  0  0
    9.1337    2.0812   12.3141 H   0  0  0  0  0
    7.6095    3.0080   11.9745 H   0  0  0  0  0
    7.4679    1.6210   10.2320 H   0  0  0  0  0
    6.8410    0.4592   11.4829 H   0  0  0  0  0
    9.6855    0.6569   10.4753 H   0  0  0  0  0
    9.0717   -0.4807   11.7002 H   0  0  0  0  0
    8.4961   -0.5872   10.0184 H   0  0  0  0  0
    5.0925   -0.9529   13.8605 H   0  0  0  0  0
    3.9605   -0.2323   15.2038 H   0  0  0  0  0
    4.4185   -1.8527   16.4525 H   0  0  0  0  0
    6.3976   -1.7357   15.8067 H   0  0  0  0  0
    7.3777   -3.4467   14.4505 H   0  0  0  0  0
    4.0633   -3.1773   13.7561 H   0  0  0  0  0
    2.8214   -2.0800   14.3591 H   0  0  0  0  0
    2.0403   -3.7587   15.6550 H   0  0  0  0  0
    3.5675   -3.6966   16.5732 H   0  0  0  0  0
    3.4848   -5.9273   15.8418 H   0  0  0  0  0
    4.5168   -5.1415   14.6127 H   0  0  0  0  0
    1.5350   -5.6674   14.3663 H   0  0  0  0  0
    2.5634   -4.8843   13.1415 H   0  0  0  0  0
    2.8278   -6.5936   13.5651 H   0  0  0  0  0
    5.5474   -4.3403   15.7965 H   0  0  0  0  0
    6.6469   -3.3253   16.9188 H   0  0  0  0  0
    7.2908   -5.2665   14.9518 H   0  0  0  0  0
    8.9087   -3.6410   16.9106 H   0  0  0  0  0
    8.8004   -3.3874   15.0845 H   0  0  0  0  0
   10.8241   -4.4290   15.3227 H   0  0  0  0  0
    9.6968   -5.8219   15.0437 H   0  0  0  0  0
   11.3525   -7.3327   17.7786 H   0  0  0  0  0
   11.1307   -7.3227   16.0259 H   0  0  0  0  0
    7.3250   -7.2739   15.6113 H   0  0  0  0  0
    7.0975   -7.8260   18.5491 H   0  0  0  0  0
    6.2658   -9.9900   17.9442 H   0  0  0  0  0
    6.3811   -9.4950   16.1540 H   0  0  0  0  0
    4.7491   -7.6306   17.3685 H   0  0  0  0  0
    4.2295   -9.2203   18.0506 H   0  0  0  0  0
    4.7402   -9.4037   15.2272 H   0  0  0  0  0
    3.4564   -8.1088   15.6544 H   0  0  0  0  0
    2.0158   -9.8003   15.5918 H   0  0  0  0  0
    5.0084  -11.1703   16.9595 H   0  0  0  0  0
    2.1104  -13.1132   16.6172 H   0  0  0  0  0
    1.1464  -11.8238   15.8897 H   0  0  0  0  0
   10.4297   -9.2053   18.3815 H   0  0  0  0  0
    9.1406   -8.5276   19.3816 H   0  0  0  0  0
  1  2  2  0  0  0
  1  3  1  0  0  0
  1  4  1  0  0  0
  4  5  1  0  0  0
  5  6  1  0  0  0
  5  8  1  0  0  0
  6  7  2  0  0  0
  6 11  1  0  0  0
  8  9  1  0  0  0
  8 10  1  0  0  0
 11 12  1  0  0  0
 12 13  1  0  0  0
 12 15  1  0  0  0
 13 14  2  0  0  0
 13 19  1  0  0  0
 15 16  1  0  0  0
 15 17  1  0  0  0
 16 18  1  0  0  0
 19 20  1  0  0  0
 20 21  1  0  0  0
 20 22  1  0  0  0
 21 26  1  0  0  0
 22 23  1  0  0  0
 23 24  1  0  0  0
 24 25  1  0  0  0
 26 27  1  0  0  0
 27 28  1  0  0  0
 27 30  1  0  0  0
 28 29  1  0  0  0
 28 34  1  0  0  0
 30 31  1  0  0  0
 31 32  1  0  0  0
 32 33  1  0  0  0
 34 35  1  0  0  0
 35 36  1  0  0  0
 35 38  1  0  0  0
 36 37  2  0  0  0
 36 43  1  0  0  0
 38 39  1  0  0  0
 39 40  1  0  0  0
 40 41  2  0  0  0
 40 42  1  0  0  0
 43 44  1  0  0  0
 44 45  1  0  0  0
 44 47  1  0  0  0
 45 46  2  0  0  0
 45 54  1  0  0  0
 47 48  1  0  0  0
 48 49  1  0  0  0
 49 50  1  0  0  0
 50 51  1  0  0  0
 51 52  2  0  0  0
 51 53  1  0  0  0
  3 55  1  0  0  0
  3 56  1  0  0  0
  3 57  1  0  0  0
  4 58  1  0  0  0
  5 59  1  0  0  0
  8 60  1  0  0  0
  9 61  1  0  0  0
 10 62  1  0  0  0
 10 63  1  0  0  0
 10 64  1  0  0  0
 11 65  1  0  0  0
 12 66  1  0  0  0
 15 67  1  0  0  0
 16 68  1  0  0  0
 16 69  1  0  0  0
 17 70  1  0  0  0
 17 71  1  0  0  0
 17 72  1  0  0  0
 18 73  1  0  0  0
 18 74  1  0  0  0
 18 75  1  0  0  0
 19 76  1  0  0  0
 20 77  1  0  0  0
 21 78  1  0  0  0
 21 79  1  0  0  0
 22 80  1  0  0  0
 22 81  1  0  0  0
 23 82  1  0  0  0
 23 83  1  0  0  0
 24 84  1  0  0  0
 24 85  1  0  0  0
 25 86  1  0  0  0
 25 87  1  0  0  0
 25 88  1  0  0  0
 26 89  1  0  0  0
 26 90  1  0  0  0
 27 91  1  0  0  0
 28 92  1  0  0  0
 29 93  1  0  0  0
 30 94  1  0  0  0
 30 95  1  0  0  0
 31 96  1  0  0  0
 31 97  1  0  0  0
 32 98  1  0  0  0
 32 99  1  0  0  0
 33100  1  0  0  0
 33101  1  0  0  0
 33102  1  0  0  0
 34103  1  0  0  0
 34104  1  0  0  0
 35105  1  0  0  0
 38106  1  0  0  0
 38107  1  0  0  0
 39108  1  0  0  0
 39109  1  0  0  0
 42110  1  0  0  0
 42111  1  0  0  0
 43112  1  0  0  0
 44113  1  0  0  0
 47114  1  0  0  0
 47115  1  0  0  0
 48116  1  0  0  0
 48117  1  0  0  0
 49118  1  0  0  0
 49119  1  0  0  0
 50120  1  0  0  0
 52121  1  0  0  0
 53122  1  0  0  0
 53123  1  0  0  0
 54124  1  0  0  0
 54125  1  0  0  0
M  END
$$$$
