### 
### Created by X-TOOL on Mon Sep 10 21:13:06 2018
### 

@<TRIPOS>MOLECULE
3iaw_ligand
  126   125     1     0     0
SMALL
GAST_HUCK


@<TRIPOS>ATOM
      1 C           6.3610    4.0060    7.8700 C.2       1 2NC         0.1752
      2 O           7.1490    4.4330    8.7040 O.2       1 2NC        -0.3972
      3 CH3         6.8310    3.3070    6.6270 C.3       1 2NC         0.0258
      4 N           5.0490    3.9520    8.0950 N.am      1 2NC        -0.2635
      5 CA          4.3950    4.7810    9.1130 C.3       1 2NC         0.1564
      6 C1          4.0020    4.0510   10.3950 C.2       1 2NC         0.2065
      7 O1          3.7380    4.6900   11.4230 O.2       1 2NC        -0.3943
      8 CB          3.1100    5.3850    8.5450 C.3       1 2NC         0.0924
      9 OG1         2.3380    4.3570    7.9130 O.3       1 2NC        -0.3874
     10 CG2         3.4630    6.4560    7.5450 C.3       1 2NC        -0.0346
     11 N1          3.9140    2.7330   10.3330 N.am      1 2NC        -0.2634
     12 CA1         3.4130    1.9640   11.4680 C.3       1 2NC         0.1334
     13 C2          4.4340    0.9570   12.0330 C.2       1 2NC         0.2023
     14 O2          4.7860   -0.0430   11.3960 O.2       1 2NC        -0.3945
     15 CB1         2.1160    1.2180   11.1120 C.3       1 2NC        -0.0037
     16 CG1         1.1040    2.1540   10.4410 C.3       1 2NC        -0.0491
     17 CG21        1.5060    0.6180   12.3570 C.3       1 2NC        -0.0582
     18 CD1         0.7760    3.4480   11.2220 C.3       1 2NC        -0.0648
     19 N2          5.1750    1.6830   12.8580 N.am      1 2NC        -0.2769
     20 CA2         6.1750    0.8670   13.5130 C.3       1 2NC         0.0817
     21 C3          5.6570    0.5180   14.8890 C.3       1 2NC        -0.0096
     22 CB2         7.4920    1.6360   13.6130 C.3       1 2NC        -0.0249
     23 CG          8.0470    2.0450   12.2380 C.3       1 2NC        -0.0510
     24 CD          7.6880    1.0500   11.1340 C.3       1 2NC        -0.0558
     25 CE          8.8150    0.0920   10.8090 C.3       1 2NC        -0.0653
     26 N3          4.7950   -0.6440   14.7860 N.4       1 2NC         0.2367
     27 CA3         4.6970   -1.9480   15.4030 C.3       1 2NC         0.0478
     28 C4          6.0400   -2.6600   15.3530 C.3       1 2NC         0.1259
     29 O3          6.5350   -3.0180   14.2840 O.3       1 2NC        -0.3478
     30 CB3         3.6390   -2.7360   14.6580 C.3       1 2NC        -0.0019
     31 CG3         3.1260   -3.8260   15.5850 C.3       1 2NC        -0.0479
     32 CD2         3.5130   -5.1960   15.0340 C.3       1 2NC        -0.0557
     33 CE1         2.5410   -5.6150   13.9500 C.3       1 2NC        -0.0653
     34 N4          6.3490   -3.7610   16.0460 N.4       1 2NC         0.2720
     35 CA4         7.4110   -4.7610   15.9100 C.3       1 2NC         0.0716
     36 C5          7.3040   -5.8120   17.0130 C.2       1 2NC         0.2270
     37 O4          7.2050   -5.4800   18.2020 O.2       1 2NC        -0.3907
     38 CB4         8.7920   -4.0850   15.9220 C.3       1 2NC         0.0249
     39 CG4        10.0010   -5.0230   15.7200 C.3       1 2NC         0.0443
     40 CD3        10.4650   -5.6570   17.0100 C.2       1 2NC         0.1738
     41 OE1        10.3160   -5.0640   18.0710 O.2       1 2NC        -0.3973
     42 NE2        11.0270   -6.8660   16.9320 N.am      1 2NC        -0.3009
     43 N5          7.3100   -7.0770   16.6120 N.am      1 2NC        -0.2610
     44 CA5         7.2960   -8.1900   17.5410 C.3       1 2NC         0.1309
     45 C6          8.6530   -8.8720   17.4260 C.2       1 2NC         0.1992
     46 O5          9.0490   -9.2840   16.3270 O.2       1 2NC        -0.3947
     47 CB5         6.1970   -9.2070   17.1890 C.3       1 2NC        -0.0092
     48 CG5         4.7390   -8.7120   17.2320 C.3       1 2NC        -0.0156
     49 CD4         3.9790   -9.0300   15.9120 C.3       1 2NC         0.0627
     50 NE          2.9370  -10.0710   15.9360 N.pl3     1 2NC        -0.2723
     51 CZ          3.0680  -11.3320   16.3600 C.cat     1 2NC         0.2882
     52 NH1         4.2010  -11.7880   16.8760 N.pl3     1 2NC        -0.2849
     53 NH2         2.0280  -12.1530   16.2830 N.pl3     1 2NC        -0.2849
     54 N6          9.4720   -8.8680   18.4790 N.am      1 2NC        -0.2990
     55 H           7.4620    3.9819    6.0487 H         1 2NC         0.0467
     56 H           7.4025    2.4211    6.9039 H         1 2NC         0.0467
     57 H           5.9685    3.0123    6.0292 H         1 2NC         0.0467
     58 H           4.4800    3.3124    7.5405 H         1 2NC         0.1883
     59 H           5.1455    5.5275    9.3730 H         1 2NC         0.0826
     60 H           2.5221    5.8262    9.3499 H         1 2NC         0.0639
     61 H           1.5317    4.7372    7.5568 H         1 2NC         0.2101
     62 H           4.0454    6.0171    6.7349 H         1 2NC         0.0257
     63 H           2.5483    6.8910    7.1423 H         1 2NC         0.0257
     64 H           4.0497    7.2317    8.0372 H         1 2NC         0.0257
     65 H           4.1995    2.2482    9.4822 H         1 2NC         0.1883
     66 H           3.2168    2.7032   12.2446 H         1 2NC         0.0802
     67 H           2.3669    0.4236   10.4091 H         1 2NC         0.0345
     68 H           0.1714    1.5958   10.3588 H         1 2NC         0.0267
     69 H           1.5483    2.4657    9.4957 H         1 2NC         0.0267
     70 H           2.2115   -0.0820   12.8046 H         1 2NC         0.0235
     71 H           1.2796    1.4124   13.0682 H         1 2NC         0.0235
     72 H           0.5883    0.0923   12.0933 H         1 2NC         0.0235
     73 H           0.3580    3.1878   12.1945 H         1 2NC         0.0230
     74 H           1.6882    4.0283   11.3606 H         1 2NC         0.0230
     75 H           0.0514    4.0366   10.6594 H         1 2NC         0.0230
     76 H           5.0562    2.6844   13.0111 H         1 2NC         0.1857
     77 H           6.3622   -0.0431   12.9431 H         1 2NC         0.0609
     78 H           5.0948    1.3589   15.2952 H         1 2NC         0.0837
     79 H           6.4933    0.2986   15.5527 H         1 2NC         0.0837
     80 H           8.2246    0.9842   14.0890 H         1 2NC         0.0289
     81 H           7.3054    2.5464   14.1827 H         1 2NC         0.0289
     82 H           9.1337    2.0812   12.3141 H         1 2NC         0.0266
     83 H           7.6095    3.0080   11.9745 H         1 2NC         0.0266
     84 H           7.4679    1.6210   10.2320 H         1 2NC         0.0263
     85 H           6.8410    0.4592   11.4829 H         1 2NC         0.0263
     86 H           9.6855    0.6569   10.4753 H         1 2NC         0.0230
     87 H           9.0717   -0.4807   11.7002 H         1 2NC         0.0230
     88 H           8.4961   -0.5872   10.0184 H         1 2NC         0.0230
     89 H           5.0925   -0.9529   13.8605 H         1 2NC         0.2020
     90 H           3.9605   -0.2323   15.2038 H         1 2NC         0.2020
     91 H           4.4185   -1.8527   16.4525 H         1 2NC         0.0934
     92 H           6.3976   -1.7357   15.8067 H         1 2NC         0.1243
     93 H           6.4094   -2.3287   13.6277 H         1 2NC         0.2156
     94 H           4.0633   -3.1773   13.7561 H         1 2NC         0.0323
     95 H           2.8214   -2.0800   14.3591 H         1 2NC         0.0323
     96 H           2.0403   -3.7587   15.6550 H         1 2NC         0.0267
     97 H           3.5675   -3.6966   16.5732 H         1 2NC         0.0267
     98 H           3.4848   -5.9273   15.8418 H         1 2NC         0.0263
     99 H           4.5168   -5.1415   14.6127 H         1 2NC         0.0263
    100 H           1.5350   -5.6674   14.3663 H         1 2NC         0.0230
    101 H           2.5634   -4.8843   13.1415 H         1 2NC         0.0230
    102 H           2.8278   -6.5936   13.5651 H         1 2NC         0.0230
    103 H           5.5474   -4.3403   15.7965 H         1 2NC         0.2066
    104 H           6.6469   -3.3253   16.9188 H         1 2NC         0.2066
    105 H           7.2908   -5.2665   14.9518 H         1 2NC         0.1101
    106 H           8.9087   -3.6410   16.9106 H         1 2NC         0.0370
    107 H           8.8004   -3.3874   15.0845 H         1 2NC         0.0370
    108 H          10.8241   -4.4290   15.3227 H         1 2NC         0.0506
    109 H           9.6968   -5.8219   15.0437 H         1 2NC         0.0506
    110 H          11.3525   -7.3327   17.7786 H         1 2NC         0.1814
    111 H          11.1307   -7.3227   16.0259 H         1 2NC         0.1814
    112 H           7.3250   -7.2739   15.6113 H         1 2NC         0.1884
    113 H           7.0975   -7.8260   18.5491 H         1 2NC         0.0800
    114 H           6.2658   -9.9900   17.9442 H         1 2NC         0.0313
    115 H           6.3811   -9.4950   16.1540 H         1 2NC         0.0313
    116 H           4.7491   -7.6306   17.3685 H         1 2NC         0.0301
    117 H           4.2295   -9.2203   18.0506 H         1 2NC         0.0301
    118 H           4.7402   -9.4037   15.2272 H         1 2NC         0.0689
    119 H           3.4564   -8.1088   15.6544 H         1 2NC         0.0689
    120 H           2.0158   -9.8003   15.5918 H         1 2NC         0.2642
    121 H           5.0084  -11.1703   16.9595 H         1 2NC         0.2615
    122 H           4.2652  -12.7565   17.1895 H         1 2NC         0.2615
    123 H           1.1419  -11.8194   15.9037 H         1 2NC         0.2615
    124 H           2.1149  -13.1176   16.6031 H         1 2NC         0.2615
    125 H          10.4297   -9.2053   18.3815 H         1 2NC         0.1815
    126 H           9.1406   -8.5276   19.3816 H         1 2NC         0.1815
@<TRIPOS>BOND
     1    1    2 2  
     2    1    3 1  
     3    1    4 am 
     4    4    5 1  
     5    5    6 1  
     6    5    8 1  
     7    6    7 2  
     8    6   11 am 
     9    8    9 1  
    10    8   10 1  
    11   11   12 1  
    12   12   13 1  
    13   12   15 1  
    14   13   14 2  
    15   13   19 am 
    16   15   16 1  
    17   15   17 1  
    18   16   18 1  
    19   19   20 1  
    20   20   21 1  
    21   20   22 1  
    22   21   26 1  
    23   22   23 1  
    24   23   24 1  
    25   24   25 1  
    26   26   27 1  
    27   27   28 1  
    28   27   30 1  
    29   28   29 1  
    30   28   34 1  
    31   30   31 1  
    32   31   32 1  
    33   32   33 1  
    34   34   35 1  
    35   35   36 1  
    36   35   38 1  
    37   36   37 2  
    38   36   43 am 
    39   38   39 1  
    40   39   40 1  
    41   40   41 2  
    42   40   42 am 
    43   43   44 1  
    44   44   45 1  
    45   44   47 1  
    46   45   46 2  
    47   45   54 am 
    48   47   48 1  
    49   48   49 1  
    50   49   50 1  
    51   50   51 ar 
    52   51   52 ar 
    53   51   53 ar 
    54    3   55 1  
    55    3   56 1  
    56    3   57 1  
    57    4   58 1  
    58    5   59 1  
    59    8   60 1  
    60    9   61 1  
    61   10   62 1  
    62   10   63 1  
    63   10   64 1  
    64   11   65 1  
    65   12   66 1  
    66   15   67 1  
    67   16   68 1  
    68   16   69 1  
    69   17   70 1  
    70   17   71 1  
    71   17   72 1  
    72   18   73 1  
    73   18   74 1  
    74   18   75 1  
    75   19   76 1  
    76   20   77 1  
    77   21   78 1  
    78   21   79 1  
    79   22   80 1  
    80   22   81 1  
    81   23   82 1  
    82   23   83 1  
    83   24   84 1  
    84   24   85 1  
    85   25   86 1  
    86   25   87 1  
    87   25   88 1  
    88   26   89 1  
    89   26   90 1  
    90   27   91 1  
    91   28   92 1  
    92   29   93 1  
    93   30   94 1  
    94   30   95 1  
    95   31   96 1  
    96   31   97 1  
    97   32   98 1  
    98   32   99 1  
    99   33  100 1  
   100   33  101 1  
   101   33  102 1  
   102   34  103 1  
   103   34  104 1  
   104   35  105 1  
   105   38  106 1  
   106   38  107 1  
   107   39  108 1  
   108   39  109 1  
   109   42  110 1  
   110   42  111 1  
   111   43  112 1  
   112   44  113 1  
   113   47  114 1  
   114   47  115 1  
   115   48  116 1  
   116   48  117 1  
   117   49  118 1  
   118   49  119 1  
   119   50  120 1  
   120   52  121 1  
   121   52  122 1  
   122   53  123 1  
   123   53  124 1  
   124   54  125 1  
   125   54  126 1  
@<TRIPOS>SUBSTRUCTURE
     1 2NC         1

