4aa5_ligand
  -I-interpret- 

 59 63  0  0  0  0  0  0  0  0999 V2000
   -1.8880    0.9780   26.3390 C   0  0  0  0  0
   -1.0510    1.8380   27.3070 C   0  0  0  0  0
   -1.0950    3.8890   28.7120 C   0  0  0  0  0
   -2.9130    1.5970   22.7000 C   0  0  0  0  0
   -2.7100    0.9730   23.9540 C   0  0  0  0  0
   -2.7410   -0.4370   23.9670 C   0  0  0  0  0
   -2.9340   -1.2150   22.8170 C   0  0  0  0  0
   -2.4940    1.3950   17.0060 C   0  0  0  0  0
   -2.7190    1.9480   15.7260 C   0  0  0  0  0
   -4.0530    2.0670   15.2410 C   0  0  0  0  0
   -1.4930    2.2910   14.9380 C   0  0  0  0  0
   -0.4810    3.5000   12.9720 C   0  0  0  0  0
   -0.6000    3.2540   11.4870 C   0  0  0  0  0
    0.3790    2.4760   12.3290 C   0  0  0  0  0
   -3.3920    0.5290   19.1270 N   0  0  0  0  0
   -3.2740    1.4280   20.1820 C   0  0  0  0  0
   -1.7190    3.1280   27.6270 N   0  3  0  0  0
   -1.8140    3.9390   26.4010 C   0  0  0  0  0
   -2.4380    3.2220   25.1550 C   0  0  0  0  0
   -5.1120    1.6920   16.0560 C   0  0  0  0  0
   -4.9010    1.1660   17.3500 C   0  0  0  0  0
   -6.0520    0.7470   18.2100 C   0  0  0  0  0
   -0.4790    1.7730   15.3020 O   0  0  0  0  0
   -3.5770    1.0110   17.8070 C   0  0  0  0  0
   -3.0980    0.8210   21.5290 C   0  0  0  0  0
   -3.1110   -0.5930   21.5900 C   0  0  0  0  0
   -3.2850   -1.4150   20.4920 N   0  0  0  0  0
   -3.4000   -0.8370   19.3480 C   0  0  0  0  0
   -2.4970    1.7220   25.1670 N   0  0  0  0  0
   -3.2420    2.6220   20.0660 O   0  0  0  0  0
   -1.5610    3.1110   13.8350 N   0  0  0  0  0
   -2.7195    0.5775   26.9188 H   0  0  0  0  0
   -1.2103    0.2356   25.9175 H   0  0  0  0  0
   -0.0966    2.0581   26.8287 H   0  0  0  0  0
   -0.9242    1.2806   28.2351 H   0  0  0  0  0
   -0.0912    4.1900   28.4123 H   0  0  0  0  0
   -1.6935    4.7751   28.9235 H   0  0  0  0  0
   -1.0376    3.2661   29.6047 H   0  0  0  0  0
   -2.9272    2.6849   22.6344 H   0  0  0  0  0
   -2.6080   -0.9481   24.9205 H   0  0  0  0  0
   -2.9449   -2.3027   22.8867 H   0  0  0  0  0
   -1.4751    1.2667   17.3714 H   0  0  0  0  0
   -4.2407    2.4495   14.2377 H   0  0  0  0  0
   -0.2870    4.3680   13.6021 H   0  0  0  0  0
   -0.6222    3.8187   10.5549 H   0  0  0  0  0
   -1.3715    3.0743   10.7383 H   0  0  0  0  0
    0.6643    1.4366   12.4913 H   0  0  0  0  0
    1.4333    2.2007   12.3031 H   0  0  0  0  0
   -2.6479    2.8955   27.9785 H   0  0  0  0  0
   -0.7924    4.2010   26.1256 H   0  0  0  0  0
   -2.4718    4.7758   26.6359 H   0  0  0  0  0
   -1.7915    3.4809   24.3165 H   0  0  0  0  0
   -3.4757    3.5535   25.1182 H   0  0  0  0  0
   -6.1318    1.8062   15.6885 H   0  0  0  0  0
   -6.7022    1.6037   18.3873 H   0  0  0  0  0
   -6.6139   -0.0389   17.7052 H   0  0  0  0  0
   -5.6753    0.3721   19.1616 H   0  0  0  0  0
   -3.5138   -1.4805   18.4757 H   0  0  0  0  0
   -2.4818    3.4844   13.6045 H   0  0  0  0  0
  1  2  1  0  0  0
 29  1  1  0  0  0
  2 17  1  0  0  0
 17  3  1  0  0  0
  4  5  4  0  0  0
 25  4  4  0  0  0
  5  6  4  0  0  0
  5 29  1  0  0  0
  6  7  4  0  0  0
  7 26  4  0  0  0
  8  9  4  0  0  0
 24  8  4  0  0  0
  9 10  4  0  0  0
  9 11  1  0  0  0
 10 20  4  0  0  0
 11 23  2  0  0  0
 11 31  1  0  0  0
 12 13  1  0  0  0
 12 14  1  0  0  0
 31 12  1  0  0  0
 14 13  1  0  0  0
 16 15  1  0  0  0
 15 24  1  0  0  0
 15 28  1  0  0  0
 16 25  1  0  0  0
 16 30  2  0  0  0
 17 18  1  0  0  0
 18 19  1  0  0  0
 19 29  1  0  0  0
 20 21  4  0  0  0
 21 22  1  0  0  0
 21 24  4  0  0  0
 25 26  4  0  0  0
 26 27  1  0  0  0
 27 28  2  0  0  0
  1 32  1  0  0  0
  1 33  1  0  0  0
  2 34  1  0  0  0
  2 35  1  0  0  0
  3 36  1  0  0  0
  3 37  1  0  0  0
  3 38  1  0  0  0
  4 39  1  0  0  0
  6 40  1  0  0  0
  7 41  1  0  0  0
  8 42  1  0  0  0
 10 43  1  0  0  0
 12 44  1  0  0  0
 13 45  1  0  0  0
 13 46  1  0  0  0
 14 47  1  0  0  0
 14 48  1  0  0  0
 17 49  1  0  0  0
 18 50  1  0  0  0
 18 51  1  0  0  0
 19 52  1  0  0  0
 19 53  1  0  0  0
 20 54  1  0  0  0
 22 55  1  0  0  0
 22 56  1  0  0  0
 22 57  1  0  0  0
 28 58  1  0  0  0
 31 59  1  0  0  0
M  END
$$$$
