3rcd_ligand
  -I-interpret- 

 63 66  0  0  0  0  0  0  0  0999 V2000
   14.8150   -0.4470   28.2390 N   0  0  0  0  0
   15.5000    4.5940   24.2390 N   0  0  0  0  0
   17.9260    1.0920   25.3590 C   0  0  0  0  0
   18.0610   -0.2180   25.7530 C   0  0  0  0  0
   16.3730    2.9680   25.8160 C   0  0  0  0  0
   15.7840    3.2000   24.4470 C   0  0  0  0  0
   14.4340    5.2280   24.8470 C   0  0  0  0  0
   13.2580    1.9850   28.4970 C   0  0  0  0  0
   11.1620    2.2060   30.2300 C   0  0  0  0  0
   12.0190    2.3740   28.0230 C   0  0  0  0  0
    7.9020    1.7640   31.2890 C   0  0  0  0  0
    8.5260   -0.9110   31.3460 C   0  0  0  0  0
    9.5440    0.0130   31.2270 C   0  0  0  0  0
    8.8230   -2.3620   31.3740 C   0  0  0  0  0
   16.4580    7.5740   23.6620 C   0  0  0  0  0
    9.7760   -2.7010   32.2850 F   0  0  0  0  0
    7.7380   -3.1180   31.6860 F   0  0  0  0  0
    9.2440   -2.7820   30.1520 F   0  0  0  0  0
    7.2120   -0.5080   31.4320 C   0  0  0  0  0
    6.8990    0.8310   31.4030 C   0  0  0  0  0
    9.2060    1.3450   31.1980 C   0  0  0  0  0
   10.1270    2.3400   31.1030 O   0  0  0  0  0
   12.3990    1.8320   30.7110 C   0  0  0  0  0
   12.7440    1.4780   32.3680 Cl  0  0  0  0  0
   13.4450    1.7220   29.8340 C   0  0  0  0  0
   10.9600    2.4870   28.8970 C   0  0  0  0  0
   14.3790    1.8600   27.6800 N   0  0  0  0  0
   15.1250    0.6810   27.5830 C   0  0  0  0  0
   15.6100   -1.5070   28.0550 C   0  0  0  0  0
   16.2370    0.6480   26.7720 C   0  0  0  0  0
   16.9980   -0.4950   26.6440 C   0  0  0  0  0
   16.7030   -1.6310   27.2950 N   0  0  0  0  0
   16.8230    1.5990   25.9800 N   0  0  0  0  0
   13.7160    4.7360   25.7110 O   0  0  0  0  0
   14.2050    6.6200   24.2950 C   0  0  0  0  0
   15.2720    7.6740   24.6010 C   0  0  0  0  0
   15.7590    7.5690   25.9310 O   0  0  0  0  0
   14.6490    9.0450   24.4560 C   0  0  0  0  0
   16.1065    5.1333   23.6212 H   0  0  0  0  0
   18.5822    1.6286   24.6738 H   0  0  0  0  0
   18.8401   -0.9122   25.4382 H   0  0  0  0  0
   15.6023    3.1682   26.5604 H   0  0  0  0  0
   17.2311    3.6290   25.9377 H   0  0  0  0  0
   16.5037    2.8735   23.6963 H   0  0  0  0  0
   14.8540    2.6373   24.3660 H   0  0  0  0  0
   11.8807    2.5901   26.9636 H   0  0  0  0  0
    7.6639    2.8275   31.2710 H   0  0  0  0  0
   10.5847   -0.3038   31.1581 H   0  0  0  0  0
   16.9149    6.5892   23.7594 H   0  0  0  0  0
   16.1206    7.7195   22.6358 H   0  0  0  0  0
   17.1882    8.3417   23.9180 H   0  0  0  0  0
    6.4194   -1.2507   31.5231 H   0  0  0  0  0
    5.8593    1.1512   31.4702 H   0  0  0  0  0
   14.4290    1.4250   30.1967 H   0  0  0  0  0
    9.9774    2.7941   28.5389 H   0  0  0  0  0
   14.6695    2.6660   27.1265 H   0  0  0  0  0
   15.3243   -2.4027   28.6066 H   0  0  0  0  0
   13.2892    6.9791   24.7645 H   0  0  0  0  0
   14.1962    6.5120   23.2104 H   0  0  0  0  0
   15.0239    7.6298   26.5455 H   0  0  0  0  0
   15.3866    9.8065   24.7095 H   0  0  0  0  0
   14.3187    9.1856   23.4268 H   0  0  0  0  0
   13.7945    9.1272   25.1276 H   0  0  0  0  0
 28  1  4  0  0  0
  1 29  4  0  0  0
  2  6  1  0  0  0
  7  2  1  0  0  0
  3  4  4  0  0  0
 33  3  4  0  0  0
 31  4  4  0  0  0
  6  5  1  0  0  0
  5 33  1  0  0  0
  7 34  2  0  0  0
 35  7  1  0  0  0
  8 10  4  0  0  0
  8 25  4  0  0  0
 27  8  1  0  0  0
  9 22  1  0  0  0
 23  9  4  0  0  0
 26  9  4  0  0  0
 10 26  4  0  0  0
 11 20  4  0  0  0
 21 11  4  0  0  0
 13 12  4  0  0  0
 12 14  1  0  0  0
 12 19  4  0  0  0
 21 13  4  0  0  0
 14 16  1  0  0  0
 14 17  1  0  0  0
 14 18  1  0  0  0
 36 15  1  0  0  0
 20 19  4  0  0  0
 22 21  1  0  0  0
 23 24  1  0  0  0
 25 23  4  0  0  0
 28 27  1  0  0  0
 30 28  4  0  0  0
 32 29  4  0  0  0
 30 31  4  0  0  0
 33 30  4  0  0  0
 31 32  4  0  0  0
 35 36  1  0  0  0
 36 37  1  0  0  0
 36 38  1  0  0  0
  2 39  1  0  0  0
  3 40  1  0  0  0
  4 41  1  0  0  0
  5 42  1  0  0  0
  5 43  1  0  0  0
  6 44  1  0  0  0
  6 45  1  0  0  0
 10 46  1  0  0  0
 11 47  1  0  0  0
 13 48  1  0  0  0
 15 49  1  0  0  0
 15 50  1  0  0  0
 15 51  1  0  0  0
 19 52  1  0  0  0
 20 53  1  0  0  0
 25 54  1  0  0  0
 26 55  1  0  0  0
 27 56  1  0  0  0
 29 57  1  0  0  0
 35 58  1  0  0  0
 35 59  1  0  0  0
 37 60  1  0  0  0
 38 61  1  0  0  0
 38 62  1  0  0  0
 38 63  1  0  0  0
M  END
$$$$
