4qzw_ligand
  -I-interpret- 

 87 89  0  0  0  0  0  0  0  0999 V2000
   59.7090 -134.7930   34.3910 C   0  0  0  0  0
   59.6730 -136.0070   34.5880 O   0  0  0  0  0
   58.6260 -134.1050   33.5520 C   0  0  0  0  0
   57.3610 -134.4090   34.2170 N   0  3  0  0  0
   54.8960 -133.4690   35.0860 O   0  0  0  0  0
   56.2590 -134.1960   33.2440 C   0  0  0  0  0
   57.1990 -133.5400   35.4040 C   0  0  0  0  0
   54.9530 -134.3370   33.9450 C   0  0  0  0  0
   55.8950 -133.7920   36.0780 C   0  0  0  0  0
   60.6470 -133.9710   34.8840 N   0  0  0  0  0
   61.7360 -134.4660   35.7300 C   0  0  0  0  0
   61.2130 -134.5940   37.1580 C   0  0  0  0  0
   60.3610 -133.8180   37.5910 O   0  0  0  0  0
   62.9080 -133.4770   35.7100 C   0  0  0  0  0
   61.7530 -135.5960   37.8610 N   0  0  0  0  0
   61.3910 -135.8290   39.2610 C   0  0  0  0  0
   60.8120 -137.1970   39.4640 C   0  0  0  0  0
   59.4580 -137.1380   39.1360 C   0  0  0  0  0
   59.0480 -137.4090   37.8340 C   0  0  0  0  0
   57.6980 -137.3660   37.5020 C   0  0  0  0  0
   56.7360 -137.0540   38.4590 C   0  0  0  0  0
   55.4300 -137.0440   38.0380 O   0  0  0  0  0
   54.4010 -136.4550   38.8520 C   0  0  0  0  0
   57.1510 -136.7900   39.7710 C   0  0  0  0  0
   58.5020 -136.8330   40.1050 C   0  0  0  0  0
   62.6700 -135.7500   40.0880 C   0  0  0  0  0
   63.7830 -135.8030   39.5600 O   0  0  0  0  0
   62.4410 -135.6510   41.3980 N   0  0  0  0  0
   63.4940 -135.5330   42.3960 C   0  0  0  0  0
   63.3020 -136.6120   43.4870 C   0  0  0  0  0
   61.9230 -136.6050   43.9140 O   0  0  0  0  0
   63.7110 -138.1280   43.1320 C   0  0  0  0  0
   64.7430 -138.1790   41.9450 C   0  0  0  0  0
   62.4250 -138.8540   42.6970 C   0  0  0  0  0
   62.8100 -139.8560   41.7400 O   0  0  0  0  0
   63.3220 -134.1790   43.0690 C   0  0  0  0  0
   64.0180 -133.1130   42.4490 C   0  0  0  0  0
   64.7550 -133.1940   41.2580 C   0  0  0  0  0
   65.3860 -132.0620   40.7370 C   0  0  0  0  0
   65.2900 -130.8310   41.3830 C   0  0  0  0  0
   64.5570 -130.7300   42.5600 C   0  0  0  0  0
   63.9310 -131.8650   43.0780 C   0  0  0  0  0
   58.6313 -134.4641   32.5229 H   0  0  0  0  0
   58.7943 -133.0299   33.4885 H   0  0  0  0  0
   57.3461 -135.3780   34.5351 H   0  0  0  0  0
   56.3276 -134.9353   32.4460 H   0  0  0  0  0
   56.3379 -133.1972   32.8148 H   0  0  0  0  0
   57.2299 -132.4992   35.0816 H   0  0  0  0  0
   58.0031 -133.7563   36.1074 H   0  0  0  0  0
   54.1518 -134.0684   33.2565 H   0  0  0  0  0
   54.8414 -135.3683   34.2798 H   0  0  0  0  0
   55.8082 -134.8236   36.4192 H   0  0  0  0  0
   55.7813 -133.1886   36.9786 H   0  0  0  0  0
   60.6011 -132.9760   34.6644 H   0  0  0  0  0
   62.0815 -135.4311   35.3593 H   0  0  0  0  0
   63.2700 -133.3651   34.6880 H   0  0  0  0  0
   62.5725 -132.5104   36.0858 H   0  0  0  0  0
   63.7116 -133.8550   36.3421 H   0  0  0  0  0
   62.4317 -136.2112   37.4122 H   0  0  0  0  0
   60.6500 -135.0859   39.5557 H   0  0  0  0  0
   60.9377 -137.5119   40.4999 H   0  0  0  0  0
   61.3238 -137.9228   38.8320 H   0  0  0  0  0
   59.7872 -137.6558   37.0719 H   0  0  0  0  0
   57.3890 -137.5794   36.4788 H   0  0  0  0  0
   54.3583 -136.9711   39.8111 H   0  0  0  0  0
   54.6270 -135.4012   39.0148 H   0  0  0  0  0
   53.4406 -136.5479   38.3449 H   0  0  0  0  0
   56.4116 -136.5495   40.5349 H   0  0  0  0  0
   58.8142 -136.6273   41.1289 H   0  0  0  0  0
   61.4728 -135.6584   41.7189 H   0  0  0  0  0
   64.4710 -135.6458   41.9260 H   0  0  0  0  0
   64.0108 -136.3183   44.2612 H   0  0  0  0  0
   61.7957 -137.2728   44.5919 H   0  0  0  0  0
   64.1731 -138.5945   44.0020 H   0  0  0  0  0
   64.2997 -137.7225   41.0600 H   0  0  0  0  0
   65.6438 -137.6327   42.2247 H   0  0  0  0  0
   64.9978 -139.2170   41.7311 H   0  0  0  0  0
   61.7166 -138.1524   42.2565 H   0  0  0  0  0
   61.9310 -139.3102   43.5549 H   0  0  0  0  0
   62.0300 -140.3315   41.4448 H   0  0  0  0  0
   63.7241 -134.2744   44.0776 H   0  0  0  0  0
   62.2610 -133.9344   43.0197 H   0  0  0  0  0
   64.8358 -134.1472   40.7355 H   0  0  0  0  0
   65.9604 -132.1425   39.8141 H   0  0  0  0  0
   65.7861 -129.9535   40.9684 H   0  0  0  0  0
   64.4719 -129.7726   43.0740 H   0  0  0  0  0
   63.3569 -131.7771   44.0004 H   0  0  0  0  0
  1  2  2  0  0  0
  3  1  1  0  0  0
  1 10  1  0  0  0
  4  3  1  0  0  0
  6  4  1  0  0  0
  4  7  1  0  0  0
  8  5  1  0  0  0
  5  9  1  0  0  0
  6  8  1  0  0  0
  7  9  1  0  0  0
 10 11  1  0  0  0
 11 12  1  0  0  0
 11 14  1  0  0  0
 12 13  2  0  0  0
 12 15  1  0  0  0
 15 16  1  0  0  0
 16 17  1  0  0  0
 16 26  1  0  0  0
 17 18  1  0  0  0
 18 19  4  0  0  0
 18 25  4  0  0  0
 19 20  4  0  0  0
 20 21  4  0  0  0
 21 22  1  0  0  0
 21 24  4  0  0  0
 22 23  1  0  0  0
 24 25  4  0  0  0
 26 27  2  0  0  0
 26 28  1  0  0  0
 28 29  1  0  0  0
 29 30  1  0  0  0
 29 36  1  0  0  0
 30 31  1  0  0  0
 30 32  1  0  0  0
 32 33  1  0  0  0
 32 34  1  0  0  0
 34 35  1  0  0  0
 36 37  1  0  0  0
 37 38  4  0  0  0
 37 42  4  0  0  0
 38 39  4  0  0  0
 39 40  4  0  0  0
 40 41  4  0  0  0
 41 42  4  0  0  0
  3 43  1  0  0  0
  3 44  1  0  0  0
  4 45  1  0  0  0
  6 46  1  0  0  0
  6 47  1  0  0  0
  7 48  1  0  0  0
  7 49  1  0  0  0
  8 50  1  0  0  0
  8 51  1  0  0  0
  9 52  1  0  0  0
  9 53  1  0  0  0
 10 54  1  0  0  0
 11 55  1  0  0  0
 14 56  1  0  0  0
 14 57  1  0  0  0
 14 58  1  0  0  0
 15 59  1  0  0  0
 16 60  1  0  0  0
 17 61  1  0  0  0
 17 62  1  0  0  0
 19 63  1  0  0  0
 20 64  1  0  0  0
 23 65  1  0  0  0
 23 66  1  0  0  0
 23 67  1  0  0  0
 24 68  1  0  0  0
 25 69  1  0  0  0
 28 70  1  0  0  0
 29 71  1  0  0  0
 30 72  1  0  0  0
 31 73  1  0  0  0
 32 74  1  0  0  0
 33 75  1  0  0  0
 33 76  1  0  0  0
 33 77  1  0  0  0
 34 78  1  0  0  0
 34 79  1  0  0  0
 35 80  1  0  0  0
 36 81  1  0  0  0
 36 82  1  0  0  0
 38 83  1  0  0  0
 39 84  1  0  0  0
 40 85  1  0  0  0
 41 86  1  0  0  0
 42 87  1  0  0  0
M  END
$$$$
