5zqu_ligand
  -I-interpret- 

 52 55  0  0  0  0  0  0  0  0999 V2000
  -62.3610   15.0960  141.2030 O   0  0  0  0  0
  -62.5890   15.2880  139.9880 C   0  0  0  0  0
  -63.5640   15.9840  139.6350 O   0  0  0  0  0
  -61.7640   14.7130  139.0300 C   0  0  0  0  0
  -62.0120   14.8760  137.6690 C   0  0  0  0  0
  -60.6750   13.9570  139.4320 C   0  0  0  0  0
  -59.8720   13.3990  138.4510 C   0  0  0  0  0
  -60.1550   13.5880  137.1610 C   0  0  0  0  0
  -61.1990   14.3040  136.7800 C   0  0  0  0  0
  -61.1710   14.2780  135.4520 N   0  0  0  0  0
  -60.1980   13.6000  135.0840 N   0  0  0  0  0
  -59.5700   13.1610  136.0400 N   0  0  0  0  0
  -58.4710   12.4010  135.9830 C   0  0  0  0  0
  -57.2830   12.9350  135.4870 C   0  0  0  0  0
  -56.1160   12.1720  135.4180 C   0  0  0  0  0
  -54.9400   12.7630  134.9260 C   0  0  0  0  0
  -55.2540   13.6360  133.7090 C   0  0  0  0  0
  -54.3160   13.6300  136.0220 C   0  0  0  0  0
  -53.9310   11.7070  134.5300 C   0  0  0  0  0
  -53.7570   10.8040  135.7240 C   0  0  0  0  0
  -55.0360   10.0100  135.8340 C   0  0  0  0  0
  -55.1850    9.1440  134.5920 C   0  0  0  0  0
  -54.9850    9.1120  137.0740 C   0  0  0  0  0
  -56.1450   10.8510  135.8770 C   0  0  0  0  0
  -57.3300   10.3160  136.3570 C   0  0  0  0  0
  -58.4860   11.0740  136.4180 C   0  0  0  0  0
  -59.6300   10.4580  136.9130 C   0  0  0  0  0
  -61.5812   14.5442  141.2978 H   0  0  0  0  0
  -62.8643   15.4667  137.3331 H   0  0  0  0  0
  -60.4565   13.8057  140.4891 H   0  0  0  0  0
  -59.0047   12.8026  138.7343 H   0  0  0  0  0
  -57.2647   13.9701  135.1458 H   0  0  0  0  0
  -55.6981   13.0204  132.9267 H   0  0  0  0  0
  -55.9539   14.4204  133.9970 H   0  0  0  0  0
  -54.3330   14.0868  133.3395 H   0  0  0  0  0
  -55.0220   14.4072  136.3147 H   0  0  0  0  0
  -54.0800   13.0079  136.8853 H   0  0  0  0  0
  -53.4032   14.0902  135.6438 H   0  0  0  0  0
  -52.9824   12.1633  134.2469 H   0  0  0  0  0
  -54.2786   11.1432  133.6643 H   0  0  0  0  0
  -53.5700   11.3795  136.6306 H   0  0  0  0  0
  -52.8945   10.1488  135.6015 H   0  0  0  0  0
  -55.2204    9.7813  133.7084 H   0  0  0  0  0
  -54.3344    8.4663  134.5190 H   0  0  0  0  0
  -56.1066    8.5662  134.6620 H   0  0  0  0  0
  -54.1412    8.4271  136.9906 H   0  0  0  0  0
  -54.8663    9.7300  137.9640 H   0  0  0  0  0
  -55.9113    8.5421  137.1467 H   0  0  0  0  0
  -57.3517    9.2792  136.6926 H   0  0  0  0  0
  -59.9812   10.9991  137.7916 H   0  0  0  0  0
  -60.4052   10.4647  136.1467 H   0  0  0  0  0
  -59.3973    9.4291  137.1873 H   0  0  0  0  0
  1  2  1  0  0  0
  2  3  2  0  0  0
  2  4  1  0  0  0
  4  5  4  0  0  0
  4  6  4  0  0  0
  5  9  4  0  0  0
  6  7  4  0  0  0
  7  8  4  0  0  0
  8  9  4  0  0  0
  8 12  4  0  0  0
  9 10  4  0  0  0
 10 11  4  0  0  0
 11 12  4  0  0  0
 12 13  1  0  0  0
 13 14  4  0  0  0
 13 26  4  0  0  0
 14 15  4  0  0  0
 15 16  1  0  0  0
 15 24  4  0  0  0
 16 17  1  0  0  0
 16 18  1  0  0  0
 16 19  1  0  0  0
 19 20  1  0  0  0
 20 21  1  0  0  0
 21 22  1  0  0  0
 21 23  1  0  0  0
 21 24  1  0  0  0
 24 25  4  0  0  0
 25 26  4  0  0  0
 26 27  1  0  0  0
  1 28  1  0  0  0
  5 29  1  0  0  0
  6 30  1  0  0  0
  7 31  1  0  0  0
 14 32  1  0  0  0
 17 33  1  0  0  0
 17 34  1  0  0  0
 17 35  1  0  0  0
 18 36  1  0  0  0
 18 37  1  0  0  0
 18 38  1  0  0  0
 19 39  1  0  0  0
 19 40  1  0  0  0
 20 41  1  0  0  0
 20 42  1  0  0  0
 22 43  1  0  0  0
 22 44  1  0  0  0
 22 45  1  0  0  0
 23 46  1  0  0  0
 23 47  1  0  0  0
 23 48  1  0  0  0
 25 49  1  0  0  0
 27 50  1  0  0  0
 27 51  1  0  0  0
 27 52  1  0  0  0
M  END
$$$$
