4bdj_ligand
  -I-interpret- 

 25 28  0  0  0  0  0  0  0  0999 V2000
   46.9630   14.3170   -3.4540 C   0  0  0  0  0
   47.6920   17.1510   -9.5530 N   0  0  0  0  0
   47.3960   13.8200   -4.6630 O   0  0  0  0  0
   47.6570   14.9110   -5.4550 C   0  0  0  0  0
   48.3560   16.0970  -10.1070 N   0  0  0  0  0
   48.1850   14.6510   -6.8040 C   0  0  0  0  0
   49.1970   13.9400   -9.3460 N   0  0  0  0  0
   48.0350   15.5720   -7.8700 C   0  0  0  0  0
   47.4670   16.8910   -8.2080 C   0  0  0  0  0
   48.5880   15.1210   -9.1520 C   0  0  0  0  0
   49.3010   13.1280   -8.2860 C   0  0  0  0  0
   48.8260   13.4320   -7.0280 C   0  0  0  0  0
   46.7010   17.8800   -7.3730 C   0  0  0  0  0
   45.3610   18.3970   -7.8310 C   0  0  0  0  0
   46.5140   19.3160   -7.7900 C   0  0  0  0  0
   47.3960   16.0460   -4.7700 C   0  0  0  0  0
   46.9480   15.6430   -3.4710 C   0  0  0  0  0
   46.6725   13.7047   -2.6003 H   0  0  0  0  0
   49.7926   12.1654   -8.4269 H   0  0  0  0  0
   48.9508   12.7220   -6.2105 H   0  0  0  0  0
   47.0941   17.3819   -6.4867 H   0  0  0  0  0
   44.3060   18.2201   -8.0404 H   0  0  0  0  0
   46.9294   20.3114   -7.9472 H   0  0  0  0  0
   47.5050   17.0675   -5.1345 H   0  0  0  0  0
   46.6516   16.2999   -2.6532 H   0  0  0  0  0
  3  1  4  0  0  0
  1 17  4  0  0  0
  2  5  4  0  0  0
  9  2  4  0  0  0
  4  3  4  0  0  0
  6  4  1  0  0  0
  4 16  4  0  0  0
  5 10  4  0  0  0
  8  6  4  0  0  0
  6 12  4  0  0  0
 10  7  4  0  0  0
  7 11  4  0  0  0
  8  9  4  0  0  0
  8 10  4  0  0  0
  9 13  1  0  0  0
 11 12  4  0  0  0
 13 14  1  0  0  0
 13 15  1  0  0  0
 14 15  2  0  0  0
 16 17  4  0  0  0
  1 18  1  0  0  0
 11 19  1  0  0  0
 12 20  1  0  0  0
 13 21  1  0  0  0
 14 22  1  0  0  0
 15 23  1  0  0  0
 16 24  1  0  0  0
 17 25  1  0  0  0
M  END
$$$$
