6fsd_ligand
  -I-interpret- 

 48 49  0  0  0  0  0  0  0  0999 V2000
   31.6230   20.5540    6.9210 O   0  0  0  0  0
   32.0680   21.3130    7.8090 C   0  0  0  0  0
   31.3130   21.5790    9.0820 N   0  0  0  0  0
   29.9650   20.9550    9.3920 C   0  0  0  0  0
   29.0860   21.5520   10.5450 C   0  0  0  0  0
   27.9960   20.5100   10.9520 C   0  0  0  0  0
   27.2990   20.9520   12.2550 N   0  3  0  0  0
   25.9510   20.2020   12.1820 C   0  0  0  0  0
   25.2670   20.0680   13.5680 C   0  0  0  0  0
   26.1900   19.5000   14.6170 C   0  0  0  0  0
   27.4680   20.3090   14.7310 C   0  0  0  0  0
   28.2110   20.4750   13.3800 C   0  0  0  0  0
   33.4790   22.0180    7.5470 C   0  0  0  0  0
   33.8430   23.1600    8.3880 O   0  0  0  0  0
   35.0560   23.8750    8.1040 C   0  0  0  0  0
   35.6440   24.7600    9.0500 C   0  0  0  0  0
   36.8480   25.4570    8.7540 C   0  0  0  0  0
   37.5970   25.3730    7.5500 C   0  0  0  0  0
   38.9010   26.1630    7.3020 C   0  0  0  0  0
   36.9890   24.4810    6.6200 C   0  0  0  0  0
   35.7850   23.7730    6.8820 C   0  0  0  0  0
   31.7266   22.2087    9.7696 H   0  0  0  0  0
   30.1974   19.9410    9.7174 H   0  0  0  0  0
   29.3754   21.1057    8.4877 H   0  0  0  0  0
   28.6059   22.4685   10.2019 H   0  0  0  0  0
   29.7157   21.7777   11.4056 H   0  0  0  0  0
   28.4695   19.5412   11.1109 H   0  0  0  0  0
   27.2544   20.4393   10.1563 H   0  0  0  0  0
   27.1362   21.9489   12.3967 H   0  0  0  0  0
   26.1459   19.1978   11.8056 H   0  0  0  0  0
   25.2853   20.7710   11.5330 H   0  0  0  0  0
   24.4218   19.3881   13.4609 H   0  0  0  0  0
   24.9646   21.0642   13.8908 H   0  0  0  0  0
   26.4511   18.4810   14.3315 H   0  0  0  0  0
   25.6776   19.5272   15.5786 H   0  0  0  0  0
   28.1346   19.7781   15.4107 H   0  0  0  0  0
   27.1975   21.3046   15.0829 H   0  0  0  0  0
   28.9891   21.2257   13.5184 H   0  0  0  0  0
   28.6071   19.5000   13.0963 H   0  0  0  0  0
   33.4214   22.4125    6.5325 H   0  0  0  0  0
   34.2276   21.2540    7.7568 H   0  0  0  0  0
   35.1639   24.9063   10.0176 H   0  0  0  0  0
   37.2340   26.1211    9.5273 H   0  0  0  0  0
   38.6957   27.2313    7.3705 H   0  0  0  0  0
   39.6410   25.8851    8.0525 H   0  0  0  0  0
   39.2832   25.9281    6.3086 H   0  0  0  0  0
   37.4738   24.3336    5.6549 H   0  0  0  0  0
   35.3964   23.1146    6.1051 H   0  0  0  0  0
  1  2  2  0  0  0
  2  3  1  0  0  0
  2 13  1  0  0  0
  3  4  1  0  0  0
  4  5  1  0  0  0
  5  6  1  0  0  0
  6  7  1  0  0  0
  7  8  1  0  0  0
  7 12  1  0  0  0
  8  9  1  0  0  0
  9 10  1  0  0  0
 10 11  1  0  0  0
 11 12  1  0  0  0
 13 14  1  0  0  0
 14 15  1  0  0  0
 15 16  4  0  0  0
 15 21  4  0  0  0
 16 17  4  0  0  0
 17 18  4  0  0  0
 18 19  1  0  0  0
 18 20  4  0  0  0
 20 21  4  0  0  0
  3 22  1  0  0  0
  4 23  1  0  0  0
  4 24  1  0  0  0
  5 25  1  0  0  0
  5 26  1  0  0  0
  6 27  1  0  0  0
  6 28  1  0  0  0
  7 29  1  0  0  0
  8 30  1  0  0  0
  8 31  1  0  0  0
  9 32  1  0  0  0
  9 33  1  0  0  0
 10 34  1  0  0  0
 10 35  1  0  0  0
 11 36  1  0  0  0
 11 37  1  0  0  0
 12 38  1  0  0  0
 12 39  1  0  0  0
 13 40  1  0  0  0
 13 41  1  0  0  0
 16 42  1  0  0  0
 17 43  1  0  0  0
 19 44  1  0  0  0
 19 45  1  0  0  0
 19 46  1  0  0  0
 20 47  1  0  0  0
 21 48  1  0  0  0
M  END
$$$$
