1tjp_ligand
  -I-interpret- 

 32 32  0  0  0  0  0  0  0  0999 V2000
   52.2250   25.4770   14.7920 C   0  0  0  0  0
   51.6320   24.1490   14.7880 C   0  0  0  0  0
   50.2200   24.1300   15.0820 C   0  0  0  0  0
   49.4300   25.2790   15.3400 C   0  0  0  0  0
   50.0820   26.5240   15.3170 C   0  0  0  0  0
   51.4380   26.6300   15.0600 C   0  0  0  0  0
   52.0340   27.8570   15.0600 O   0  0  0  0  0
   49.3050   27.7450   15.5810 N   0  0  0  0  0
   48.1960   28.0580   14.6470 C   0  0  0  0  0
   48.5990   28.0510   13.1640 C   0  0  0  0  0
   47.4480   28.3470   12.2370 C   0  0  0  0  0
   47.9160   28.0600   10.8770 O   0  0  0  0  0
   48.2440   29.3420    9.9520 P   0  0  0  0  0
   46.8860   30.2140    9.8770 O   0  0  0  0  0
   49.4720   30.1970   10.6130 O   0  0  0  0  0
   48.5940   28.7010    8.6560 O   0  0  0  0  0
   47.1100   27.1640   14.8710 O   0  0  0  0  0
   49.5380   29.1630   13.0860 O   0  0  0  0  0
   53.2894   25.5899   14.5863 H   0  0  0  0  0
   52.2054   23.2455   14.5806 H   0  0  0  0  0
   49.7232   23.1601   15.1078 H   0  0  0  0  0
   48.3628   25.2001   15.5473 H   0  0  0  0  0
   51.3781   28.5301   15.2556 H   0  0  0  0  0
   49.5198   28.3508   16.3730 H   0  0  0  0  0
   47.8952   29.0831   14.8635 H   0  0  0  0  0
   48.9848   27.0766   12.8643 H   0  0  0  0  0
   47.1342   29.3869   12.3279 H   0  0  0  0  0
   46.5816   27.7345   12.4865 H   0  0  0  0  0
   46.7089   30.6029   10.7366 H   0  0  0  0  0
   49.1816   30.5826   11.4428 H   0  0  0  0  0
   46.3958   27.3714   14.2640 H   0  0  0  0  0
   49.8569   29.2484   12.1846 H   0  0  0  0  0
  1  2  4  0  0  0
  1  6  4  0  0  0
  2  3  4  0  0  0
  3  4  4  0  0  0
  4  5  4  0  0  0
  5  6  4  0  0  0
  5  8  1  0  0  0
  6  7  1  0  0  0
  8  9  1  0  0  0
  9 10  1  0  0  0
  9 17  1  0  0  0
 10 11  1  0  0  0
 10 18  1  0  0  0
 11 12  1  0  0  0
 12 13  1  0  0  0
 13 14  1  0  0  0
 13 15  1  0  0  0
 13 16  2  0  0  0
  1 19  1  0  0  0
  2 20  1  0  0  0
  3 21  1  0  0  0
  4 22  1  0  0  0
  7 23  1  0  0  0
  8 24  1  0  0  0
  9 25  1  0  0  0
 10 26  1  0  0  0
 11 27  1  0  0  0
 11 28  1  0  0  0
 14 29  1  0  0  0
 15 30  1  0  0  0
 17 31  1  0  0  0
 18 32  1  0  0  0
M  END
$$$$
