6oxp_ligand
  -I-interpret- 

 80 83  0  0  0  0  0  0  0  0999 V2000
   65.5930   50.9480   12.8380 C   0  0  0  0  0
   66.0940   51.0040   11.5390 O   0  0  0  0  0
   66.4830   51.8520   13.6660 C   0  0  0  0  0
   67.5960   51.2350   14.4970 C   0  0  0  0  0
   68.4940   52.1360   15.3180 C   0  0  0  0  0
   68.2570   53.6320   15.2710 C   0  0  0  0  0
   67.1530   54.2650   14.4410 C   0  0  0  0  0
   66.2590   53.3580   13.6190 C   0  0  0  0  0
   69.3320   54.6790   16.2460 S   0  0  0  0  0
   68.5520   55.7430   16.8730 O   0  0  0  0  0
   69.9160   53.9160   17.3520 O   0  0  0  0  0
   70.5270   55.2900   15.1970 N   0  0  0  0  0
   71.2470   54.2600   14.4620 C   0  0  0  0  0
   72.7460   54.5370   14.4880 C   0  0  0  0  0
   73.2660   54.4970   15.9240 C   0  0  0  0  0
   73.4500   53.4880   13.6230 C   0  0  0  0  0
   70.2060   56.5380   14.5320 C   0  0  0  0  0
   71.0960   57.6580   15.0680 C   0  0  0  0  0
   73.3660   52.0900   14.2320 C   0  0  0  0  0
   70.9730   58.7800   14.2420 O   0  0  0  0  0
   70.7090   58.0390   16.4980 C   0  0  0  0  0
   71.6740   59.0000   16.9790 N   0  0  0  0  0
   72.6740   58.6600   17.9560 C   0  0  0  0  0
   72.6970   57.5970   18.5020 O   0  0  0  0  0
   73.6070   59.6760   18.1920 O   0  0  0  0  0
   74.5410   59.5530   19.3480 C   0  0  0  0  0
   75.6440   59.9190   18.9820 C   0  0  0  0  0
   75.5110   61.4370   18.9370 O   0  0  0  0  0
   74.5700   61.7370   20.0740 C   0  0  0  0  0
   73.3050   62.6500   19.5360 O   0  0  0  0  0
   72.2390   61.9200   19.5730 C   0  0  0  0  0
   72.5400   60.8090   20.5480 C   0  0  0  0  0
   74.1150   60.6440   20.4750 C   0  0  0  0  0
   69.3420   58.7140   16.5670 C   0  0  0  0  0
   68.7860   58.1900   19.0970 C   0  0  0  0  0
   68.5690   58.6650   20.5310 C   0  0  0  0  0
   68.6910   60.1480   20.8660 C   0  0  0  0  0
   69.0280   61.1510   19.7680 C   0  0  0  0  0
   69.2450   60.6740   18.3350 C   0  0  0  0  0
   69.1190   59.1950   18.0010 C   0  0  0  0  0
   65.6001   49.9275   13.2210 H   0  0  0  0  0
   64.5536   51.2742   12.8754 H   0  0  0  0  0
   65.5626   50.4445   10.9679 H   0  0  0  0  0
   67.7461   50.1554   14.5018 H   0  0  0  0  0
   69.2935   51.7177   15.9295 H   0  0  0  0  0
   67.0074   55.3452   14.4368 H   0  0  0  0  0
   65.4652   53.7784   13.0016 H   0  0  0  0  0
   70.9046   54.2577   13.4272 H   0  0  0  0  0
   71.0568   53.2931   14.9279 H   0  0  0  0  0
   72.9497   55.5309   14.0896 H   0  0  0  0  0
   72.7526   55.2545   16.5162 H   0  0  0  0  0
   73.0775   53.5115   16.3500 H   0  0  0  0  0
   74.3376   54.6965   15.9267 H   0  0  0  0  0
   74.5021   53.7621   13.5454 H   0  0  0  0  0
   72.9590   53.4648   12.6501 H   0  0  0  0  0
   69.1619   56.7874   14.7210 H   0  0  0  0  0
   70.3738   56.4276   13.4607 H   0  0  0  0  0
   72.1265   57.3030   15.0753 H   0  0  0  0  0
   73.8391   52.0938   15.2140 H   0  0  0  0  0
   72.3198   51.8011   14.3324 H   0  0  0  0  0
   73.8794   51.3808   13.5827 H   0  0  0  0  0
   71.5315   59.4853   14.5769 H   0  0  0  0  0
   70.6820   57.1247   17.0908 H   0  0  0  0  0
   71.6456   59.9519   16.6137 H   0  0  0  0  0
   74.5246   58.5284   19.7195 H   0  0  0  0  0
   75.9302   59.4936   18.0201 H   0  0  0  0  0
   76.4397   59.5865   19.6486 H   0  0  0  0  0
   75.0946   62.2767   20.8624 H   0  0  0  0  0
   71.9910   61.5276   18.5868 H   0  0  0  0  0
   71.3705   62.4996   19.8859 H   0  0  0  0  0
   72.0175   59.8865   20.2947 H   0  0  0  0  0
   72.1971   61.0421   21.5560 H   0  0  0  0  0
   74.4858   60.3339   21.4520 H   0  0  0  0  0
   68.5610   58.0089   16.2824 H   0  0  0  0  0
   69.3056   59.5583   15.8785 H   0  0  0  0  0
   68.7027   57.1302   18.8564 H   0  0  0  0  0
   68.3274   57.9462   21.3139 H   0  0  0  0  0
   68.5374   60.4905   21.8893 H   0  0  0  0  0
   69.1141   62.2109   20.0073 H   0  0  0  0  0
   69.4899   61.3916   17.5519 H   0  0  0  0  0
  1  2  1  0  0  0
  3  1  1  0  0  0
  4  3  4  0  0  0
  8  3  4  0  0  0
  5  4  4  0  0  0
  6  5  4  0  0  0
  6  7  4  0  0  0
  9  6  1  0  0  0
  7  8  4  0  0  0
  9 10  2  0  0  0
  9 11  2  0  0  0
 12  9  1  0  0  0
 12 13  1  0  0  0
 17 12  1  0  0  0
 13 14  1  0  0  0
 14 15  1  0  0  0
 14 16  1  0  0  0
 16 19  1  0  0  0
 18 17  1  0  0  0
 18 20  1  0  0  0
 21 18  1  0  0  0
 21 22  1  0  0  0
 34 21  1  0  0  0
 22 23  1  0  0  0
 23 24  2  0  0  0
 23 25  1  0  0  0
 25 26  1  0  0  0
 26 27  1  0  0  0
 26 33  1  0  0  0
 27 28  1  0  0  0
 29 28  1  0  0  0
 29 30  1  0  0  0
 33 29  1  0  0  0
 31 30  1  0  0  0
 32 31  1  0  0  0
 33 32  1  0  0  0
 40 34  1  0  0  0
 35 36  4  0  0  0
 35 40  4  0  0  0
 36 37  4  0  0  0
 37 38  4  0  0  0
 38 39  4  0  0  0
 39 40  4  0  0  0
  1 41  1  0  0  0
  1 42  1  0  0  0
  2 43  1  0  0  0
  4 44  1  0  0  0
  5 45  1  0  0  0
  7 46  1  0  0  0
  8 47  1  0  0  0
 13 48  1  0  0  0
 13 49  1  0  0  0
 14 50  1  0  0  0
 15 51  1  0  0  0
 15 52  1  0  0  0
 15 53  1  0  0  0
 16 54  1  0  0  0
 16 55  1  0  0  0
 17 56  1  0  0  0
 17 57  1  0  0  0
 18 58  1  0  0  0
 19 59  1  0  0  0
 19 60  1  0  0  0
 19 61  1  0  0  0
 20 62  1  0  0  0
 21 63  1  0  0  0
 22 64  1  0  0  0
 26 65  1  0  0  0
 27 66  1  0  0  0
 27 67  1  0  0  0
 29 68  1  0  0  0
 31 69  1  0  0  0
 31 70  1  0  0  0
 32 71  1  0  0  0
 32 72  1  0  0  0
 33 73  1  0  0  0
 34 74  1  0  0  0
 34 75  1  0  0  0
 35 76  1  0  0  0
 36 77  1  0  0  0
 37 78  1  0  0  0
 38 79  1  0  0  0
 39 80  1  0  0  0
M  END
$$$$
