### 
### Created by X-TOOL on Mon Sep 10 21:12:56 2018
### 

@<TRIPOS>MOLECULE
2e9d_ligand
   46    48     1     0     0
SMALL
GAST_HUCK


@<TRIPOS>ATOM
      1 CAN        46.6430   40.9880   58.5920 C.ar      1 B76        -0.0540
      2 CAI        47.2110   42.2540   58.4730 C.ar      1 B76        -0.0612
      3 CAH        46.5570   43.2550   57.7600 C.ar      1 B76        -0.0617
      4 CAJ        45.3310   42.9930   57.1610 C.ar      1 B76        -0.0612
      5 CAO        44.7620   41.7280   57.2800 C.ar      1 B76        -0.0540
      6 CAX        45.4130   40.7280   57.9960 C.ar      1 B76        -0.0179
      7 CAZ        44.7890   39.4870   58.1560 C.ar      1 B76        -0.0173
      8 CAT        43.4870   39.3400   57.6950 C.ar      1 B76        -0.0465
      9 CAQ        45.4030   38.4370   58.8300 C.ar      1 B76        -0.0540
     10 CAL        44.7040   37.2490   59.0400 C.ar      1 B76        -0.0606
     11 CAR        43.3960   37.1020   58.5870 C.ar      1 B76        -0.0542
     12 CBA        42.7810   38.1570   57.9160 C.ar      1 B76        -0.0200
     13 CAY        41.4410   38.1280   57.5470 C.ar      1 B76        -0.0268
     14 CAS        40.8890   39.2860   57.0030 C.ar      1 B76        -0.0259
     15 CAP        40.6340   37.0140   57.7670 C.ar      1 B76        -0.0650
     16 CAK        39.2820   37.0810   57.4460 C.ar      1 B76        -0.0697
     17 CAM        38.7310   38.2410   56.9070 C.ar      1 B76        -0.0329
     18 CAW        39.5390   39.3520   56.6800 C.ar      1 B76         0.0917
     19 OAV        39.0640   40.4580   56.0420 O.3       1 B76        -0.3122
     20 CAU        38.7480   41.5510   56.9200 C.3       1 B76         0.1303
     21 CBB        38.9160   42.8190   56.0950 C.3       1 B76         0.2323
     22 PBC        38.1380   44.3120   56.9060 P.3       1 B76         0.1128
     23 OAD        38.4030   45.5780   55.9460 O.co2     1 B76        -0.5593
     24 OAE        36.5480   44.0620   56.8450 O.co2     1 B76        -0.5593
     25 OAA        38.6350   44.5560   58.2790 O.co2     1 B76        -0.5593
     26 PBD        40.7330   43.1280   55.7960 P.3       1 B76         0.1128
     27 OAF        40.8870   44.7090   55.5270 O.co2     1 B76        -0.5593
     28 OAG        41.4880   42.8380   57.1890 O.co2     1 B76        -0.5593
     29 OAB        41.2820   42.3090   54.6910 O.co2     1 B76        -0.5593
     30 OAC        38.2560   42.6050   54.8450 O.3       1 B76        -0.3575
     31 H1         47.1561   40.2099   59.1456 H         1 B76         0.0624
     32 H2         48.1679   42.4612   58.9383 H         1 B76         0.0618
     33 H3         47.0041   44.2386   57.6722 H         1 B76         0.0618
     34 H4         44.8200   43.7698   56.6037 H         1 B76         0.0618
     35 H5         43.8063   41.5208   56.8122 H         1 B76         0.0624
     36 H6         43.0139   40.1538   57.1573 H         1 B76         0.0630
     37 H7         46.4200   38.5416   59.1903 H         1 B76         0.0624
     38 H8         45.1850   36.4299   59.5624 H         1 B76         0.0618
     39 H9         42.8604   36.1746   58.7548 H         1 B76         0.0624
     40 H10        41.5222   40.1485   56.8291 H         1 B76         0.0544
     41 H11        41.0545   36.1058   58.1834 H         1 B76         0.0532
     42 H12        38.6485   36.2183   57.6178 H         1 B76         0.0590
     43 H13        37.6751   38.2788   56.6647 H         1 B76         0.0545
     44 H14        39.4348   41.5611   57.7792 H         1 B76         0.0673
     45 H15        37.7121   41.4643   57.2796 H         1 B76         0.0673
     46 H16        38.6357   41.8488   54.4131 H         1 B76         0.2133
@<TRIPOS>BOND
     1    1    2 ar 
     2    1    6 ar 
     3    2    3 ar 
     4    3    4 ar 
     5    4    5 ar 
     6    5    6 ar 
     7    6    7 1  
     8    7    8 ar 
     9    7    9 ar 
    10    8   12 ar 
    11    9   10 ar 
    12   10   11 ar 
    13   11   12 ar 
    14   12   13 1  
    15   13   14 ar 
    16   13   15 ar 
    17   14   18 ar 
    18   15   16 ar 
    19   16   17 ar 
    20   17   18 ar 
    21   18   19 1  
    22   19   20 1  
    23   20   21 1  
    24   21   22 1  
    25   21   26 1  
    26   21   30 1  
    27   22   23 ar 
    28   22   24 ar 
    29   22   25 ar 
    30   26   27 ar 
    31   26   28 ar 
    32   26   29 ar 
    33    1   31 1  
    34    2   32 1  
    35    3   33 1  
    36    4   34 1  
    37    5   35 1  
    38    8   36 1  
    39    9   37 1  
    40   10   38 1  
    41   11   39 1  
    42   14   40 1  
    43   15   41 1  
    44   16   42 1  
    45   17   43 1  
    46   20   44 1  
    47   20   45 1  
    48   30   46 1  
@<TRIPOS>SUBSTRUCTURE
     1 B76         1

