2e9d_ligand
  -I-interpret- 

 50 52  0  0  0  0  0  0  0  0999 V2000
   46.6430   40.9880   58.5920 C   0  0  0  0  0
   47.2110   42.2540   58.4730 C   0  0  0  0  0
   46.5570   43.2550   57.7600 C   0  0  0  0  0
   45.3310   42.9930   57.1610 C   0  0  0  0  0
   44.7620   41.7280   57.2800 C   0  0  0  0  0
   45.4130   40.7280   57.9960 C   0  0  0  0  0
   44.7890   39.4870   58.1560 C   0  0  0  0  0
   43.4870   39.3400   57.6950 C   0  0  0  0  0
   45.4030   38.4370   58.8300 C   0  0  0  0  0
   44.7040   37.2490   59.0400 C   0  0  0  0  0
   43.3960   37.1020   58.5870 C   0  0  0  0  0
   42.7810   38.1570   57.9160 C   0  0  0  0  0
   41.4410   38.1280   57.5470 C   0  0  0  0  0
   40.8890   39.2860   57.0030 C   0  0  0  0  0
   40.6340   37.0140   57.7670 C   0  0  0  0  0
   39.2820   37.0810   57.4460 C   0  0  0  0  0
   38.7310   38.2410   56.9070 C   0  0  0  0  0
   39.5390   39.3520   56.6800 C   0  0  0  0  0
   39.0640   40.4580   56.0420 O   0  0  0  0  0
   38.7480   41.5510   56.9200 C   0  0  0  0  0
   38.9160   42.8190   56.0950 C   0  0  0  0  0
   38.1380   44.3120   56.9060 P   0  0  0  0  0
   38.4030   45.5780   55.9460 O   0  0  0  0  0
   36.5480   44.0620   56.8450 O   0  0  0  0  0
   38.6350   44.5560   58.2790 O   0  0  0  0  0
   40.7330   43.1280   55.7960 P   0  0  0  0  0
   40.8870   44.7090   55.5270 O   0  0  0  0  0
   41.4880   42.8380   57.1890 O   0  0  0  0  0
   41.2820   42.3090   54.6910 O   0  0  0  0  0
   38.2560   42.6050   54.8450 O   0  0  0  0  0
   47.1589   40.2056   59.1486 H   0  0  0  0  0
   48.1732   42.4623   58.9408 H   0  0  0  0  0
   47.0066   44.2440   57.6717 H   0  0  0  0  0
   44.8172   43.7741   56.6006 H   0  0  0  0  0
   43.8010   41.5197   56.8096 H   0  0  0  0  0
   43.0113   40.1583   57.1544 H   0  0  0  0  0
   46.4256   38.5422   59.1923 H   0  0  0  0  0
   45.1876   36.4254   59.5653 H   0  0  0  0  0
   42.8574   36.1695   58.7558 H   0  0  0  0  0
   41.5257   40.1532   56.8282 H   0  0  0  0  0
   41.0568   36.1007   58.1857 H   0  0  0  0  0
   38.6450   36.2135   57.6188 H   0  0  0  0  0
   37.6693   38.2791   56.6633 H   0  0  0  0  0
   39.4037   41.5584   57.7907 H   0  0  0  0  0
   37.7323   41.4645   57.3060 H   0  0  0  0  0
   38.0696   45.3865   55.0664 H   0  0  0  0  0
   36.2838   43.9102   55.9347 H   0  0  0  0  0
   40.5183   45.1959   56.2677 H   0  0  0  0  0
   41.1058   43.3854   57.8788 H   0  0  0  0  0
   38.3441   43.3899   54.2994 H   0  0  0  0  0
  1  2  4  0  0  0
  1  6  4  0  0  0
  2  3  4  0  0  0
  3  4  4  0  0  0
  4  5  4  0  0  0
  5  6  4  0  0  0
  6  7  1  0  0  0
  7  8  4  0  0  0
  7  9  4  0  0  0
  8 12  4  0  0  0
  9 10  4  0  0  0
 10 11  4  0  0  0
 11 12  4  0  0  0
 12 13  1  0  0  0
 13 14  4  0  0  0
 13 15  4  0  0  0
 14 18  4  0  0  0
 15 16  4  0  0  0
 16 17  4  0  0  0
 17 18  4  0  0  0
 18 19  1  0  0  0
 19 20  1  0  0  0
 20 21  1  0  0  0
 21 22  1  0  0  0
 21 26  1  0  0  0
 21 30  1  0  0  0
 22 23  1  0  0  0
 22 24  1  0  0  0
 22 25  2  0  0  0
 26 27  1  0  0  0
 26 28  1  0  0  0
 26 29  2  0  0  0
  1 31  1  0  0  0
  2 32  1  0  0  0
  3 33  1  0  0  0
  4 34  1  0  0  0
  5 35  1  0  0  0
  8 36  1  0  0  0
  9 37  1  0  0  0
 10 38  1  0  0  0
 11 39  1  0  0  0
 14 40  1  0  0  0
 15 41  1  0  0  0
 16 42  1  0  0  0
 17 43  1  0  0  0
 20 44  1  0  0  0
 20 45  1  0  0  0
 23 46  1  0  0  0
 24 47  1  0  0  0
 27 48  1  0  0  0
 28 49  1  0  0  0
 30 50  1  0  0  0
M  END
$$$$
