2in6_ligand
  -I-interpret- 

 46 50  0  0  0  0  0  0  0  0999 V2000
    0.1660   51.5710   21.8920 O   0  0  0  0  0
    1.1450   50.9840   22.4020 C   0  0  0  0  0
    1.1950   49.7360   22.5440 O   0  0  0  0  0
    2.3180   51.8070   22.9010 C   0  0  0  0  0
    1.9810   53.2790   23.1300 C   0  0  0  0  0
    3.2100   53.7550   23.7970 N   0  0  0  0  0
    3.2910   53.8190   25.1500 C   0  0  0  0  0
    4.3750   54.1400   23.1870 C   0  0  0  0  0
    4.7340   54.2330   21.8210 C   0  0  0  0  0
    6.0130   54.6910   21.5180 C   0  0  0  0  0
    6.9390   55.0170   22.4930 C   0  0  0  0  0
    8.1720   55.4220   22.0740 O   0  0  0  0  0
    6.6400   54.8930   23.8900 C   0  0  0  0  0
    5.3200   54.4850   24.1570 C   0  0  0  0  0
    4.6620   54.2840   25.4270 C   0  0  0  0  0
    5.0580   54.4710   26.8320 C   0  0  0  0  0
    6.3030   54.8780   27.4710 C   0  0  0  0  0
    7.3190   55.2830   26.8830 O   0  0  0  0  0
    4.1210   54.1490   27.8810 C   0  0  0  0  0
    4.9330   54.4620   29.0830 C   0  0  0  0  0
    4.4460   54.2920   30.2410 O   0  0  0  0  0
    6.2140   54.9020   28.8470 N   0  0  0  0  0
    2.7720   53.7030   27.5170 C   0  0  0  0  0
    2.4100   53.5060   26.1710 C   0  0  0  0  0
    1.7750   53.4180   28.5400 C   0  0  0  0  0
    1.0060   52.1810   28.6110 C   0  0  0  0  0
   -0.0100   52.0710   29.7140 C   0  0  0  0  0
   -0.1980   53.0880   30.5890 C   0  0  0  0  0
    0.4830   54.2630   30.5160 C   0  0  0  0  0
    1.4420   54.4960   29.5270 C   0  0  0  0  0
    2.0290   49.4949   22.9538 H   0  0  0  0  0
    3.0943   51.7651   22.1370 H   0  0  0  0  0
    2.6248   51.3896   23.8600 H   0  0  0  0  0
    1.0750   53.4359   23.7154 H   0  0  0  0  0
    1.7396   53.8213   22.2158 H   0  0  0  0  0
    4.0332   53.9556   21.0336 H   0  0  0  0  0
    6.2964   54.7971   20.4708 H   0  0  0  0  0
    8.7198   55.6180   22.8376 H   0  0  0  0  0
    7.3693   55.0964   24.6742 H   0  0  0  0  0
    6.9249   55.1786   29.5242 H   0  0  0  0  0
    1.4263   53.1030   25.9302 H   0  0  0  0  0
    1.1608   51.3724   27.8966 H   0  0  0  0  0
   -0.6028   51.1614   29.8108 H   0  0  0  0  0
   -0.9282   52.9587   31.3878 H   0  0  0  0  0
    0.2752   55.0433   31.2482 H   0  0  0  0  0
    1.9473   55.4603   29.4732 H   0  0  0  0  0
  1  2  2  0  0  0
  2  3  1  0  0  0
  2  4  1  0  0  0
  4  5  1  0  0  0
  5  6  1  0  0  0
  6  7  4  0  0  0
  6  8  4  0  0  0
  7 15  4  0  0  0
  7 24  4  0  0  0
  8  9  4  0  0  0
  8 14  4  0  0  0
  9 10  4  0  0  0
 10 11  4  0  0  0
 11 12  1  0  0  0
 11 13  4  0  0  0
 13 14  4  0  0  0
 14 15  4  0  0  0
 15 16  4  0  0  0
 16 17  1  0  0  0
 16 19  4  0  0  0
 17 18  2  0  0  0
 17 22  1  0  0  0
 19 20  1  0  0  0
 19 23  4  0  0  0
 20 21  2  0  0  0
 20 22  1  0  0  0
 23 24  4  0  0  0
 23 25  1  0  0  0
 25 26  4  0  0  0
 25 30  4  0  0  0
 26 27  4  0  0  0
 27 28  4  0  0  0
 28 29  4  0  0  0
 29 30  4  0  0  0
  3 31  1  0  0  0
  4 32  1  0  0  0
  4 33  1  0  0  0
  5 34  1  0  0  0
  5 35  1  0  0  0
  9 36  1  0  0  0
 10 37  1  0  0  0
 12 38  1  0  0  0
 13 39  1  0  0  0
 22 40  1  0  0  0
 24 41  1  0  0  0
 26 42  1  0  0  0
 27 43  1  0  0  0
 28 44  1  0  0  0
 29 45  1  0  0  0
 30 46  1  0  0  0
M  END
$$$$
