4ylk_ligand
  -I-interpret- 

 29 32  0  0  0  0  0  0  0  0999 V2000
   20.7800   52.8510   34.1340 O   0  0  0  0  0
   20.1140   52.6970   35.2300 C   0  0  0  0  0
   20.1570   53.1630   36.3980 O   0  0  0  0  0
   19.3630   51.5910   35.2260 C   0  0  0  0  0
   19.7180   50.8270   34.1040 N   0  0  0  0  0
   19.1700   49.5850   33.9790 C   0  0  0  0  0
   19.5370   48.7250   32.9480 C   0  0  0  0  0
   18.9550   47.4790   32.8400 C   0  0  0  0  0
   17.9910   47.1180   33.7590 C   0  0  0  0  0
   17.0760   45.2670   33.5590 I   0  0  0  0  0
   17.6260   47.9720   34.7980 C   0  0  0  0  0
   18.2080   49.2160   34.9020 C   0  0  0  0  0
   17.8270   50.0740   35.9440 C   0  0  0  0  0
   18.3620   51.2810   36.2130 C   0  0  0  0  0
   17.6750   51.7890   37.3730 C   0  0  0  0  0
   17.7300   52.9650   38.1630 C   0  0  0  0  0
   16.8440   53.0830   39.2580 C   0  0  0  0  0
   15.9280   52.0850   39.5830 C   0  0  0  0  0
   15.8650   50.9410   38.8060 C   0  0  0  0  0
   14.7130   49.6320   39.1530 Cl  0  0  0  0  0
   16.7290   50.8240   37.7270 C   0  0  0  0  0
   16.8620   49.8000   36.8310 N   0  0  0  0  0
   20.4068   52.2876   33.4522 H   0  0  0  0  0
   20.2879   49.0376   32.2224 H   0  0  0  0  0
   19.2504   46.7939   32.0453 H   0  0  0  0  0
   16.8806   47.6558   35.5277 H   0  0  0  0  0
   18.4391   53.7597   37.9313 H   0  0  0  0  0
   16.8786   53.9852   39.8687 H   0  0  0  0  0
   15.2668   52.2038   40.4414 H   0  0  0  0  0
  1  2  1  0  0  0
  2  3  2  0  0  0
  2  4  1  0  0  0
  4  5  4  0  0  0
  4 14  4  0  0  0
  5  6  4  0  0  0
  6  7  4  0  0  0
  6 12  4  0  0  0
  7  8  4  0  0  0
  8  9  4  0  0  0
  9 10  1  0  0  0
  9 11  4  0  0  0
 11 12  4  0  0  0
 12 13  4  0  0  0
 13 14  4  0  0  0
 13 22  4  0  0  0
 14 15  4  0  0  0
 15 16  4  0  0  0
 15 21  4  0  0  0
 16 17  4  0  0  0
 17 18  4  0  0  0
 18 19  4  0  0  0
 19 20  1  0  0  0
 19 21  4  0  0  0
 21 22  4  0  0  0
  1 23  1  0  0  0
  7 24  1  0  0  0
  8 25  1  0  0  0
 11 26  1  0  0  0
 16 27  1  0  0  0
 17 28  1  0  0  0
 18 29  1  0  0  0
M  END
$$$$
