3nif_ligand
  -I-interpret- 

 34 36  0  0  0  0  0  0  0  0999 V2000
   51.4400  108.9700   73.5070 C   0  0  0  0  0
   52.4310  108.1930   73.0590 N   0  0  0  0  0
   54.0850  106.1150   72.4120 O   0  0  0  0  0
   50.1430  107.9760   74.3730 S   0  0  0  0  0
   51.0660  106.5650   74.0400 C   0  0  0  0  0
   52.2190  106.8240   73.3650 N   0  0  0  0  0
   51.6520  104.1980   74.0130 C   0  0  0  0  0
   50.7460  105.3490   74.3780 N   0  0  0  0  0
   52.7910  104.4540   73.3620 C   0  0  0  0  0
   50.0420  100.5010   75.3810 N   0  3  0  0  0
   53.1030  105.8350   73.0090 C   0  0  0  0  0
   51.1650  102.9160   74.4850 N   0  0  0  0  0
   51.3350  110.4810   73.3740 C   0  0  0  0  0
   49.8680  110.9000   73.5130 C   0  0  0  0  0
   49.9770  102.9380   75.2910 C   0  0  0  0  0
   49.1590  101.6750   75.0930 C   0  0  0  0  0
   51.0100  100.4530   74.2730 C   0  0  0  0  0
   51.8730  101.7200   74.2440 C   0  0  0  0  0
   53.4741  103.6461   73.0997 H   0  0  0  0  0
   49.5043   99.6365   75.4443 H   0  0  0  0  0
   50.5106  100.5988   76.2817 H   0  0  0  0  0
   51.7118  110.7888   72.3986 H   0  0  0  0  0
   51.9267  110.9583   74.1551 H   0  0  0  0  0
   49.2792  110.4221   72.7300 H   0  0  0  0  0
   49.4944  110.5919   74.4895 H   0  0  0  0  0
   49.7902  111.9831   73.4180 H   0  0  0  0  0
   49.3717  103.7954   74.9967 H   0  0  0  0  0
   50.2679  103.0044   76.3394 H   0  0  0  0  0
   48.3004  101.6737   75.7645 H   0  0  0  0  0
   48.7872  101.6241   74.0696 H   0  0  0  0  0
   50.4630  100.3802   73.3330 H   0  0  0  0  0
   51.6602   99.5895   74.4132 H   0  0  0  0  0
   52.6117  101.6209   75.0394 H   0  0  0  0  0
   52.2949  101.7956   73.2418 H   0  0  0  0  0
  2  1  2  0  0  0
  4  1  1  0  0  0
  1 13  1  0  0  0
  6  2  1  0  0  0
 11  3  2  0  0  0
  5  4  1  0  0  0
  5  6  1  0  0  0
  8  5  2  0  0  0
 11  6  1  0  0  0
  7  8  1  0  0  0
  7  9  2  0  0  0
 12  7  1  0  0  0
  9 11  1  0  0  0
 16 10  1  0  0  0
 10 17  1  0  0  0
 15 12  1  0  0  0
 12 18  1  0  0  0
 13 14  1  0  0  0
 15 16  1  0  0  0
 17 18  1  0  0  0
  9 19  1  0  0  0
 10 20  1  0  0  0
 10 21  1  0  0  0
 13 22  1  0  0  0
 13 23  1  0  0  0
 14 24  1  0  0  0
 14 25  1  0  0  0
 14 26  1  0  0  0
 15 27  1  0  0  0
 15 28  1  0  0  0
 16 29  1  0  0  0
 16 30  1  0  0  0
 17 31  1  0  0  0
 17 32  1  0  0  0
 18 33  1  0  0  0
 18 34  1  0  0  0
M  END
$$$$
