2xxn_ligand
  -I-interpret- 

210212  0  0  0  0  0  0  0  0999 V2000
  -12.2180   -4.2550    8.7910 N   0  3  0  0  0
  -12.9590   -5.1510    9.6960 C   0  0  0  0  0
  -14.4650   -5.1020    9.4540 C   0  0  0  0  0
  -15.0570   -4.0270    9.4600 O   0  0  0  0  0
  -12.6670   -4.8000   11.1620 C   0  0  0  0  0
  -11.2940   -4.9240   11.4870 O   0  0  0  0  0
  -15.0540   -6.2830    9.2890 N   0  0  0  0  0
  -16.4900   -6.4390    9.0280 C   0  0  0  0  0
  -17.2830   -6.6590   10.3250 C   0  0  0  0  0
  -17.1930   -7.7290   10.9260 O   0  0  0  0  0
  -16.7230   -7.6260    8.0690 C   0  0  0  0  0
  -18.1790   -7.8540    7.8040 C   0  0  0  0  0
  -15.9690   -7.3900    6.7610 C   0  0  0  0  0
  -18.0490   -5.6520   10.7480 N   0  0  0  0  0
  -18.8370   -5.7750   11.9720 C   0  0  0  0  0
  -20.3360   -5.5400   11.8280 C   0  0  0  0  0
  -21.1020   -6.1150   12.5460 O   0  0  0  0  0
  -18.3040   -4.8510   13.0880 C   0  0  0  0  0
  -16.8270   -4.9500   13.4120 C   0  0  0  0  0
  -15.9240   -3.9380   13.3920 C   0  0  0  0  0
  -16.1150   -6.1030   13.8430 C   0  0  0  0  0
  -14.6930   -4.3890   13.7590 N   0  0  0  0  0
  -14.7790   -5.7220   14.0310 C   0  0  0  0  0
  -16.4660   -7.4330   14.0550 C   0  0  0  0  0
  -13.8020   -6.6110   14.4370 C   0  0  0  0  0
  -15.4870   -8.3110   14.4520 C   0  0  0  0  0
  -14.1800   -7.9010   14.6430 C   0  0  0  0  0
  -20.7430   -4.6520   10.9340 N   0  0  0  0  0
  -22.1730   -4.3240   10.8960 C   0  0  0  0  0
  -22.9960   -5.5430   10.4660 C   0  0  0  0  0
  -22.6880   -6.1730    9.4520 O   0  0  0  0  0
  -22.5190   -3.0540   10.0710 C   0  0  0  0  0
  -23.9890   -2.6860   10.3020 C   0  0  0  0  0
  -22.2300   -3.2480    8.5920 C   0  0  0  0  0
  -24.3440   -1.2900    9.9400 C   0  0  0  0  0
  -23.9980   -5.9190   11.2810 N   0  0  0  0  0
  -24.7860   -7.1060   10.9600 C   0  0  0  0  0
  -25.4240   -7.0910    9.5740 C   0  0  0  0  0
  -25.7440   -6.0230    9.0190 O   0  0  0  0  0
  -25.8630   -7.1100   12.0470 C   0  0  0  0  0
  -25.1880   -6.4430   13.2120 C   0  0  0  0  0
  -24.4020   -5.3330   12.5770 C   0  0  0  0  0
  -25.5970   -8.2900    9.0280 N   0  0  0  0  0
  -26.2670   -8.4790    7.7510 C   0  0  0  0  0
  -27.6150   -7.7370    7.7190 C   0  0  0  0  0
  -28.3540   -7.7220    8.7160 O   0  0  0  0  0
  -26.4380   -9.9940    7.4420 C   0  0  0  0  0
  -27.3760  -10.6800    8.4500 C   0  0  0  0  0
  -26.9230  -10.2090    6.0280 C   0  0  0  0  0
  -27.8790   -7.0820    6.5850 N   0  0  0  0  0
  -29.1610   -6.4230    6.2750 C   0  0  0  0  0
  -29.4980   -5.1270    7.0120 C   0  0  0  0  0
  -30.6170   -4.6250    6.8800 O   0  0  0  0  0
  -30.3420   -7.3970    6.3940 C   0  0  0  0  0
  -30.4050   -8.3930    5.2520 C   0  0  0  0  0
  -29.9240   -8.1310    4.1440 O   0  0  0  0  0
  -31.0220   -9.5390    5.5130 N   0  0  0  0  0
  -28.5580   -4.5750    7.7770 N   0  0  0  0  0
  -28.8430   -3.3230    8.4880 C   0  0  0  0  0
  -29.0890   -2.2050    7.4880 C   0  0  0  0  0
  -28.2000   -1.8500    6.7230 O   0  0  0  0  0
  -27.7100   -2.9520    9.4440 C   0  0  0  0  0
  -27.6630   -3.8260   10.6870 C   0  0  0  0  0
  -28.8240   -3.5550   11.6290 C   0  0  0  0  0
  -28.7710   -2.5390   12.3560 O   0  0  0  0  0
  -29.7790   -4.3650   11.6470 O   0  0  0  0  0
  -30.3120   -1.6840    7.4790 N   0  0  0  0  0
  -30.7070   -0.6560    6.5140 C   0  0  0  0  0
  -31.0440   -1.1660    5.1180 C   0  0  0  0  0
  -31.2220   -0.3610    4.1980 O   0  0  0  0  0
  -31.1290   -2.4890    4.9550 N   0  0  0  0  0
  -31.4010   -3.0980    3.6440 C   0  0  0  0  0
  -32.8890   -3.1280    3.3140 C   0  0  0  0  0
  -33.7390   -3.2300    4.2100 O   0  0  0  0  0
  -30.8110   -4.4990    3.5590 C   0  0  0  0  0
  -33.1880   -3.0600    2.0190 N   0  0  0  0  0
  -34.5570   -3.1270    1.5170 C   0  0  0  0  0
  -34.5200   -3.3790    0.0160 C   0  0  0  0  0
  -33.4410   -3.4070   -0.5880 O   0  0  0  0  0
  -35.2820   -1.8060    1.7780 C   0  0  0  0  0
  -34.7820   -0.7760    0.9350 O   0  0  0  0  0
  -35.6960   -3.5500   -0.5860 N   0  0  0  0  0
  -35.8200   -3.4810   -2.0420 C   0  0  0  0  0
  -35.6650   -2.0200   -2.4780 C   0  0  0  0  0
  -35.7400   -1.1020   -1.6540 O   0  0  0  0  0
  -37.1880   -3.9930   -2.5360 C   0  0  0  0  0
  -38.2270   -3.1610   -2.0030 O   0  0  0  0  0
  -37.4180   -5.4380   -2.1210 C   0  0  0  0  0
  -35.4590   -1.8000   -3.7700 N   0  0  0  0  0
  -35.3390   -0.4360   -4.2860 C   0  0  0  0  0
  -36.6910    0.2610   -4.4170 C   0  0  0  0  0
  -36.7570    1.4900   -4.4570 O   0  0  0  0  0
  -34.6320   -0.4320   -5.6390 C   0  0  0  0  0
  -35.4450   -1.0350   -6.6260 O   0  0  0  0  0
  -37.7580   -0.5270   -4.5010 N   0  0  0  0  0
  -39.0870    0.0090   -4.7950 C   0  0  0  0  0
  -39.3420    0.1770   -6.2860 C   0  0  0  0  0
  -40.4400    0.5680   -6.6910 O   0  0  0  0  0
  -38.3320   -0.1220   -7.1040 N   0  0  0  0  0
  -38.4420   -0.0270   -8.5640 C   0  0  0  0  0
  -39.2670   -1.1820   -9.1250 C   0  0  0  0  0
  -39.0440   -2.3450   -8.7780 O   0  0  0  0  0
  -37.0540   -0.0220   -9.2140 C   0  0  0  0  0
  -36.1470    1.1370   -8.8030 C   0  0  0  0  0
  -36.2150    2.5560   -9.9140 S   0  0  0  0  0
  -35.4530    1.8740  -11.3880 C   0  0  0  0  0
  -40.1871   -0.9451   -9.9526 O   0  0  0  0  0
  -12.4249   -4.5038    7.8237 H   0  0  0  0  0
  -12.5007   -3.2902    8.9631 H   0  0  0  0  0
  -11.2172   -4.3529    8.9619 H   0  0  0  0  0
  -12.6166   -6.1638    9.4839 H   0  0  0  0  0
  -13.2252   -5.4933   11.7911 H   0  0  0  0  0
  -12.9581   -3.7621   11.3234 H   0  0  0  0  0
  -11.1628   -4.6949   12.4100 H   0  0  0  0  0
  -14.4785   -7.1232    9.3468 H   0  0  0  0  0
  -16.8461   -5.5166    8.5691 H   0  0  0  0  0
  -16.3401   -8.5262    8.5496 H   0  0  0  0  0
  -18.6887   -8.0687    8.7433 H   0  0  0  0  0
  -18.6090   -6.9603    7.3519 H   0  0  0  0  0
  -18.2955   -8.6984    7.1246 H   0  0  0  0  0
  -16.3302   -6.4731    6.2952 H   0  0  0  0  0
  -14.9030   -7.2977    6.9691 H   0  0  0  0  0
  -16.1378   -8.2314    6.0889 H   0  0  0  0  0
  -18.0849   -4.7859   10.2104 H   0  0  0  0  0
  -18.7129   -6.8255   12.2349 H   0  0  0  0  0
  -18.8294   -5.1459   13.9963 H   0  0  0  0  0
  -18.4646   -3.8325   12.7346 H   0  0  0  0  0
  -16.1521   -2.9074   13.1200 H   0  0  0  0  0
  -17.4925   -7.7696   13.9096 H   0  0  0  0  0
  -12.7706   -6.2913   14.5860 H   0  0  0  0  0
  -15.7465   -9.3561   14.6206 H   0  0  0  0  0
  -13.4356   -8.6287   14.9661 H   0  0  0  0  0
  -20.0842   -4.2104   10.2927 H   0  0  0  0  0
  -22.4517   -4.0623   11.9168 H   0  0  0  0  0
  -21.8847   -2.2349   10.4098 H   0  0  0  0  0
  -24.1791   -2.7949   11.3698 H   0  0  0  0  0
  -24.5836   -3.3400    9.6642 H   0  0  0  0  0
  -21.1712   -3.4682    8.4558 H   0  0  0  0  0
  -22.8266   -4.0774    8.2123 H   0  0  0  0  0
  -22.4856   -2.3371    8.0506 H   0  0  0  0  0
  -23.7482   -0.5987   10.5361 H   0  0  0  0  0
  -24.1406   -1.1276    8.8815 H   0  0  0  0  0
  -25.4028   -1.1228   10.1377 H   0  0  0  0  0
  -24.1550   -7.9944   10.9364 H   0  0  0  0  0
  -26.2120   -8.1147   12.2856 H   0  0  0  0  0
  -26.7708   -6.5920   11.7376 H   0  0  0  0  0
  -24.5576   -7.1295   13.7772 H   0  0  0  0  0
  -25.8995   -6.0787   13.9530 H   0  0  0  0  0
  -24.9779   -4.4142   12.4665 H   0  0  0  0  0
  -23.5532   -5.0138   13.1818 H   0  0  0  0  0
  -25.2463   -9.1096    9.5237 H   0  0  0  0  0
  -25.6426   -8.0488    6.9679 H   0  0  0  0  0
  -25.4555  -10.4555    7.5406 H   0  0  0  0  0
  -26.9644  -10.5791    9.4542 H   0  0  0  0  0
  -28.3580  -10.2087    8.4094 H   0  0  0  0  0
  -27.4679  -11.7365    8.1980 H   0  0  0  0  0
  -27.8856   -9.7148    5.8963 H   0  0  0  0  0
  -26.1992   -9.7895    5.3293 H   0  0  0  0  0
  -27.0330  -11.2773    5.8415 H   0  0  0  0  0
  -27.1405   -7.0344    5.8831 H   0  0  0  0  0
  -29.0000   -6.1102    5.2433 H   0  0  0  0  0
  -31.2602   -6.8100    6.3741 H   0  0  0  0  0
  -30.2169   -7.9596    7.3192 H   0  0  0  0  0
  -31.1141  -10.2462    4.7838 H   0  0  0  0  0
  -31.4040   -9.7123    6.4427 H   0  0  0  0  0
  -27.6447   -5.0200    7.8683 H   0  0  0  0  0
  -29.7413   -3.4685    9.0879 H   0  0  0  0  0
  -27.8758   -1.9249    9.7691 H   0  0  0  0  0
  -26.7698   -3.0878    8.9096 H   0  0  0  0  0
  -26.7378   -3.6059   11.2196 H   0  0  0  0  0
  -27.7216   -4.8672   10.3699 H   0  0  0  0  0
  -29.6140   -5.0667   11.0129 H   0  0  0  0  0
  -30.9945   -2.0095    8.1636 H   0  0  0  0  0
  -29.8530    0.0124    6.4038 H   0  0  0  0  0
  -31.6140   -0.1943    6.9044 H   0  0  0  0  0
  -31.0013   -3.0959    5.7648 H   0  0  0  0  0
  -30.9159   -2.4661    2.9001 H   0  0  0  0  0
  -29.7319   -4.4468    3.7033 H   0  0  0  0  0
  -31.2526   -5.1254    4.3340 H   0  0  0  0  0
  -31.0277   -4.9243    2.5791 H   0  0  0  0  0
  -32.4271   -2.9565    1.3477 H   0  0  0  0  0
  -35.0853   -3.9324    2.0271 H   0  0  0  0  0
  -35.1205   -1.5174    2.8166 H   0  0  0  0  0
  -36.3435   -1.9427    1.5717 H   0  0  0  0  0
  -35.2516    0.0412    1.1172 H   0  0  0  0  0
  -36.5255   -3.7325   -0.0212 H   0  0  0  0  0
  -35.0454   -4.1151   -2.4732 H   0  0  0  0  0
  -37.2008   -3.9504   -3.6251 H   0  0  0  0  0
  -39.0792   -3.4790   -2.3100 H   0  0  0  0  0
  -36.6364   -6.0662   -2.5482 H   0  0  0  0  0
  -37.3910   -5.5111   -1.0338 H   0  0  0  0  0
  -38.3909   -5.7686   -2.4846 H   0  0  0  0  0
  -35.3835   -2.5902   -4.4106 H   0  0  0  0  0
  -34.7468    0.1193   -3.5587 H   0  0  0  0  0
  -33.7027   -0.9953   -5.5540 H   0  0  0  0  0
  -34.4297    0.5990   -5.9291 H   0  0  0  0  0
  -34.9851   -1.0236   -7.4686 H   0  0  0  0  0
  -37.6474   -1.5307   -4.3568 H   0  0  0  0  0
  -39.1586    0.9933   -4.3322 H   0  0  0  0  0
  -39.8230   -0.6962   -4.4090 H   0  0  0  0  0
  -37.4478   -0.4290   -6.6985 H   0  0  0  0  0
  -38.9463    0.9108   -8.7971 H   0  0  0  0  0
  -37.2121    0.0703  -10.2885 H   0  0  0  0  0
  -36.5558   -0.9375   -8.8949 H   0  0  0  0  0
  -35.1225    0.7652   -8.8175 H   0  0  0  0  0
  -36.4834    1.4779   -7.8239 H   0  0  0  0  0
  -34.4382    1.5517  -11.1549 H   0  0  0  0  0
  -36.0358    1.0208  -11.7352 H   0  0  0  0  0
  -35.4237    2.6365  -12.1663 H   0  0  0  0  0
  -40.2326   -0.0004  -10.1171 H   0  0  0  0  0
  1  2  1  0  0  0
  2  3  1  0  0  0
  2  5  1  0  0  0
  3  4  2  0  0  0
  3  7  1  0  0  0
  5  6  1  0  0  0
  7  8  1  0  0  0
  8  9  1  0  0  0
  8 11  1  0  0  0
  9 10  2  0  0  0
  9 14  1  0  0  0
 11 12  1  0  0  0
 11 13  1  0  0  0
 14 15  1  0  0  0
 15 16  1  0  0  0
 15 18  1  0  0  0
 16 17  2  0  0  0
 16 28  1  0  0  0
 18 19  1  0  0  0
 19 20  4  0  0  0
 19 21  4  0  0  0
 20 22  4  0  0  0
 21 23  4  0  0  0
 21 24  4  0  0  0
 22 23  4  0  0  0
 23 25  4  0  0  0
 24 26  4  0  0  0
 25 27  4  0  0  0
 26 27  4  0  0  0
 28 29  1  0  0  0
 29 30  1  0  0  0
 29 32  1  0  0  0
 30 31  2  0  0  0
 30 36  1  0  0  0
 32 33  1  0  0  0
 32 34  1  0  0  0
 33 35  1  0  0  0
 36 37  1  0  0  0
 36 42  1  0  0  0
 37 38  1  0  0  0
 37 40  1  0  0  0
 38 39  2  0  0  0
 38 43  1  0  0  0
 40 41  1  0  0  0
 41 42  1  0  0  0
 43 44  1  0  0  0
 44 45  1  0  0  0
 44 47  1  0  0  0
 45 46  2  0  0  0
 45 50  1  0  0  0
 47 48  1  0  0  0
 47 49  1  0  0  0
 50 51  1  0  0  0
 51 52  1  0  0  0
 51 54  1  0  0  0
 52 53  2  0  0  0
 52 58  1  0  0  0
 54 55  1  0  0  0
 55 56  2  0  0  0
 55 57  1  0  0  0
 58 59  1  0  0  0
 59 60  1  0  0  0
 59 62  1  0  0  0
 60 61  2  0  0  0
 60 67  1  0  0  0
 62 63  1  0  0  0
 63 64  1  0  0  0
 64 65  2  0  0  0
 64 66  1  0  0  0
 67 68  1  0  0  0
 68 69  1  0  0  0
 69 70  2  0  0  0
 69 71  1  0  0  0
 71 72  1  0  0  0
 72 73  1  0  0  0
 72 75  1  0  0  0
 73 74  2  0  0  0
 73 76  1  0  0  0
 76 77  1  0  0  0
 77 78  1  0  0  0
 77 80  1  0  0  0
 78 79  2  0  0  0
 78 82  1  0  0  0
 80 81  1  0  0  0
 82 83  1  0  0  0
 83 84  1  0  0  0
 83 86  1  0  0  0
 84 85  2  0  0  0
 84 89  1  0  0  0
 86 87  1  0  0  0
 86 88  1  0  0  0
 89 90  1  0  0  0
 90 91  1  0  0  0
 90 93  1  0  0  0
 91 92  2  0  0  0
 91 95  1  0  0  0
 93 94  1  0  0  0
 95 96  1  0  0  0
 96 97  1  0  0  0
 97 98  2  0  0  0
 97 99  1  0  0  0
 99100  1  0  0  0
100101  1  0  0  0
100103  1  0  0  0
101102  2  0  0  0
103104  1  0  0  0
104105  1  0  0  0
105106  1  0  0  0
101107  1  0  0  0
  1108  1  0  0  0
  1109  1  0  0  0
  1110  1  0  0  0
  2111  1  0  0  0
  5112  1  0  0  0
  5113  1  0  0  0
  6114  1  0  0  0
  7115  1  0  0  0
  8116  1  0  0  0
 11117  1  0  0  0
 12118  1  0  0  0
 12119  1  0  0  0
 12120  1  0  0  0
 13121  1  0  0  0
 13122  1  0  0  0
 13123  1  0  0  0
 14124  1  0  0  0
 15125  1  0  0  0
 18126  1  0  0  0
 18127  1  0  0  0
 20128  1  0  0  0
 24129  1  0  0  0
 25130  1  0  0  0
 26131  1  0  0  0
 27132  1  0  0  0
 28133  1  0  0  0
 29134  1  0  0  0
 32135  1  0  0  0
 33136  1  0  0  0
 33137  1  0  0  0
 34138  1  0  0  0
 34139  1  0  0  0
 34140  1  0  0  0
 35141  1  0  0  0
 35142  1  0  0  0
 35143  1  0  0  0
 37144  1  0  0  0
 40145  1  0  0  0
 40146  1  0  0  0
 41147  1  0  0  0
 41148  1  0  0  0
 42149  1  0  0  0
 42150  1  0  0  0
 43151  1  0  0  0
 44152  1  0  0  0
 47153  1  0  0  0
 48154  1  0  0  0
 48155  1  0  0  0
 48156  1  0  0  0
 49157  1  0  0  0
 49158  1  0  0  0
 49159  1  0  0  0
 50160  1  0  0  0
 51161  1  0  0  0
 54162  1  0  0  0
 54163  1  0  0  0
 57164  1  0  0  0
 57165  1  0  0  0
 58166  1  0  0  0
 59167  1  0  0  0
 62168  1  0  0  0
 62169  1  0  0  0
 63170  1  0  0  0
 63171  1  0  0  0
 66172  1  0  0  0
 67173  1  0  0  0
 68174  1  0  0  0
 68175  1  0  0  0
 71176  1  0  0  0
 72177  1  0  0  0
 75178  1  0  0  0
 75179  1  0  0  0
 75180  1  0  0  0
 76181  1  0  0  0
 77182  1  0  0  0
 80183  1  0  0  0
 80184  1  0  0  0
 81185  1  0  0  0
 82186  1  0  0  0
 83187  1  0  0  0
 86188  1  0  0  0
 87189  1  0  0  0
 88190  1  0  0  0
 88191  1  0  0  0
 88192  1  0  0  0
 89193  1  0  0  0
 90194  1  0  0  0
 93195  1  0  0  0
 93196  1  0  0  0
 94197  1  0  0  0
 95198  1  0  0  0
 96199  1  0  0  0
 96200  1  0  0  0
 99201  1  0  0  0
100202  1  0  0  0
103203  1  0  0  0
103204  1  0  0  0
104205  1  0  0  0
104206  1  0  0  0
106207  1  0  0  0
106208  1  0  0  0
106209  1  0  0  0
107210  1  0  0  0
M  END
$$$$
