### 
### Created by X-TOOL on Mon Sep 10 21:13:05 2018
### 

@<TRIPOS>MOLECULE
2xxn_ligand
  209   211     1     0     0
SMALL
GAST_HUCK


@<TRIPOS>ATOM
      1 N         -12.2180   -4.2550    8.7910 N.4       1 SER         0.2396
      2 CA        -12.9590   -5.1510    9.6960 C.3       1 SER         0.0885
      3 C         -14.4650   -5.1020    9.4540 C.2       1 SER         0.2290
      4 O         -15.0570   -4.0270    9.4600 O.2       1 SER        -0.3906
      5 CB        -12.6670   -4.8000   11.1620 C.3       1 SER         0.1041
      6 OG        -11.2940   -4.9240   11.4870 O.3       1 SER        -0.3870
      7 N         -15.0540   -6.2830    9.2890 N.am      1 VAL        -0.2607
      8 CA        -16.4900   -6.4390    9.0280 C.3       1 VAL         0.1334
      9 C         -17.2830   -6.6590   10.3250 C.2       1 VAL         0.2042
     10 O         -17.1930   -7.7290   10.9260 O.2       1 VAL        -0.3944
     11 CB        -16.7230   -7.6260    8.0690 C.3       1 VAL        -0.0063
     12 CG1       -18.1790   -7.8540    7.8040 C.3       1 VAL        -0.0584
     13 CG2       -15.9690   -7.3900    6.7610 C.3       1 VAL        -0.0584
     14 N         -18.0490   -5.6520   10.7480 N.am      1 TRP        -0.2627
     15 CA        -18.8370   -5.7750   11.9720 C.3       1 TRP         0.1352
     16 C         -20.3360   -5.5400   11.8280 C.2       1 TRP         0.2052
     17 O         -21.1020   -6.1150   12.5460 O.2       1 TRP        -0.3942
     18 CB        -18.3040   -4.8510   13.0880 C.3       1 TRP         0.0042
     19 CG        -16.8270   -4.9500   13.4120 C.2       1 TRP        -0.0418
     20 CD1       -15.9240   -3.9380   13.3920 C.2       1 TRP         0.0167
     21 CD2       -16.1150   -6.1030   13.8430 C.ar      1 TRP        -0.0214
     22 NE1       -14.6930   -4.3890   13.7590 N.pl3     1 TRP        -0.2890
     23 CE2       -14.7790   -5.7220   14.0310 C.ar      1 TRP         0.0603
     24 CE3       -16.4660   -7.4330   14.0550 C.ar      1 TRP        -0.0747
     25 CZ2       -13.8020   -6.6110   14.4370 C.ar      1 TRP        -0.0443
     26 CZ3       -15.4870   -8.3110   14.4520 C.ar      1 TRP        -0.0792
     27 CH2       -14.1800   -7.9010   14.6430 C.ar      1 TRP        -0.0768
     28 N         -20.7430   -4.6520   10.9340 N.am      1 ILE        -0.2634
     29 CA        -22.1730   -4.3240   10.8960 C.3       1 ILE         0.1337
     30 C         -22.9960   -5.5430   10.4660 C.2       1 ILE         0.2067
     31 O         -22.6880   -6.1730    9.4520 O.2       1 ILE        -0.3942
     32 CB        -22.5190   -3.0540   10.0710 C.3       1 ILE        -0.0037
     33 CG1       -23.9890   -2.6860   10.3020 C.3       1 ILE        -0.0491
     34 CG2       -22.2300   -3.2480    8.5920 C.3       1 ILE        -0.0582
     35 CD1       -24.3440   -1.2900    9.9400 C.3       1 ILE        -0.0648
     36 N         -23.9980   -5.9190   11.2810 N.am      1 PRO        -0.2498
     37 CA        -24.7860   -7.1060   10.9600 C.3       1 PRO         0.1338
     38 C         -25.4240   -7.0910    9.5740 C.2       1 PRO         0.2041
     39 O         -25.7440   -6.0230    9.0190 O.2       1 PRO        -0.3944
     40 CB        -25.8630   -7.1100   12.0470 C.3       1 PRO        -0.0104
     41 CG        -25.1880   -6.4430   13.2120 C.3       1 PRO        -0.0281
     42 CD        -24.4020   -5.3330   12.5770 C.3       1 PRO         0.0369
     43 N         -25.5970   -8.2900    9.0280 N.am      1 VAL        -0.2635
     44 CA        -26.2670   -8.4790    7.7510 C.3       1 VAL         0.1333
     45 C         -27.6150   -7.7370    7.7190 C.2       1 VAL         0.2043
     46 O         -28.3540   -7.7220    8.7160 O.2       1 VAL        -0.3944
     47 CB        -26.4380   -9.9940    7.4420 C.3       1 VAL        -0.0063
     48 CG1       -27.3760  -10.6800    8.4500 C.3       1 VAL        -0.0584
     49 CG2       -26.9230  -10.2090    6.0280 C.3       1 VAL        -0.0584
     50 N         -27.8790   -7.0820    6.5850 N.am      1 ASN        -0.2616
     51 CA        -29.1610   -6.4230    6.2750 C.3       1 ASN         0.1476
     52 C         -29.4980   -5.1270    7.0120 C.2       1 ASN         0.2063
     53 O         -30.6170   -4.6250    6.8800 O.2       1 ASN        -0.3942
     54 CB        -30.3420   -7.3970    6.3940 C.3       1 ASN         0.0773
     55 CG        -30.4050   -8.3930    5.2520 C.2       1 ASN         0.1780
     56 OD1       -29.9240   -8.1310    4.1440 O.2       1 ASN        -0.3970
     57 ND2       -31.0220   -9.5390    5.5130 N.am      1 ASN        -0.3007
     58 N         -28.5580   -4.5750    7.7770 N.am      1 GLU        -0.2635
     59 CA        -28.8430   -3.3230    8.4880 C.3       1 GLU         0.1325
     60 C         -29.0890   -2.2050    7.4880 C.2       1 GLU         0.2038
     61 O         -28.2000   -1.8500    6.7230 O.2       1 GLU        -0.3944
     62 CB        -27.7100   -2.9520    9.4440 C.3       1 GLU        -0.0008
     63 CG        -27.6630   -3.8260   10.6870 C.3       1 GLU         0.0044
     64 CD        -28.8240   -3.5550   11.6290 C.2       1 GLU         0.0350
     65 OE1       -28.7710   -2.5390   12.3560 O.co2     1 GLU        -0.5690
     66 OE2       -29.7790   -4.3650   11.6470 O.co2     1 GLU        -0.5690
     67 N         -30.3120   -1.6840    7.4790 N.am      1 GLY        -0.2664
     68 CA        -30.7070   -0.6560    6.5140 C.3       1 GLY         0.1201
     69 C         -31.0440   -1.1660    5.1180 C.2       1 GLY         0.2007
     70 O         -31.2220   -0.3610    4.1980 O.2       1 GLY        -0.3947
     71 N         -31.1290   -2.4890    4.9550 N.am      1 ALA        -0.2642
     72 CA        -31.4010   -3.0980    3.6440 C.3       1 ALA         0.1282
     73 C         -32.8890   -3.1280    3.3140 C.2       1 ALA         0.2037
     74 O         -33.7390   -3.2300    4.2100 O.2       1 ALA        -0.3944
     75 CB        -30.8110   -4.4990    3.5590 C.3       1 ALA        -0.0244
     76 N         -33.1880   -3.0600    2.0190 N.am      1 SER        -0.2616
     77 CA        -34.5570   -3.1270    1.5170 C.3       1 SER         0.1539
     78 C         -34.5200   -3.3790    0.0160 C.2       1 SER         0.2063
     79 O         -33.4410   -3.4070   -0.5880 O.2       1 SER        -0.3943
     80 CB        -35.2820   -1.8060    1.7780 C.3       1 SER         0.0843
     81 OG        -34.7820   -0.7760    0.9350 O.3       1 SER        -0.3903
     82 N         -35.6960   -3.5500   -0.5860 N.am      1 THR        -0.2613
     83 CA        -35.8200   -3.4810   -2.0420 C.3       1 THR         0.1565
     84 C         -35.6650   -2.0200   -2.4780 C.2       1 THR         0.2065
     85 O         -35.7400   -1.1020   -1.6540 O.2       1 THR        -0.3943
     86 CB        -37.1880   -3.9930   -2.5360 C.3       1 THR         0.0924
     87 OG1       -38.2270   -3.1610   -2.0030 O.3       1 THR        -0.3874
     88 CG2       -37.4180   -5.4380   -2.1210 C.3       1 THR        -0.0346
     89 N         -35.4590   -1.8000   -3.7700 N.am      1 SER        -0.2615
     90 CA        -35.3390   -0.4360   -4.2860 C.3       1 SER         0.1539
     91 C         -36.6910    0.2610   -4.4170 C.2       1 SER         0.2060
     92 O         -36.7570    1.4900   -4.4570 O.2       1 SER        -0.3943
     93 CB        -34.6320   -0.4320   -5.6390 C.3       1 SER         0.0843
     94 OG        -35.4450   -1.0350   -6.6260 O.3       1 SER        -0.3903
     95 N         -37.7580   -0.5270   -4.5010 N.am      1 GLY        -0.2663
     96 CA        -39.0870    0.0090   -4.7950 C.3       1 GLY         0.1201
     97 C         -39.3420    0.1770   -6.2860 C.2       1 GLY         0.2002
     98 O         -40.4400    0.5680   -6.6910 O.2       1 GLY        -0.3947
     99 N         -38.3320   -0.1220   -7.1040 N.am      1 MET        -0.2697
    100 CA        -38.4420   -0.0270   -8.5640 C.3       1 MET         0.0951
    101 C         -39.2670   -1.1820   -9.1250 C.2       1 MET         0.0601
    102 O         -39.0440   -2.3450   -8.7780 O.co2     1 MET        -0.5666
    103 CB        -37.0540   -0.0220   -9.2140 C.3       1 MET        -0.0089
    104 CG        -36.1470    1.1370   -8.8030 C.3       1 MET        -0.0030
    105 SD        -36.2150    2.5560   -9.9140 S.3       1 MET        -0.1639
    106 CE        -35.4530    1.8740  -11.3880 C.3       1 MET        -0.0181
    107 H         -12.4249   -4.5038    7.8237 H         1 SER         0.2016
    108 H         -12.5007   -3.2902    8.9631 H         1 SER         0.2016
    109 H         -11.2172   -4.3529    8.9619 H         1 SER         0.2016
    110 H         -12.6166   -6.1638    9.4839 H         1 SER         0.1122
    111 H         -13.2252   -5.4933   11.7911 H         1 SER         0.0640
    112 H         -12.9581   -3.7621   11.3234 H         1 SER         0.0640
    113 H         -11.1628   -4.6949   12.4100 H         1 SER         0.2099
    114 H         -14.4785   -7.1232    9.3468 H         1 VAL         0.1885
    115 H         -16.8461   -5.5166    8.5691 H         1 VAL         0.0802
    116 H         -16.3401   -8.5262    8.5496 H         1 VAL         0.0343
    117 H         -18.6887   -8.0687    8.7433 H         1 VAL         0.0234
    118 H         -18.6090   -6.9603    7.3519 H         1 VAL         0.0234
    119 H         -18.2955   -8.6984    7.1246 H         1 VAL         0.0234
    120 H         -16.3302   -6.4731    6.2952 H         1 VAL         0.0234
    121 H         -14.9030   -7.2977    6.9691 H         1 VAL         0.0234
    122 H         -16.1378   -8.2314    6.0889 H         1 VAL         0.0234
    123 H         -18.0849   -4.7859   10.2104 H         1 TRP         0.1884
    124 H         -18.7129   -6.8255   12.2349 H         1 TRP         0.0815
    125 H         -18.8294   -5.1459   13.9963 H         1 TRP         0.0397
    126 H         -18.4646   -3.8325   12.7346 H         1 TRP         0.0397
    127 H         -16.1521   -2.9074   13.1200 H         1 TRP         0.0795
    128 H         -13.8465   -3.8232   13.8203 H         1 TRP         0.2216
    129 H         -17.4925   -7.7696   13.9096 H         1 TRP         0.0540
    130 H         -12.7706   -6.2913   14.5860 H         1 TRP         0.0541
    131 H         -15.7465   -9.3561   14.6206 H         1 TRP         0.0510
    132 H         -13.4356   -8.6287   14.9661 H         1 TRP         0.0530
    133 H         -20.0842   -4.2104   10.2927 H         1 ILE         0.1883
    134 H         -22.4517   -4.0623   11.9168 H         1 ILE         0.0803
    135 H         -21.8847   -2.2349   10.4098 H         1 ILE         0.0345
    136 H         -24.1791   -2.7949   11.3698 H         1 ILE         0.0267
    137 H         -24.5836   -3.3400    9.6642 H         1 ILE         0.0267
    138 H         -21.1712   -3.4682    8.4558 H         1 ILE         0.0235
    139 H         -22.8266   -4.0774    8.2123 H         1 ILE         0.0235
    140 H         -22.4856   -2.3371    8.0506 H         1 ILE         0.0235
    141 H         -23.7482   -0.5987   10.5361 H         1 ILE         0.0230
    142 H         -24.1406   -1.1276    8.8815 H         1 ILE         0.0230
    143 H         -25.4028   -1.1228   10.1377 H         1 ILE         0.0230
    144 H         -24.1550   -7.9944   10.9364 H         1 PRO         0.0802
    145 H         -26.2120   -8.1147   12.2856 H         1 PRO         0.0313
    146 H         -26.7708   -6.5920   11.7376 H         1 PRO         0.0313
    147 H         -24.5576   -7.1295   13.7772 H         1 PRO         0.0287
    148 H         -25.8995   -6.0787   13.9530 H         1 PRO         0.0287
    149 H         -24.9779   -4.4142   12.4665 H         1 PRO         0.0524
    150 H         -23.5532   -5.0138   13.1818 H         1 PRO         0.0524
    151 H         -25.2463   -9.1096    9.5237 H         1 VAL         0.1883
    152 H         -25.6426   -8.0488    6.9679 H         1 VAL         0.0802
    153 H         -25.4555  -10.4555    7.5406 H         1 VAL         0.0343
    154 H         -26.9644  -10.5791    9.4542 H         1 VAL         0.0234
    155 H         -28.3580  -10.2087    8.4094 H         1 VAL         0.0234
    156 H         -27.4679  -11.7365    8.1980 H         1 VAL         0.0234
    157 H         -27.8856   -9.7148    5.8963 H         1 VAL         0.0234
    158 H         -26.1992   -9.7895    5.3293 H         1 VAL         0.0234
    159 H         -27.0330  -11.2773    5.8415 H         1 VAL         0.0234
    160 H         -27.1405   -7.0344    5.8831 H         1 ASN         0.1885
    161 H         -29.0000   -6.1102    5.2433 H         1 ASN         0.0826
    162 H         -31.2602   -6.8100    6.3741 H         1 ASN         0.0551
    163 H         -30.2169   -7.9596    7.3192 H         1 ASN         0.0551
    164 H         -31.1141  -10.2462    4.7838 H         1 ASN         0.1814
    165 H         -31.4040   -9.7123    6.4427 H         1 ASN         0.1814
    166 H         -27.6447   -5.0200    7.8683 H         1 GLU         0.1883
    167 H         -29.7413   -3.4685    9.0879 H         1 GLU         0.0801
    168 H         -27.8758   -1.9249    9.7691 H         1 GLU         0.0330
    169 H         -26.7698   -3.0878    8.9096 H         1 GLU         0.0330
    170 H         -26.7378   -3.6059   11.2196 H         1 GLU         0.0433
    171 H         -27.7216   -4.8672   10.3699 H         1 GLU         0.0433
    172 H         -30.9945   -2.0095    8.1636 H         1 GLY         0.1881
    173 H         -29.8530    0.0124    6.4038 H         1 GLY         0.0763
    174 H         -31.6140   -0.1943    6.9044 H         1 GLY         0.0763
    175 H         -31.0013   -3.0959    5.7648 H         1 ALA         0.1883
    176 H         -30.9159   -2.4661    2.9001 H         1 ALA         0.0797
    177 H         -29.7319   -4.4468    3.7033 H         1 ALA         0.0277
    178 H         -31.2526   -5.1254    4.3340 H         1 ALA         0.0277
    179 H         -31.0277   -4.9243    2.5791 H         1 ALA         0.0277
    180 H         -32.4271   -2.9565    1.3477 H         1 SER         0.1884
    181 H         -35.0853   -3.9324    2.0271 H         1 SER         0.0823
    182 H         -35.1205   -1.5174    2.8166 H         1 SER         0.0606
    183 H         -36.3435   -1.9427    1.5717 H         1 SER         0.0606
    184 H         -34.9129   -1.0238    0.0168 H         1 SER         0.2097
    185 H         -36.5255   -3.7325   -0.0212 H         1 THR         0.1884
    186 H         -35.0454   -4.1151   -2.4732 H         1 THR         0.0826
    187 H         -37.2008   -3.9504   -3.6251 H         1 THR         0.0639
    188 H         -38.1994   -3.1915   -1.0439 H         1 THR         0.2101
    189 H         -36.6364   -6.0662   -2.5482 H         1 THR         0.0257
    190 H         -37.3910   -5.5111   -1.0338 H         1 THR         0.0257
    191 H         -38.3909   -5.7686   -2.4846 H         1 THR         0.0257
    192 H         -35.3835   -2.5902   -4.4106 H         1 SER         0.1884
    193 H         -34.7468    0.1193   -3.5587 H         1 SER         0.0823
    194 H         -33.7027   -0.9953   -5.5540 H         1 SER         0.0606
    195 H         -34.4297    0.5990   -5.9291 H         1 SER         0.0606
    196 H         -35.6319   -1.9424   -6.3745 H         1 SER         0.2097
    197 H         -37.6474   -1.5307   -4.3568 H         1 GLY         0.1881
    198 H         -39.1586    0.9933   -4.3322 H         1 GLY         0.0763
    199 H         -39.8230   -0.6962   -4.4090 H         1 GLY         0.0763
    200 H         -37.4478   -0.4290   -6.6985 H         1 MET         0.1875
    201 H         -38.9463    0.9108   -8.7971 H         1 MET         0.0726
    202 O1        -40.1871   -0.9451   -9.9526 O.co2     1 MET        -0.5666
    203 H         -37.2121    0.0703  -10.2885 H         1 MET         0.0313
    204 H         -36.5558   -0.9375   -8.8949 H         1 MET         0.0313
    205 H         -35.1225    0.7652   -8.8175 H         1 MET         0.0378
    206 H         -36.4834    1.4779   -7.8239 H         1 MET         0.0378
    207 H         -34.4382    1.5517  -11.1549 H         1 MET         0.0340
    208 H         -36.0358    1.0208  -11.7352 H         1 MET         0.0340
    209 H         -35.4237    2.6365  -12.1663 H         1 MET         0.0340
@<TRIPOS>BOND
     1    1    2 1  
     2    2    3 1  
     3    2    5 1  
     4    3    4 2  
     5    3    7 am 
     6    5    6 1  
     7    7    8 1  
     8    8    9 1  
     9    8   11 1  
    10    9   10 2  
    11    9   14 am 
    12   11   12 1  
    13   11   13 1  
    14   14   15 1  
    15   15   16 1  
    16   15   18 1  
    17   16   17 2  
    18   16   28 am 
    19   18   19 1  
    20   19   20 2  
    21   19   21 1  
    22   20   22 1  
    23   21   23 ar 
    24   21   24 ar 
    25   22   23 1  
    26   23   25 ar 
    27   24   26 ar 
    28   25   27 ar 
    29   26   27 ar 
    30   28   29 1  
    31   29   30 1  
    32   29   32 1  
    33   30   31 2  
    34   30   36 am 
    35   32   33 1  
    36   32   34 1  
    37   33   35 1  
    38   36   37 1  
    39   36   42 1  
    40   37   38 1  
    41   37   40 1  
    42   38   39 2  
    43   38   43 am 
    44   40   41 1  
    45   41   42 1  
    46   43   44 1  
    47   44   45 1  
    48   44   47 1  
    49   45   46 2  
    50   45   50 am 
    51   47   48 1  
    52   47   49 1  
    53   50   51 1  
    54   51   52 1  
    55   51   54 1  
    56   52   53 2  
    57   52   58 am 
    58   54   55 1  
    59   55   56 2  
    60   55   57 am 
    61   58   59 1  
    62   59   60 1  
    63   59   62 1  
    64   60   61 2  
    65   60   67 am 
    66   62   63 1  
    67   63   64 1  
    68   64   65 ar 
    69   64   66 ar 
    70   67   68 1  
    71   68   69 1  
    72   69   70 2  
    73   69   71 am 
    74   71   72 1  
    75   72   73 1  
    76   72   75 1  
    77   73   74 2  
    78   73   76 am 
    79   76   77 1  
    80   77   78 1  
    81   77   80 1  
    82   78   79 2  
    83   78   82 am 
    84   80   81 1  
    85   82   83 1  
    86   83   84 1  
    87   83   86 1  
    88   84   85 2  
    89   84   89 am 
    90   86   87 1  
    91   86   88 1  
    92   89   90 1  
    93   90   91 1  
    94   90   93 1  
    95   91   92 2  
    96   91   95 am 
    97   93   94 1  
    98   95   96 1  
    99   96   97 1  
   100   97   98 2  
   101   97   99 am 
   102   99  100 1  
   103  100  101 1  
   104  100  103 1  
   105  101  102 ar 
   106  103  104 1  
   107  104  105 1  
   108  105  106 1  
   109    1  107 1  
   110    1  108 1  
   111    1  109 1  
   112    2  110 1  
   113    5  111 1  
   114    5  112 1  
   115    6  113 1  
   116    7  114 1  
   117    8  115 1  
   118   11  116 1  
   119   12  117 1  
   120   12  118 1  
   121   12  119 1  
   122   13  120 1  
   123   13  121 1  
   124   13  122 1  
   125   14  123 1  
   126   15  124 1  
   127   18  125 1  
   128   18  126 1  
   129   20  127 1  
   130   22  128 1  
   131   24  129 1  
   132   25  130 1  
   133   26  131 1  
   134   27  132 1  
   135   28  133 1  
   136   29  134 1  
   137   32  135 1  
   138   33  136 1  
   139   33  137 1  
   140   34  138 1  
   141   34  139 1  
   142   34  140 1  
   143   35  141 1  
   144   35  142 1  
   145   35  143 1  
   146   37  144 1  
   147   40  145 1  
   148   40  146 1  
   149   41  147 1  
   150   41  148 1  
   151   42  149 1  
   152   42  150 1  
   153   43  151 1  
   154   44  152 1  
   155   47  153 1  
   156   48  154 1  
   157   48  155 1  
   158   48  156 1  
   159   49  157 1  
   160   49  158 1  
   161   49  159 1  
   162   50  160 1  
   163   51  161 1  
   164   54  162 1  
   165   54  163 1  
   166   57  164 1  
   167   57  165 1  
   168   58  166 1  
   169   59  167 1  
   170   62  168 1  
   171   62  169 1  
   172   63  170 1  
   173   63  171 1  
   174   67  172 1  
   175   68  173 1  
   176   68  174 1  
   177   71  175 1  
   178   72  176 1  
   179   75  177 1  
   180   75  178 1  
   181   75  179 1  
   182   76  180 1  
   183   77  181 1  
   184   80  182 1  
   185   80  183 1  
   186   81  184 1  
   187   82  185 1  
   188   83  186 1  
   189   86  187 1  
   190   87  188 1  
   191   88  189 1  
   192   88  190 1  
   193   88  191 1  
   194   89  192 1  
   195   90  193 1  
   196   93  194 1  
   197   93  195 1  
   198   94  196 1  
   199   95  197 1  
   200   96  198 1  
   201   96  199 1  
   202   99  200 1  
   203  100  201 1  
   204  101  202 ar 
   205  103  203 1  
   206  103  204 1  
   207  104  205 1  
   208  104  206 1  
   209  106  207 1  
   210  106  208 1  
   211  106  209 1  
@<TRIPOS>SUBSTRUCTURE
     1 SER         1

