4bks_ligand
  -I-interpret- 

 43 45  0  0  0  0  0  0  0  0999 V2000
   -6.9610   33.6190   -2.3860 C   0  0  0  0  0
   -7.1040   34.2220   -0.9540 C   0  0  0  0  0
   -6.8530   35.4170   -0.7690 O   0  0  0  0  0
   -7.4480   33.3820    0.0620 N   0  0  0  0  0
   -7.8150   31.9320    0.0000 C   0  0  0  0  0
   -8.6170   31.6670    1.2550 C   0  0  0  0  0
   -9.9830   32.0590    1.0620 O   0  0  0  0  0
   -7.9820   32.5610    2.2920 C   0  0  0  0  0
   -7.5880   33.8340    1.5120 C   0  0  0  0  0
   -6.4040   34.3580    2.0640 C   0  0  0  0  0
   -5.2920   33.9180    1.7380 O   0  0  0  0  0
   -6.6000   35.3350    2.9900 N   0  0  0  0  0
   -5.5140   35.9010    3.8270 C   0  0  0  0  0
   -5.2170   35.0740    4.9580 C   0  0  0  0  0
   -6.1120   34.0790    5.4260 C   0  0  0  0  0
   -5.8010   33.2700    6.5310 C   0  0  0  0  0
   -4.0170   35.2650    5.6640 C   0  0  0  0  0
   -3.7160   34.4700    6.7890 C   0  0  0  0  0
   -4.6070   33.4680    7.2440 C   0  0  0  0  0
   -4.3260   32.6890    8.3120 C   0  0  0  0  0
   -4.8920   31.4500    8.5720 O   0  0  0  0  0
   -4.3400   31.0020    9.7440 C   0  0  0  0  0
   -3.4840   31.9320   10.1690 N   0  0  0  0  0
   -3.4700   32.9550    9.3020 C   0  0  0  0  0
   -7.6305   34.1431   -3.0681 H   0  0  0  0  0
   -5.9317   33.7333   -2.7258 H   0  0  0  0  0
   -7.2213   32.5608   -2.3609 H   0  0  0  0  0
   -6.9306   31.2970   -0.0516 H   0  0  0  0  0
   -8.3888   31.7022   -0.8978 H   0  0  0  0  0
   -8.6154   30.6137    1.5354 H   0  0  0  0  0
  -10.3877   31.4908    0.4025 H   0  0  0  0  0
   -7.1220   32.0896    2.7677 H   0  0  0  0  0
   -8.6615   32.7794    3.1158 H   0  0  0  0  0
   -8.3186   34.6408    1.5695 H   0  0  0  0  0
   -7.5449   35.6980    3.1156 H   0  0  0  0  0
   -5.8404   36.8740    4.1943 H   0  0  0  0  0
   -4.6156   35.9733    3.2140 H   0  0  0  0  0
   -7.0648   33.9385    4.9156 H   0  0  0  0  0
   -6.4906   32.4834    6.8374 H   0  0  0  0  0
   -3.3144   36.0327    5.3398 H   0  0  0  0  0
   -2.7775   34.6302    7.3197 H   0  0  0  0  0
   -4.5609   30.0564   10.2391 H   0  0  0  0  0
   -2.8609   33.8546    9.3906 H   0  0  0  0  0
  1  2  1  0  0  0
  2  3  2  0  0  0
  2  4  1  0  0  0
  4  5  1  0  0  0
  4  9  1  0  0  0
  5  6  1  0  0  0
  6  7  1  0  0  0
  6  8  1  0  0  0
  8  9  1  0  0  0
  9 10  1  0  0  0
 10 11  2  0  0  0
 10 12  1  0  0  0
 12 13  1  0  0  0
 13 14  1  0  0  0
 14 15  4  0  0  0
 14 17  4  0  0  0
 15 16  4  0  0  0
 16 19  4  0  0  0
 17 18  4  0  0  0
 18 19  4  0  0  0
 19 20  1  0  0  0
 20 21  4  0  0  0
 20 24  4  0  0  0
 21 22  4  0  0  0
 22 23  4  0  0  0
 23 24  4  0  0  0
  1 25  1  0  0  0
  1 26  1  0  0  0
  1 27  1  0  0  0
  5 28  1  0  0  0
  5 29  1  0  0  0
  6 30  1  0  0  0
  7 31  1  0  0  0
  8 32  1  0  0  0
  8 33  1  0  0  0
  9 34  1  0  0  0
 12 35  1  0  0  0
 13 36  1  0  0  0
 13 37  1  0  0  0
 15 38  1  0  0  0
 16 39  1  0  0  0
 17 40  1  0  0  0
 18 41  1  0  0  0
 22 42  1  0  0  0
 24 43  1  0  0  0
M  END
$$$$
