4jr0_ligand
  -I-interpret- 

 70 69  0  0  0  0  0  0  0  0999 V2000
   -9.0890    6.2680   36.9690 C   0  0  0  0  0
   -7.8690    6.2300   36.8890 O   0  0  0  0  0
   -9.7250    6.1810   38.3440 C   0  0  0  0  0
   -9.8910    6.5750   35.9410 N   0  0  0  0  0
   -9.3970    6.7490   34.5740 C   0  0  0  0  0
   -8.9080    8.1640   34.3110 C   0  0  0  0  0
   -9.5420    9.1410   34.7110 O   0  0  0  0  0
  -10.4730    6.4070   33.5520 C   0  0  0  0  0
  -10.8750    4.9560   33.6020 C   0  0  0  0  0
  -10.0340    4.1070   33.9830 O   0  0  0  0  0
  -12.0310    4.6720   33.2460 O   0  0  0  0  0
   -7.7700    8.2570   33.6470 N   0  0  0  0  0
   -7.1630    9.5360   33.3040 C   0  0  0  0  0
   -6.6270    9.4260   31.8830 C   0  0  0  0  0
   -6.3870    8.3200   31.3920 O   0  0  0  0  0
   -6.0300    9.8660   34.2870 C   0  0  0  0  0
   -6.5320    9.9810   35.7450 C   0  0  0  0  0
   -5.4190   10.1630   36.7800 C   0  0  0  0  0
   -4.2360   10.2780   36.3900 O   0  0  0  0  0
   -5.7400   10.1870   37.9950 O   0  0  0  0  0
   -6.4670   10.5620   31.2190 N   0  0  0  0  0
   -5.8890   10.5440   29.8820 C   0  0  0  0  0
   -4.4300   10.9180   29.9020 C   0  0  0  0  0
   -3.9460   11.6050   30.8140 O   0  0  0  0  0
   -6.6060   11.4800   28.8750 C   0  0  0  0  0
   -7.9770   10.9510   28.5360 C   0  0  0  0  0
   -6.6580   12.9340   29.3790 C   0  0  0  0  0
   -2.2660   11.8540   27.4980 C   0  0  0  0  0
   -3.7440   10.4550   28.8760 N   0  0  0  0  0
   -1.1730   11.9040   26.8500 O   0  0  0  0  0
   -2.3620   10.8230   28.6250 C   0  0  0  0  0
   -1.5030    9.5630   28.3510 C   0  0  0  0  0
   -1.1560    8.7310   29.5780 C   0  0  0  0  0
   -0.9780    7.5140   29.5040 O   0  0  0  0  0
   -1.0800    9.3400   30.6600 O   0  0  0  0  0
   -2.8400   13.2340   28.0410 C   0  0  0  0  0
   -9.4427    5.2392   38.8146 H   0  0  0  0  0
   -9.3781    7.0131   38.9567 H   0  0  0  0  0
  -10.8095    6.2284   38.2450 H   0  0  0  0  0
  -10.8886    6.6926   36.1183 H   0  0  0  0  0
   -8.5553    6.0644   34.4695 H   0  0  0  0  0
  -10.0713    6.6109   32.5594 H   0  0  0  0  0
  -11.3540    7.0082   33.7769 H   0  0  0  0  0
   -9.2128    4.5504   34.2080 H   0  0  0  0  0
   -7.2973    7.3989   33.3630 H   0  0  0  0  0
   -7.8976   10.3388   33.3670 H   0  0  0  0  0
   -5.6027   10.8268   34.0000 H   0  0  0  0  0
   -5.2993    9.0583   34.2439 H   0  0  0  0  0
   -7.0432    9.0483   35.9834 H   0  0  0  0  0
   -7.1673   10.8652   35.7974 H   0  0  0  0  0
   -6.6909   10.0830   38.0757 H   0  0  0  0  0
   -6.7478   11.4462   31.6430 H   0  0  0  0  0
   -6.0192    9.5151   29.5467 H   0  0  0  0  0
   -6.0192   11.4924   27.9565 H   0  0  0  0  0
   -7.8830    9.9605   28.0908 H   0  0  0  0  0
   -8.5753   10.8870   29.4449 H   0  0  0  0  0
   -8.4601   11.6245   27.8282 H   0  0  0  0  0
   -7.1992   12.9703   30.3245 H   0  0  0  0  0
   -5.6429   13.3029   29.5255 H   0  0  0  0  0
   -7.1687   13.5544   28.6425 H   0  0  0  0  0
   -2.8967   11.5161   26.6757 H   0  0  0  0  0
   -4.2032    9.8114   28.2315 H   0  0  0  0  0
   -1.2335   12.5836   26.1746 H   0  0  0  0  0
   -1.9579   11.2976   29.5191 H   0  0  0  0  0
   -0.5585    9.9141   27.9353 H   0  0  0  0  0
   -2.0916    8.9211   27.6955 H   0  0  0  0  0
   -1.2487   10.2736   30.5130 H   0  0  0  0  0
   -2.1151   13.6865   28.7177 H   0  0  0  0  0
   -3.0237   13.9050   27.2019 H   0  0  0  0  0
   -3.7732   13.0532   28.5744 H   0  0  0  0  0
  1  2  2  0  0  0
  1  3  1  0  0  0
  4  1  1  0  0  0
  5  4  1  0  0  0
  6  5  1  0  0  0
  5  8  1  0  0  0
  6  7  2  0  0  0
 12  6  1  0  0  0
  8  9  1  0  0  0
  9 10  1  0  0  0
  9 11  2  0  0  0
 13 12  1  0  0  0
 14 13  1  0  0  0
 13 16  1  0  0  0
 14 15  2  0  0  0
 21 14  1  0  0  0
 16 17  1  0  0  0
 17 18  1  0  0  0
 18 19  2  0  0  0
 18 20  1  0  0  0
 22 21  1  0  0  0
 23 22  1  0  0  0
 22 25  1  0  0  0
 23 24  2  0  0  0
 29 23  1  0  0  0
 25 26  1  0  0  0
 25 27  1  0  0  0
 28 30  1  0  0  0
 31 28  1  0  0  0
 28 36  1  0  0  0
 29 31  1  0  0  0
 31 32  1  0  0  0
 32 33  1  0  0  0
 33 34  2  0  0  0
 33 35  1  0  0  0
  3 37  1  0  0  0
  3 38  1  0  0  0
  3 39  1  0  0  0
  4 40  1  0  0  0
  5 41  1  0  0  0
  8 42  1  0  0  0
  8 43  1  0  0  0
 10 44  1  0  0  0
 12 45  1  0  0  0
 13 46  1  0  0  0
 16 47  1  0  0  0
 16 48  1  0  0  0
 17 49  1  0  0  0
 17 50  1  0  0  0
 20 51  1  0  0  0
 21 52  1  0  0  0
 22 53  1  0  0  0
 25 54  1  0  0  0
 26 55  1  0  0  0
 26 56  1  0  0  0
 26 57  1  0  0  0
 27 58  1  0  0  0
 27 59  1  0  0  0
 27 60  1  0  0  0
 28 61  1  0  0  0
 29 62  1  0  0  0
 30 63  1  0  0  0
 31 64  1  0  0  0
 32 65  1  0  0  0
 32 66  1  0  0  0
 35 67  1  0  0  0
 36 68  1  0  0  0
 36 69  1  0  0  0
 36 70  1  0  0  0
M  END
$$$$
