6eb1_ligand
  -I-interpret- 

 64 68  0  0  0  0  0  0  0  0999 V2000
  -35.5140   33.1810  -28.4820 C   0  0  0  0  0
  -34.8010   29.9260  -27.4550 C   0  0  0  0  0
  -33.5220   28.4850  -28.9570 C   0  0  0  0  0
  -31.8590   27.3210  -30.2410 C   0  0  0  0  0
  -33.8850   29.2930  -30.0390 C   0  0  0  0  0
  -34.7140   30.4060  -29.8350 C   0  0  0  0  0
  -39.5320   32.2490  -27.9200 C   0  0  0  0  0
  -41.4600   31.9740  -26.4990 C   0  0  0  0  0
  -41.5640   31.3570  -28.8350 C   0  0  0  0  0
  -32.0410   34.7940  -25.8780 C   0  0  0  0  0
  -32.8590   33.7210  -26.5820 C   0  0  0  0  0
  -31.9710   32.5060  -26.9360 C   0  0  0  0  0
  -33.9820   33.2740  -25.6360 C   0  0  0  0  0
  -33.4090   34.3260  -27.7820 O   0  0  0  0  0
  -33.9650   33.4000  -28.7220 C   0  0  0  0  0
  -33.7410   33.9000  -30.1570 C   0  0  0  0  0
  -32.8950   34.7960  -30.4270 O   0  0  0  0  0
  -34.4320   33.3770  -31.0590 O   0  0  0  0  0
  -36.0090   31.8700  -28.3920 C   0  0  0  0  0
  -35.1530   30.7460  -28.5380 C   0  0  0  0  0
  -33.9790   28.8060  -27.6750 C   0  0  0  0  0
  -32.6740   27.3350  -29.1140 O   0  0  0  0  0
  -32.6070   27.6200  -31.5100 C   0  0  0  0  0
  -33.3690   28.9390  -31.4660 C   0  0  0  0  0
  -37.3030   31.6250  -28.2180 N   0  0  0  0  0
  -38.1800   32.6110  -28.1060 C   0  0  0  0  0
  -40.1350   32.3570  -26.6710 C   0  0  0  0  0
  -42.1690   31.4700  -27.5860 C   0  0  0  0  0
  -40.2390   31.7440  -29.0030 C   0  0  0  0  0
  -37.7760   33.9570  -28.1860 C   0  0  0  0  0
  -38.7470   34.9830  -28.0730 C   0  0  0  0  0
  -38.3360   36.3180  -28.1620 C   0  0  0  0  0
  -36.9800   36.6320  -28.3530 C   0  0  0  0  0
  -36.0310   35.6090  -28.4630 C   0  0  0  0  0
  -36.4430   34.2530  -28.3720 C   0  0  0  0  0
  -35.1614   30.1550  -26.4521 H   0  0  0  0  0
  -31.4360   26.3206  -30.3326 H   0  0  0  0  0
  -31.1009   28.0936  -30.1123 H   0  0  0  0  0
  -35.0217   31.0136  -30.6860 H   0  0  0  0  0
  -41.9386   32.0672  -25.5241 H   0  0  0  0  0
  -42.1289   30.9653  -29.6809 H   0  0  0  0  0
  -31.6196   34.3840  -24.9602 H   0  0  0  0  0
  -31.2352   35.1235  -26.5339 H   0  0  0  0  0
  -32.6845   35.6403  -25.6375 H   0  0  0  0  0
  -31.1649   32.8267  -27.5959 H   0  0  0  0  0
  -31.5493   32.0873  -26.0222 H   0  0  0  0  0
  -32.5748   31.7504  -27.4385 H   0  0  0  0  0
  -33.5463   32.8728  -24.7209 H   0  0  0  0  0
  -34.6139   34.1288  -25.3948 H   0  0  0  0  0
  -34.5805   32.5040  -26.1229 H   0  0  0  0  0
  -33.4567   32.4466  -28.5778 H   0  0  0  0  0
  -32.4614   35.0791  -29.6187 H   0  0  0  0  0
  -33.6933   28.1774  -26.8316 H   0  0  0  0  0
  -33.3365   26.8236  -31.6572 H   0  0  0  0  0
  -31.8749   27.6898  -32.3145 H   0  0  0  0  0
  -32.6861   29.7289  -31.7788 H   0  0  0  0  0
  -34.2359   28.8449  -32.1199 H   0  0  0  0  0
  -39.5667   32.7431  -25.8248 H   0  0  0  0  0
  -43.2065   31.1612  -27.4582 H   0  0  0  0  0
  -39.7591   31.6516  -29.9773 H   0  0  0  0  0
  -39.7975   34.7364  -27.9192 H   0  0  0  0  0
  -39.0718   37.1182  -28.0827 H   0  0  0  0  0
  -36.6664   37.6740  -28.4156 H   0  0  0  0  0
  -34.9798   35.8522  -28.6179 H   0  0  0  0  0
  1 15  1  0  0  0
 19  1  4  0  0  0
  1 35  4  0  0  0
 20  2  4  0  0  0
  2 21  4  0  0  0
  5  3  4  0  0  0
 21  3  4  0  0  0
  3 22  1  0  0  0
 22  4  1  0  0  0
 23  4  1  0  0  0
  6  5  4  0  0  0
  5 24  1  0  0  0
 20  6  4  0  0  0
 26  7  1  0  0  0
  7 27  4  0  0  0
  7 29  4  0  0  0
 27  8  4  0  0  0
  8 28  4  0  0  0
  9 28  4  0  0  0
 29  9  4  0  0  0
 11 10  1  0  0  0
 11 12  1  0  0  0
 11 13  1  0  0  0
 14 11  1  0  0  0
 15 14  1  0  0  0
 15 16  1  0  0  0
 16 17  1  0  0  0
 16 18  2  0  0  0
 19 20  1  0  0  0
 25 19  4  0  0  0
 24 23  1  0  0  0
 25 26  4  0  0  0
 26 30  4  0  0  0
 30 31  4  0  0  0
 30 35  4  0  0  0
 31 32  4  0  0  0
 32 33  4  0  0  0
 33 34  4  0  0  0
 34 35  4  0  0  0
  2 36  1  0  0  0
  4 37  1  0  0  0
  4 38  1  0  0  0
  6 39  1  0  0  0
  8 40  1  0  0  0
  9 41  1  0  0  0
 10 42  1  0  0  0
 10 43  1  0  0  0
 10 44  1  0  0  0
 12 45  1  0  0  0
 12 46  1  0  0  0
 12 47  1  0  0  0
 13 48  1  0  0  0
 13 49  1  0  0  0
 13 50  1  0  0  0
 15 51  1  0  0  0
 17 52  1  0  0  0
 21 53  1  0  0  0
 23 54  1  0  0  0
 23 55  1  0  0  0
 24 56  1  0  0  0
 24 57  1  0  0  0
 27 58  1  0  0  0
 28 59  1  0  0  0
 29 60  1  0  0  0
 31 61  1  0  0  0
 32 62  1  0  0  0
 33 63  1  0  0  0
 34 64  1  0  0  0
M  END
$$$$
