### 
### Created by X-TOOL on Mon Sep 10 21:12:49 2018
### 

@<TRIPOS>MOLECULE
1h79_ligand
   42    43     1     0     0
SMALL
GAST_HUCK


@<TRIPOS>ATOM
      1 PA         42.8360   40.7050   63.3530 P.3       1 TTP         0.3266
      2 O1A        42.4550   39.2800   63.4790 O.co2     1 TTP        -0.5692
      3 O2A        43.9980   41.1620   64.1570 O.co2     1 TTP        -0.5692
      4 O3A        43.0130   41.1450   61.8040 O.3       1 TTP        -0.1171
      5 PB         44.2470   40.6210   60.8780 P.3       1 TTP         0.3553
      6 O1B        45.0150   41.8050   60.4030 O.co2     1 TTP        -0.5652
      7 O2B        43.6030   39.7770   59.8270 O.co2     1 TTP        -0.5652
      8 O3B        45.1690   39.7250   61.8710 O.3       1 TTP        -0.1546
      9 PG         45.2890   38.1250   61.7460 P.3       1 TTP         0.1879
     10 O1G        43.9470   37.5370   61.8720 O.co2     1 TTP        -0.6091
     11 O2G        46.2790   37.7360   62.7840 O.co2     1 TTP        -0.6091
     12 O3G        45.8970   37.8750   60.2810 O.co2     1 TTP        -0.6091
     13 O5         41.6050   41.5780   63.8540 O.3       1 TTP        -0.2441
     14 C5         40.5530   40.9520   64.5810 C.3       1 TTP         0.1130
     15 C4         39.2710   41.7820   64.5260 C.3       1 TTP         0.1163
     16 O4         39.5830   43.1670   64.4550 O.3       1 TTP        -0.3395
     17 C3         38.4370   41.5660   63.2890 C.3       1 TTP         0.0889
     18 O3         37.0730   41.2390   63.6060 O.3       1 TTP        -0.3890
     19 C2         38.4820   42.9140   62.5540 C.3       1 TTP         0.0308
     20 C1         38.9540   43.8790   63.3710 C.3       1 TTP         0.1757
     21 N1         39.6950   44.9020   62.7400 N.am      1 TTP        -0.1736
     22 C2         39.3310   46.2450   63.0020 C.2       1 TTP         0.3265
     23 O2         38.3410   46.5160   63.6920 O.2       1 TTP        -0.3843
     24 N3         40.1140   47.2900   62.4710 N.am      1 TTP        -0.1859
     25 C4         41.2470   47.0040   61.6880 C.2       1 TTP         0.1930
     26 O4         41.9060   47.9350   61.2450 O.2       1 TTP        -0.4079
     27 C5         41.6190   45.6800   61.4160 C.2       1 TTP         0.0225
     28 C5M        42.8710   45.3690   60.5820 C.3       1 TTP        -0.0437
     29 C6         40.8510   44.6350   61.9310 C.2       1 TTP         0.0524
     30 H1         40.8612   40.8376   65.6307 H         1 TTP         0.0648
     31 H2         40.3572   39.9607   64.1462 H         1 TTP         0.0648
     32 H3         38.6744   41.5612   65.4234 H         1 TTP         0.0650
     33 H4         38.8701   40.7665   62.6700 H         1 TTP         0.0622
     34 H5         36.5839   41.1115   62.8016 H         1 TTP         0.2099
     35 H6         37.4670   43.1818   62.2252 H         1 TTP         0.0344
     36 H7         39.1406   42.8271   61.6772 H         1 TTP         0.0344
     37 H8         38.0812   44.3941   63.7986 H         1 TTP         0.0959
     38 H9         39.8624   48.2407   62.6521 H         1 TTP         0.2259
     39 H10        42.9855   44.2793   60.4849 H         1 TTP         0.0296
     40 H11        43.7574   45.7877   61.0810 H         1 TTP         0.0296
     41 H12        42.7667   45.8172   59.5829 H         1 TTP         0.0296
     42 H13        41.1316   43.6048   61.7169 H         1 TTP         0.1011
@<TRIPOS>BOND
     1    1    2 ar 
     2    1    3 ar 
     3    1    4 1  
     4    1   13 1  
     5    4    5 1  
     6    5    6 ar 
     7    5    7 ar 
     8    5    8 1  
     9    8    9 1  
    10    9   10 ar 
    11    9   11 ar 
    12    9   12 ar 
    13   13   14 1  
    14   14   15 1  
    15   15   16 1  
    16   15   17 1  
    17   16   20 1  
    18   17   18 1  
    19   17   19 1  
    20   19   20 1  
    21   20   21 1  
    22   21   22 am 
    23   21   29 1  
    24   22   23 2  
    25   22   24 am 
    26   24   25 am 
    27   25   26 2  
    28   25   27 1  
    29   27   28 1  
    30   27   29 2  
    31   14   30 1  
    32   14   31 1  
    33   15   32 1  
    34   17   33 1  
    35   18   34 1  
    36   19   35 1  
    37   19   36 1  
    38   20   37 1  
    39   24   38 1  
    40   28   39 1  
    41   28   40 1  
    42   28   41 1  
    43   29   42 1  
@<TRIPOS>SUBSTRUCTURE
     1 TTP         1

