1h79_ligand
  -I-interpret- 

 46 47  0  0  0  0  0  0  0  0999 V2000
   42.8360   40.7050   63.3530 P   0  0  0  0  0
   42.4550   39.2800   63.4790 O   0  0  0  0  0
   43.9980   41.1620   64.1570 O   0  0  0  0  0
   43.0130   41.1450   61.8040 O   0  0  0  0  0
   44.2470   40.6210   60.8780 P   0  0  0  0  0
   45.0150   41.8050   60.4030 O   0  0  0  0  0
   43.6030   39.7770   59.8270 O   0  0  0  0  0
   45.1690   39.7250   61.8710 O   0  0  0  0  0
   45.2890   38.1250   61.7460 P   0  0  0  0  0
   43.9470   37.5370   61.8720 O   0  0  0  0  0
   46.2790   37.7360   62.7840 O   0  0  0  0  0
   45.8970   37.8750   60.2810 O   0  0  0  0  0
   41.6050   41.5780   63.8540 O   0  0  0  0  0
   40.5530   40.9520   64.5810 C   0  0  0  0  0
   39.2710   41.7820   64.5260 C   0  0  0  0  0
   39.5830   43.1670   64.4550 O   0  0  0  0  0
   38.4370   41.5660   63.2890 C   0  0  0  0  0
   37.0730   41.2390   63.6060 O   0  0  0  0  0
   38.4820   42.9140   62.5540 C   0  0  0  0  0
   38.9540   43.8790   63.3710 C   0  0  0  0  0
   39.6950   44.9020   62.7400 N   0  0  0  0  0
   39.3310   46.2450   63.0020 C   0  0  0  0  0
   38.3410   46.5160   63.6920 O   0  0  0  0  0
   40.1140   47.2900   62.4710 N   0  0  0  0  0
   41.2470   47.0040   61.6880 C   0  0  0  0  0
   41.9060   47.9350   61.2450 O   0  0  0  0  0
   41.6190   45.6800   61.4160 C   0  0  0  0  0
   42.8710   45.3690   60.5820 C   0  0  0  0  0
   40.8510   44.6350   61.9310 C   0  0  0  0  0
   44.1502   42.0960   63.9952 H   0  0  0  0  0
   43.1386   39.0476   60.2440 H   0  0  0  0  0
   47.1149   38.1737   62.6073 H   0  0  0  0  0
   46.7711   38.2683   60.2271 H   0  0  0  0  0
   40.8600   40.8556   65.6224 H   0  0  0  0  0
   40.3550   39.9772   64.1354 H   0  0  0  0  0
   38.7297   41.4734   65.4204 H   0  0  0  0  0
   38.8209   40.7337   62.6990 H   0  0  0  0  0
   36.5788   41.1101   62.7931 H   0  0  0  0  0
   37.4736   43.1793   62.2363 H   0  0  0  0  0
   39.1411   42.8259   61.6903 H   0  0  0  0  0
   38.1567   44.5108   63.7625 H   0  0  0  0  0
   39.8573   48.2597   62.6557 H   0  0  0  0  0
   43.5741   44.7943   61.1849 H   0  0  0  0  0
   42.5862   44.7902   59.7034 H   0  0  0  0  0
   43.3380   46.3025   60.2680 H   0  0  0  0  0
   41.1319   43.6038   61.7167 H   0  0  0  0  0
  1  2  2  0  0  0
  1  3  1  0  0  0
  1  4  1  0  0  0
  1 13  1  0  0  0
  4  5  1  0  0  0
  5  6  2  0  0  0
  5  7  1  0  0  0
  5  8  1  0  0  0
  8  9  1  0  0  0
  9 10  2  0  0  0
  9 11  1  0  0  0
  9 12  1  0  0  0
 13 14  1  0  0  0
 14 15  1  0  0  0
 15 16  1  0  0  0
 15 17  1  0  0  0
 16 20  1  0  0  0
 17 18  1  0  0  0
 17 19  1  0  0  0
 19 20  1  0  0  0
 20 21  1  0  0  0
 21 22  1  0  0  0
 21 29  1  0  0  0
 22 23  2  0  0  0
 22 24  1  0  0  0
 24 25  1  0  0  0
 25 26  2  0  0  0
 25 27  1  0  0  0
 27 28  1  0  0  0
 27 29  2  0  0  0
  3 30  1  0  0  0
  7 31  1  0  0  0
 11 32  1  0  0  0
 12 33  1  0  0  0
 14 34  1  0  0  0
 14 35  1  0  0  0
 15 36  1  0  0  0
 17 37  1  0  0  0
 18 38  1  0  0  0
 19 39  1  0  0  0
 19 40  1  0  0  0
 20 41  1  0  0  0
 24 42  1  0  0  0
 28 43  1  0  0  0
 28 44  1  0  0  0
 28 45  1  0  0  0
 29 46  1  0  0  0
M  END
$$$$
