5c6o_ligand
  -I-interpret- 

 72 73  0  0  0  0  0  0  0  0999 V2000
    9.6390  -19.9580  -26.0830 C   0  0  0  0  0
    8.9160  -19.5430  -24.8560 O   0  0  0  0  0
    9.4530  -18.4160  -24.2960 C   0  0  0  0  0
    9.1510  -17.1400  -24.7870 C   0  0  0  0  0
   10.3090  -18.5670  -23.1960 C   0  0  0  0  0
   10.6110  -19.8240  -22.7210 O   0  0  0  0  0
    9.3780  -20.6540  -22.1390 C   0  0  0  0  0
   10.8700  -17.4300  -22.6140 C   0  0  0  0  0
   10.5550  -16.1640  -23.1240 C   0  0  0  0  0
    9.6970  -15.9770  -24.2230 C   0  0  0  0  0
    9.3410  -14.6940  -24.7770 C   0  0  0  0  0
    8.6510  -13.7570  -23.7120 C   0  0  0  0  0
    8.4390  -12.3000  -24.1760 C   0  0  0  0  0
    9.3190  -13.8000  -22.3190 C   0  0  0  0  0
    8.3150  -14.9820  -25.7660 C   0  0  0  0  0
    7.4550  -15.1940  -26.5720 N   0  0  0  0  0
   10.5040  -14.1130  -25.6570 C   0  0  0  0  0
   11.2760  -12.8710  -25.1580 C   0  0  0  0  0
   11.0430  -11.6570  -26.0720 C   0  0  0  0  0
   11.9330  -11.5480  -27.2480 N   0  3  0  0  0
   13.0270  -12.5390  -27.3040 C   0  0  0  0  0
   11.0930  -11.5950  -28.4560 C   0  0  0  0  0
   10.4910  -10.2150  -28.7860 C   0  0  0  0  0
    9.1260  -10.2980  -29.0170 C   0  0  0  0  0
    8.6370  -10.9280  -30.1680 C   0  0  0  0  0
    8.2570   -9.7330  -28.0860 C   0  0  0  0  0
    6.8880   -9.8050  -28.3060 C   0  0  0  0  0
    6.3930  -10.4370  -29.4490 C   0  0  0  0  0
    5.0520  -10.5120  -29.6510 O   0  0  0  0  0
    4.4160  -11.0040  -28.4530 C   0  0  0  0  0
    7.2620  -11.0070  -30.3970 C   0  0  0  0  0
    6.7290  -11.6210  -31.5100 O   0  0  0  0  0
    7.6300  -11.7370  -32.6480 C   0  0  0  0  0
    9.5905  -19.1567  -26.8203 H   0  0  0  0  0
   10.6806  -20.1646  -25.8371 H   0  0  0  0  0
    9.1753  -20.8565  -26.4900 H   0  0  0  0  0
    8.4707  -17.0472  -25.6336 H   0  0  0  0  0
    8.9352  -20.1082  -21.3058 H   0  0  0  0  0
    8.6324  -20.7917  -22.9221 H   0  0  0  0  0
    9.7274  -21.6268  -21.7931 H   0  0  0  0  0
   11.5496  -17.5262  -21.7672 H   0  0  0  0  0
   10.9934  -15.2863  -22.6491 H   0  0  0  0  0
    7.6575  -14.1938  -23.6111 H   0  0  0  0  0
    9.4037  -11.8516  -24.4132 H   0  0  0  0  0
    7.8049  -12.2910  -25.0625 H   0  0  0  0  0
    7.9592  -11.7323  -23.3787 H   0  0  0  0  0
    9.2799  -14.8175  -21.9300 H   0  0  0  0  0
   10.3581  -13.4826  -22.4058 H   0  0  0  0  0
    8.7885  -13.1302  -21.6422 H   0  0  0  0  0
   10.0222  -13.7908  -26.5801 H   0  0  0  0  0
   11.2487  -14.9080  -25.6969 H   0  0  0  0  0
   12.3409  -13.1036  -25.1582 H   0  0  0  0  0
   10.9209  -12.6230  -24.1578 H   0  0  0  0  0
   11.2339  -10.7743  -25.4617 H   0  0  0  0  0
   10.0309  -11.7594  -26.4635 H   0  0  0  0  0
   12.4275  -10.6588  -27.1755 H   0  0  0  0  0
   13.6605  -12.4291  -26.4238 H   0  0  0  0  0
   12.6047  -13.5436  -27.3261 H   0  0  0  0  0
   13.6202  -12.3730  -28.2032 H   0  0  0  0  0
   10.2748  -12.2929  -28.2783 H   0  0  0  0  0
   11.7149  -11.9078  -29.2947 H   0  0  0  0  0
   10.9713   -9.8355  -29.6879 H   0  0  0  0  0
   10.6577   -9.5534  -27.9360 H   0  0  0  0  0
    9.3327  -11.3585  -30.8882 H   0  0  0  0  0
    8.6473   -9.2403  -27.1955 H   0  0  0  0  0
    6.1978   -9.3672  -27.5849 H   0  0  0  0  0
    4.8059  -11.9940  -28.2165 H   0  0  0  0  0
    4.6237  -10.3235  -27.6272 H   0  0  0  0  0
    3.3396  -11.0648  -28.6134 H   0  0  0  0  0
    7.9447  -10.7423  -32.9635 H   0  0  0  0  0
    8.5037  -12.3216  -32.3599 H   0  0  0  0  0
    7.1137  -12.2337  -33.4695 H   0  0  0  0  0
  1  2  1  0  0  0
  2  3  1  0  0  0
  3  4  4  0  0  0
  3  5  4  0  0  0
  4 10  4  0  0  0
  5  6  1  0  0  0
  5  8  4  0  0  0
  6  7  1  0  0  0
  8  9  4  0  0  0
  9 10  4  0  0  0
 10 11  1  0  0  0
 11 12  1  0  0  0
 11 15  1  0  0  0
 11 17  1  0  0  0
 12 13  1  0  0  0
 12 14  1  0  0  0
 15 16  3  0  0  0
 17 18  1  0  0  0
 18 19  1  0  0  0
 19 20  1  0  0  0
 20 21  1  0  0  0
 20 22  1  0  0  0
 22 23  1  0  0  0
 23 24  1  0  0  0
 24 25  4  0  0  0
 24 26  4  0  0  0
 25 31  4  0  0  0
 26 27  4  0  0  0
 27 28  4  0  0  0
 28 29  1  0  0  0
 28 31  4  0  0  0
 29 30  1  0  0  0
 31 32  1  0  0  0
 32 33  1  0  0  0
  1 34  1  0  0  0
  1 35  1  0  0  0
  1 36  1  0  0  0
  4 37  1  0  0  0
  7 38  1  0  0  0
  7 39  1  0  0  0
  7 40  1  0  0  0
  8 41  1  0  0  0
  9 42  1  0  0  0
 12 43  1  0  0  0
 13 44  1  0  0  0
 13 45  1  0  0  0
 13 46  1  0  0  0
 14 47  1  0  0  0
 14 48  1  0  0  0
 14 49  1  0  0  0
 17 50  1  0  0  0
 17 51  1  0  0  0
 18 52  1  0  0  0
 18 53  1  0  0  0
 19 54  1  0  0  0
 19 55  1  0  0  0
 20 56  1  0  0  0
 21 57  1  0  0  0
 21 58  1  0  0  0
 21 59  1  0  0  0
 22 60  1  0  0  0
 22 61  1  0  0  0
 23 62  1  0  0  0
 23 63  1  0  0  0
 25 64  1  0  0  0
 26 65  1  0  0  0
 27 66  1  0  0  0
 30 67  1  0  0  0
 30 68  1  0  0  0
 30 69  1  0  0  0
 33 70  1  0  0  0
 33 71  1  0  0  0
 33 72  1  0  0  0
M  END
$$$$
