5oot_ligand
  -I-interpret- 

 82 87  0  0  0  0  0  0  0  0999 V2000
    4.5650   -4.8070   18.8250 C   0  0  0  0  0
    5.5930   -3.8280   18.9150 C   0  0  0  0  0
    5.3540   -2.6260   19.6050 C   0  0  0  0  0
    4.1580   -2.4810   20.1560 N   0  0  0  0  0
    3.3970   -4.6060   19.4100 N   0  0  0  0  0
   -3.1120  -11.2210   24.1140 C   0  0  0  0  0
   -2.9520  -12.7400   24.4020 C   0  0  0  0  0
   -4.2250  -13.4830   24.2090 N   0  3  0  0  0
   -4.0210  -14.9430   24.3350 C   0  0  0  0  0
   -4.9300  -13.1520   22.9370 C   0  0  0  0  0
   -5.0090  -11.6320   22.6380 C   0  0  0  0  0
   -3.6830  -11.0060   22.7390 N   0  3  0  0  0
   -3.5350   -9.7150   21.9960 C   0  0  0  0  0
   -4.7390   -8.7360   22.0750 C   0  0  0  0  0
   -4.5560   -7.5600   21.1550 C   0  0  0  0  0
   -2.3210   -8.9580   22.4890 C   0  0  0  0  0
   -1.9920   -7.7650   21.6130 C   0  0  0  0  0
   -3.1750   -6.9720   21.1440 N   0  0  0  0  0
   -2.9970   -5.6990   20.7050 C   0  0  0  0  0
   -3.9760   -4.9940   20.5200 O   0  0  0  0  0
   -1.7300   -5.0910   20.6340 C   0  0  0  0  0
   -1.3760   -4.2270   21.6560 C   0  0  0  0  0
   -0.1270   -3.6190   21.6340 C   0  0  0  0  0
    0.3510   -2.7540   22.5880 O   0  0  0  0  0
   -0.1200   -2.9400   23.9260 C   0  0  0  0  0
   -0.8250   -5.3330   19.6000 C   0  0  0  0  0
    0.4380   -4.7250   19.5730 C   0  0  0  0  0
    0.8010   -3.8470   20.6110 C   0  0  0  0  0
    2.0090   -3.1440   20.6980 N   0  0  0  0  0
    3.2190   -3.4500   20.0660 C   0  0  0  0  0
    4.7000   -5.9270   18.1610 N   0  0  0  0  0
    3.7930   -7.0180   18.5180 C   0  0  0  0  0
    5.0120   -5.8700   16.7780 C   0  0  0  0  0
    4.1130   -6.3790   15.8210 C   0  0  0  0  0
    4.4240   -6.3690   14.4690 C   0  0  0  0  0
    5.6200   -5.8130   14.0190 C   0  0  0  0  0
    6.5040   -5.2540   14.9300 C   0  0  0  0  0
    6.2050   -5.3090   16.3060 C   0  0  0  0  0
    7.1880   -4.7340   17.2420 C   0  0  0  0  0
    8.3730   -4.9180   16.9400 O   0  0  0  0  0
    6.8680   -4.0110   18.3550 N   0  0  0  0  0
    7.9890   -3.3770   19.0550 C   0  0  0  0  0
    6.1163   -1.8508   19.6827 H   0  0  0  0  0
   -2.1338  -10.7436   24.1711 H   0  0  0  0  0
   -3.7887  -10.7890   24.8512 H   0  0  0  0  0
   -2.6434  -12.8584   25.4407 H   0  0  0  0  0
   -2.2150  -13.1420   23.7068 H   0  0  0  0  0
   -4.8396  -13.1706   24.9607 H   0  0  0  0  0
   -3.3076  -15.2753   23.5809 H   0  0  0  0  0
   -3.6339  -15.1701   25.3283 H   0  0  0  0  0
   -4.9718  -15.4554   24.1883 H   0  0  0  0  0
   -5.9528  -13.5174   23.0291 H   0  0  0  0  0
   -4.3669  -13.6128   22.1254 H   0  0  0  0  0
   -5.6722  -11.1661   23.3669 H   0  0  0  0  0
   -5.3847  -11.4940   21.6241 H   0  0  0  0  0
   -2.9888  -11.4871   22.1672 H   0  0  0  0  0
   -3.4499  -10.0337   20.9571 H   0  0  0  0  0
   -4.8157   -8.3655   23.0972 H   0  0  0  0  0
   -5.6395   -9.2719   21.7748 H   0  0  0  0  0
   -5.2283   -6.7776   21.5069 H   0  0  0  0  0
   -4.7539   -7.9173   20.1444 H   0  0  0  0  0
   -1.4684   -9.6369   22.4700 H   0  0  0  0  0
   -2.5356   -8.5915   23.4929 H   0  0  0  0  0
   -1.5042   -8.1570   20.7205 H   0  0  0  0  0
   -1.3833   -7.0918   22.2166 H   0  0  0  0  0
   -2.0712   -4.0254   22.4710 H   0  0  0  0  0
   -1.2043   -2.8307   23.9466 H   0  0  0  0  0
    0.1525   -3.9376   24.2704 H   0  0  0  0  0
    0.3342   -2.1929   24.5769 H   0  0  0  0  0
   -1.1066   -6.0108   18.7941 H   0  0  0  0  0
    1.1310   -4.9301   18.7571 H   0  0  0  0  0
    2.0064   -2.3135   21.2902 H   0  0  0  0  0
    2.8533   -6.8988   17.9786 H   0  0  0  0  0
    4.2493   -7.9707   18.2494 H   0  0  0  0  0
    3.6030   -6.9944   19.5911 H   0  0  0  0  0
    3.1569   -6.7877   16.1480 H   0  0  0  0  0
    3.7259   -6.8003   13.7516 H   0  0  0  0  0
    5.8597   -5.8174   12.9557 H   0  0  0  0  0
    7.4212   -4.7767   14.5849 H   0  0  0  0  0
    8.6910   -4.1435   19.3833 H   0  0  0  0  0
    8.4933   -2.6859   18.3796 H   0  0  0  0  0
    7.6134   -2.8317   19.9208 H   0  0  0  0  0
  1  2  4  0  0  0
  5  1  4  0  0  0
  1 31  1  0  0  0
  3  2  4  0  0  0
  2 41  1  0  0  0
  4  3  4  0  0  0
 30  4  4  0  0  0
 30  5  4  0  0  0
  6  7  1  0  0  0
 12  6  1  0  0  0
  7  8  1  0  0  0
  8  9  1  0  0  0
 10  8  1  0  0  0
 11 10  1  0  0  0
 12 11  1  0  0  0
 13 12  1  0  0  0
 14 13  1  0  0  0
 16 13  1  0  0  0
 15 14  1  0  0  0
 18 15  1  0  0  0
 17 16  1  0  0  0
 18 17  1  0  0  0
 19 18  1  0  0  0
 19 20  2  0  0  0
 21 19  1  0  0  0
 22 21  4  0  0  0
 26 21  4  0  0  0
 23 22  4  0  0  0
 23 24  1  0  0  0
 28 23  4  0  0  0
 24 25  1  0  0  0
 27 26  4  0  0  0
 28 27  4  0  0  0
 29 28  1  0  0  0
 29 30  1  0  0  0
 31 32  1  0  0  0
 31 33  1  0  0  0
 33 34  4  0  0  0
 33 38  4  0  0  0
 34 35  4  0  0  0
 35 36  4  0  0  0
 36 37  4  0  0  0
 37 38  4  0  0  0
 38 39  1  0  0  0
 39 40  2  0  0  0
 39 41  1  0  0  0
 41 42  1  0  0  0
  3 43  1  0  0  0
  6 44  1  0  0  0
  6 45  1  0  0  0
  7 46  1  0  0  0
  7 47  1  0  0  0
  8 48  1  0  0  0
  9 49  1  0  0  0
  9 50  1  0  0  0
  9 51  1  0  0  0
 10 52  1  0  0  0
 10 53  1  0  0  0
 11 54  1  0  0  0
 11 55  1  0  0  0
 12 56  1  0  0  0
 13 57  1  0  0  0
 14 58  1  0  0  0
 14 59  1  0  0  0
 15 60  1  0  0  0
 15 61  1  0  0  0
 16 62  1  0  0  0
 16 63  1  0  0  0
 17 64  1  0  0  0
 17 65  1  0  0  0
 22 66  1  0  0  0
 25 67  1  0  0  0
 25 68  1  0  0  0
 25 69  1  0  0  0
 26 70  1  0  0  0
 27 71  1  0  0  0
 29 72  1  0  0  0
 32 73  1  0  0  0
 32 74  1  0  0  0
 32 75  1  0  0  0
 34 76  1  0  0  0
 35 77  1  0  0  0
 36 78  1  0  0  0
 37 79  1  0  0  0
 42 80  1  0  0  0
 42 81  1  0  0  0
 42 82  1  0  0  0
M  END
$$$$
