2xyu_ligand
  -I-interpret- 

 34 37  0  0  0  0  0  0  0  0999 V2000
    3.0790   12.6700   19.5130 N   0  0  0  0  0
    4.0690   13.5860   19.8440 C   0  0  0  0  0
    5.4280   13.3500   20.0960 C   0  0  0  0  0
    5.8600   11.9580   19.9890 C   0  0  0  0  0
    4.9570   11.0010   19.6720 C   0  0  0  0  0
    3.5370   11.3820   19.4220 C   0  0  0  0  0
    2.5610   10.3110   19.0770 C   0  0  0  0  0
    7.2960   11.5930   20.2440 C   0  0  0  0  0
    7.4430   10.1790   20.6780 C   0  0  0  0  0
    6.8230    9.2920   19.6680 C   0  0  0  0  0
    5.3610    9.5570   19.5550 C   0  0  0  0  0
    3.8730   14.9490   20.0050 N   0  0  0  0  0
    4.9730   15.6220   20.3220 N   0  0  0  0  0
    5.9390   14.6600   20.3890 C   0  0  0  0  0
    7.2900   14.9930   20.7220 N   0  0  0  0  0
    1.9070    9.6300   20.1040 C   0  0  0  0  0
    0.9960    8.6390   19.8280 C   0  0  0  0  0
    0.4120    8.0040   20.8550 F   0  0  0  0  0
    0.6930    8.3030   18.5220 C   0  0  0  0  0
    1.3180    8.9750   17.4820 C   0  0  0  0  0
    2.2600    9.9850   17.7440 C   0  0  0  0  0
    2.9400   10.7130   16.6300 C   0  0  0  0  0
    8.1307   12.2837   20.1247 H   0  0  0  0  0
    7.9303    9.8476   21.5950 H   0  0  0  0  0
    7.3631    8.5456   19.0855 H   0  0  0  0  0
    4.6346    8.7595   19.3984 H   0  0  0  0  0
    7.9989   14.2611   20.7688 H   0  0  0  0  0
    7.5442   15.9623   20.9126 H   0  0  0  0  0
    2.1219    9.8879   21.1410 H   0  0  0  0  0
   -0.0313    7.5162   18.3110 H   0  0  0  0  0
    1.0762    8.7173   16.4509 H   0  0  0  0  0
    2.7139   11.7769   16.7015 H   0  0  0  0  0
    4.0171   10.5634   16.7040 H   0  0  0  0  0
    2.5832   10.3278   15.6748 H   0  0  0  0  0
  1  2  4  0  0  0
  1  6  4  0  0  0
  2  3  4  0  0  0
  2 12  4  0  0  0
  3  4  4  0  0  0
  3 14  4  0  0  0
  4  5  4  0  0  0
  4  8  4  0  0  0
  5  6  4  0  0  0
  5 11  4  0  0  0
  6  7  1  0  0  0
  7 16  4  0  0  0
  7 21  4  0  0  0
  8  9  4  0  0  0
  9 10  4  0  0  0
 10 11  4  0  0  0
 12 13  4  0  0  0
 13 14  4  0  0  0
 14 15  1  0  0  0
 16 17  4  0  0  0
 17 18  1  0  0  0
 17 19  4  0  0  0
 19 20  4  0  0  0
 20 21  4  0  0  0
 21 22  1  0  0  0
  8 23  1  0  0  0
  9 24  1  0  0  0
 10 25  1  0  0  0
 11 26  1  0  0  0
 15 27  1  0  0  0
 15 28  1  0  0  0
 16 29  1  0  0  0
 19 30  1  0  0  0
 20 31  1  0  0  0
 22 32  1  0  0  0
 22 33  1  0  0  0
 22 34  1  0  0  0
M  END
$$$$
