4p6x_ligand
  -I-interpret- 

 56 59  0  0  0  0  0  0  0  0999 V2000
    3.7200   32.2140   -3.7650 C   0  0  0  0  0
    3.9320   32.6580   -2.3200 C   0  0  0  0  0
    5.0250   33.7010   -2.2190 C   0  0  0  0  0
    5.3930   34.5200   -3.3780 C   0  0  0  0  0
    4.8210   34.3510   -4.5760 C   0  0  0  0  0
    5.1970   35.3250   -5.6560 C   0  0  0  0  0
    5.5140   34.6160   -6.9530 C   0  0  0  0  0
    4.5070   33.5230   -7.2940 C   0  0  0  0  0
    4.2310   32.5540   -6.1390 C   0  0  0  0  0
    3.7760   33.2740   -4.8480 C   0  0  0  0  0
    3.9040   30.6620   -7.8200 C   0  0  0  0  0
    3.3700   31.3200   -6.5360 C   0  0  0  0  0
    4.1930   31.6290   -8.9690 C   0  0  0  0  0
    5.0990   32.7340   -8.4430 C   0  0  0  0  0
    5.4640   33.5060   -9.6810 C   0  0  0  0  0
    5.4920   32.4750  -10.8010 C   0  0  0  0  0
    5.0350   31.1780  -10.1900 C   0  0  0  0  0
    2.8700   32.1950   -9.4900 C   0  0  0  0  0
    2.4320   33.9920   -5.0180 C   0  0  0  0  0
    4.3440   30.3240  -11.2360 C   0  0  0  0  0
    3.9710   28.9290  -10.8580 C   0  0  0  0  0
    5.6260   33.8680   -1.1720 O   0  0  0  0  0
    1.9550   31.5780   -6.6700 O   0  0  0  0  0
    6.2270   30.4770   -9.7820 O   0  0  0  0  0
    4.0740   30.7530  -12.3530 O   0  0  0  0  0
    3.2460   28.3180  -11.9170 O   0  0  0  0  0
    2.7058   31.8162   -3.8005 H   0  0  0  0  0
    4.5426   31.5328   -3.9829 H   0  0  0  0  0
    4.2256   31.7898   -1.7300 H   0  0  0  0  0
    3.0030   33.0924   -1.9509 H   0  0  0  0  0
    6.1556   35.2899   -3.2604 H   0  0  0  0  0
    6.0835   35.8721   -5.3352 H   0  0  0  0  0
    4.3548   35.9959   -5.8254 H   0  0  0  0  0
    6.4914   34.1459   -6.8449 H   0  0  0  0  0
    5.4850   35.3563   -7.7525 H   0  0  0  0  0
    3.5560   33.9993   -7.5324 H   0  0  0  0  0
    5.1958   32.1134   -5.8875 H   0  0  0  0  0
    3.1292   29.9798   -8.1699 H   0  0  0  0  0
    4.8511   30.1888   -7.5609 H   0  0  0  0  0
    3.4694   30.6373   -5.6921 H   0  0  0  0  0
    5.9960   32.3615   -7.9483 H   0  0  0  0  0
    6.4254   34.0082   -9.5728 H   0  0  0  0  0
    4.7471   34.3014   -9.8847 H   0  0  0  0  0
    6.4928   32.3796  -11.2221 H   0  0  0  0  0
    4.8422   32.7718  -11.6243 H   0  0  0  0  0
    2.2419   31.3783   -9.8458 H   0  0  0  0  0
    2.3598   32.7230   -8.6844 H   0  0  0  0  0
    3.0693   32.8854  -10.3096 H   0  0  0  0  0
    2.5179   34.7392   -5.8070 H   0  0  0  0  0
    1.6648   33.2656   -5.2858 H   0  0  0  0  0
    2.1612   34.4799   -4.0817 H   0  0  0  0  0
    3.3486   28.9532   -9.9635 H   0  0  0  0  0
    4.8769   28.3546  -10.6644 H   0  0  0  0  0
    1.5047   30.7664   -6.9153 H   0  0  0  0  0
    6.7236   30.2127  -10.5599 H   0  0  0  0  0
    3.0100   27.4219  -11.6664 H   0  0  0  0  0
  1  2  1  0  0  0
  1 10  1  0  0  0
  2  3  1  0  0  0
  3  4  1  0  0  0
  3 22  2  0  0  0
  4  5  2  0  0  0
  5  6  1  0  0  0
  5 10  1  0  0  0
  6  7  1  0  0  0
  7  8  1  0  0  0
  8  9  1  0  0  0
  8 14  1  0  0  0
  9 10  1  0  0  0
  9 12  1  0  0  0
 10 19  1  0  0  0
 12 11  1  0  0  0
 11 13  1  0  0  0
 12 23  1  0  0  0
 13 14  1  0  0  0
 13 17  1  0  0  0
 13 18  1  0  0  0
 14 15  1  0  0  0
 15 16  1  0  0  0
 16 17  1  0  0  0
 17 20  1  0  0  0
 17 24  1  0  0  0
 20 21  1  0  0  0
 20 25  2  0  0  0
 21 26  1  0  0  0
  1 27  1  0  0  0
  1 28  1  0  0  0
  2 29  1  0  0  0
  2 30  1  0  0  0
  4 31  1  0  0  0
  6 32  1  0  0  0
  6 33  1  0  0  0
  7 34  1  0  0  0
  7 35  1  0  0  0
  8 36  1  0  0  0
  9 37  1  0  0  0
 11 38  1  0  0  0
 11 39  1  0  0  0
 12 40  1  0  0  0
 14 41  1  0  0  0
 15 42  1  0  0  0
 15 43  1  0  0  0
 16 44  1  0  0  0
 16 45  1  0  0  0
 18 46  1  0  0  0
 18 47  1  0  0  0
 18 48  1  0  0  0
 19 49  1  0  0  0
 19 50  1  0  0  0
 19 51  1  0  0  0
 21 52  1  0  0  0
 21 53  1  0  0  0
 23 54  1  0  0  0
 24 55  1  0  0  0
 26 56  1  0  0  0
M  END
$$$$
