4y5d_ligand
  -I-interpret- 

 31 33  0  0  0  0  0  0  0  0999 V2000
   10.7210   -8.2640   -4.4320 C   0  0  0  0  0
   10.8270   -6.9960   -4.5010 C   0  0  0  0  0
   12.1200   -4.9510   -3.4430 C   0  0  0  0  0
   11.5950   -6.2630   -3.5530 C   0  0  0  0  0
   13.9630   -4.1790   -0.2470 N   0  0  0  0  0
   13.4920   -5.3840    0.4020 C   0  0  0  0  0
   12.7450   -4.8710   -2.2340 C   0  0  0  0  0
   10.7040  -11.1180   -4.8000 O   0  0  0  0  0
    9.8330  -10.3650   -5.2340 C   0  0  0  0  0
    8.6510  -10.9090   -5.6590 O   0  0  0  0  0
    8.2030  -12.2570   -5.1460 C   0  0  0  0  0
    9.9070   -8.9160   -5.3320 C   0  0  0  0  0
    9.1770   -8.3040   -6.3070 C   0  0  0  0  0
    9.3890   -6.9720   -6.4190 C   0  0  0  0  0
   10.1740   -6.3550   -5.4720 C   0  0  0  0  0
   11.8240   -6.8510   -2.3440 O   0  0  0  0  0
   12.4690   -6.1170   -1.5750 C   0  0  0  0  0
   12.7200   -6.4740   -0.2340 C   0  0  0  0  0
   13.5190   -3.8290   -1.4940 C   0  0  0  0  0
   13.7650   -2.6510   -2.0250 O   0  0  0  0  0
   11.2661   -8.8242   -3.6724 H   0  0  0  0  0
   12.0393   -4.1564   -4.1847 H   0  0  0  0  0
   14.6363   -3.5811    0.2322 H   0  0  0  0  0
   13.7286   -5.4993    1.4598 H   0  0  0  0  0
    8.9460  -13.0098   -5.4094 H   0  0  0  0  0
    8.0955  -12.2144   -4.0622 H   0  0  0  0  0
    7.2454  -12.5162   -5.5975 H   0  0  0  0  0
    8.4782   -8.8443   -6.9456 H   0  0  0  0  0
    8.9494   -6.4027   -7.2380 H   0  0  0  0  0
   10.2686   -5.2701   -5.5183 H   0  0  0  0  0
   12.3997   -7.3960    0.2512 H   0  0  0  0  0
  1  2  4  0  0  0
 12  1  4  0  0  0
  2  4  1  0  0  0
  2 15  4  0  0  0
  4  3  4  0  0  0
  3  7  4  0  0  0
  4 16  4  0  0  0
  5  6  1  0  0  0
 19  5  1  0  0  0
  6 18  2  0  0  0
  7 17  4  0  0  0
  7 19  1  0  0  0
  9  8  2  0  0  0
  9 10  1  0  0  0
  9 12  1  0  0  0
 10 11  1  0  0  0
 12 13  4  0  0  0
 13 14  4  0  0  0
 14 15  4  0  0  0
 16 17  4  0  0  0
 17 18  1  0  0  0
 19 20  2  0  0  0
  1 21  1  0  0  0
  3 22  1  0  0  0
  5 23  1  0  0  0
  6 24  1  0  0  0
 11 25  1  0  0  0
 11 26  1  0  0  0
 11 27  1  0  0  0
 13 28  1  0  0  0
 14 29  1  0  0  0
 15 30  1  0  0  0
 18 31  1  0  0  0
M  END
$$$$
