4ad2_ligand
  -I-interpret- 

 45 46  0  0  0  0  0  0  0  0999 V2000
  -46.7640   72.7020  -16.6000 C   0  0  0  0  0
  -46.2720   72.6240  -18.0430 C   0  0  0  0  0
  -44.8980   71.9770  -18.0530 C   0  0  0  0  0
  -43.9510   72.8050  -17.1810 C   0  0  0  0  0
  -44.4800   72.8870  -15.7490 C   0  0  0  0  0
  -43.6260   73.7910  -14.8370 C   0  0  0  0  0
  -47.1820   71.8870  -18.8240 O   0  0  0  0  0
  -44.4620   71.9090  -19.3940 O   0  0  0  0  0
  -42.7220   72.1450  -17.1270 O   0  0  0  0  0
  -45.8140   73.3880  -15.7760 O   0  0  0  0  0
  -44.1430   73.7550  -13.5090 O   0  0  0  0  0
  -49.2800   69.6450  -15.8480 O   0  0  0  0  0
  -48.4590   70.0040  -14.7040 C   0  0  0  0  0
  -47.8890   71.4220  -14.9190 C   0  0  0  0  0
  -47.0470   71.4020  -16.0600 O   0  0  0  0  0
  -47.0430   71.8920  -13.7250 C   0  0  0  0  0
  -47.8090   71.7990  -12.4950 N   0  3  0  0  0
  -48.4040   70.4970  -12.2070 C   0  0  0  0  0
  -49.2430   69.9740  -13.3900 C   0  0  0  0  0
  -49.8010   68.5950  -13.0350 C   0  0  0  0  0
  -48.7630   67.6200  -12.7980 O   0  0  0  0  0
  -47.6963   73.2668  -16.6071 H   0  0  0  0  0
  -46.2006   73.6242  -18.4703 H   0  0  0  0  0
  -44.9231   70.9675  -17.6425 H   0  0  0  0  0
  -43.8630   73.8058  -17.6039 H   0  0  0  0  0
  -44.4388   71.8799  -15.3341 H   0  0  0  0  0
  -43.6569   74.8147  -15.2102 H   0  0  0  0  0
  -42.5962   73.4338  -14.8347 H   0  0  0  0  0
  -48.0410   72.3151  -18.8018 H   0  0  0  0  0
  -45.0817   71.3827  -19.9045 H   0  0  0  0  0
  -42.3585   72.0750  -18.0127 H   0  0  0  0  0
  -43.6095   74.3185  -12.9437 H   0  0  0  0  0
  -49.6375   68.7633  -15.7198 H   0  0  0  0  0
  -47.6593   69.2673  -14.6272 H   0  0  0  0  0
  -48.7310   72.1035  -15.0403 H   0  0  0  0  0
  -46.7503   72.9299  -13.8836 H   0  0  0  0  0
  -46.1607   71.2572  -13.6429 H   0  0  0  0  0
  -48.5855   72.4533  -12.5915 H   0  0  0  0  0
  -47.1550   71.9889  -11.7357 H   0  0  0  0  0
  -49.0605   70.6047  -11.3436 H   0  0  0  0  0
  -47.5985   69.7871  -12.0191 H   0  0  0  0  0
  -50.0896   70.6385  -13.5624 H   0  0  0  0  0
  -50.4003   68.2488  -13.8771 H   0  0  0  0  0
  -50.3831   68.6945  -12.1188 H   0  0  0  0  0
  -49.1630   66.7750  -12.5799 H   0  0  0  0  0
  1  2  1  0  0  0
  1 10  1  0  0  0
 15  1  1  0  0  0
  2  3  1  0  0  0
  2  7  1  0  0  0
  3  4  1  0  0  0
  3  8  1  0  0  0
  5  4  1  0  0  0
  4  9  1  0  0  0
  5  6  1  0  0  0
 10  5  1  0  0  0
  6 11  1  0  0  0
 13 12  1  0  0  0
 14 13  1  0  0  0
 13 19  1  0  0  0
 14 15  1  0  0  0
 14 16  1  0  0  0
 16 17  1  0  0  0
 17 18  1  0  0  0
 18 19  1  0  0  0
 19 20  1  0  0  0
 20 21  1  0  0  0
  1 22  1  0  0  0
  2 23  1  0  0  0
  3 24  1  0  0  0
  4 25  1  0  0  0
  5 26  1  0  0  0
  6 27  1  0  0  0
  6 28  1  0  0  0
  7 29  1  0  0  0
  8 30  1  0  0  0
  9 31  1  0  0  0
 11 32  1  0  0  0
 12 33  1  0  0  0
 13 34  1  0  0  0
 14 35  1  0  0  0
 16 36  1  0  0  0
 16 37  1  0  0  0
 17 38  1  0  0  0
 17 39  1  0  0  0
 18 40  1  0  0  0
 18 41  1  0  0  0
 19 42  1  0  0  0
 20 43  1  0  0  0
 20 44  1  0  0  0
 21 45  1  0  0  0
M  END
$$$$
