2z7r_ligand
  -I-interpret- 

 62 69  0  0  0  0  0  0  0  0999 V2000
   -0.1620   -7.1300   25.4320 O   0  0  0  0  0
   -1.4890   -6.7410   25.0470 C   0  0  0  0  0
   -1.8190   -7.1200   23.5640 C   0  0  0  0  0
   -0.6160   -7.8240   22.8830 C   0  0  0  0  0
    0.6960   -6.9660   23.0330 C   0  0  0  0  0
    0.9900   -6.8750   24.6010 C   0  0  0  0  0
    1.9040   -8.0550   24.9410 C   0  0  0  0  0
    1.5970   -5.5100   24.9700 N   0  0  0  0  0
    0.7170   -4.4460   25.3810 C   0  0  0  0  0
   -0.6450   -4.3610   25.5240 C   0  0  0  0  0
   -1.3060   -3.1370   25.9480 C   0  0  0  0  0
   -0.3820   -1.9920   26.2180 C   0  0  0  0  0
    0.9360   -2.0740   26.0790 C   0  0  0  0  0
    1.5880   -3.2800   25.6480 C   0  0  0  0  0
    2.9140   -3.6510   25.4050 C   0  0  0  0  0
    2.9440   -5.0440   24.9730 C   0  0  0  0  0
    4.1650   -5.6310   24.6580 C   0  0  0  0  0
    5.3360   -4.9060   24.7500 C   0  0  0  0  0
    5.3420   -3.5150   25.1790 C   0  0  0  0  0
    4.1190   -2.9330   25.4940 C   0  0  0  0  0
    1.5910   -0.7230   26.4230 C   0  0  0  0  0
    0.3940    0.0230   26.7520 N   0  0  0  0  0
   -0.7730   -0.6210   26.6630 C   0  0  0  0  0
   -1.8810   -0.1920   26.8880 O   0  0  0  0  0
   -2.7010   -3.3610   25.9880 C   0  0  0  0  0
   -2.9100   -4.7370   25.5870 C   0  0  0  0  0
   -4.2250   -5.3160   25.5070 C   0  0  0  0  0
   -5.3240   -4.4940   25.8300 C   0  0  0  0  0
   -5.1210   -3.1280   26.2270 C   0  0  0  0  0
   -3.8390   -2.5900   26.3000 C   0  0  0  0  0
   -1.6940   -5.3070   25.3230 N   0  0  0  0  0
    0.3800   -5.6550   22.4960 O   0  0  0  0  0
    1.3950   -5.1690   21.6410 C   0  0  0  0  0
   -0.9660   -8.0480   21.3630 N   0  3  0  0  0
   -1.6300   -9.3720   21.1720 C   0  0  0  0  0
   -2.1969   -7.3069   25.6527 H   0  0  0  0  0
   -2.0442   -6.2065   23.0136 H   0  0  0  0  0
   -2.6687   -7.8027   23.5605 H   0  0  0  0  0
   -0.4317   -8.7839   23.3653 H   0  0  0  0  0
    1.5621   -7.3809   22.5174 H   0  0  0  0  0
    2.8430   -7.9542   24.3967 H   0  0  0  0  0
    2.1028   -8.0619   26.0127 H   0  0  0  0  0
    1.4148   -8.9861   24.6549 H   0  0  0  0  0
    4.1974   -6.6718   24.3359 H   0  0  0  0  0
    6.2801   -5.3873   24.4949 H   0  0  0  0  0
    6.2714   -2.9501   25.2507 H   0  0  0  0  0
    4.0942   -1.8927   25.8184 H   0  0  0  0  0
    2.2027   -0.2905   25.6313 H   0  0  0  0  0
    2.3436   -0.7609   27.2105 H   0  0  0  0  0
    0.4402    1.0004   27.0400 H   0  0  0  0  0
   -4.3665   -6.3543   25.2070 H   0  0  0  0  0
   -6.3352   -4.8977   25.7782 H   0  0  0  0  0
   -5.9810   -2.5055   26.4740 H   0  0  0  0  0
   -3.7127   -1.5511   26.6047 H   0  0  0  0  0
    2.3298   -5.0916   22.1962 H   0  0  0  0  0
    1.5235   -5.8560   20.8046 H   0  0  0  0  0
    1.1117   -4.1859   21.2651 H   0  0  0  0  0
   -0.1048   -8.0261   20.8168 H   0  0  0  0  0
   -1.6002   -7.3106   21.0557 H   0  0  0  0  0
   -0.9591  -10.1646   21.5032 H   0  0  0  0  0
   -2.5490   -9.4039   21.7572 H   0  0  0  0  0
   -1.8648   -9.5104   20.1166 H   0  0  0  0  0
  1  2  1  0  0  0
  1  6  1  0  0  0
  2  3  1  0  0  0
  2 31  1  0  0  0
  3  4  1  0  0  0
  4  5  1  0  0  0
  4 34  1  0  0  0
  5  6  1  0  0  0
  5 32  1  0  0  0
  6  7  1  0  0  0
  6  8  1  0  0  0
  8  9  4  0  0  0
  8 16  4  0  0  0
  9 10  4  0  0  0
  9 14  4  0  0  0
 10 11  4  0  0  0
 10 31  4  0  0  0
 11 12  4  0  0  0
 11 25  4  0  0  0
 12 13  4  0  0  0
 12 23  1  0  0  0
 13 14  4  0  0  0
 13 21  1  0  0  0
 14 15  4  0  0  0
 15 16  4  0  0  0
 15 20  4  0  0  0
 16 17  4  0  0  0
 17 18  4  0  0  0
 18 19  4  0  0  0
 19 20  4  0  0  0
 21 22  1  0  0  0
 22 23  1  0  0  0
 23 24  2  0  0  0
 25 26  4  0  0  0
 25 30  4  0  0  0
 26 27  4  0  0  0
 26 31  4  0  0  0
 27 28  4  0  0  0
 28 29  4  0  0  0
 29 30  4  0  0  0
 32 33  1  0  0  0
 34 35  1  0  0  0
  2 36  1  0  0  0
  3 37  1  0  0  0
  3 38  1  0  0  0
  4 39  1  0  0  0
  5 40  1  0  0  0
  7 41  1  0  0  0
  7 42  1  0  0  0
  7 43  1  0  0  0
 17 44  1  0  0  0
 18 45  1  0  0  0
 19 46  1  0  0  0
 20 47  1  0  0  0
 21 48  1  0  0  0
 21 49  1  0  0  0
 22 50  1  0  0  0
 27 51  1  0  0  0
 28 52  1  0  0  0
 29 53  1  0  0  0
 30 54  1  0  0  0
 33 55  1  0  0  0
 33 56  1  0  0  0
 33 57  1  0  0  0
 34 58  1  0  0  0
 34 59  1  0  0  0
 35 60  1  0  0  0
 35 61  1  0  0  0
 35 62  1  0  0  0
M  END
$$$$
