3eyu_ligand
  -I-interpret- 

105106  0  0  0  0  0  0  0  0999 V2000
   31.8620  -18.9080  -34.3030 N   0  3  0  0  0
   30.4530  -19.3380  -34.5490 C   0  0  0  0  0
   29.9840  -20.4620  -33.6080 C   0  0  0  0  0
   30.7980  -21.2170  -33.0570 O   0  0  0  0  0
   30.2840  -19.7770  -36.0090 C   0  0  0  0  0
   30.6540  -18.7240  -37.0420 C   0  0  0  0  0
   29.6270  -17.6030  -37.1450 C   0  0  0  0  0
   28.7420  -17.6810  -38.0290 O   0  0  0  0  0
   29.7010  -16.6470  -36.3390 O   0  0  0  0  0
   28.6640  -20.5400  -33.4270 N   0  0  0  0  0
   27.9780  -21.6700  -32.7760 C   0  0  0  0  0
   27.8990  -22.8490  -33.7550 C   0  0  0  0  0
   27.7440  -22.6440  -34.9640 O   0  0  0  0  0
   26.5590  -21.2470  -32.3370 C   0  0  0  0  0
   25.8250  -22.2740  -31.4820 C   0  0  0  0  0
   26.2200  -22.5280  -30.1600 C   0  0  0  0  0
   24.7100  -22.9520  -31.9850 C   0  0  0  0  0
   25.5350  -23.4620  -29.3730 C   0  0  0  0  0
   24.0140  -23.8870  -31.2020 C   0  0  0  0  0
   24.4300  -24.1430  -29.8990 C   0  0  0  0  0
   28.0030  -24.0700  -33.2310 N   0  0  0  0  0
   28.0410  -25.2900  -34.0540 C   0  0  0  0  0
   26.7400  -25.5380  -34.8630 C   0  0  0  0  0
   25.6390  -25.5870  -34.2960 O   0  0  0  0  0
   28.3900  -26.4990  -33.1720 C   0  0  0  0  0
   28.8270  -27.7400  -33.9160 C   0  0  0  0  0
   29.4280  -28.7500  -32.9550 C   0  0  0  0  0
   29.7820  -30.0140  -33.6040 N   0  0  0  0  0
   30.0340  -31.1450  -32.9510 C   0  0  0  0  0
   29.9620  -31.1730  -31.6270 N   0  0  0  0  0
   30.3460  -32.2510  -33.6160 N   0  0  0  0  0
   26.8920  -25.6770  -36.1830 N   0  0  0  0  0
   25.7950  -25.9560  -37.1170 C   0  0  0  0  0
   26.3550  -26.6990  -38.3230 C   0  0  0  0  0
   27.5190  -26.5360  -38.6740 O   0  0  0  0  0
   25.1510  -24.6600  -37.6200 C   0  0  0  0  0
   24.3950  -23.8980  -36.5750 C   0  0  0  0  0
   23.0870  -24.1800  -36.2480 N   0  0  0  0  0
   24.7560  -22.8490  -35.8010 C   0  0  0  0  0
   22.6800  -23.3490  -35.3060 C   0  0  0  0  0
   23.6720  -22.5300  -35.0200 N   0  0  0  0  0
   25.5310  -27.5070  -38.9720 N   0  0  0  0  0
   25.9850  -28.2030  -40.1600 C   0  0  0  0  0
   25.0150  -28.0390  -41.3140 C   0  0  0  0  0
   23.8260  -28.3490  -41.1950 O   0  0  0  0  0
   26.2180  -29.6880  -39.8750 C   0  0  0  0  0
   27.2940  -29.9760  -38.8410 C   0  0  0  0  0
   27.5040  -31.4600  -38.6370 C   0  0  0  0  0
   26.7500  -32.2610  -39.2390 O   0  0  0  0  0
   28.4270  -31.8340  -37.8770 O   0  0  0  0  0
   25.5390  -27.5310  -42.4230 N   0  0  0  0  0
   24.8470  -27.5680  -43.7040 C   0  0  0  0  0
   25.7860  -28.1950  -44.7130 C   0  0  0  0  0
   26.9590  -27.8210  -44.7850 O   0  0  0  0  0
   24.4320  -26.1700  -44.1510 C   0  0  0  0  0
   25.3990  -29.0960  -45.4570 O   0  0  0  0  0
   31.9629  -18.6185  -33.3302 H   0  0  0  0  0
   32.4922  -19.6868  -34.4944 H   0  0  0  0  0
   32.0897  -18.1260  -34.9171 H   0  0  0  0  0
   29.8249  -18.4720  -34.3402 H   0  0  0  0  0
   29.2265  -19.9998  -36.1508 H   0  0  0  0  0
   30.9562  -20.6209  -36.1643 H   0  0  0  0  0
   30.7065  -19.2161  -38.0132 H   0  0  0  0  0
   31.6013  -18.2791  -36.7375 H   0  0  0  0  0
   28.8667  -18.4874  -38.5347 H   0  0  0  0  0
   28.0914  -19.7651  -33.7619 H   0  0  0  0  0
   28.5390  -21.9728  -31.8918 H   0  0  0  0  0
   25.9722  -21.1127  -33.2457 H   0  0  0  0  0
   26.6690  -20.3486  -31.7297 H   0  0  0  0  0
   27.0709  -21.9915  -29.7401 H   0  0  0  0  0
   24.3754  -22.7511  -33.0027 H   0  0  0  0  0
   25.8615  -23.6588  -28.3519 H   0  0  0  0  0
   23.1509  -24.4104  -31.6134 H   0  0  0  0  0
   23.8969  -24.8721  -29.2889 H   0  0  0  0  0
   28.0586  -24.1631  -32.2168 H   0  0  0  0  0
   28.8203  -25.1459  -34.8024 H   0  0  0  0  0
   27.4805  -26.7636  -32.6327 H   0  0  0  0  0
   29.2320  -26.1970  -32.5491 H   0  0  0  0  0
   29.5782  -27.4639  -34.6560 H   0  0  0  0  0
   27.9595  -28.1859  -34.4025 H   0  0  0  0  0
   28.6822  -28.9661  -32.1900 H   0  0  0  0  0
   30.3418  -28.3181  -32.5469 H   0  0  0  0  0
   29.8390  -30.0280  -34.6223 H   0  0  0  0  0
   29.7138  -30.3284  -31.1118 H   0  0  0  0  0
   30.5290  -33.1167  -33.1086 H   0  0  0  0  0
   30.4027  -32.2350  -34.6343 H   0  0  0  0  0
   27.8323  -25.5830  -36.5669 H   0  0  0  0  0
   25.0441  -26.5485  -36.5943 H   0  0  0  0  0
   24.4351  -24.9380  -38.3935 H   0  0  0  0  0
   25.9588  -24.0144  -37.9647 H   0  0  0  0  0
   25.7253  -22.3504  -35.7977 H   0  0  0  0  0
   21.6927  -23.3417  -34.8441 H   0  0  0  0  0
   24.5770  -27.6398  -38.6362 H   0  0  0  0  0
   26.9331  -27.7501  -40.4498 H   0  0  0  0  0
   26.5469  -30.1423  -40.8096 H   0  0  0  0  0
   25.2834  -30.0851  -39.4789 H   0  0  0  0  0
   26.9779  -29.5436  -37.8917 H   0  0  0  0  0
   28.2305  -29.5456  -39.1957 H   0  0  0  0  0
   26.1160  -31.7681  -39.7650 H   0  0  0  0  0
   26.4615  -27.0983  -42.3761 H   0  0  0  0  0
   23.9325  -28.1545  -43.6153 H   0  0  0  0  0
   27.1094  -27.1186  -44.1481 H   0  0  0  0  0
   23.7634  -25.7358  -43.4077 H   0  0  0  0  0
   25.3188  -25.5445  -44.2534 H   0  0  0  0  0
   23.9183  -26.2342  -45.1102 H   0  0  0  0  0
  1  2  1  0  0  0
  2  3  1  0  0  0
  2  5  1  0  0  0
  3  4  2  0  0  0
  3 10  1  0  0  0
  5  6  1  0  0  0
  6  7  1  0  0  0
  7  8  1  0  0  0
  7  9  2  0  0  0
 10 11  1  0  0  0
 11 12  1  0  0  0
 11 14  1  0  0  0
 12 13  2  0  0  0
 12 21  1  0  0  0
 14 15  1  0  0  0
 15 16  4  0  0  0
 15 17  4  0  0  0
 16 18  4  0  0  0
 17 19  4  0  0  0
 18 20  4  0  0  0
 19 20  4  0  0  0
 21 22  1  0  0  0
 22 23  1  0  0  0
 22 25  1  0  0  0
 23 24  2  0  0  0
 23 32  1  0  0  0
 25 26  1  0  0  0
 26 27  1  0  0  0
 27 28  1  0  0  0
 28 29  1  0  0  0
 29 30  2  0  0  0
 29 31  1  0  0  0
 32 33  1  0  0  0
 33 34  1  0  0  0
 33 36  1  0  0  0
 34 35  2  0  0  0
 34 42  1  0  0  0
 36 37  1  0  0  0
 37 38  4  0  0  0
 37 39  4  0  0  0
 38 40  4  0  0  0
 39 41  4  0  0  0
 40 41  4  0  0  0
 42 43  1  0  0  0
 43 44  1  0  0  0
 43 46  1  0  0  0
 44 45  2  0  0  0
 44 51  1  0  0  0
 46 47  1  0  0  0
 47 48  1  0  0  0
 48 49  1  0  0  0
 48 50  2  0  0  0
 51 52  1  0  0  0
 52 53  1  0  0  0
 52 55  1  0  0  0
 53 54  1  0  0  0
 53 56  2  0  0  0
  1 57  1  0  0  0
  1 58  1  0  0  0
  1 59  1  0  0  0
  2 60  1  0  0  0
  5 61  1  0  0  0
  5 62  1  0  0  0
  6 63  1  0  0  0
  6 64  1  0  0  0
  8 65  1  0  0  0
 10 66  1  0  0  0
 11 67  1  0  0  0
 14 68  1  0  0  0
 14 69  1  0  0  0
 16 70  1  0  0  0
 17 71  1  0  0  0
 18 72  1  0  0  0
 19 73  1  0  0  0
 20 74  1  0  0  0
 21 75  1  0  0  0
 22 76  1  0  0  0
 25 77  1  0  0  0
 25 78  1  0  0  0
 26 79  1  0  0  0
 26 80  1  0  0  0
 27 81  1  0  0  0
 27 82  1  0  0  0
 28 83  1  0  0  0
 30 84  1  0  0  0
 31 85  1  0  0  0
 31 86  1  0  0  0
 32 87  1  0  0  0
 33 88  1  0  0  0
 36 89  1  0  0  0
 36 90  1  0  0  0
 39 91  1  0  0  0
 40 92  1  0  0  0
 42 93  1  0  0  0
 43 94  1  0  0  0
 46 95  1  0  0  0
 46 96  1  0  0  0
 47 97  1  0  0  0
 47 98  1  0  0  0
 49 99  1  0  0  0
 51100  1  0  0  0
 52101  1  0  0  0
 54102  1  0  0  0
 55103  1  0  0  0
 55104  1  0  0  0
 55105  1  0  0  0
M  END
$$$$
