### 
### Created by X-TOOL on Mon Sep 10 21:13:00 2018
### 

@<TRIPOS>MOLECULE
3eyu_ligand
  104   105     1     0     0
SMALL
GAST_HUCK


@<TRIPOS>ATOM
      1 N          31.8620  -18.9080  -34.3030 N.4       1 GLU         0.2380
      2 CA         30.4530  -19.3380  -34.5490 C.3       1 GLU         0.0665
      3 C          29.9840  -20.4620  -33.6080 C.2       1 GLU         0.2269
      4 O          30.7980  -21.2170  -33.0570 O.2       1 GLU        -0.3907
      5 CB         30.2840  -19.7770  -36.0090 C.3       1 GLU         0.0194
      6 CG         30.6540  -18.7240  -37.0420 C.3       1 GLU         0.0075
      7 CD         29.6270  -17.6030  -37.1450 C.2       1 GLU         0.0351
      8 OE1        28.7420  -17.6810  -38.0290 O.co2     1 GLU        -0.5690
      9 OE2        29.7010  -16.6470  -36.3390 O.co2     1 GLU        -0.5690
     10 N          28.6640  -20.5400  -33.4270 N.am      1 PHE        -0.2592
     11 CA         27.9780  -21.6700  -32.7760 C.3       1 PHE         0.1406
     12 C          27.8990  -22.8490  -33.7550 C.2       1 PHE         0.2060
     13 O          27.7440  -22.6440  -34.9640 O.2       1 PHE        -0.3942
     14 CB         26.5590  -21.2470  -32.3370 C.3       1 PHE         0.0214
     15 CG         25.8250  -22.2740  -31.4820 C.ar      1 PHE        -0.0386
     16 CD1        26.2200  -22.5280  -30.1600 C.ar      1 PHE        -0.0601
     17 CD2        24.7100  -22.9520  -31.9850 C.ar      1 PHE        -0.0601
     18 CE1        25.5350  -23.4620  -29.3730 C.ar      1 PHE        -0.0686
     19 CE2        24.0140  -23.8870  -31.2020 C.ar      1 PHE        -0.0686
     20 CZ         24.4300  -24.1430  -29.8990 C.ar      1 PHE        -0.0687
     21 N          28.0030  -24.0700  -33.2310 N.am      1 ARG        -0.2636
     22 CA         28.0410  -25.2900  -34.0540 C.3       1 ARG         0.1311
     23 C          26.7400  -25.5380  -34.8630 C.2       1 ARG         0.2040
     24 O          25.6390  -25.5870  -34.2960 O.2       1 ARG        -0.3944
     25 CB         28.3900  -26.4990  -33.1720 C.3       1 ARG        -0.0092
     26 CG         28.8270  -27.7400  -33.9160 C.3       1 ARG        -0.0156
     27 CD         29.4280  -28.7500  -32.9550 C.3       1 ARG         0.0627
     28 NE         29.7820  -30.0140  -33.6040 N.pl3     1 ARG        -0.2723
     29 CZ         30.0340  -31.1450  -32.9510 C.cat     1 ARG         0.2882
     30 NH1        29.9620  -31.1730  -31.6270 N.pl3     1 ARG        -0.2849
     31 NH2        30.3460  -32.2510  -33.6160 N.pl3     1 ARG        -0.2849
     32 N          26.8920  -25.6770  -36.1830 N.am      1 HIS        -0.2625
     33 CA         25.7950  -25.9560  -37.1170 C.3       1 HIS         0.1369
     34 C          26.3550  -26.6990  -38.3230 C.2       1 HIS         0.2054
     35 O          27.5190  -26.5360  -38.6740 O.2       1 HIS        -0.3942
     36 CB         25.1510  -24.6600  -37.6200 C.3       1 HIS         0.0145
     37 CG         24.3950  -23.8980  -36.5750 C.2       1 HIS        -0.0027
     38 ND1        23.0870  -24.1800  -36.2480 N.2       1 HIS        -0.3252
     39 CD2        24.7560  -22.8490  -35.8010 C.2       1 HIS         0.0291
     40 CE1        22.6800  -23.3490  -35.3060 C.2       1 HIS         0.0907
     41 NE2        23.6720  -22.5300  -35.0200 N.pl3     1 HIS        -0.2752
     42 N          25.5310  -27.5070  -38.9720 N.am      1 GLU        -0.2635
     43 CA         25.9850  -28.2030  -40.1600 C.3       1 GLU         0.1324
     44 C          25.0150  -28.0390  -41.3140 C.2       1 GLU         0.2034
     45 O          23.8260  -28.3490  -41.1950 O.2       1 GLU        -0.3944
     46 CB         26.2180  -29.6880  -39.8750 C.3       1 GLU        -0.0008
     47 CG         27.2940  -29.9760  -38.8410 C.3       1 GLU         0.0044
     48 CD         27.5040  -31.4600  -38.6370 C.2       1 GLU         0.0350
     49 OE1        26.7500  -32.2610  -39.2390 O.co2     1 GLU        -0.5690
     50 OE2        28.4270  -31.8340  -37.8770 O.co2     1 GLU        -0.5690
     51 N          25.5390  -27.5310  -42.4230 N.am      1 ALA        -0.2698
     52 CA         24.8470  -27.5680  -43.7040 C.3       1 ALA         0.0916
     53 C          25.7860  -28.1950  -44.7130 C.2       1 ALA         0.0598
     54 O          26.9590  -27.8210  -44.7850 O.co2     1 ALA        -0.5666
     55 CB         24.4320  -26.1700  -44.1510 C.3       1 ALA        -0.0300
     56 OXT        25.3990  -29.0960  -45.4570 O.co2     1 ALA        -0.5666
     57 H1         32.1066  -18.1734  -34.9485 H         1 GLU         0.2015
     58 H2         32.4809  -19.6924  -34.4364 H         1 GLU         0.2015
     59 H3         31.9494  -18.5679  -33.3582 H         1 GLU         0.2015
     60 H4         29.8051  -18.4664  -34.3743 H         1 GLU         0.1099
     61 H5         29.2300  -20.0513  -36.1634 H         1 GLU         0.0363
     62 H6         30.9206  -20.6583  -36.1766 H         1 GLU         0.0363
     63 H7         30.7399  -19.2117  -38.0242 H         1 GLU         0.0434
     64 H8         31.6240  -18.2860  -36.7639 H         1 GLU         0.0434
     65 H9         28.1026  -19.7803  -33.7553 H         1 PHE         0.1886
     66 H10        28.5506  -21.9765  -31.8882 H         1 PHE         0.0823
     67 H11        25.9607  -21.0636  -33.2416 H         1 PHE         0.0474
     68 H12        26.6427  -20.3157  -31.7577 H         1 PHE         0.0474
     69 H13        27.0662  -21.9945  -29.7424 H         1 PHE         0.0557
     70 H14        24.3772  -22.7522  -32.9971 H         1 PHE         0.0557
     71 H15        25.8597  -23.6578  -28.3575 H         1 PHE         0.0599
     72 H16        23.1557  -24.4075  -31.6111 H         1 PHE         0.0599
     73 H17        23.8998  -24.8681  -29.2923 H         1 PHE         0.0559
     74 H18        28.0575  -24.1613  -32.2367 H         1 ARG         0.1883
     75 H19        28.8531  -25.1643  -34.7852 H         1 ARG         0.0800
     76 H20        27.4995  -26.7548  -32.5791 H         1 ARG         0.0313
     77 H21        29.2068  -26.2025  -32.4976 H         1 ARG         0.0313
     78 H22        29.5796  -27.4646  -34.6695 H         1 ARG         0.0301
     79 H23        27.9556  -28.1889  -34.4151 H         1 ARG         0.0301
     80 H24        28.6962  -28.9566  -32.1601 H         1 ARG         0.0689
     81 H25        30.3369  -28.3160  -32.5129 H         1 ARG         0.0689
     82 H26        29.8396  -30.0282  -34.6323 H         1 ARG         0.2642
     83 H27        30.1567  -32.0476  -31.1190 H         1 ARG         0.2615
     84 H28        29.7114  -30.3201  -31.1067 H         1 ARG         0.2615
     85 H29        30.4033  -32.2348  -34.6443 H         1 ARG         0.2615
     86 H30        30.5308  -33.1252  -33.1036 H         1 ARG         0.2615
     87 H31        27.8139  -25.5849  -36.5593 H         1 HIS         0.1885
     88 H32        25.0357  -26.5726  -36.6138 H         1 HIS         0.0817
     89 H33        24.4537  -24.9149  -38.4316 H         1 HIS         0.0420
     90 H34        25.9472  -24.0096  -38.0113 H         1 HIS         0.0420
     91 H35        25.7244  -22.3508  -35.7977 H         1 HIS         0.0729
     92 H36        21.6936  -23.3417  -34.8445 H         1 HIS         0.1199
     93 H37        23.6397  -21.7724  -34.3229 H         1 HIS         0.2361
     94 H38        24.5957  -27.6372  -38.6428 H         1 GLU         0.1883
     95 H39        26.9457  -27.7595  -40.4605 H         1 GLU         0.0801
     96 H40        26.5089  -30.1760  -40.8169 H         1 GLU         0.0330
     97 H41        25.2727  -30.1201  -39.5149 H         1 GLU         0.0330
     98 H42        26.9954  -29.5251  -37.8832 H         1 GLU         0.0433
     99 H43        28.2397  -29.5270  -39.1786 H         1 GLU         0.0433
    100 H44        26.4434  -27.1067  -42.3770 H         1 ALA         0.1875
    101 H45        23.9442  -28.1894  -43.6105 H         1 ALA         0.0723
    102 H46        23.9134  -26.2334  -45.1190 H         1 ALA         0.0270
    103 H47        25.3261  -25.5377  -44.2548 H         1 ALA         0.0270
    104 H48        23.7571  -25.7307  -43.4017 H         1 ALA         0.0270
@<TRIPOS>BOND
     1    1    2 1  
     2    2    3 1  
     3    2    5 1  
     4    3    4 2  
     5    3   10 am 
     6    5    6 1  
     7    6    7 1  
     8    7    8 ar 
     9    7    9 ar 
    10   10   11 1  
    11   11   12 1  
    12   11   14 1  
    13   12   13 2  
    14   12   21 am 
    15   14   15 1  
    16   15   16 ar 
    17   15   17 ar 
    18   16   18 ar 
    19   17   19 ar 
    20   18   20 ar 
    21   19   20 ar 
    22   21   22 1  
    23   22   23 1  
    24   22   25 1  
    25   23   24 2  
    26   23   32 am 
    27   25   26 1  
    28   26   27 1  
    29   27   28 1  
    30   28   29 ar 
    31   29   30 ar 
    32   29   31 ar 
    33   32   33 1  
    34   33   34 1  
    35   33   36 1  
    36   34   35 2  
    37   34   42 am 
    38   36   37 1  
    39   37   38 1  
    40   37   39 2  
    41   38   40 2  
    42   39   41 1  
    43   40   41 1  
    44   42   43 1  
    45   43   44 1  
    46   43   46 1  
    47   44   45 2  
    48   44   51 am 
    49   46   47 1  
    50   47   48 1  
    51   48   49 ar 
    52   48   50 ar 
    53   51   52 1  
    54   52   53 1  
    55   52   55 1  
    56   53   54 ar 
    57   53   56 ar 
    58    1   57 1  
    59    1   58 1  
    60    1   59 1  
    61    2   60 1  
    62    5   61 1  
    63    5   62 1  
    64    6   63 1  
    65    6   64 1  
    66   10   65 1  
    67   11   66 1  
    68   14   67 1  
    69   14   68 1  
    70   16   69 1  
    71   17   70 1  
    72   18   71 1  
    73   19   72 1  
    74   20   73 1  
    75   21   74 1  
    76   22   75 1  
    77   25   76 1  
    78   25   77 1  
    79   26   78 1  
    80   26   79 1  
    81   27   80 1  
    82   27   81 1  
    83   28   82 1  
    84   30   83 1  
    85   30   84 1  
    86   31   85 1  
    87   31   86 1  
    88   32   87 1  
    89   33   88 1  
    90   36   89 1  
    91   36   90 1  
    92   39   91 1  
    93   40   92 1  
    94   41   93 1  
    95   42   94 1  
    96   43   95 1  
    97   46   96 1  
    98   46   97 1  
    99   47   98 1  
   100   47   99 1  
   101   51  100 1  
   102   52  101 1  
   103   55  102 1  
   104   55  103 1  
   105   55  104 1  
@<TRIPOS>SUBSTRUCTURE
     1 GLU         1

