### 
### Created by X-TOOL on Mon Sep 10 21:13:14 2018
### 

@<TRIPOS>MOLECULE
4mq2_ligand
   40    42     1     0     0
SMALL
GAST_HUCK


@<TRIPOS>ATOM
      1 N3         44.3860   17.2690  -38.9500 N.ar      1 2C4        -0.2505
      2 C4         44.4440   16.2660  -38.0570 C.ar      1 2C4         0.2362
      3 C6         44.8770   14.0320  -37.8550 C.3       1 2C4         0.0694
      4 C8         42.8260   17.2930  -36.6820 C.ar      1 2C4         0.1693
      5 C10        41.1490   18.4290  -35.2930 C.2       1 2C4         0.2311
      6 C13        41.8850   19.4330  -37.3400 C.2       1 2C4        -0.0147
      7 C17        38.3810   21.4000  -34.8570 C.ar      1 2C4         0.0852
      8 C20        36.3100   23.0910  -34.1770 C.ar      1 2C4        -0.0555
      9 C21        36.7800   22.1620  -33.2770 C.ar      1 2C4        -0.0557
     10 C22        37.8070   21.3220  -33.6150 C.ar      1 2C4         0.0643
     11 C24        36.3380   24.1220  -36.3190 C.2       1 2C4         0.2595
     12 O11        40.4500   18.4280  -34.2650 O.2       1 2C4        -0.3967
     13 N9         42.0310   17.3560  -35.5300 N.am      1 2C4        -0.2072
     14 N7         43.6750   16.2560  -36.9250 N.ar      1 2C4        -0.2193
     15 O5         45.3280   15.2890  -38.3760 O.3       1 2C4        -0.2798
     16 C2         43.5280   18.3650  -38.7180 C.ar      1 2C4         0.0231
     17 C1         42.7370   18.3610  -37.5770 C.ar      1 2C4         0.0611
     18 C12        41.0810   19.4820  -36.2090 C.2       1 2C4         0.1242
     19 C14        40.1900   20.5620  -36.0560 C.2       1 2C4         0.2284
     20 O15        40.1140   21.4560  -36.8980 O.2       1 2C4        -0.3833
     21 N16        39.3310   20.4810  -35.0240 N.am      1 2C4        -0.2342
     22 C18        37.9060   22.3070  -35.7990 C.ar      1 2C4        -0.0197
     23 CL2        38.3730   20.1550  -32.4430 Cl        1 2C4        -0.0787
     24 C19        36.8570   23.1640  -35.4430 C.ar      1 2C4         0.0486
     25 O25        35.4440   24.9000  -35.9680 O.2       1 2C4        -0.3569
     26 O26        36.8940   24.0840  -37.5730 O.3       1 2C4        -0.2810
     27 C27        36.4200   25.1110  -38.4410 C.3       1 2C4         0.0647
     28 H1         45.5996   13.2455  -38.1182 H         1 2C4         0.0594
     29 H2         43.8953   13.7872  -38.2865 H         1 2C4         0.0594
     30 H3         44.7902   14.0986  -36.7605 H         1 2C4         0.0594
     31 H4         41.8471   20.2521  -38.0566 H         1 2C4         0.0835
     32 H5         35.5105   23.7654  -33.8922 H         1 2C4         0.0542
     33 H6         36.3331   22.0947  -32.2917 H         1 2C4         0.0594
     34 H7         42.0912   16.6187  -34.8571 H         1 2C4         0.2469
     35 H8         43.4873   19.1931  -39.4163 H         1 2C4         0.0929
     36 H9         39.4062   19.7234  -34.3756 H         1 2C4         0.2249
     37 H10        38.3403   22.3496  -36.7913 H         1 2C4         0.0555
     38 H11        36.9082   25.0161  -39.4222 H         1 2C4         0.0575
     39 H12        36.6552   26.0945  -38.0081 H         1 2C4         0.0575
     40 H13        35.3310   25.0148  -38.5625 H         1 2C4         0.0575
@<TRIPOS>BOND
     1    1    2 ar 
     2   16    1 ar 
     3   14    2 ar 
     4    2   15 1  
     5   15    3 1  
     6   13    4 1  
     7    4   14 ar 
     8   17    4 ar 
     9    5   12 2  
    10    5   13 am 
    11   18    5 1  
    12    6   17 1  
    13   18    6 2  
    14    7   10 ar 
    15   21    7 1  
    16    7   22 ar 
    17    9    8 ar 
    18    8   24 ar 
    19   10    9 ar 
    20   10   23 1  
    21   24   11 1  
    22   11   25 2  
    23   11   26 1  
    24   17   16 ar 
    25   19   18 1  
    26   19   20 2  
    27   19   21 am 
    28   22   24 ar 
    29   26   27 1  
    30    3   28 1  
    31    3   29 1  
    32    3   30 1  
    33    6   31 1  
    34    8   32 1  
    35    9   33 1  
    36   13   34 1  
    37   16   35 1  
    38   21   36 1  
    39   22   37 1  
    40   27   38 1  
    41   27   39 1  
    42   27   40 1  
@<TRIPOS>SUBSTRUCTURE
     1 2C4         1

