4mq2_ligand
  -I-interpret- 

 40 42  0  0  0  0  0  0  0  0999 V2000
   44.3860   17.2690  -38.9500 N   0  0  0  0  0
   44.4440   16.2660  -38.0570 C   0  0  0  0  0
   44.8770   14.0320  -37.8550 C   0  0  0  0  0
   42.8260   17.2930  -36.6820 C   0  0  0  0  0
   41.1490   18.4290  -35.2930 C   0  0  0  0  0
   41.8850   19.4330  -37.3400 C   0  0  0  0  0
   38.3810   21.4000  -34.8570 C   0  0  0  0  0
   36.3100   23.0910  -34.1770 C   0  0  0  0  0
   36.7800   22.1620  -33.2770 C   0  0  0  0  0
   37.8070   21.3220  -33.6150 C   0  0  0  0  0
   36.3380   24.1220  -36.3190 C   0  0  0  0  0
   40.4500   18.4280  -34.2650 O   0  0  0  0  0
   42.0310   17.3560  -35.5300 N   0  0  0  0  0
   43.6750   16.2560  -36.9250 N   0  0  0  0  0
   45.3280   15.2890  -38.3760 O   0  0  0  0  0
   43.5280   18.3650  -38.7180 C   0  0  0  0  0
   42.7370   18.3610  -37.5770 C   0  0  0  0  0
   41.0810   19.4820  -36.2090 C   0  0  0  0  0
   40.1900   20.5620  -36.0560 C   0  0  0  0  0
   40.1140   21.4560  -36.8980 O   0  0  0  0  0
   39.3310   20.4810  -35.0240 N   0  0  0  0  0
   37.9060   22.3070  -35.7990 C   0  0  0  0  0
   38.3730   20.1550  -32.4430 Cl  0  0  0  0  0
   36.8570   23.1640  -35.4430 C   0  0  0  0  0
   35.4440   24.9000  -35.9680 O   0  0  0  0  0
   36.8940   24.0840  -37.5730 O   0  0  0  0  0
   36.4200   25.1110  -38.4410 C   0  0  0  0  0
   44.7913   14.0994  -36.7705 H   0  0  0  0  0
   43.9042   13.7906  -38.2833 H   0  0  0  0  0
   45.5938   13.2536  -38.1165 H   0  0  0  0  0
   41.8471   20.2529  -38.0573 H   0  0  0  0  0
   35.5061   23.7691  -33.8907 H   0  0  0  0  0
   36.3306   22.0943  -32.2862 H   0  0  0  0  0
   42.0924   16.6040  -34.8436 H   0  0  0  0  0
   43.4871   19.1977  -39.4202 H   0  0  0  0  0
   39.4077   19.7082  -34.3627 H   0  0  0  0  0
   38.3427   22.3499  -36.7968 H   0  0  0  0  0
   35.3409   25.0146  -38.5605 H   0  0  0  0  0
   36.6536   26.0849  -38.0109 H   0  0  0  0  0
   36.9044   25.0159  -39.4128 H   0  0  0  0  0
  1  2  4  0  0  0
 16  1  4  0  0  0
 14  2  4  0  0  0
  2 15  1  0  0  0
 15  3  1  0  0  0
 13  4  1  0  0  0
  4 14  4  0  0  0
 17  4  4  0  0  0
  5 12  2  0  0  0
  5 13  1  0  0  0
 18  5  1  0  0  0
  6 17  1  0  0  0
 18  6  2  0  0  0
  7 10  4  0  0  0
 21  7  1  0  0  0
  7 22  4  0  0  0
  9  8  4  0  0  0
  8 24  4  0  0  0
 10  9  4  0  0  0
 10 23  1  0  0  0
 24 11  1  0  0  0
 11 25  2  0  0  0
 11 26  1  0  0  0
 17 16  4  0  0  0
 19 18  1  0  0  0
 19 20  2  0  0  0
 19 21  1  0  0  0
 22 24  4  0  0  0
 26 27  1  0  0  0
  3 28  1  0  0  0
  3 29  1  0  0  0
  3 30  1  0  0  0
  6 31  1  0  0  0
  8 32  1  0  0  0
  9 33  1  0  0  0
 13 34  1  0  0  0
 16 35  1  0  0  0
 21 36  1  0  0  0
 22 37  1  0  0  0
 27 38  1  0  0  0
 27 39  1  0  0  0
 27 40  1  0  0  0
M  END
$$$$
