4mrw_ligand
  -I-interpret- 

 18 19  0  0  0  0  0  0  0  0999 V2000
    3.0590  -26.2230  -35.8960 O   0  0  0  0  0
    3.8100  -27.2400  -35.5050 C   0  0  0  0  0
    4.3810  -28.0580  -36.4690 C   0  0  0  0  0
    5.1610  -29.1270  -36.0570 C   0  0  0  0  0
    5.3710  -29.3800  -34.7470 N   0  0  0  0  0
    4.8270  -28.5970  -33.7950 C   0  0  0  0  0
    5.0690  -28.8900  -32.4550 C   0  0  0  0  0
    4.5090  -28.0830  -31.4670 C   0  0  0  0  0
    4.8160  -28.4480  -29.7940 Cl  0  0  0  0  0
    3.7160  -26.9890  -31.8230 C   0  0  0  0  0
    3.4740  -26.6950  -33.1610 C   0  0  0  0  0
    4.0310  -27.5010  -34.1540 C   0  0  0  0  0
    2.7351  -25.7510  -35.1254 H   0  0  0  0  0
    4.2194  -27.8639  -37.5293 H   0  0  0  0  0
    5.6143  -29.7769  -36.8055 H   0  0  0  0  0
    5.6907  -29.7427  -32.1819 H   0  0  0  0  0
    3.2830  -26.3601  -31.0451 H   0  0  0  0  0
    2.8534  -25.8407  -33.4316 H   0  0  0  0  0
  1  2  1  0  0  0
  2  3  4  0  0  0
  2 12  4  0  0  0
  3  4  4  0  0  0
  4  5  4  0  0  0
  5  6  4  0  0  0
  6  7  4  0  0  0
  6 12  4  0  0  0
  7  8  4  0  0  0
  8  9  1  0  0  0
  8 10  4  0  0  0
 10 11  4  0  0  0
 11 12  4  0  0  0
  1 13  1  0  0  0
  3 14  1  0  0  0
  4 15  1  0  0  0
  7 16  1  0  0  0
 10 17  1  0  0  0
 11 18  1  0  0  0
M  END
$$$$
