1bqo_ligand
  -I-interpret- 

 61 63  0  0  0  0  0  0  0  0999 V2000
    3.3340   48.5830   54.3740 C   0  0  0  0  0
    3.7130   49.4900   55.4530 C   0  0  0  0  0
    3.2370   49.1770   56.7950 C   0  0  0  0  0
    2.4180   47.9900   57.0030 C   0  0  0  0  0
    2.0140   47.1210   55.9120 C   0  0  0  0  0
    2.4780   47.4190   54.5640 C   0  0  0  0  0
    2.0120   47.5280   58.1940 O   0  0  0  0  0
    2.5440   48.0860   59.2890 C   0  0  0  0  0
    3.5020   50.0930   51.9530 N   0  0  0  0  0
    4.0650   48.6710   52.7060 S   0  0  0  0  0
    5.5090   48.7260   52.7520 O   0  0  0  0  0
    3.7150   47.6060   51.8130 O   0  0  0  0  0
    2.1570   50.3200   51.4250 C   0  0  0  0  0
    2.1750   50.9270   50.0930 N   0  0  0  0  0
    2.6570   52.3080   50.2790 C   0  0  0  0  0
    3.9350   52.3800   51.0890 C   0  0  0  0  0
    3.9910   51.4430   52.2790 C   0  0  0  0  0
    3.9490   53.8060   51.5880 C   0  0  0  0  0
    5.1420   52.0030   50.2370 C   0  0  0  0  0
    0.8660   50.6730   49.0300 S   0  0  0  0  0
    0.6910   49.2620   48.7570 O   0  0  0  0  0
    1.1610   51.4860   47.8860 O   0  0  0  0  0
    0.8890   50.1660   52.2680 C   0  0  0  0  0
    0.2950   48.9820   52.3440 N   0  0  0  0  0
   -0.7000   51.3100   49.6620 C   0  0  0  0  0
   -1.6180   50.2390   50.0370 C   0  0  0  0  0
   -2.9690   50.6320   50.3930 C   0  0  0  0  0
   -3.2890   52.0490   50.3410 C   0  0  0  0  0
   -2.3560   53.1080   49.9980 C   0  0  0  0  0
   -0.9980   52.7370   49.6400 C   0  0  0  0  0
   -4.5680   52.3730   50.5330 O   0  0  0  0  0
   -5.2220   52.1800   49.3750 C   0  0  0  0  0
    0.3980   51.1110   52.8920 O   0  0  0  0  0
   -0.9690   49.1610   52.9340 O   0  0  0  0  0
    4.3291   50.3688   55.2625 H   0  0  0  0  0
    3.4912   49.8244   57.6342 H   0  0  0  0  0
    1.3735   46.2591   56.0990 H   0  0  0  0  0
    2.1931   46.7893   53.7212 H   0  0  0  0  0
    3.6248   47.9453   59.2784 H   0  0  0  0  0
    2.3152   49.1517   59.2999 H   0  0  0  0  0
    2.1235   47.6137   60.1768 H   0  0  0  0  0
    1.5626   49.4064   51.4140 H   0  0  0  0  0
    2.8628   52.7252   49.2932 H   0  0  0  0  0
    1.8879   52.8599   50.8194 H   0  0  0  0  0
    5.0313   51.3584   52.5933 H   0  0  0  0  0
    3.3530   51.8532   53.0618 H   0  0  0  0  0
    3.0845   53.9733   52.2305 H   0  0  0  0  0
    4.8636   53.9825   52.1541 H   0  0  0  0  0
    3.9089   54.4874   50.7382 H   0  0  0  0  0
    6.0534   52.1425   50.8184 H   0  0  0  0  0
    5.0592   50.9594   49.9336 H   0  0  0  0  0
    5.1732   52.6386   49.3520 H   0  0  0  0  0
    0.6875   48.0949   52.0288 H   0  0  0  0  0
   -1.3043   49.1952   50.0491 H   0  0  0  0  0
   -3.7145   49.8935   50.6878 H   0  0  0  0  0
   -2.6664   54.1528   50.0089 H   0  0  0  0  0
   -0.2474   53.4803   49.3713 H   0  0  0  0  0
   -4.7842   52.8120   48.6023 H   0  0  0  0  0
   -5.1375   51.1337   49.0815 H   0  0  0  0  0
   -6.2729   52.4384   49.5053 H   0  0  0  0  0
   -1.4144   48.3129   52.9973 H   0  0  0  0  0
  9 13  1  0  0  0
  9 17  1  0  0  0
 17 16  1  0  0  0
 16 19  1  0  0  0
 16 18  1  0  0  0
 16 15  1  0  0  0
 14 15  1  0  0  0
 14 20  1  0  0  0
 13 14  1  0  0  0
 13 23  1  0  0  0
 23 33  2  0  0  0
 23 24  1  0  0  0
 24 34  1  0  0  0
 20 25  1  0  0  0
 20 22  2  0  0  0
 20 21  2  0  0  0
 25 30  4  0  0  0
 25 26  4  0  0  0
 26 27  4  0  0  0
 27 28  4  0  0  0
 28 31  1  0  0  0
 29 28  4  0  0  0
 30 29  4  0  0  0
 31 32  1  0  0  0
 10  1  1  0  0  0
  1  6  4  0  0  0
  1  2  4  0  0  0
  2  3  4  0  0  0
  3  4  4  0  0  0
  4  7  1  0  0  0
  5  4  4  0  0  0
  6  5  4  0  0  0
  7  8  1  0  0  0
 10 12  2  0  0  0
 10 11  2  0  0  0
 10  9  1  0  0  0
  2 35  1  0  0  0
  3 36  1  0  0  0
  5 37  1  0  0  0
  6 38  1  0  0  0
  8 39  1  0  0  0
  8 40  1  0  0  0
  8 41  1  0  0  0
 13 42  1  0  0  0
 15 43  1  0  0  0
 15 44  1  0  0  0
 17 45  1  0  0  0
 17 46  1  0  0  0
 18 47  1  0  0  0
 18 48  1  0  0  0
 18 49  1  0  0  0
 19 50  1  0  0  0
 19 51  1  0  0  0
 19 52  1  0  0  0
 24 53  1  0  0  0
 26 54  1  0  0  0
 27 55  1  0  0  0
 29 56  1  0  0  0
 30 57  1  0  0  0
 32 58  1  0  0  0
 32 59  1  0  0  0
 32 60  1  0  0  0
 34 61  1  0  0  0
M  END
$$$$
