### 
### Created by X-TOOL on Mon Sep 10 21:13:04 2018
### 

@<TRIPOS>MOLECULE
3lf0_ligand
   43    45     1     0     0
SMALL
GAST_HUCK


@<TRIPOS>ATOM
      1 PG         28.0820   -0.0530   10.8460 P.3       1 ATP         0.1879
      2 O1G        29.1140   -0.0150    9.7460 O.co2     1 ATP        -0.6091
      3 O2G        28.6140   -0.7190   12.0910 O.co2     1 ATP        -0.6091
      4 O3G        27.2830    1.2270   10.9360 O.co2     1 ATP        -0.6091
      5 PB         27.1730   -2.2110    9.2080 P.3       1 ATP         0.3553
      6 O1B        28.3640   -3.0140    9.6910 O.co2     1 ATP        -0.5652
      7 O2B        25.8190   -2.8280    8.9320 O.co2     1 ATP        -0.5652
      8 O3B        26.9270   -1.0420   10.2980 O.3       1 ATP        -0.1546
      9 PA         28.2890   -1.8170    6.5880 P.3       1 ATP         0.3266
     10 O1A        27.6010   -0.9930    5.5610 O.co2     1 ATP        -0.5692
     11 O2A        29.7800   -1.7940    6.9340 O.co2     1 ATP        -0.5692
     12 O3A        27.5640   -1.2980    7.9320 O.3       1 ATP        -0.1171
     13 O5'        27.8190   -3.3460    6.3900 O.3       1 ATP        -0.2441
     14 C5'        28.5090   -4.4710    6.9430 C.3       1 ATP         0.1131
     15 C4'        28.2150   -5.6290    6.0000 C.3       1 ATP         0.1189
     16 O4'        26.8090   -5.7220    5.7550 O.3       1 ATP        -0.3364
     17 C3'        28.8140   -5.4210    4.6010 C.3       1 ATP         0.1149
     18 O3'        30.1700   -5.8920    4.5590 O.3       1 ATP        -0.3864
     19 C2'        27.8780   -6.1910    3.6920 C.3       1 ATP         0.1385
     20 O2'        28.2200   -7.5790    3.7160 O.3       1 ATP        -0.3836
     21 C1'        26.5520   -6.1660    4.4430 C.3       1 ATP         0.2010
     22 N9         25.5640   -5.1980    3.9420 N.pl3     1 ATP        -0.1919
     23 C8         25.6320   -3.8520    3.9240 C.2       1 ATP         0.1123
     24 N7         24.4960   -3.3320    3.4020 N.2       1 ATP        -0.2958
     25 C5         23.6870   -4.3680    3.0770 C.ar      1 ATP         0.1045
     26 C6         22.3300   -4.5730    2.5100 C.ar      1 ATP         0.1298
     27 N6         21.5310   -3.5470    2.1450 N.pl3     1 ATP        -0.3152
     28 N1         21.8880   -5.8390    2.3570 N.ar      1 ATP        -0.2698
     29 C2         22.6080   -6.8980    2.7230 C.ar      1 ATP         0.0533
     30 N3         23.8370   -6.8050    3.2590 N.ar      1 ATP        -0.2714
     31 C4         24.4060   -5.5870    3.4450 C.ar      1 ATP         0.1613
     32 H          28.1746   -4.6864    7.9578 H         1 ATP         0.0648
     33 H          29.5796   -4.2833    7.0247 H         1 ATP         0.0648
     34 H          28.6375   -6.5070    6.4886 H         1 ATP         0.0651
     35 H          28.8823   -4.3761    4.2982 H         1 ATP         0.0648
     36 H          30.6960   -5.4071    5.1991 H         1 ATP         0.2100
     37 H          27.8898   -5.7844    2.6808 H         1 ATP         0.0676
     38 H          27.6252   -8.0640    3.1392 H         1 ATP         0.2101
     39 H          26.1507   -7.1742    4.3397 H         1 ATP         0.0996
     40 H          26.4799   -3.2661    4.2788 H         1 ATP         0.1349
     41 H          21.8533   -2.5855    2.2549 H         1 ATP         0.1820
     42 H          20.6053   -3.7337    1.7595 H         1 ATP         0.1820
     43 H          22.1790   -7.8899    2.5807 H         1 ATP         0.0996
@<TRIPOS>BOND
     1    1    2 ar 
     2    1    3 ar 
     3    1    4 ar 
     4    8    1 1  
     5    5    6 ar 
     6    5    7 ar 
     7    5    8 1  
     8   12    5 1  
     9    9   10 ar 
    10    9   11 ar 
    11    9   12 1  
    12    9   13 1  
    13   13   14 1  
    14   14   15 1  
    15   15   16 1  
    16   15   17 1  
    17   16   21 1  
    18   17   18 1  
    19   17   19 1  
    20   19   20 1  
    21   19   21 1  
    22   21   22 1  
    23   22   23 1  
    24   22   31 1  
    25   23   24 2  
    26   24   25 1  
    27   25   26 ar 
    28   25   31 ar 
    29   26   27 1  
    30   26   28 ar 
    31   28   29 ar 
    32   29   30 ar 
    33   30   31 ar 
    34   14   32 1  
    35   14   33 1  
    36   15   34 1  
    37   17   35 1  
    38   18   36 1  
    39   19   37 1  
    40   20   38 1  
    41   21   39 1  
    42   23   40 1  
    43   27   41 1  
    44   27   42 1  
    45   29   43 1  
@<TRIPOS>SUBSTRUCTURE
     1 ATP         1

