3lf0_ligand
  -I-interpret- 

 47 49  0  0  0  0  0  0  0  0999 V2000
   28.0820   -0.0530   10.8460 P   0  0  0  0  0
   29.1140   -0.0150    9.7460 O   0  0  0  0  0
   28.6140   -0.7190   12.0910 O   0  0  0  0  0
   27.2830    1.2270   10.9360 O   0  0  0  0  0
   27.1730   -2.2110    9.2080 P   0  0  0  0  0
   28.3640   -3.0140    9.6910 O   0  0  0  0  0
   25.8190   -2.8280    8.9320 O   0  0  0  0  0
   26.9270   -1.0420   10.2980 O   0  0  0  0  0
   28.2890   -1.8170    6.5880 P   0  0  0  0  0
   27.6010   -0.9930    5.5610 O   0  0  0  0  0
   29.7800   -1.7940    6.9340 O   0  0  0  0  0
   27.5640   -1.2980    7.9320 O   0  0  0  0  0
   27.8190   -3.3460    6.3900 O   0  0  0  0  0
   28.5090   -4.4710    6.9430 C   0  0  0  0  0
   28.2150   -5.6290    6.0000 C   0  0  0  0  0
   26.8090   -5.7220    5.7550 O   0  0  0  0  0
   28.8140   -5.4210    4.6010 C   0  0  0  0  0
   30.1700   -5.8920    4.5590 O   0  0  0  0  0
   27.8780   -6.1910    3.6920 C   0  0  0  0  0
   28.2200   -7.5790    3.7160 O   0  0  0  0  0
   26.5520   -6.1660    4.4430 C   0  0  0  0  0
   25.5640   -5.1980    3.9420 N   0  0  0  0  0
   25.6320   -3.8520    3.9240 C   0  0  0  0  0
   24.4960   -3.3320    3.4020 N   0  0  0  0  0
   23.6870   -4.3680    3.0770 C   0  0  0  0  0
   22.3300   -4.5730    2.5100 C   0  0  0  0  0
   21.5310   -3.5470    2.1450 N   0  0  0  0  0
   21.8880   -5.8390    2.3570 N   0  0  0  0  0
   22.6080   -6.8980    2.7230 C   0  0  0  0  0
   23.8370   -6.8050    3.2590 N   0  0  0  0  0
   24.4060   -5.5870    3.4450 C   0  0  0  0  0
   27.9316   -0.7244   12.7662 H   0  0  0  0  0
   26.6426    1.1538   11.6474 H   0  0  0  0  0
   29.1182   -2.4305    9.8019 H   0  0  0  0  0
   29.9545   -2.4266    7.6347 H   0  0  0  0  0
   28.1746   -4.6864    7.9578 H   0  0  0  0  0
   29.5796   -4.2833    7.0247 H   0  0  0  0  0
   28.6375   -6.5070    6.4886 H   0  0  0  0  0
   28.8823   -4.3761    4.2982 H   0  0  0  0  0
   30.5282   -5.7545    3.6790 H   0  0  0  0  0
   27.8898   -5.7844    2.6808 H   0  0  0  0  0
   27.6253   -8.0640    3.1392 H   0  0  0  0  0
   26.1507   -7.1742    4.3397 H   0  0  0  0  0
   26.4799   -3.2661    4.2788 H   0  0  0  0  0
   21.8533   -2.5855    2.2549 H   0  0  0  0  0
   20.6053   -3.7337    1.7595 H   0  0  0  0  0
   22.1790   -7.8899    2.5807 H   0  0  0  0  0
  1  2  2  0  0  0
  1  3  1  0  0  0
  1  4  1  0  0  0
  8  1  1  0  0  0
  5  6  1  0  0  0
  5  7  2  0  0  0
  5  8  1  0  0  0
 12  5  1  0  0  0
  9 10  2  0  0  0
  9 11  1  0  0  0
  9 12  1  0  0  0
  9 13  1  0  0  0
 13 14  1  0  0  0
 14 15  1  0  0  0
 15 16  1  0  0  0
 15 17  1  0  0  0
 16 21  1  0  0  0
 17 18  1  0  0  0
 17 19  1  0  0  0
 19 20  1  0  0  0
 19 21  1  0  0  0
 21 22  1  0  0  0
 22 23  4  0  0  0
 22 31  4  0  0  0
 23 24  4  0  0  0
 24 25  4  0  0  0
 25 26  4  0  0  0
 25 31  4  0  0  0
 26 27  1  0  0  0
 26 28  4  0  0  0
 28 29  4  0  0  0
 29 30  4  0  0  0
 30 31  4  0  0  0
  3 32  1  0  0  0
  4 33  1  0  0  0
  6 34  1  0  0  0
 11 35  1  0  0  0
 14 36  1  0  0  0
 14 37  1  0  0  0
 15 38  1  0  0  0
 17 39  1  0  0  0
 18 40  1  0  0  0
 19 41  1  0  0  0
 20 42  1  0  0  0
 21 43  1  0  0  0
 23 44  1  0  0  0
 27 45  1  0  0  0
 27 46  1  0  0  0
 29 47  1  0  0  0
M  END
$$$$
