1swn_ligand
  -I-interpret- 

 32 33  0  0  0  0  0  0  0  0999 V2000
   16.5220    3.8650   29.4730 C   0  0  0  0  0
   15.5270    3.7200   30.2310 O   0  0  0  0  0
   17.1520    2.8740   29.0130 O   0  0  0  0  0
   16.9350    5.2480   29.1350 C   0  0  0  0  0
   15.7510    6.2040   28.9590 C   0  0  0  0  0
   15.1620    6.0920   27.5570 C   0  0  0  0  0
   13.9900    7.0720   27.2860 C   0  0  0  0  0
   13.2860    6.9630   25.9530 C   0  0  0  0  0
   14.2620    7.4620   24.4820 S   0  0  0  0  0
   12.7670    7.2340   23.4570 C   0  0  0  0  0
   11.6080    7.7930   24.2580 C   0  0  0  0  0
   11.4100    9.2220   24.1050 N   0  0  0  0  0
   11.5930    9.8920   25.2510 C   0  0  0  0  0
   11.4890   11.1330   25.4380 O   0  0  0  0  0
   11.9020    9.0120   26.2320 N   0  0  0  0  0
   11.9420    7.6410   25.7600 C   0  0  0  0  0
   17.8731    3.1833   28.4599 H   0  0  0  0  0
   17.4733    5.2103   28.1880 H   0  0  0  0  0
   17.5428    5.6224   29.9587 H   0  0  0  0  0
   16.1005    7.2252   29.1109 H   0  0  0  0  0
   14.9801    5.9431   29.6841 H   0  0  0  0  0
   14.7696    5.0807   27.4506 H   0  0  0  0  0
   15.9567    6.3348   26.8516 H   0  0  0  0  0
   14.4298    8.0691   27.3057 H   0  0  0  0  0
   13.2345    6.8419   28.0373 H   0  0  0  0  0
   13.1331    5.8857   26.0171 H   0  0  0  0  0
   12.6094    6.1807   23.2248 H   0  0  0  0  0
   12.8661    7.7492   22.5016 H   0  0  0  0  0
   10.7286    7.2535   23.9064 H   0  0  0  0  0
   11.1592    9.6676   23.2224 H   0  0  0  0  0
   12.0866    9.2834   27.1978 H   0  0  0  0  0
   11.2550    7.0024   26.3153 H   0  0  0  0  0
  1  4  1  0  0  0
  1  3  1  0  0  0
  1  2  2  0  0  0
  4  5  1  0  0  0
  5  6  1  0  0  0
  6  7  1  0  0  0
  7  8  1  0  0  0
  8 16  1  0  0  0
  8  9  1  0  0  0
  9 10  1  0  0  0
 10 11  1  0  0  0
 11 16  1  0  0  0
 11 12  1  0  0  0
 12 13  1  0  0  0
 13 15  1  0  0  0
 13 14  2  0  0  0
 15 16  1  0  0  0
  3 17  1  0  0  0
  4 18  1  0  0  0
  4 19  1  0  0  0
  5 20  1  0  0  0
  5 21  1  0  0  0
  6 22  1  0  0  0
  6 23  1  0  0  0
  7 24  1  0  0  0
  7 25  1  0  0  0
  8 26  1  0  0  0
 10 27  1  0  0  0
 10 28  1  0  0  0
 11 29  1  0  0  0
 12 30  1  0  0  0
 15 31  1  0  0  0
 16 32  1  0  0  0
M  END
$$$$
