6uvv_ligand
  -I-interpret- 

 43 45  0  0  0  0  0  0  0  0999 V2000
   25.1670   56.1320   84.5870 O   0  0  0  0  0
   22.5990   55.4800   86.0720 C   0  0  0  0  0
   19.2160   55.3860   87.4890 O   0  0  0  0  0
   24.0290   55.0520   86.3750 C   0  0  0  0  0
   29.6520   54.2820   88.6050 C   0  0  0  0  0
   26.2770   55.8780   86.5890 N   0  0  0  0  0
   25.1920   55.7410   85.7540 C   0  0  0  0  0
   27.5840   56.3240   86.1070 C   0  0  0  0  0
   28.6410   56.0200   87.1610 C   0  0  0  0  0
   28.7780   54.5310   87.3800 C   0  0  0  0  0
   21.5270   55.4090   87.1210 C   0  0  0  0  0
   21.9070   54.5600   88.2800 N   0  0  0  0  0
   22.2910   54.9280   89.5090 C   0  0  0  0  0
   22.5830   54.0130   90.4320 N   0  0  0  0  0
   22.4170   56.5790   90.0090 S   0  0  0  0  0
   22.0430   57.5140   88.5090 C   0  0  0  0  0
   21.1010   56.8010   87.5410 C   0  0  0  0  0
   19.6960   56.6130   88.0800 C   0  0  0  0  0
   20.2080   54.8280   86.6120 C   0  0  0  0  0
   23.1320   54.1860   85.4940 C   0  0  0  0  0
   22.1541   56.3921   85.6743 H   0  0  0  0  0
   24.6015   54.9160   87.2925 H   0  0  0  0  0
   30.6366   54.7204   88.4424 H   0  0  0  0  0
   29.1890   54.7397   89.4792 H   0  0  0  0  0
   29.7528   53.2086   88.7657 H   0  0  0  0  0
   26.1659   55.6608   87.5794 H   0  0  0  0  0
   27.5560   57.3971   85.9178 H   0  0  0  0  0
   27.8297   55.8008   85.1829 H   0  0  0  0  0
   28.3409   56.4847   88.1002 H   0  0  0  0  0
   29.5986   56.4118   86.8180 H   0  0  0  0  0
   27.7927   54.0926   87.5386 H   0  0  0  0  0
   29.2375   54.0734   86.5039 H   0  0  0  0  0
   21.8701   53.5539   88.1161 H   0  0  0  0  0
   22.8611   54.3045   91.3690 H   0  0  0  0  0
   22.9857   57.6676   87.9839 H   0  0  0  0  0
   21.5469   58.4334   88.8200 H   0  0  0  0  0
   21.1349   57.4861   86.6939 H   0  0  0  0  0
   19.6900   56.5606   89.1687 H   0  0  0  0  0
   19.0545   57.4565   87.8248 H   0  0  0  0  0
   20.0229   55.0803   85.5679 H   0  0  0  0  0
   20.2050   53.7381   86.6279 H   0  0  0  0  0
   23.1778   53.6802   84.5295 H   0  0  0  0  0
   22.8294   53.1419   85.4134 H   0  0  0  0  0
  7  1  2  0  0  0
  2  4  1  0  0  0
 11  2  1  0  0  0
  2 20  1  0  0  0
  3 18  1  0  0  0
 19  3  1  0  0  0
  4  7  1  0  0  0
 20  4  1  0  0  0
 10  5  1  0  0  0
  7  6  1  0  0  0
  6  8  1  0  0  0
  8  9  1  0  0  0
  9 10  1  0  0  0
 11 12  1  0  0  0
 11 17  1  0  0  0
 11 19  1  0  0  0
 12 13  1  0  0  0
 13 14  2  0  0  0
 13 15  1  0  0  0
 15 16  1  0  0  0
 16 17  1  0  0  0
 17 18  1  0  0  0
  2 21  1  0  0  0
  4 22  1  0  0  0
  5 23  1  0  0  0
  5 24  1  0  0  0
  5 25  1  0  0  0
  6 26  1  0  0  0
  8 27  1  0  0  0
  8 28  1  0  0  0
  9 29  1  0  0  0
  9 30  1  0  0  0
 10 31  1  0  0  0
 10 32  1  0  0  0
 12 33  1  0  0  0
 14 34  1  0  0  0
 16 35  1  0  0  0
 16 36  1  0  0  0
 17 37  1  0  0  0
 18 38  1  0  0  0
 18 39  1  0  0  0
 19 40  1  0  0  0
 19 41  1  0  0  0
 20 42  1  0  0  0
 20 43  1  0  0  0
M  END
$$$$
