5n9l_ligand
  -I-interpret- 

 41 44  0  0  0  0  0  0  0  0999 V2000
  -15.8220   14.5360   37.6700 C   0  0  0  0  0
  -16.4200   12.9210   43.4060 C   0  0  0  0  0
  -15.9580   12.4510   38.8960 C   0  0  0  0  0
  -16.0610   14.5730   40.0280 C   0  0  0  0  0
  -16.0840   11.7710   40.1080 C   0  0  0  0  0
  -16.1880   13.8910   41.2220 C   0  0  0  0  0
  -17.0730   16.0060   48.1250 C   0  0  0  0  0
  -16.3760   11.7080   46.8160 C   0  0  0  0  0
  -17.1970   12.8350   47.3600 C   0  0  0  0  0
  -16.5300   11.5280   45.4670 C   0  0  0  0  0
  -16.5640   12.7310   44.7640 C   0  0  0  0  0
  -15.9480   13.8440   38.8600 C   0  0  0  0  0
  -16.9700   17.3950   48.1030 C   0  0  0  0  0
  -16.1910   12.4970   41.2880 C   0  0  0  0  0
  -16.6770   18.0540   46.9220 C   0  0  0  0  0
  -16.4920   17.2940   45.7840 C   0  0  0  0  0
  -16.8420   14.0170   46.7160 C   0  0  0  0  0
  -16.6750   13.8980   45.3970 C   0  0  0  0  0
  -16.8850   15.3260   46.9920 C   0  0  0  0  0
  -16.6030   15.9720   45.8500 C   0  0  0  0  0
  -16.3170   11.9480   42.5010 N   0  0  0  0  0
  -16.3520   10.4390   44.9190 O   0  0  0  0  0
  -17.1480   18.1750   49.2020 O   0  0  0  0  0
  -16.4670   15.0900   44.9020 O   0  0  0  0  0
  -16.5430   19.7640   46.8510 Cl  0  0  0  0  0
  -16.1260   18.0560   44.2680 Cl  0  0  0  0  0
  -14.8789   14.2683   37.1936 H   0  0  0  0  0
  -16.6502   14.2762   37.0107 H   0  0  0  0  0
  -15.8379   15.6072   37.8707 H   0  0  0  0  0
  -16.3878   13.9486   43.0438 H   0  0  0  0  0
  -15.8665   11.8868   37.9679 H   0  0  0  0  0
  -16.0501   15.6628   40.0075 H   0  0  0  0  0
  -16.0983   10.6813   40.1289 H   0  0  0  0  0
  -16.2895   14.4614   42.1453 H   0  0  0  0  0
  -17.3035   15.4827   49.0529 H   0  0  0  0  0
  -16.7035   10.7933   47.3101 H   0  0  0  0  0
  -15.3280   11.9452   46.9993 H   0  0  0  0  0
  -17.0157   12.9344   48.4302 H   0  0  0  0  0
  -18.2542   12.6308   47.1902 H   0  0  0  0  0
  -16.3318   10.9479   42.7009 H   0  0  0  0  0
  -17.0316   19.0969   48.9610 H   0  0  0  0  0
 12  1  1  0  0  0
 11  2  2  0  0  0
  2 21  1  0  0  0
  5  3  4  0  0  0
  3 12  4  0  0  0
  6  4  4  0  0  0
  4 12  4  0  0  0
 14  5  4  0  0  0
 14  6  4  0  0  0
  7 13  4  0  0  0
 19  7  4  0  0  0
  9  8  1  0  0  0
  8 10  1  0  0  0
 17  9  1  0  0  0
 11 10  1  0  0  0
 10 22  2  0  0  0
 18 11  1  0  0  0
 13 15  4  0  0  0
 13 23  1  0  0  0
 21 14  1  0  0  0
 15 16  4  0  0  0
 15 25  1  0  0  0
 16 20  4  0  0  0
 16 26  1  0  0  0
 17 18  4  0  0  0
 17 19  4  0  0  0
 18 24  4  0  0  0
 19 20  4  0  0  0
 20 24  4  0  0  0
  1 27  1  0  0  0
  1 28  1  0  0  0
  1 29  1  0  0  0
  2 30  1  0  0  0
  3 31  1  0  0  0
  4 32  1  0  0  0
  5 33  1  0  0  0
  6 34  1  0  0  0
  7 35  1  0  0  0
  8 36  1  0  0  0
  8 37  1  0  0  0
  9 38  1  0  0  0
  9 39  1  0  0  0
 21 40  1  0  0  0
 23 41  1  0  0  0
M  END
$$$$
