1ztq_ligand
  -I-interpret- 

 59 62  0  0  0  0  0  0  0  0999 V2000
   24.9600   72.5750   49.6490 C   0  0  0  0  0
   24.8400   71.2790   49.0370 C   0  0  0  0  0
   24.2120   71.1820   47.7530 C   0  0  0  0  0
   23.6910   72.3300   47.0780 C   0  0  0  0  0
   23.8220   73.6280   47.7040 C   0  0  0  0  0
   24.4500   73.7450   48.9890 C   0  0  0  0  0
   16.1290   69.4050   33.0630 C   0  0  0  0  0
   16.4870   68.8660   31.6790 C   0  0  0  0  0
   15.9630   70.9410   32.9880 C   0  0  0  0  0
   23.9740   70.0510   46.9620 C   0  0  0  0  0
   23.3170   70.6640   45.8410 C   0  0  0  0  0
   23.1450   72.0300   45.8970 O   0  0  0  0  0
   22.8970   69.8510   44.7730 C   0  0  0  0  0
   21.9880   70.4250   43.8970 N   0  0  0  0  0
   21.5640   69.8670   42.7010 C   0  0  0  0  0
   23.3350   68.6890   44.6540 O   0  0  0  0  0
   21.7420   70.6470   41.5180 C   0  0  0  0  0
   21.3290   70.1390   40.2530 C   0  0  0  0  0
   20.7280   68.8320   40.1400 C   0  0  0  0  0
   20.5540   68.0550   41.3350 C   0  0  0  0  0
   20.9640   68.5580   42.6050 C   0  0  0  0  0
   20.2880   68.3130   38.7850 C   0  0  0  0  0
   21.1440   68.4370   37.6250 C   0  0  0  0  0
   20.7180   67.9580   36.3400 C   0  0  0  0  0
   19.4280   67.3440   36.2020 C   0  0  0  0  0
   18.5750   67.2120   37.3470 C   0  0  0  0  0
   18.9990   67.6890   38.6240 C   0  0  0  0  0
   18.8750   66.7620   34.5920 S   0  0  0  0  0
   17.3670   67.5280   34.1670 N   0  0  0  0  0
   19.7720   67.2060   33.5680 O   0  0  0  0  0
   18.5610   65.3630   34.6140 O   0  0  0  0  0
   17.2260   69.0040   34.0730 C   0  0  0  0  0
   16.9180   69.5840   35.4460 C   0  0  0  0  0
   15.7950   69.4820   35.9730 O   0  0  0  0  0
   17.8140   70.1440   36.0850 O   0  0  0  0  0
   25.4420   72.6705   50.6220 H   0  0  0  0  0
   25.2190   70.3891   49.5396 H   0  0  0  0  0
   23.4436   74.5170   47.1994 H   0  0  0  0  0
   24.5401   74.7217   49.4645 H   0  0  0  0  0
   15.1856   68.9763   33.4013 H   0  0  0  0  0
   15.6906   69.1131   30.9771 H   0  0  0  0  0
   17.4208   69.3181   31.3448 H   0  0  0  0  0
   16.6041   67.7836   31.7312 H   0  0  0  0  0
   16.8976   71.3902   32.6520 H   0  0  0  0  0
   15.1673   71.1852   32.2842 H   0  0  0  0  0
   15.7076   71.3262   33.9752 H   0  0  0  0  0
   24.2177   69.0044   47.1447 H   0  0  0  0  0
   21.5994   71.3324   44.1539 H   0  0  0  0  0
   22.1961   71.6358   41.5834 H   0  0  0  0  0
   21.4688   70.7457   39.3583 H   0  0  0  0  0
   20.1016   67.0654   41.2705 H   0  0  0  0  0
   20.8244   67.9546   43.5019 H   0  0  0  0  0
   22.1253   68.9002   37.7279 H   0  0  0  0  0
   21.3713   68.0602   35.4735 H   0  0  0  0  0
   17.5961   66.7442   37.2417 H   0  0  0  0  0
   18.3410   67.5801   39.4861 H   0  0  0  0  0
   16.5538   66.9425   33.9764 H   0  0  0  0  0
   18.1709   69.4114   33.7134 H   0  0  0  0  0
   15.2000   69.0297   35.3706 H   0  0  0  0  0
  2  1  4  0  0  0
  6  1  4  0  0  0
  3  2  4  0  0  0
  4  3  4  0  0  0
 10  3  4  0  0  0
  4  5  4  0  0  0
 12  4  4  0  0  0
  5  6  4  0  0  0
  7  8  1  0  0  0
  7  9  1  0  0  0
 32  7  1  0  0  0
 11 10  4  0  0  0
 11 12  4  0  0  0
 13 11  1  0  0  0
 14 13  1  0  0  0
 13 16  2  0  0  0
 15 14  1  0  0  0
 17 15  4  0  0  0
 21 15  4  0  0  0
 18 17  4  0  0  0
 19 18  4  0  0  0
 19 20  4  0  0  0
 22 19  1  0  0  0
 20 21  4  0  0  0
 23 22  4  0  0  0
 27 22  4  0  0  0
 24 23  4  0  0  0
 25 24  4  0  0  0
 25 26  4  0  0  0
 28 25  1  0  0  0
 26 27  4  0  0  0
 29 28  1  0  0  0
 28 30  2  0  0  0
 28 31  2  0  0  0
 29 32  1  0  0  0
 32 33  1  0  0  0
 33 34  1  0  0  0
 33 35  2  0  0  0
  1 36  1  0  0  0
  2 37  1  0  0  0
  5 38  1  0  0  0
  6 39  1  0  0  0
  7 40  1  0  0  0
  8 41  1  0  0  0
  8 42  1  0  0  0
  8 43  1  0  0  0
  9 44  1  0  0  0
  9 45  1  0  0  0
  9 46  1  0  0  0
 10 47  1  0  0  0
 14 48  1  0  0  0
 17 49  1  0  0  0
 18 50  1  0  0  0
 20 51  1  0  0  0
 21 52  1  0  0  0
 23 53  1  0  0  0
 24 54  1  0  0  0
 26 55  1  0  0  0
 27 56  1  0  0  0
 29 57  1  0  0  0
 32 58  1  0  0  0
 34 59  1  0  0  0
M  END
$$$$
