5adr_ligand
  -I-interpret- 

 61 64  0  0  0  0  0  0  0  0999 V2000
    5.1900   -3.6570   26.6250 C   0  0  0  0  0
    4.6240   -3.2700   25.2390 C   0  0  0  0  0
    5.1180   -2.2790   24.5340 O   0  0  0  0  0
    3.6030   -3.8370   24.5730 C   0  0  0  0  0
    3.4570   -3.1630   23.4050 C   0  0  0  0  0
    4.3650   -2.1850   23.3890 C   0  0  0  0  0
    4.6330   -1.2930   22.4180 C   0  0  0  0  0
    4.0950   -1.3830   21.3250 O   0  0  0  0  0
    5.5840   -0.4040   22.7790 N   0  0  0  0  0
    6.1650    0.4930   21.9770 C   0  0  0  0  0
    6.0290    0.5460   20.5920 C   0  0  0  0  0
    6.7340    1.4770   19.8520 C   0  0  0  0  0
    7.0390    1.3860   22.5670 C   0  0  0  0  0
    7.7540    2.3210   21.8300 C   0  0  0  0  0
    7.5910    2.4100   20.4390 C   0  0  0  0  0
    8.3240    3.2970   19.6080 C   0  0  0  0  0
    8.3720    3.1320   18.3890 O   0  0  0  0  0
    9.1230    4.1760   20.1860 N   0  0  0  0  0
    9.9650    4.9680   19.3290 C   0  0  0  0  0
   11.0390    5.7240   20.1260 C   0  0  0  0  0
   10.3650    6.8780   20.8770 C   0  0  0  0  0
   10.3880    8.0960   20.0280 C   0  0  0  0  0
   11.7700    8.4770   19.8140 O   0  0  0  0  0
   12.2110    7.6670   18.7280 C   0  0  0  0  0
   12.1420    6.2110   19.1050 C   0  0  0  0  0
   11.7090    4.8250   21.0700 C   0  0  0  0  0
   12.7130    3.9170   20.6730 C   0  0  0  0  0
   13.3590    3.0810   21.5810 C   0  0  0  0  0
   13.0520    3.1130   22.9410 C   0  0  0  0  0
   13.7450    2.2800   23.7980 O   0  0  0  0  0
   13.4740    2.3870   25.2010 C   0  0  0  0  0
   12.0590    3.9790   23.3610 C   0  0  0  0  0
   11.4270    4.8270   22.4450 C   0  0  0  0  0
    6.2399   -3.9317   26.5235 H   0  0  0  0  0
    5.0990   -2.8084   27.3030 H   0  0  0  0  0
    4.6286   -4.5027   27.0220 H   0  0  0  0  0
    3.0031   -4.6825   24.9096 H   0  0  0  0  0
    2.7305   -3.3805   22.6221 H   0  0  0  0  0
    5.8862   -0.4189   23.7531 H   0  0  0  0  0
    5.3613   -0.1522   20.0873 H   0  0  0  0  0
    6.6162    1.4829   18.7684 H   0  0  0  0  0
    7.1719    1.3555   23.6484 H   0  0  0  0  0
    8.4480    2.9917   22.3365 H   0  0  0  0  0
    9.1423    4.2888   21.1996 H   0  0  0  0  0
    9.3406    5.6993   18.8158 H   0  0  0  0  0
   10.4652    4.3002   18.6276 H   0  0  0  0  0
   10.9010    7.0709   21.8063 H   0  0  0  0  0
    9.3329    6.6116   21.1049 H   0  0  0  0  0
    9.8496    8.9053   20.5213 H   0  0  0  0  0
    9.9040    7.8943   19.0724 H   0  0  0  0  0
   13.2421    7.9247   18.4859 H   0  0  0  0  0
   11.5673    7.8437   17.8663 H   0  0  0  0  0
   11.9052    5.6949   18.1746 H   0  0  0  0  0
   13.0898    6.0089   19.6040 H   0  0  0  0  0
   12.9926    3.8679   19.6206 H   0  0  0  0  0
   14.1196    2.3880   21.2213 H   0  0  0  0  0
   13.7037    3.3978   25.5381 H   0  0  0  0  0
   12.4211    2.1721   25.3838 H   0  0  0  0  0
   14.0917    1.6722   25.7446 H   0  0  0  0  0
   11.7672    4.0011   24.4110 H   0  0  0  0  0
   10.6774    5.5248   22.8182 H   0  0  0  0  0
  1  2  1  0  0  0
  2  3  4  0  0  0
  2  4  4  0  0  0
  3  6  4  0  0  0
  4  5  4  0  0  0
  5  6  4  0  0  0
  6  7  1  0  0  0
  7  8  2  0  0  0
  7  9  1  0  0  0
  9 10  1  0  0  0
 10 11  4  0  0  0
 10 13  4  0  0  0
 11 12  4  0  0  0
 12 15  4  0  0  0
 13 14  4  0  0  0
 14 15  4  0  0  0
 15 16  1  0  0  0
 16 17  2  0  0  0
 16 18  1  0  0  0
 18 19  1  0  0  0
 19 20  1  0  0  0
 20 21  1  0  0  0
 20 25  1  0  0  0
 20 26  1  0  0  0
 21 22  1  0  0  0
 22 23  1  0  0  0
 23 24  1  0  0  0
 24 25  1  0  0  0
 26 27  4  0  0  0
 26 33  4  0  0  0
 27 28  4  0  0  0
 28 29  4  0  0  0
 29 30  1  0  0  0
 29 32  4  0  0  0
 30 31  1  0  0  0
 32 33  4  0  0  0
  1 34  1  0  0  0
  1 35  1  0  0  0
  1 36  1  0  0  0
  4 37  1  0  0  0
  5 38  1  0  0  0
  9 39  1  0  0  0
 11 40  1  0  0  0
 12 41  1  0  0  0
 13 42  1  0  0  0
 14 43  1  0  0  0
 18 44  1  0  0  0
 19 45  1  0  0  0
 19 46  1  0  0  0
 21 47  1  0  0  0
 21 48  1  0  0  0
 22 49  1  0  0  0
 22 50  1  0  0  0
 24 51  1  0  0  0
 24 52  1  0  0  0
 25 53  1  0  0  0
 25 54  1  0  0  0
 27 55  1  0  0  0
 28 56  1  0  0  0
 31 57  1  0  0  0
 31 58  1  0  0  0
 31 59  1  0  0  0
 32 60  1  0  0  0
 33 61  1  0  0  0
M  END
$$$$
