1ntv_ligand
  -I-interpret- 

175177  0  0  0  0  0  0  0  0999 V2000
   -1.5320    1.3350   22.2420 N   0  3  0  0  0
   -0.2780    0.5540   22.0210 C   0  0  0  0  0
   -0.5870   -0.9300   21.8950 C   0  0  0  0  0
   -1.4280   -1.4650   22.6210 O   0  0  0  0  0
    0.6900    0.7760   23.1850 C   0  0  0  0  0
    1.2180    2.1990   23.2430 C   0  0  0  0  0
    0.5140    3.1500   22.9040 O   0  0  0  0  0
    2.4580    2.3510   23.6930 N   0  0  0  0  0
    0.0990   -1.6000   20.9760 N   0  0  0  0  0
   -0.1300   -3.0200   20.7760 C   0  0  0  0  0
    0.9770   -3.7230   20.0010 C   0  0  0  0  0
    1.7570   -3.0900   19.2770 O   0  0  0  0  0
   -1.4740   -3.2270   20.0740 C   0  0  0  0  0
   -1.5960   -2.4940   18.7670 C   0  0  0  0  0
   -1.1160   -3.0560   17.5910 C   0  0  0  0  0
   -2.1850   -1.2360   18.7180 C   0  0  0  0  0
   -1.2220   -2.3740   16.3790 C   0  0  0  0  0
   -2.2950   -0.5440   17.5120 C   0  0  0  0  0
   -1.8130   -1.1170   16.3410 C   0  0  0  0  0
    1.0370   -5.0390   20.1850 N   0  0  0  0  0
    2.0090   -5.8970   19.5260 C   0  0  0  0  0
    1.4170   -6.3780   18.2040 C   0  0  0  0  0
    0.2080   -6.5920   18.0930 O   0  0  0  0  0
    2.3180   -7.1100   20.4110 C   0  0  0  0  0
    2.9670   -6.7260   21.7300 C   0  0  0  0  0
    4.1830   -6.4550   21.7410 O   0  0  0  0  0
    2.2620   -6.6900   22.7600 O   0  0  0  0  0
    2.2650   -6.5350   17.1960 N   0  0  0  0  0
    1.8030   -7.0130   15.9030 C   0  0  0  0  0
    1.8010   -8.5360   15.9330 C   0  0  0  0  0
    2.8530   -9.1580   16.0520 O   0  0  0  0  0
    2.7300   -6.5190   14.7910 C   0  0  0  0  0
    2.3840   -7.1140   13.4420 C   0  0  0  0  0
    1.3700   -7.7930   13.2900 O   0  0  0  0  0
    3.2290   -6.8590   12.4490 N   0  0  0  0  0
    0.6140   -9.1550   15.8260 N   0  0  0  0  0
    0.4990  -10.6160   15.8440 C   0  0  0  0  0
    1.2400  -11.3350   14.7180 C   0  0  0  0  0
    1.5220  -12.5300   14.8180 O   0  0  0  0  0
   -1.0140  -10.8420   15.7780 C   0  0  0  0  0
   -1.4960   -9.6540   15.0040 C   0  0  0  0  0
   -0.7070   -8.5320   15.6300 C   0  0  0  0  0
    1.5690  -10.6050   13.6560 N   0  0  0  0  0
    2.2470  -11.2000   12.5110 C   0  0  0  0  0
    3.7480  -10.9110   12.4570 C   0  0  0  0  0
    4.4230  -11.2780   11.4920 O   0  0  0  0  0
    1.5950  -10.7220   11.1910 C   0  0  0  0  0
    1.9750  -11.6490   10.0540 C   0  0  0  0  0
    0.0840  -10.6700   11.3480 C   0  0  0  0  0
    4.2710  -10.2630   13.4920 N   0  0  0  0  0
    5.6950   -9.9420   13.5480 C   0  0  0  0  0
    6.5380  -11.2120   13.5770 C   0  0  0  0  0
    6.1750  -12.1880   14.2360 O   0  0  0  0  0
    6.0060   -9.1020   14.7910 C   0  0  0  0  0
    7.4860   -8.8400   14.9930 C   0  0  0  0  0
    8.2190   -8.1030   14.0610 C   0  0  0  0  0
    8.1550   -9.3400   16.1100 C   0  0  0  0  0
    9.5800   -7.8720   14.2370 C   0  0  0  0  0
    9.5160   -9.1160   16.2950 C   0  0  0  0  0
   10.2220   -8.3810   15.3560 C   0  0  0  0  0
   11.5650   -8.1460   15.5390 O   0  0  0  0  0
    7.6550  -11.1880   12.8540 N   0  0  0  0  0
    8.5920  -12.3120   12.7830 C   0  0  0  0  0
    9.9350  -11.8210   13.3260 C   0  0  0  0  0
   10.5620  -10.9490   12.7300 O   0  0  0  0  0
    8.7720  -12.7620   11.3290 C   0  0  0  0  0
    7.5050  -13.2570   10.6450 C   0  0  0  0  0
    7.2250  -14.7200   10.9550 C   0  0  0  0  0
    7.0260  -14.9690   12.3800 N   0  0  0  0  0
    6.8110  -16.1720   12.9020 C   0  0  0  0  0
    6.7670  -17.2410   12.1170 N   0  0  0  0  0
    6.6390  -16.3090   14.2110 N   0  0  0  0  0
   10.3760  -12.3830   14.4480 N   0  0  0  0  0
   11.6390  -11.9810   15.0690 C   0  0  0  0  0
   12.8740  -12.2920   14.2250 C   0  0  0  0  0
   13.8580  -11.5520   14.2580 O   0  0  0  0  0
   11.7880  -12.6520   16.4390 C   0  0  0  0  0
   10.6900  -12.3050   17.4300 C   0  0  0  0  0
   10.9160  -13.0060   18.7620 C   0  0  0  0  0
    9.8190  -12.6670   19.7610 C   0  0  0  0  0
   10.0330  -13.3430   21.0730 N   0  3  0  0  0
   12.8240  -13.3880   13.4750 N   0  0  0  0  0
   13.9510  -13.7880   12.6380 C   0  0  0  0  0
   13.6140  -13.7380   11.1500 C   0  0  0  0  0
   12.4640  -13.3830   10.8140 O   0  0  0  0  0
   14.4180  -15.2150   12.9860 C   0  0  0  0  0
   13.3480  -16.1400   12.7540 O   0  0  0  0  0
   14.8400  -15.2940   14.4460 C   0  0  0  0  0
   14.5080  -14.0560   10.3370 O   0  0  0  0  0
   -2.1697    1.1801   21.4611 H   0  0  0  0  0
   -1.9735    1.0288   23.1090 H   0  0  0  0  0
   -1.3061    2.3276   22.3062 H   0  0  0  0  0
    0.1818    0.8991   21.0949 H   0  0  0  0  0
    1.5403    0.1083   23.0459 H   0  0  0  0  0
    0.1504    0.5806   24.1117 H   0  0  0  0  0
    2.8623    3.2844   23.7686 H   0  0  0  0  0
    3.0062    1.5344   23.9631 H   0  0  0  0  0
    0.7916   -1.1137   20.4066 H   0  0  0  0  0
   -0.1374   -3.4749   21.7665 H   0  0  0  0  0
   -2.2491   -2.8413   20.7362 H   0  0  0  0  0
   -1.5677   -4.2915   19.8593 H   0  0  0  0  0
   -0.6510   -4.0415   17.6156 H   0  0  0  0  0
   -2.5659   -0.7844   19.6340 H   0  0  0  0  0
   -0.8418   -2.8263   15.4631 H   0  0  0  0  0
   -2.7574    0.4428   17.4879 H   0  0  0  0  0
   -1.8984   -0.5817   15.3953 H   0  0  0  0  0
    0.3661   -5.4690   20.8217 H   0  0  0  0  0
    2.9295   -5.3407   19.3491 H   0  0  0  0  0
    3.0151   -7.7495   19.8695 H   0  0  0  0  0
    1.3750   -7.6085   20.6355 H   0  0  0  0  0
    1.3598   -6.9310   22.5375 H   0  0  0  0  0
    3.2526   -6.3178   17.3296 H   0  0  0  0  0
    0.8001   -6.6346   15.7050 H   0  0  0  0  0
    3.7469   -6.8211   15.0414 H   0  0  0  0  0
    2.6226   -5.4367   14.7192 H   0  0  0  0  0
    3.0479   -7.2315   11.5169 H   0  0  0  0  0
    4.0588   -6.2907   12.6187 H   0  0  0  0  0
    0.9734  -11.0391   16.7295 H   0  0  0  0  0
   -1.4737  -10.9203   16.7632 H   0  0  0  0  0
   -1.2805  -11.7892   15.3092 H   0  0  0  0  0
   -2.5747   -9.5088   15.0628 H   0  0  0  0  0
   -1.3385   -9.7457   13.9293 H   0  0  0  0  0
   -0.6724   -7.6337   15.0136 H   0  0  0  0  0
   -1.1484   -8.1584   16.5540 H   0  0  0  0  0
    1.3427   -9.6105   13.6425 H   0  0  0  0  0
    2.1340  -12.2772   12.6330 H   0  0  0  0  0
    1.9587   -9.7211   10.9586 H   0  0  0  0  0
    3.0586  -11.6526    9.9366 H   0  0  0  0  0
    1.6292  -12.6580   10.2785 H   0  0  0  0  0
    1.5095  -11.3008    9.1320 H   0  0  0  0  0
   -0.2889  -11.6643   11.5939 H   0  0  0  0  0
   -0.1732   -9.9759   12.1481 H   0  0  0  0  0
   -0.3656  -10.3326   10.4141 H   0  0  0  0  0
    3.6655   -9.9837   14.2639 H   0  0  0  0  0
    5.9424   -9.3717   12.6527 H   0  0  0  0  0
    5.6516   -9.6588   15.6584 H   0  0  0  0  0
    5.5179   -8.1359   14.6627 H   0  0  0  0  0
    7.7168   -7.7018   13.1807 H   0  0  0  0  0
    7.6019   -9.9166   16.8514 H   0  0  0  0  0
   10.1380   -7.2946   13.4999 H   0  0  0  0  0
   10.0234   -9.5161   17.1728 H   0  0  0  0  0
   11.8535   -8.5629   16.3542 H   0  0  0  0  0
    7.8696  -10.3444   12.3224 H   0  0  0  0  0
    8.2144  -13.1551   13.3615 H   0  0  0  0  0
    9.4688  -13.6001   11.3437 H   0  0  0  0  0
    9.1103  -11.8896   10.7699 H   0  0  0  0  0
    7.6372  -13.1559    9.5678 H   0  0  0  0  0
    6.6663  -12.6644   11.0105 H   0  0  0  0  0
    8.0892  -15.3007   10.6324 H   0  0  0  0  0
    6.3088  -15.0016   10.4360 H   0  0  0  0  0
    7.0537  -14.1703   13.0138 H   0  0  0  0  0
    6.8984  -17.1404   11.1105 H   0  0  0  0  0
    6.4738  -17.2332   14.6097 H   0  0  0  0  0
    6.6720  -15.4901   14.8182 H   0  0  0  0  0
    9.8182  -13.1148   14.8881 H   0  0  0  0  0
   11.5885  -10.8966   15.1671 H   0  0  0  0  0
   12.7274  -12.3016   16.8665 H   0  0  0  0  0
   11.7423  -13.7286   16.2747 H   0  0  0  0  0
    9.7338  -12.6313   17.0209 H   0  0  0  0  0
   10.6966  -11.2278   17.5962 H   0  0  0  0  0
   11.8706  -12.6741   19.1703 H   0  0  0  0  0
   10.9089  -14.0827   18.5922 H   0  0  0  0  0
    8.8676  -13.0075   19.3524 H   0  0  0  0  0
    9.8283  -11.5896   19.9262 H   0  0  0  0  0
    9.2787  -13.0903   21.7114 H   0  0  0  0  0
   10.0399  -14.3538   20.9362 H   0  0  0  0  0
   10.9262  -13.0457   21.4656 H   0  0  0  0  0
   11.9806  -13.9616   13.4844 H   0  0  0  0  0
   14.7481  -13.0727   12.8409 H   0  0  0  0  0
   11.9484  -13.1872   11.5997 H   0  0  0  0  0
   15.2702  -15.4673   12.3550 H   0  0  0  0  0
   13.6413  -17.0279   12.9714 H   0  0  0  0  0
   15.6599  -14.5982   14.6240 H   0  0  0  0  0
   13.9945  -15.0316   15.0820 H   0  0  0  0  0
   15.1667  -16.3086   14.6741 H   0  0  0  0  0
  1  2  1  0  0  0
  2  3  1  0  0  0
  2  5  1  0  0  0
  3  4  2  0  0  0
  3  9  1  0  0  0
  5  6  1  0  0  0
  6  7  2  0  0  0
  6  8  1  0  0  0
  9 10  1  0  0  0
 10 11  1  0  0  0
 10 13  1  0  0  0
 11 12  2  0  0  0
 11 20  1  0  0  0
 13 14  1  0  0  0
 14 15  4  0  0  0
 14 16  4  0  0  0
 15 17  4  0  0  0
 16 18  4  0  0  0
 17 19  4  0  0  0
 18 19  4  0  0  0
 20 21  1  0  0  0
 21 22  1  0  0  0
 21 24  1  0  0  0
 22 23  2  0  0  0
 22 28  1  0  0  0
 24 25  1  0  0  0
 25 26  2  0  0  0
 25 27  1  0  0  0
 28 29  1  0  0  0
 29 30  1  0  0  0
 29 32  1  0  0  0
 30 31  2  0  0  0
 30 36  1  0  0  0
 32 33  1  0  0  0
 33 34  2  0  0  0
 33 35  1  0  0  0
 36 37  1  0  0  0
 36 42  1  0  0  0
 37 38  1  0  0  0
 37 40  1  0  0  0
 38 39  2  0  0  0
 38 43  1  0  0  0
 40 41  1  0  0  0
 41 42  1  0  0  0
 43 44  1  0  0  0
 44 45  1  0  0  0
 44 47  1  0  0  0
 45 46  2  0  0  0
 45 50  1  0  0  0
 47 48  1  0  0  0
 47 49  1  0  0  0
 50 51  1  0  0  0
 51 52  1  0  0  0
 51 54  1  0  0  0
 52 53  2  0  0  0
 52 62  1  0  0  0
 54 55  1  0  0  0
 55 56  4  0  0  0
 55 57  4  0  0  0
 56 58  4  0  0  0
 57 59  4  0  0  0
 58 60  4  0  0  0
 59 60  4  0  0  0
 60 61  1  0  0  0
 62 63  1  0  0  0
 63 64  1  0  0  0
 63 66  1  0  0  0
 64 65  2  0  0  0
 64 73  1  0  0  0
 66 67  1  0  0  0
 67 68  1  0  0  0
 68 69  1  0  0  0
 69 70  1  0  0  0
 70 71  2  0  0  0
 70 72  1  0  0  0
 73 74  1  0  0  0
 74 75  1  0  0  0
 74 77  1  0  0  0
 75 76  2  0  0  0
 75 82  1  0  0  0
 77 78  1  0  0  0
 78 79  1  0  0  0
 79 80  1  0  0  0
 80 81  1  0  0  0
 82 83  1  0  0  0
 83 84  1  0  0  0
 83 86  1  0  0  0
 84 85  1  0  0  0
 84 89  2  0  0  0
 86 87  1  0  0  0
 86 88  1  0  0  0
  1 90  1  0  0  0
  1 91  1  0  0  0
  1 92  1  0  0  0
  2 93  1  0  0  0
  5 94  1  0  0  0
  5 95  1  0  0  0
  8 96  1  0  0  0
  8 97  1  0  0  0
  9 98  1  0  0  0
 10 99  1  0  0  0
 13100  1  0  0  0
 13101  1  0  0  0
 15102  1  0  0  0
 16103  1  0  0  0
 17104  1  0  0  0
 18105  1  0  0  0
 19106  1  0  0  0
 20107  1  0  0  0
 21108  1  0  0  0
 24109  1  0  0  0
 24110  1  0  0  0
 27111  1  0  0  0
 28112  1  0  0  0
 29113  1  0  0  0
 32114  1  0  0  0
 32115  1  0  0  0
 35116  1  0  0  0
 35117  1  0  0  0
 37118  1  0  0  0
 40119  1  0  0  0
 40120  1  0  0  0
 41121  1  0  0  0
 41122  1  0  0  0
 42123  1  0  0  0
 42124  1  0  0  0
 43125  1  0  0  0
 44126  1  0  0  0
 47127  1  0  0  0
 48128  1  0  0  0
 48129  1  0  0  0
 48130  1  0  0  0
 49131  1  0  0  0
 49132  1  0  0  0
 49133  1  0  0  0
 50134  1  0  0  0
 51135  1  0  0  0
 54136  1  0  0  0
 54137  1  0  0  0
 56138  1  0  0  0
 57139  1  0  0  0
 58140  1  0  0  0
 59141  1  0  0  0
 61142  1  0  0  0
 62143  1  0  0  0
 63144  1  0  0  0
 66145  1  0  0  0
 66146  1  0  0  0
 67147  1  0  0  0
 67148  1  0  0  0
 68149  1  0  0  0
 68150  1  0  0  0
 69151  1  0  0  0
 71152  1  0  0  0
 72153  1  0  0  0
 72154  1  0  0  0
 73155  1  0  0  0
 74156  1  0  0  0
 77157  1  0  0  0
 77158  1  0  0  0
 78159  1  0  0  0
 78160  1  0  0  0
 79161  1  0  0  0
 79162  1  0  0  0
 80163  1  0  0  0
 80164  1  0  0  0
 81165  1  0  0  0
 81166  1  0  0  0
 81167  1  0  0  0
 82168  1  0  0  0
 83169  1  0  0  0
 85170  1  0  0  0
 86171  1  0  0  0
 87172  1  0  0  0
 88173  1  0  0  0
 88174  1  0  0  0
 88175  1  0  0  0
M  END
$$$$
