### 
### Created by X-TOOL on Mon Sep 10 21:12:50 2018
### 

@<TRIPOS>MOLECULE
1ntv_ligand
  174   176     1     0     0
SMALL
GAST_HUCK


@<TRIPOS>ATOM
      1 N          -1.5320    1.3350   22.2420 N.4       1 ASN         0.2396
      2 CA         -0.2780    0.5540   22.0210 C.3       1 ASN         0.0818
      3 C          -0.5870   -0.9300   21.8950 C.2       1 ASN         0.2292
      4 O          -1.4280   -1.4650   22.6210 O.2       1 ASN        -0.3905
      5 CB          0.6900    0.7760   23.1850 C.3       1 ASN         0.0972
      6 CG          1.2180    2.1990   23.2430 C.2       1 ASN         0.1813
      7 OD1         0.5140    3.1500   22.9040 O.2       1 ASN        -0.3969
      8 ND2         2.4580    2.3510   23.6930 N.am      1 ASN        -0.3006
      9 N           0.0990   -1.6000   20.9760 N.am      1 PHE        -0.2591
     10 CA         -0.1300   -3.0200   20.7760 C.3       1 PHE         0.1406
     11 C           0.9770   -3.7230   20.0010 C.2       1 PHE         0.2060
     12 O           1.7570   -3.0900   19.2770 O.2       1 PHE        -0.3942
     13 CB         -1.4740   -3.2270   20.0740 C.3       1 PHE         0.0214
     14 CG         -1.5960   -2.4940   18.7670 C.ar      1 PHE        -0.0386
     15 CD1        -1.1160   -3.0560   17.5910 C.ar      1 PHE        -0.0601
     16 CD2        -2.1850   -1.2360   18.7180 C.ar      1 PHE        -0.0601
     17 CE1        -1.2220   -2.3740   16.3790 C.ar      1 PHE        -0.0686
     18 CE2        -2.2950   -0.5440   17.5120 C.ar      1 PHE        -0.0686
     19 CZ         -1.8130   -1.1170   16.3410 C.ar      1 PHE        -0.0687
     20 N           1.0370   -5.0390   20.1850 N.am      1 ASP        -0.2620
     21 CA          2.0090   -5.8970   19.5260 C.3       1 ASP         0.1423
     22 C           1.4170   -6.3780   18.2040 C.2       1 ASP         0.2057
     23 O           0.2080   -6.5920   18.0930 O.2       1 ASP        -0.3943
     24 CB          2.3180   -7.1100   20.4110 C.3       1 ASP         0.0406
     25 CG          2.9670   -6.7260   21.7300 C.2       1 ASP         0.0393
     26 OD1         4.1830   -6.4550   21.7410 O.co2     1 ASP        -0.5688
     27 OD2         2.2620   -6.6900   22.7600 O.co2     1 ASP        -0.5688
     28 N           2.2650   -6.5350   17.1960 N.am      1 ASN        -0.2615
     29 CA          1.8030   -7.0130   15.9030 C.3       1 ASN         0.1478
     30 C           1.8010   -8.5360   15.9330 C.2       1 ASN         0.2088
     31 O           2.8530   -9.1580   16.0520 O.2       1 ASN        -0.3940
     32 CB          2.7300   -6.5190   14.7910 C.3       1 ASN         0.0773
     33 CG          2.3840   -7.1140   13.4420 C.2       1 ASN         0.1780
     34 OD1         1.3700   -7.7930   13.2900 O.2       1 ASN        -0.3970
     35 ND2         3.2290   -6.8590   12.4490 N.am      1 ASN        -0.3007
     36 N           0.6140   -9.1550   15.8260 N.am      1 PRO        -0.2497
     37 CA          0.4990  -10.6160   15.8440 C.3       1 PRO         0.1338
     38 C           1.2400  -11.3350   14.7180 C.2       1 PRO         0.2041
     39 O           1.5220  -12.5300   14.8180 O.2       1 PRO        -0.3944
     40 CB         -1.0140  -10.8420   15.7780 C.3       1 PRO        -0.0104
     41 CG         -1.4960   -9.6540   15.0040 C.3       1 PRO        -0.0281
     42 CD         -0.7070   -8.5320   15.6300 C.3       1 PRO         0.0369
     43 N           1.5690  -10.6050   13.6560 N.am      1 VAL        -0.2635
     44 CA          2.2470  -11.2000   12.5110 C.3       1 VAL         0.1333
     45 C           3.7480  -10.9110   12.4570 C.2       1 VAL         0.2043
     46 O           4.4230  -11.2780   11.4920 O.2       1 VAL        -0.3944
     47 CB          1.5950  -10.7220   11.1910 C.3       1 VAL        -0.0063
     48 CG1         1.9750  -11.6490   10.0540 C.3       1 VAL        -0.0584
     49 CG2         0.0840  -10.6700   11.3480 C.3       1 VAL        -0.0584
     50 N           4.2710  -10.2630   13.4920 N.am      1 TYR        -0.2621
     51 CA          5.6950   -9.9420   13.5480 C.3       1 TYR         0.1390
     52 C           6.5380  -11.2120   13.5770 C.2       1 TYR         0.2057
     53 O           6.1750  -12.1880   14.2360 O.2       1 TYR        -0.3942
     54 CB          6.0060   -9.1020   14.7910 C.3       1 TYR         0.0163
     55 CG          7.4860   -8.8400   14.9930 C.ar      1 TYR        -0.0493
     56 CD1         8.2190   -8.1030   14.0610 C.ar      1 TYR        -0.0685
     57 CD2         8.1550   -9.3400   16.1100 C.ar      1 TYR        -0.0685
     58 CE1         9.5800   -7.8720   14.2370 C.ar      1 TYR        -0.0398
     59 CE2         9.5160   -9.1160   16.2950 C.ar      1 TYR        -0.0398
     60 CZ         10.2220   -8.3810   15.3560 C.ar      1 TYR         0.0805
     61 OH         11.5650   -8.1460   15.5390 O.3       1 TYR        -0.3376
     62 N           7.6550  -11.1880   12.8540 N.am      1 ARG        -0.2636
     63 CA          8.5920  -12.3120   12.7830 C.3       1 ARG         0.1311
     64 C           9.9350  -11.8210   13.3260 C.2       1 ARG         0.2039
     65 O          10.5620  -10.9490   12.7300 O.2       1 ARG        -0.3944
     66 CB          8.7720  -12.7620   11.3290 C.3       1 ARG        -0.0092
     67 CG          7.5050  -13.2570   10.6450 C.3       1 ARG        -0.0156
     68 CD          7.2250  -14.7200   10.9550 C.3       1 ARG         0.0627
     69 NE          7.0260  -14.9690   12.3800 N.pl3     1 ARG        -0.2723
     70 CZ          6.8110  -16.1720   12.9020 C.cat     1 ARG         0.2882
     71 NH1         6.7670  -17.2410   12.1170 N.pl3     1 ARG        -0.2849
     72 NH2         6.6390  -16.3090   14.2110 N.pl3     1 ARG        -0.2849
     73 N          10.3760  -12.3830   14.4480 N.am      1 LYS        -0.2637
     74 CA         11.6390  -11.9810   15.0690 C.3       1 LYS         0.1309
     75 C          12.8740  -12.2920   14.2250 C.2       1 LYS         0.2034
     76 O          13.8580  -11.5520   14.2580 O.2       1 LYS        -0.3944
     77 CB         11.7880  -12.6520   16.4390 C.3       1 LYS        -0.0122
     78 CG         10.6900  -12.3050   17.4300 C.3       1 LYS        -0.0440
     79 CD         10.9160  -13.0060   18.7620 C.3       1 LYS        -0.0124
     80 CE          9.8190  -12.6670   19.7610 C.3       1 LYS        -0.0354
     81 NZ         10.0330  -13.3430   21.0730 N.4       1 LYS         0.2185
     82 N          12.8240  -13.3880   13.4750 N.am      1 THR        -0.2670
     83 CA         13.9510  -13.7880   12.6380 C.3       1 THR         0.1198
     84 C          13.6140  -13.7380   11.1500 C.2       1 THR         0.0626
     85 O          12.4640  -13.3830   10.8140 O.co2     1 THR        -0.5665
     86 CB         14.4180  -15.2150   12.9860 C.3       1 THR         0.0869
     87 OG1        13.3480  -16.1400   12.7540 O.3       1 THR        -0.3880
     88 CG2        14.8400  -15.2940   14.4460 C.3       1 THR        -0.0352
     89 OXT        14.5080  -14.0560   10.3370 O.co2     1 THR        -0.5665
     90 H1         -1.3079    2.3144   22.3230 H         1 ASN         0.2017
     91 H2         -1.9783    1.0213   23.0896 H         1 ASN         0.2017
     92 H3         -2.1560    1.1964   21.4626 H         1 ASN         0.2017
     93 H4          0.1954    0.8998   21.0903 H         1 ASN         0.1125
     94 H5          1.5414    0.0889   23.0710 H         1 ASN         0.0585
     95 H6          0.1651    0.5565   24.1264 H         1 ASN         0.0585
     96 H7          2.8594    3.2649   23.7536 H         1 ASN         0.1814
     97 H8          2.9904    1.5516   23.9713 H         1 ASN         0.1814
     98 H9          0.7780   -1.1232   20.4178 H         1 PHE         0.1886
     99 H10        -0.1842   -3.4890   21.7695 H         1 PHE         0.0823
    100 H11        -2.2727   -2.8762   20.7440 H         1 PHE         0.0474
    101 H12        -1.6027   -4.3024   19.8816 H         1 PHE         0.0474
    102 H13        -0.6536   -4.0361   17.6155 H         1 PHE         0.0557
    103 H14        -2.5638   -0.7868   19.6289 H         1 PHE         0.0557
    104 H15        -0.8439   -2.8239   15.4681 H         1 PHE         0.0599
    105 H16        -2.7548    0.4373   17.4881 H         1 PHE         0.0599
    106 H17        -1.8979   -0.5847   15.4005 H         1 PHE         0.0559
    107 H18         0.3792   -5.4606   20.8092 H         1 ASP         0.1884
    108 H19         2.9343   -5.3328   19.3375 H         1 ASP         0.0819
    109 H20         2.9999   -7.7787   19.8653 H         1 ASP         0.0478
    110 H21         1.3773   -7.6392   20.6231 H         1 ASP         0.0478
    111 H22         3.2333   -6.3221   17.3270 H         1 ASN         0.1885
    112 H23         0.7836   -6.6443   15.7163 H         1 ASN         0.0826
    113 H24         3.7639   -6.7961   15.0442 H         1 ASN         0.0551
    114 H25         2.6496   -5.4240   14.7248 H         1 ASN         0.0551
    115 H26         3.0523   -7.2256   11.5355 H         1 ASN         0.1814
    116 H27         4.0417   -6.3005   12.6150 H         1 ASN         0.1814
    117 H28         0.8927  -10.9996   16.7968 H         1 PRO         0.0802
    118 H29        -1.4553  -10.8636   16.7854 H         1 PRO         0.0313
    119 H30        -1.2517  -11.7791   15.2533 H         1 PRO         0.0313
    120 H31        -2.5778   -9.5036   15.1349 H         1 PRO         0.0287
    121 H32        -1.2668   -9.7548   13.9329 H         1 PRO         0.0287
    122 H33        -0.6434   -7.6646   14.9565 H         1 PRO         0.0524
    123 H34        -1.1477   -8.2205   16.5885 H         1 PRO         0.0524
    124 H35         1.3471   -9.6300   13.6428 H         1 VAL         0.1883
    125 H36         2.1203  -12.2902   12.5849 H         1 VAL         0.0802
    126 H37         1.9619   -9.7110   10.9601 H         1 VAL         0.0343
    127 H38         1.5058  -11.2986    9.1228 H         1 VAL         0.0234
    128 H39         1.6265  -12.6677   10.2794 H         1 VAL         0.0234
    129 H40         3.0685  -11.6535    9.9344 H         1 VAL         0.0234
    130 H41        -0.1755   -9.9940   12.1760 H         1 VAL         0.0234
    131 H42        -0.2970  -11.6788   11.5651 H         1 VAL         0.0234
    132 H43        -0.3689  -10.2995   10.4166 H         1 VAL         0.0234
    133 H44         3.6774   -9.9892   14.2487 H         1 TYR         0.1885
    134 H45         5.9586   -9.3620   12.6513 H         1 TYR         0.0821
    135 H46         5.6234   -9.6338   15.6746 H         1 TYR         0.0453
    136 H47         5.4918   -8.1344   14.6943 H         1 TYR         0.0453
    137 H48         7.7196   -7.7040   13.1855 H         1 TYR         0.0530
    138 H49         7.6049   -9.9134   16.8473 H         1 TYR         0.0530
    139 H50        10.1349   -7.2977   13.5040 H         1 TYR         0.0525
    140 H51        10.0206   -9.5139   17.1680 H         1 TYR         0.0525
    141 H52        11.8973   -7.6320   14.8125 H         1 TYR         0.2458
    142 H53         7.8654  -10.3609   12.3328 H         1 ARG         0.1883
    143 H54         8.2201  -13.1521   13.3879 H         1 ARG         0.0800
    144 H55         9.5089  -13.5786   11.3136 H         1 ARG         0.0313
    145 H56         9.1587  -11.9082   10.7533 H         1 ARG         0.0313
    146 H57         7.6196  -13.1400    9.5573 H         1 ARG         0.0301
    147 H58         6.6545  -12.6515   10.9914 H         1 ARG         0.0301
    148 H59         8.0781  -15.3220   10.6090 H         1 ARG         0.0689
    149 H60         6.3170  -15.0261   10.4147 H         1 ARG         0.0689
    150 H61         7.0540  -14.1625   13.0200 H         1 ARG         0.2642
    151 H62         6.6002  -18.1723   12.5241 H         1 ARG         0.2615
    152 H63         6.8996  -17.1394   11.1006 H         1 ARG         0.2615
    153 H64         6.6723  -15.4821   14.8241 H         1 ARG         0.2615
    154 H65         6.4722  -17.2423   14.6136 H         1 ARG         0.2615
    155 H66         9.8292  -13.1005   14.8795 H         1 LYS         0.1883
    156 H67        11.6019  -10.8917   15.2171 H         1 LYS         0.0800
    157 H68        12.7514  -12.3429   16.8707 H         1 LYS         0.0312
    158 H69        11.7856  -13.7419   16.2905 H         1 LYS         0.0312
    159 H70         9.7203  -12.6204   17.0175 H         1 LYS         0.0269
    160 H71        10.6829  -11.2171   17.5927 H         1 LYS         0.0269
    161 H72        11.8854  -12.6885   19.1736 H         1 LYS         0.0317
    162 H73        10.9261  -14.0935   18.5970 H         1 LYS         0.0317
    163 H74         8.8511  -12.9886   19.3490 H         1 LYS         0.0813
    164 H75         9.8065  -11.5786   19.9197 H         1 LYS         0.0813
    165 H76         9.2881  -13.0939   21.7047 H         1 LYS         0.1994
    166 H77        10.9155  -13.0499   21.4620 H         1 LYS         0.1994
    167 H78        10.0400  -14.3420   20.9391 H         1 LYS         0.1994
    168 H79        11.9971  -13.9503   13.4843 H         1 THR         0.1876
    169 H80        14.7793  -13.0901   12.8299 H         1 THR         0.0752
    170 H81        15.2737  -15.4797   12.3476 H         1 THR         0.0632
    171 H82        13.6382  -17.0186   12.9692 H         1 THR         0.2100
    172 H83        15.1700  -16.3175   14.6774 H         1 THR         0.0256
    173 H84        13.9876  -15.0294   15.0889 H         1 THR         0.0256
    174 H85        15.6675  -14.5923   14.6270 H         1 THR         0.0256
@<TRIPOS>BOND
     1    1    2 1  
     2    2    3 1  
     3    2    5 1  
     4    3    4 2  
     5    3    9 am 
     6    5    6 1  
     7    6    7 2  
     8    6    8 am 
     9    9   10 1  
    10   10   11 1  
    11   10   13 1  
    12   11   12 2  
    13   11   20 am 
    14   13   14 1  
    15   14   15 ar 
    16   14   16 ar 
    17   15   17 ar 
    18   16   18 ar 
    19   17   19 ar 
    20   18   19 ar 
    21   20   21 1  
    22   21   22 1  
    23   21   24 1  
    24   22   23 2  
    25   22   28 am 
    26   24   25 1  
    27   25   26 ar 
    28   25   27 ar 
    29   28   29 1  
    30   29   30 1  
    31   29   32 1  
    32   30   31 2  
    33   30   36 am 
    34   32   33 1  
    35   33   34 2  
    36   33   35 am 
    37   36   37 1  
    38   36   42 1  
    39   37   38 1  
    40   37   40 1  
    41   38   39 2  
    42   38   43 am 
    43   40   41 1  
    44   41   42 1  
    45   43   44 1  
    46   44   45 1  
    47   44   47 1  
    48   45   46 2  
    49   45   50 am 
    50   47   48 1  
    51   47   49 1  
    52   50   51 1  
    53   51   52 1  
    54   51   54 1  
    55   52   53 2  
    56   52   62 am 
    57   54   55 1  
    58   55   56 ar 
    59   55   57 ar 
    60   56   58 ar 
    61   57   59 ar 
    62   58   60 ar 
    63   59   60 ar 
    64   60   61 1  
    65   62   63 1  
    66   63   64 1  
    67   63   66 1  
    68   64   65 2  
    69   64   73 am 
    70   66   67 1  
    71   67   68 1  
    72   68   69 1  
    73   69   70 ar 
    74   70   71 ar 
    75   70   72 ar 
    76   73   74 1  
    77   74   75 1  
    78   74   77 1  
    79   75   76 2  
    80   75   82 am 
    81   77   78 1  
    82   78   79 1  
    83   79   80 1  
    84   80   81 1  
    85   82   83 1  
    86   83   84 1  
    87   83   86 1  
    88   84   85 ar 
    89   84   89 ar 
    90   86   87 1  
    91   86   88 1  
    92    1   90 1  
    93    1   91 1  
    94    1   92 1  
    95    2   93 1  
    96    5   94 1  
    97    5   95 1  
    98    8   96 1  
    99    8   97 1  
   100    9   98 1  
   101   10   99 1  
   102   13  100 1  
   103   13  101 1  
   104   15  102 1  
   105   16  103 1  
   106   17  104 1  
   107   18  105 1  
   108   19  106 1  
   109   20  107 1  
   110   21  108 1  
   111   24  109 1  
   112   24  110 1  
   113   28  111 1  
   114   29  112 1  
   115   32  113 1  
   116   32  114 1  
   117   35  115 1  
   118   35  116 1  
   119   37  117 1  
   120   40  118 1  
   121   40  119 1  
   122   41  120 1  
   123   41  121 1  
   124   42  122 1  
   125   42  123 1  
   126   43  124 1  
   127   44  125 1  
   128   47  126 1  
   129   48  127 1  
   130   48  128 1  
   131   48  129 1  
   132   49  130 1  
   133   49  131 1  
   134   49  132 1  
   135   50  133 1  
   136   51  134 1  
   137   54  135 1  
   138   54  136 1  
   139   56  137 1  
   140   57  138 1  
   141   58  139 1  
   142   59  140 1  
   143   61  141 1  
   144   62  142 1  
   145   63  143 1  
   146   66  144 1  
   147   66  145 1  
   148   67  146 1  
   149   67  147 1  
   150   68  148 1  
   151   68  149 1  
   152   69  150 1  
   153   71  151 1  
   154   71  152 1  
   155   72  153 1  
   156   72  154 1  
   157   73  155 1  
   158   74  156 1  
   159   77  157 1  
   160   77  158 1  
   161   78  159 1  
   162   78  160 1  
   163   79  161 1  
   164   79  162 1  
   165   80  163 1  
   166   80  164 1  
   167   81  165 1  
   168   81  166 1  
   169   81  167 1  
   170   82  168 1  
   171   83  169 1  
   172   86  170 1  
   173   87  171 1  
   174   88  172 1  
   175   88  173 1  
   176   88  174 1  
@<TRIPOS>SUBSTRUCTURE
     1 ASN         1

