6mdd_ligand
  -I-interpret- 

 26 28  0  0  0  0  0  0  0  0999 V2000
   22.4620   41.6810    3.7930 C   0  0  0  0  0
   23.4510   40.6950    3.7780 C   0  0  0  0  0
   18.5870   40.4680    5.7110 C   0  0  0  0  0
   17.4240   40.9140    6.3530 C   0  0  0  0  0
   18.5370   40.0140    4.3690 C   0  0  0  0  0
   16.2210   40.9720    5.6530 C   0  0  0  0  0
   17.3270   40.0810    3.6600 C   0  0  0  0  0
   16.1760   40.5930    4.2970 C   0  0  0  0  0
   23.4240   39.5670    4.6200 C   0  0  0  0  0
   21.3690   40.5120    5.5090 C   0  0  0  0  0
   23.9490   42.2100    2.3490 C   0  0  0  0  0
   22.3460   39.4990    5.5210 C   0  0  0  0  0
   24.6110   42.8570    1.4280 N   0  0  0  0  0
   21.4280   41.5820    4.6660 N   0  0  0  0  0
   22.8250   42.6190    2.8800 N   0  0  0  0  0
   24.3100   41.0860    2.8270 N   0  0  0  0  0
   20.0670   40.4710    6.6940 S   0  0  0  0  0
   17.4680   41.4570    8.0220 Cl  0  0  0  0  0
   14.8210   41.5830    6.5080 Cl  0  0  0  0  0
   19.4318   39.6156    3.8908 H   0  0  0  0  0
   17.2768   39.7403    2.6258 H   0  0  0  0  0
   15.2469   40.6957    3.7363 H   0  0  0  0  0
   24.1912   38.7940    4.5764 H   0  0  0  0  0
   22.2679   38.6686    6.2227 H   0  0  0  0  0
   24.2567   43.7459    1.0747 H   0  0  0  0  0
   25.4824   42.4735    1.0618 H   0  0  0  0  0
  1  2  4  0  0  0
  1 14  4  0  0  0
 15  1  4  0  0  0
  2  9  4  0  0  0
  2 16  4  0  0  0
  3  4  4  0  0  0
  3  5  4  0  0  0
 17  3  1  0  0  0
  4  6  4  0  0  0
  4 18  1  0  0  0
  5  7  4  0  0  0
  6  8  4  0  0  0
  6 19  1  0  0  0
  7  8  4  0  0  0
  9 12  4  0  0  0
 10 12  4  0  0  0
 14 10  4  0  0  0
 10 17  1  0  0  0
 11 13  1  0  0  0
 11 15  4  0  0  0
 11 16  4  0  0  0
  5 20  1  0  0  0
  7 21  1  0  0  0
  8 22  1  0  0  0
  9 23  1  0  0  0
 12 24  1  0  0  0
 13 25  1  0  0  0
 13 26  1  0  0  0
M  END
$$$$
