2bua_ligand
  -I-interpret- 

 31 32  0  0  0  0  0  0  0  0999 V2000
   -5.9900   21.2360    4.0370 C   0  0  0  0  0
   -6.0320   22.7600    4.0340 C   0  0  0  0  0
   -7.2930   20.7280    4.6940 C   0  0  0  0  0
   -7.4930   23.1630    4.1870 C   0  0  0  0  0
   -8.2910   21.8740    4.4110 C   0  0  0  0  0
   -7.8350   19.3700    4.0770 C   0  0  0  0  0
   -6.9200   18.4100    3.5380 C   0  0  0  0  0
   -9.2290   19.0520    4.0350 C   0  0  0  0  0
   -7.3840   17.2000    2.9890 C   0  0  0  0  0
   -9.6880   17.8370    3.4810 C   0  0  0  0  0
   -8.7680   16.9150    2.9600 C   0  0  0  0  0
   -7.0280   20.5710    6.2270 C   0  0  0  0  0
   -7.0990   19.1890    6.7340 N   0  3  0  0  0
   -5.1227   20.8828    4.5948 H   0  0  0  0  0
   -5.9081   20.8580    3.0179 H   0  0  0  0  0
   -5.6167   23.1563    3.1074 H   0  0  0  0  0
   -5.4319   23.1649    4.8489 H   0  0  0  0  0
   -7.8447   23.6851    3.2972 H   0  0  0  0  0
   -7.6192   23.8461    5.0270 H   0  0  0  0  0
   -8.9691   21.9962    5.2556 H   0  0  0  0  0
   -8.8842   21.6431    3.5262 H   0  0  0  0  0
   -5.8503   18.6188    3.5530 H   0  0  0  0  0
   -9.9512   19.7616    4.4386 H   0  0  0  0  0
   -6.6730   16.4796    2.5845 H   0  0  0  0  0
  -10.7551   17.6159    3.4582 H   0  0  0  0  0
   -9.1213   15.9769    2.5319 H   0  0  0  0  0
   -7.8074   21.1344    6.7400 H   0  0  0  0  0
   -6.0114   20.9202    6.4076 H   0  0  0  0  0
   -6.9137   19.1861    7.7370 H   0  0  0  0  0
   -8.0298   18.8109    6.5579 H   0  0  0  0  0
   -6.4024   18.6168    6.2567 H   0  0  0  0  0
  1  2  1  0  0  0
  1  3  1  0  0  0
  2  4  1  0  0  0
  3  5  1  0  0  0
  3  6  1  0  0  0
  3 12  1  0  0  0
  4  5  1  0  0  0
  6  7  4  0  0  0
  6  8  4  0  0  0
  7  9  4  0  0  0
  8 10  4  0  0  0
  9 11  4  0  0  0
 10 11  4  0  0  0
 12 13  1  0  0  0
  1 14  1  0  0  0
  1 15  1  0  0  0
  2 16  1  0  0  0
  2 17  1  0  0  0
  4 18  1  0  0  0
  4 19  1  0  0  0
  5 20  1  0  0  0
  5 21  1  0  0  0
  7 22  1  0  0  0
  8 23  1  0  0  0
  9 24  1  0  0  0
 10 25  1  0  0  0
 11 26  1  0  0  0
 12 27  1  0  0  0
 12 28  1  0  0  0
 13 29  1  0  0  0
 13 30  1  0  0  0
 13 31  1  0  0  0
M  END
$$$$
