3l58_ligand
  -I-interpret- 

 84 86  0  0  0  0  0  0  0  0999 V2000
   27.0810   15.4430   24.4790 C   0  0  0  0  0
   25.7930   15.7870   24.9770 C   0  0  0  0  0
   24.6770   14.9440   24.7060 C   0  0  0  0  0
   24.8450   13.7550   23.9370 C   0  0  0  0  0
   26.1390   13.4060   23.4470 C   0  0  0  0  0
   27.2620   14.2480   23.7230 C   0  0  0  0  0
   28.6220   13.8620   23.3120 C   0  0  0  0  0
   28.8520   13.6800   21.9720 N   0  0  0  0  0
   29.5250   13.7050   24.1330 O   0  0  0  0  0
   27.9230   14.1110   20.9160 C   0  0  0  0  0
   28.5830   15.0980   19.9700 C   0  0  0  0  0
   29.0380   16.3550   20.6820 C   0  0  0  0  0
   30.1240   13.0590   21.6070 C   0  0  0  0  0
   29.9390   11.6090   21.1600 C   0  0  0  0  0
   29.2920   10.7560   22.2160 C   0  0  0  0  0
   23.6820   12.9030   23.6520 C   0  0  0  0  0
   23.9790   11.5950   23.5110 N   0  0  0  0  0
   22.5280   13.3310   23.5510 O   0  0  0  0  0
   22.9110   10.6790   23.1130 C   0  0  0  0  0
   22.4280    9.8910   24.3390 C   0  0  0  0  0
   23.3940    9.7320   22.0030 C   0  0  0  0  0
   23.5640    9.3860   25.0430 O   0  0  0  0  0
   21.6150   10.7940   25.2750 C   0  0  0  0  0
   20.9930    9.9750   26.3310 N   0  3  0  0  0
   20.0640   10.7720   27.1630 C   0  0  0  0  0
   18.8600   11.2940   26.3940 C   0  0  0  0  0
   23.9800   10.5300   20.8560 C   0  0  0  0  0
   25.3320   10.3210   20.4570 C   0  0  0  0  0
   25.8830   11.0830   19.3870 C   0  0  0  0  0
   25.0840   12.0530   18.7170 C   0  0  0  0  0
   23.7350   12.2620   19.1190 C   0  0  0  0  0
   23.1830   11.4990   20.1820 C   0  0  0  0  0
   18.5290   12.6820   26.4550 C   0  0  0  0  0
   17.4110   13.1800   25.7210 C   0  0  0  0  0
   16.6210   12.2910   24.9240 C   0  0  0  0  0
   16.9490   10.9030   24.8610 C   0  0  0  0  0
   18.0690   10.4060   25.6060 C   0  0  0  0  0
   16.1970   10.0640   24.0490 O   0  0  0  0  0
   15.7950    8.8620   24.7170 C   0  0  0  0  0
   25.6190   17.0080   25.7800 C   0  0  0  0  0
   27.1510   10.8930   19.0130 F   0  0  0  0  0
   22.9910   13.1920   18.5130 F   0  0  0  0  0
   27.9318   16.0952   24.6762 H   0  0  0  0  0
   23.6911   15.2089   25.0879 H   0  0  0  0  0
   26.2719   12.4963   22.8614 H   0  0  0  0  0
   27.0674   14.5979   21.3840 H   0  0  0  0  0
   27.6163   13.2348   20.3448 H   0  0  0  0  0
   27.8526   15.3825   19.2126 H   0  0  0  0  0
   29.4598   14.6176   19.5358 H   0  0  0  0  0
   28.1773   16.8448   21.1374 H   0  0  0  0  0
   29.7594   16.0919   21.4556 H   0  0  0  0  0
   29.5036   17.0297   19.9636 H   0  0  0  0  0
   30.7736   13.0679   22.4822 H   0  0  0  0  0
   30.5548   13.6210   20.7784 H   0  0  0  0  0
   30.9251   11.1940   20.9515 H   0  0  0  0  0
   29.2899   11.6083   20.2843 H   0  0  0  0  0
   29.9140   10.7540   23.1111 H   0  0  0  0  0
   28.3088   11.1607   22.4561 H   0  0  0  0  0
   29.1858    9.7371   21.8435 H   0  0  0  0  0
   24.9254   11.2531   23.6779 H   0  0  0  0  0
   22.0756   11.2545   22.7142 H   0  0  0  0  0
   21.7927    9.0706   24.0052 H   0  0  0  0  0
   22.5488    9.1486   21.6378 H   0  0  0  0  0
   24.1602    9.0698   22.4062 H   0  0  0  0  0
   23.2692    8.8918   25.8114 H   0  0  0  0  0
   20.8377   11.3023   24.7045 H   0  0  0  0  0
   22.2745   11.5331   25.7298 H   0  0  0  0  0
   21.7315    9.6098   26.9324 H   0  0  0  0  0
   20.4643    9.2242   25.8869 H   0  0  0  0  0
   20.6152   11.6354   27.5356 H   0  0  0  0  0
   19.6914   10.1215   27.9543 H   0  0  0  0  0
   25.9438    9.5789   20.9700 H   0  0  0  0  0
   25.5053   12.6347   17.8971 H   0  0  0  0  0
   22.1470   11.6553   20.4827 H   0  0  0  0  0
   19.1295   13.3601   27.0614 H   0  0  0  0  0
   17.1581   14.2392   25.7673 H   0  0  0  0  0
   15.7678   12.6745   24.3645 H   0  0  0  0  0
   18.3170    9.3452   25.5700 H   0  0  0  0  0
   16.6801    8.3123   25.0371 H   0  0  0  0  0
   15.1894    9.1164   25.5869 H   0  0  0  0  0
   15.2107    8.2460   24.0335 H   0  0  0  0  0
   26.2406   16.9456   26.6732 H   0  0  0  0  0
   25.9152   17.8750   25.1895 H   0  0  0  0  0
   24.5727   17.1046   26.0700 H   0  0  0  0  0
  1  2  4  0  0  0
  1  6  4  0  0  0
  2  3  4  0  0  0
  2 40  1  0  0  0
  3  4  4  0  0  0
  4  5  4  0  0  0
  4 16  1  0  0  0
  5  6  4  0  0  0
  6  7  1  0  0  0
  7  8  1  0  0  0
  7  9  2  0  0  0
  8 10  1  0  0  0
  8 13  1  0  0  0
 10 11  1  0  0  0
 11 12  1  0  0  0
 13 14  1  0  0  0
 14 15  1  0  0  0
 16 17  1  0  0  0
 16 18  2  0  0  0
 17 19  1  0  0  0
 19 20  1  0  0  0
 19 21  1  0  0  0
 20 22  1  0  0  0
 20 23  1  0  0  0
 21 27  1  0  0  0
 23 24  1  0  0  0
 24 25  1  0  0  0
 25 26  1  0  0  0
 26 33  4  0  0  0
 26 37  4  0  0  0
 27 28  4  0  0  0
 27 32  4  0  0  0
 28 29  4  0  0  0
 29 30  4  0  0  0
 29 41  1  0  0  0
 30 31  4  0  0  0
 31 32  4  0  0  0
 31 42  1  0  0  0
 33 34  4  0  0  0
 34 35  4  0  0  0
 35 36  4  0  0  0
 36 37  4  0  0  0
 36 38  1  0  0  0
 38 39  1  0  0  0
  1 43  1  0  0  0
  3 44  1  0  0  0
  5 45  1  0  0  0
 10 46  1  0  0  0
 10 47  1  0  0  0
 11 48  1  0  0  0
 11 49  1  0  0  0
 12 50  1  0  0  0
 12 51  1  0  0  0
 12 52  1  0  0  0
 13 53  1  0  0  0
 13 54  1  0  0  0
 14 55  1  0  0  0
 14 56  1  0  0  0
 15 57  1  0  0  0
 15 58  1  0  0  0
 15 59  1  0  0  0
 17 60  1  0  0  0
 19 61  1  0  0  0
 20 62  1  0  0  0
 21 63  1  0  0  0
 21 64  1  0  0  0
 22 65  1  0  0  0
 23 66  1  0  0  0
 23 67  1  0  0  0
 24 68  1  0  0  0
 24 69  1  0  0  0
 25 70  1  0  0  0
 25 71  1  0  0  0
 28 72  1  0  0  0
 30 73  1  0  0  0
 32 74  1  0  0  0
 33 75  1  0  0  0
 34 76  1  0  0  0
 35 77  1  0  0  0
 37 78  1  0  0  0
 39 79  1  0  0  0
 39 80  1  0  0  0
 39 81  1  0  0  0
 40 82  1  0  0  0
 40 83  1  0  0  0
 40 84  1  0  0  0
M  END
$$$$
