4o1b_ligand
  -I-interpret- 

 58 60  0  0  0  0  0  0  0  0999 V2000
   11.9840    1.9800   -8.0720 C   0  0  0  0  0
   12.5160    0.8860   -8.7240 C   0  0  0  0  0
   12.9410   -0.2190   -8.0130 C   0  0  0  0  0
   12.8460   -0.2300   -6.6310 C   0  0  0  0  0
   12.3170    0.8570   -5.9670 C   0  0  0  0  0
   11.8900    1.9800   -6.6800 C   0  0  0  0  0
   11.3230    3.1360   -5.9400 C   0  0  0  0  0
   10.1950    3.0290   -5.4840 O   0  0  0  0  0
   12.0190    4.2890   -5.7710 N   0  0  0  0  0
   11.4460    5.4020   -5.0000 C   0  0  0  0  0
   12.3350    5.5530   -3.7470 C   0  0  0  0  0
   13.3970    4.4770   -6.2580 C   0  0  0  0  0
   14.3130    4.7030   -5.0380 C   0  0  0  0  0
   13.7940    5.8420   -4.1350 C   0  0  0  0  0
   14.6450    5.9750   -2.8470 C   0  0  0  0  0
   14.4620    7.3620   -2.1930 C   0  0  0  0  0
   14.9600    7.4510   -0.7320 C   0  0  0  0  0
   15.3040    8.9120   -0.3780 C   0  0  0  0  0
   15.5680    9.1120    1.0520 N   0  0  0  0  0
   14.8970    9.9890    1.8390 C   0  0  0  0  0
   13.9730   10.6730    1.4140 O   0  0  0  0  0
   15.2500   10.0150    3.2650 C   0  0  0  0  0
   14.4690   10.6990    4.1400 C   0  0  0  0  0
   14.7860   10.6310    5.5780 C   0  0  0  0  0
   15.9240    9.9640    6.0630 C   0  0  0  0  0
   16.1520    9.8770    7.3760 C   0  0  0  0  0
   15.3200   10.4030    8.2680 C   0  0  0  0  0
   14.1770   11.0530    7.8470 N   0  0  0  0  0
   13.8910   11.1700    6.4990 C   0  0  0  0  0
   11.6382    2.8416   -8.6431 H   0  0  0  0  0
   12.6015    0.8943   -9.8106 H   0  0  0  0  0
   13.3507   -1.0815   -8.5386 H   0  0  0  0  0
   13.1894   -1.0980   -6.0682 H   0  0  0  0  0
   12.2317    0.8398   -4.8805 H   0  0  0  0  0
   10.4099    5.2015   -4.7273 H   0  0  0  0  0
   11.4296    6.3211   -5.5858 H   0  0  0  0  0
   12.3024    4.6215   -3.1819 H   0  0  0  0  0
   11.9607    6.3862   -3.1522 H   0  0  0  0  0
   13.4441    5.3369   -6.9262 H   0  0  0  0  0
   13.7218    3.5965   -6.8123 H   0  0  0  0  0
   15.3041    4.9770   -5.3997 H   0  0  0  0  0
   14.3359    3.7843   -4.4518 H   0  0  0  0  0
   13.8649    6.7774   -4.6901 H   0  0  0  0  0
   15.6953    5.8523   -3.1113 H   0  0  0  0  0
   14.3225    5.2123   -2.1382 H   0  0  0  0  0
   13.3921    7.5701   -2.1791 H   0  0  0  0  0
   15.0516    8.0701   -2.7753 H   0  0  0  0  0
   15.8529    6.8359   -0.6201 H   0  0  0  0  0
   14.1751    7.0962   -0.0641 H   0  0  0  0  0
   14.4456    9.5282   -0.6454 H   0  0  0  0  0
   16.2095    9.1800   -0.9223 H   0  0  0  0  0
   16.3054    8.5540    1.4824 H   0  0  0  0  0
   16.1355    9.4872    3.6191 H   0  0  0  0  0
   13.6229   11.2877    3.7856 H   0  0  0  0  0
   16.6265    9.5139    5.3616 H   0  0  0  0  0
   17.0457    9.3600    7.7254 H   0  0  0  0  0
   15.5397   10.3214    9.3325 H   0  0  0  0  0
   12.9841   11.6735    6.1643 H   0  0  0  0  0
  1  2  4  0  0  0
  1  6  4  0  0  0
  2  3  4  0  0  0
  3  4  4  0  0  0
  4  5  4  0  0  0
  5  6  4  0  0  0
  6  7  1  0  0  0
  7  8  2  0  0  0
  7  9  1  0  0  0
  9 10  1  0  0  0
  9 12  1  0  0  0
 10 11  1  0  0  0
 11 14  1  0  0  0
 12 13  1  0  0  0
 13 14  1  0  0  0
 14 15  1  0  0  0
 15 16  1  0  0  0
 16 17  1  0  0  0
 17 18  1  0  0  0
 18 19  1  0  0  0
 19 20  1  0  0  0
 20 21  2  0  0  0
 20 22  1  0  0  0
 22 23  2  0  0  0
 23 24  1  0  0  0
 24 25  4  0  0  0
 24 29  4  0  0  0
 25 26  4  0  0  0
 26 27  4  0  0  0
 27 28  4  0  0  0
 28 29  4  0  0  0
  1 30  1  0  0  0
  2 31  1  0  0  0
  3 32  1  0  0  0
  4 33  1  0  0  0
  5 34  1  0  0  0
 10 35  1  0  0  0
 10 36  1  0  0  0
 11 37  1  0  0  0
 11 38  1  0  0  0
 12 39  1  0  0  0
 12 40  1  0  0  0
 13 41  1  0  0  0
 13 42  1  0  0  0
 14 43  1  0  0  0
 15 44  1  0  0  0
 15 45  1  0  0  0
 16 46  1  0  0  0
 16 47  1  0  0  0
 17 48  1  0  0  0
 17 49  1  0  0  0
 18 50  1  0  0  0
 18 51  1  0  0  0
 19 52  1  0  0  0
 22 53  1  0  0  0
 23 54  1  0  0  0
 25 55  1  0  0  0
 26 56  1  0  0  0
 27 57  1  0  0  0
 29 58  1  0  0  0
M  END
$$$$
