1d1p_ligand
  -I-interpret- 

 35 35  0  0  0  0  0  0  0  0999 V2000
   -4.1490    2.2440   29.2940 N   0  3  0  0  0
   -4.7340    2.5950   28.0110 C   0  0  0  0  0
   -6.0290    3.3870   28.3020 C   0  0  0  0  0
   -6.9950    2.5910   29.1150 N   0  3  0  0  0
   -6.3200    2.1380   30.3750 C   0  0  0  0  0
   -5.0370    1.3620   30.0780 C   0  0  0  0  0
   -8.2130    3.4030   29.3810 C   0  0  0  0  0
   -9.2680    2.7150   30.2100 C   0  0  0  0  0
   -9.7770    1.4870   29.6800 O   0  0  0  0  0
   -2.7100    2.0330   29.4200 C   0  0  0  0  0
   -2.0160    0.7880   28.9150 C   0  0  0  0  0
   -0.3250    1.0900   29.4660 S   0  0  0  0  0
   -0.4120    1.8640   30.7390 O   0  0  0  0  0
    0.3470   -0.1810   29.6400 O   0  0  0  0  0
    0.2900    1.9030   28.4270 O   0  0  0  0  0
   -4.1164    3.1443   29.7724 H   0  0  0  0  0
   -4.9538    1.6988   27.4308 H   0  0  0  0  0
   -4.0398    3.1959   27.4236 H   0  0  0  0  0
   -6.5019    3.6317   27.3509 H   0  0  0  0  0
   -5.7639    4.2822   28.8646 H   0  0  0  0  0
   -7.2936    1.7586   28.6068 H   0  0  0  0  0
   -7.0026    1.4815   30.9146 H   0  0  0  0  0
   -6.0616    3.0186   30.9631 H   0  0  0  0  0
   -4.5509    1.0637   31.0069 H   0  0  0  0  0
   -5.2636    0.4560   29.5160 H   0  0  0  0  0
   -8.6648    3.6196   28.4130 H   0  0  0  0  0
   -7.8909    4.2786   29.9446 H   0  0  0  0  0
  -10.1135    3.4009   30.2615 H   0  0  0  0  0
   -8.7974    2.4670   31.1614 H   0  0  0  0  0
  -10.4383    1.1314   30.2781 H   0  0  0  0  0
   -2.5589    1.9827   30.4983 H   0  0  0  0  0
   -2.2869    2.8232   28.7998 H   0  0  0  0  0
   -2.1092    0.6363   27.8396 H   0  0  0  0  0
   -2.4443   -0.1402   29.2934 H   0  0  0  0  0
   -0.8631    2.6956   30.5763 H   0  0  0  0  0
  1  2  1  0  0  0
  1  6  1  0  0  0
  1 10  1  0  0  0
  2  3  1  0  0  0
  3  4  1  0  0  0
  4  5  1  0  0  0
  4  7  1  0  0  0
  5  6  1  0  0  0
  7  8  1  0  0  0
  8  9  1  0  0  0
 10 11  1  0  0  0
 11 12  1  0  0  0
 12 13  1  0  0  0
 12 14  2  0  0  0
 12 15  2  0  0  0
  1 16  1  0  0  0
  2 17  1  0  0  0
  2 18  1  0  0  0
  3 19  1  0  0  0
  3 20  1  0  0  0
  4 21  1  0  0  0
  5 22  1  0  0  0
  5 23  1  0  0  0
  6 24  1  0  0  0
  6 25  1  0  0  0
  7 26  1  0  0  0
  7 27  1  0  0  0
  8 28  1  0  0  0
  8 29  1  0  0  0
  9 30  1  0  0  0
 10 31  1  0  0  0
 10 32  1  0  0  0
 11 33  1  0  0  0
 11 34  1  0  0  0
 13 35  1  0  0  0
M  END
$$$$
