4wyo_ligand
  -I-interpret- 

 54 58  0  0  0  0  0  0  0  0999 V2000
   11.5070  -10.3530  -18.8370 C   0  0  0  0  0
   10.0600  -10.9770  -22.3500 C   0  0  0  0  0
   10.7000  -11.2710  -20.9890 C   0  0  0  0  0
    5.6550   -9.0640  -15.6030 C   0  0  0  0  0
    7.3440  -11.2850  -15.4010 C   0  0  0  0  0
    4.5150   -8.1600  -15.5840 C   0  0  0  0  0
   10.1880   -7.3660  -22.4780 C   0  0  0  0  0
   10.5200  -10.0970  -20.0020 C   0  0  0  0  0
    9.0360  -10.0780  -19.5510 C   0  0  0  0  0
    8.8350   -9.1610  -18.3340 C   0  0  0  0  0
    9.7820   -9.5630  -17.2670 N   0  0  0  0  0
   11.2290   -9.4950  -17.5920 C   0  0  0  0  0
   10.8580   -8.8120  -20.5890 O   0  0  0  0  0
    9.6430  -11.8550  -23.0810 O   0  0  0  0  0
    9.3390   -9.9660  -16.0370 C   0  0  0  0  0
    7.8870  -10.0300  -15.7250 C   0  0  0  0  0
   10.1340  -10.3070  -15.1800 O   0  0  0  0  0
    7.0380   -8.9090  -15.8400 C   0  0  0  0  0
    5.9950  -11.4490  -15.2310 C   0  0  0  0  0
    5.1270  -10.3510  -15.2990 C   0  0  0  0  0
    3.4540   -8.8570  -15.2760 N   0  0  0  0  0
    3.7830  -10.2050  -15.0860 N   0  0  0  0  0
   10.3850   -8.5240  -21.8290 C   0  0  0  0  0
   10.0050   -9.5610  -22.7470 C   0  0  0  0  0
    9.5610   -8.9880  -23.8250 N   0  0  0  0  0
    9.6790   -7.6970  -23.7100 N   0  0  0  0  0
    9.3210   -6.7640  -24.7850 C   0  0  0  0  0
    7.8800   -7.0660  -25.2190 C   0  0  0  0  0
    9.4790   -5.3080  -24.3110 C   0  0  0  0  0
   10.2690   -7.0060  -25.9700 C   0  0  0  0  0
   12.5050  -10.0972  -19.1930 H   0  0  0  0  0
   11.4010  -11.3974  -18.5435 H   0  0  0  0  0
   11.7677  -11.4293  -21.1406 H   0  0  0  0  0
   10.2145  -12.1505  -20.5660 H   0  0  0  0  0
    8.0073  -12.1419  -15.2831 H   0  0  0  0  0
    4.5416   -7.0900  -15.7904 H   0  0  0  0  0
   10.3913   -6.3631  -22.1024 H   0  0  0  0  0
    8.7440  -11.0911  -19.2746 H   0  0  0  0  0
    8.4278   -9.7018  -20.3736 H   0  0  0  0  0
    7.8113   -9.2508  -17.9706 H   0  0  0  0  0
    9.0197   -8.1253  -18.6190 H   0  0  0  0  0
   11.5119   -8.4610  -17.7892 H   0  0  0  0  0
   11.8114   -9.8708  -16.7507 H   0  0  0  0  0
    7.4453   -7.9344  -16.1088 H   0  0  0  0  0
    5.5923  -12.4439  -15.0408 H   0  0  0  0  0
    7.8175   -8.0937  -25.5768 H   0  0  0  0  0
    7.2107   -6.9346  -24.3688 H   0  0  0  0  0
    7.5921   -6.3834  -26.0185 H   0  0  0  0  0
    8.8251   -5.1323  -23.4568 H   0  0  0  0  0
   10.5145   -5.1325  -24.0196 H   0  0  0  0  0
    9.2089   -4.6318  -25.1221 H   0  0  0  0  0
   11.2973   -6.8339  -25.6520 H   0  0  0  0  0
   10.1615   -8.0342  -26.3156 H   0  0  0  0  0
   10.0183   -6.3210  -26.7800 H   0  0  0  0  0
  1  8  1  0  0  0
 12  1  1  0  0  0
  3  2  1  0  0  0
  2 14  2  0  0  0
  2 24  1  0  0  0
  8  3  1  0  0  0
  4  6  4  0  0  0
 18  4  4  0  0  0
  4 20  4  0  0  0
 16  5  4  0  0  0
  5 19  4  0  0  0
  6 21  4  0  0  0
 23  7  4  0  0  0
  7 26  4  0  0  0
  9  8  1  0  0  0
  8 13  1  0  0  0
 10  9  1  0  0  0
 11 10  1  0  0  0
 11 12  1  0  0  0
 15 11  1  0  0  0
 13 23  1  0  0  0
 16 15  1  0  0  0
 15 17  2  0  0  0
 16 18  4  0  0  0
 19 20  4  0  0  0
 20 22  4  0  0  0
 21 22  4  0  0  0
 23 24  4  0  0  0
 24 25  4  0  0  0
 25 26  4  0  0  0
 26 27  1  0  0  0
 27 28  1  0  0  0
 27 29  1  0  0  0
 27 30  1  0  0  0
  1 31  1  0  0  0
  1 32  1  0  0  0
  3 33  1  0  0  0
  3 34  1  0  0  0
  5 35  1  0  0  0
  6 36  1  0  0  0
  7 37  1  0  0  0
  9 38  1  0  0  0
  9 39  1  0  0  0
 10 40  1  0  0  0
 10 41  1  0  0  0
 12 42  1  0  0  0
 12 43  1  0  0  0
 18 44  1  0  0  0
 19 45  1  0  0  0
 28 46  1  0  0  0
 28 47  1  0  0  0
 28 48  1  0  0  0
 29 49  1  0  0  0
 29 50  1  0  0  0
 29 51  1  0  0  0
 30 52  1  0  0  0
 30 53  1  0  0  0
 30 54  1  0  0  0
M  END
$$$$
