4p1u_ligand
  -I-interpret- 

 47 51  0  0  0  0  0  0  0  0999 V2000
  -47.4340   -4.7490    1.6290 C   0  0  0  0  0
  -46.1210   -4.9130    1.2190 C   0  0  0  0  0
  -45.7020   -4.3800    0.0040 C   0  0  0  0  0
  -47.8600   -3.5780   -0.4420 C   0  0  0  0  0
  -48.3300   -4.0810    0.7850 C   0  0  0  0  0
  -49.7640   -3.7490    0.8590 C   0  0  0  0  0
  -46.5680   -3.7510   -0.7790 N   0  0  0  0  0
  -50.0870   -3.1210   -0.3030 C   0  0  0  0  0
  -48.9470   -2.9700   -1.0520 N   0  0  0  0  0
  -50.6430   -4.0340    2.0080 C   0  0  0  0  0
  -51.9060   -3.6110    2.0530 N   0  0  0  0  0
  -52.6790   -3.8400    3.1240 C   0  0  0  0  0
  -52.1480   -4.5210    4.2070 C   0  0  0  0  0
  -50.8270   -4.9640    4.1250 C   0  0  0  0  0
  -50.1150   -4.6870    3.0350 N   0  0  0  0  0
  -50.2860   -5.6600    5.1910 N   0  0  0  0  0
  -48.8830   -6.0770    5.2650 C   0  0  0  0  0
  -48.8900   -7.3240    6.1930 C   0  0  0  0  0
  -47.7630   -7.2080    7.2380 C   0  0  0  0  0
  -46.4370   -6.8570    6.5170 C   0  0  0  0  0
  -46.5300   -5.4490    5.8620 C   0  0  0  0  0
  -47.9960   -4.9700    5.8960 C   0  0  0  0  0
  -48.3590   -4.7600    7.3880 C   0  0  0  0  0
  -48.1690   -6.0650    8.1930 C   0  0  0  0  0
  -48.9160   -8.6450    5.4530 C   0  0  0  0  0
  -49.0880   -9.6520    6.0970 O   0  0  0  0  0
  -48.7910   -8.7100    4.1130 O   0  0  0  0  0
  -52.8640   -4.7880    5.3230 F   0  0  0  0  0
  -45.2730   -5.5620    2.0340 F   0  0  0  0  0
  -47.7647   -5.1339    2.5937 H   0  0  0  0  0
  -44.6613   -4.4795   -0.3045 H   0  0  0  0  0
  -51.0853   -2.7922   -0.5916 H   0  0  0  0  0
  -53.7127   -3.4946    3.1424 H   0  0  0  0  0
  -50.8992   -5.8968    5.9709 H   0  0  0  0  0
  -48.4769   -6.2801    4.2741 H   0  0  0  0  0
  -49.8380   -7.3308    6.7309 H   0  0  0  0  0
  -47.6184   -8.1391    7.7859 H   0  0  0  0  0
  -46.2494   -7.5978    5.7397 H   0  0  0  0  0
  -45.6267   -6.8559    7.2461 H   0  0  0  0  0
  -46.1864   -5.5026    4.8290 H   0  0  0  0  0
  -45.9029   -4.7474    6.4121 H   0  0  0  0  0
  -48.1468   -4.0450    5.3395 H   0  0  0  0  0
  -49.4040   -4.4572    7.4544 H   0  0  0  0  0
  -47.7034   -3.9945    7.8030 H   0  0  0  0  0
  -47.3866   -5.9204    8.9380 H   0  0  0  0  0
  -49.1040   -6.3233    8.6902 H   0  0  0  0  0
  -48.6611   -7.8261    3.7616 H   0  0  0  0  0
  1  2  4  0  0  0
  1  5  4  0  0  0
  2  3  4  0  0  0
  2 29  1  0  0  0
  3  7  4  0  0  0
  5  4  4  0  0  0
  4  7  4  0  0  0
  4  9  4  0  0  0
  5  6  4  0  0  0
  6  8  4  0  0  0
  6 10  1  0  0  0
  8  9  4  0  0  0
 10 11  4  0  0  0
 10 15  4  0  0  0
 11 12  4  0  0  0
 12 13  4  0  0  0
 13 14  4  0  0  0
 13 28  1  0  0  0
 14 15  4  0  0  0
 14 16  1  0  0  0
 16 17  1  0  0  0
 17 18  1  0  0  0
 17 22  1  0  0  0
 18 19  1  0  0  0
 18 25  1  0  0  0
 19 20  1  0  0  0
 19 24  1  0  0  0
 20 21  1  0  0  0
 21 22  1  0  0  0
 22 23  1  0  0  0
 23 24  1  0  0  0
 25 26  2  0  0  0
 25 27  1  0  0  0
  1 30  1  0  0  0
  3 31  1  0  0  0
  8 32  1  0  0  0
 12 33  1  0  0  0
 16 34  1  0  0  0
 17 35  1  0  0  0
 18 36  1  0  0  0
 19 37  1  0  0  0
 20 38  1  0  0  0
 20 39  1  0  0  0
 21 40  1  0  0  0
 21 41  1  0  0  0
 22 42  1  0  0  0
 23 43  1  0  0  0
 23 44  1  0  0  0
 24 45  1  0  0  0
 24 46  1  0  0  0
 27 47  1  0  0  0
M  END
$$$$
