4jq8_ligand
  -I-interpret- 

 71 75  0  0  0  0  0  0  0  0999 V2000
  155.6730  120.1920  196.2610 C   0  0  0  0  0
  154.3330  120.7330  196.5650 N   0  3  0  0  0
  153.2940  119.8090  196.0690 C   0  0  0  0  0
  154.1330  122.1350  196.1470 C   0  0  0  0  0
  153.4990  122.9410  197.2770 C   0  0  0  0  0
  152.1640  123.5670  196.7710 C   0  0  0  0  0
  152.1110  124.0380  195.6440 O   0  0  0  0  0
  151.1450  123.6630  197.6740 N   0  0  0  0  0
  149.9490  124.2320  197.3340 C   0  0  0  0  0
  149.0610  124.5510  198.3820 C   0  0  0  0  0
  149.5380  124.5230  196.0210 C   0  0  0  0  0
  148.2850  125.0940  195.7960 C   0  0  0  0  0
  147.4190  125.3870  196.8500 C   0  0  0  0  0
  147.7970  125.1300  198.1740 C   0  0  0  0  0
  146.9610  125.3930  199.2200 C   0  0  0  0  0
  146.5090  124.4600  200.1160 C   0  0  0  0  0
  146.3940  126.5800  199.5480 C   0  0  0  0  0
  146.5280  127.8050  199.0400 C   0  0  0  0  0
  147.5520  128.1700  198.1520 C   0  0  0  0  0
  147.6440  129.4830  197.7040 C   0  0  0  0  0
  146.7540  130.4470  198.1670 C   0  0  0  0  0
  145.7640  130.1090  199.0800 C   0  0  0  0  0
  145.6560  128.7960  199.5200 C   0  0  0  0  0
  145.6290  126.4140  200.6270 O   0  0  0  0  0
  145.6910  125.1240  200.9760 C   0  0  0  0  0
  145.0710  124.5160  201.9980 N   0  0  0  0  0
  145.2770  123.1540  202.2020 C   0  0  0  0  0
  146.1150  122.4720  201.3340 N   0  0  0  0  0
  146.7090  123.1240  200.3130 C   0  0  0  0  0
  147.4820  122.4160  199.4480 N   0  0  0  0  0
  147.8220  120.9760  199.6370 C   0  0  0  0  0
  148.7770  120.5070  198.5660 C   0  0  0  0  0
  150.0700  121.0460  198.8070 O   0  0  0  0  0
  146.6880  120.1040  199.6130 C   0  0  0  0  0
  145.4330  120.4960  199.1440 C   0  0  0  0  0
  144.3500  119.6110  199.1490 C   0  0  0  0  0
  144.4990  118.3090  199.6090 C   0  0  0  0  0
  145.7420  117.9030  200.0660 C   0  0  0  0  0
  146.8180  118.7910  200.0750 C   0  0  0  0  0
  155.8439  120.2316  195.1852 H   0  0  0  0  0
  156.4287  120.7882  196.7724 H   0  0  0  0  0
  155.7320  119.1583  196.6018 H   0  0  0  0  0
  154.2491  120.7856  197.5802 H   0  0  0  0  0
  152.3204  120.1235  196.4449 H   0  0  0  0  0
  153.2863  119.8243  194.9791 H   0  0  0  0  0
  153.5108  118.7994  196.4180 H   0  0  0  0  0
  153.4716  122.1566  195.2808 H   0  0  0  0  0
  155.0996  122.5726  195.8974 H   0  0  0  0  0
  154.1799  123.7328  197.5892 H   0  0  0  0  0
  153.2986  122.2872  198.1258 H   0  0  0  0  0
  151.2780  123.3039  198.6194 H   0  0  0  0  0
  149.3704  124.3378  199.4052 H   0  0  0  0  0
  150.1968  124.3030  195.1810 H   0  0  0  0  0
  147.9759  125.3160  194.7746 H   0  0  0  0  0
  146.4404  125.8194  196.6414 H   0  0  0  0  0
  148.2734  127.4258  197.8144 H   0  0  0  0  0
  148.4171  129.7584  196.9866 H   0  0  0  0  0
  146.8344  131.4740  197.8108 H   0  0  0  0  0
  145.0758  130.8694  199.4492 H   0  0  0  0  0
  144.8865  128.5319  200.2454 H   0  0  0  0  0
  144.7893  122.6350  203.0272 H   0  0  0  0  0
  147.8492  122.8949  198.6257 H   0  0  0  0  0
  148.2728  120.9234  200.6280 H   0  0  0  0  0
  148.4212  120.8436  197.5923 H   0  0  0  0  0
  148.8308  119.4184  198.5817 H   0  0  0  0  0
  150.6734  120.7450  198.1237 H   0  0  0  0  0
  145.2947  121.5095  198.7673 H   0  0  0  0  0
  143.3780  119.9469  198.7878 H   0  0  0  0  0
  143.6543  117.6201  199.6104 H   0  0  0  0  0
  145.8805  116.8819  200.4213 H   0  0  0  0  0
  147.7834  118.4528  200.4514 H   0  0  0  0  0
  1  2  1  0  0  0
  2  3  1  0  0  0
  2  4  1  0  0  0
  4  5  1  0  0  0
  5  6  1  0  0  0
  6  7  2  0  0  0
  6  8  1  0  0  0
  8  9  1  0  0  0
  9 10  4  0  0  0
  9 11  4  0  0  0
 10 14  4  0  0  0
 11 12  4  0  0  0
 12 13  4  0  0  0
 13 14  4  0  0  0
 14 15  1  0  0  0
 15 16  4  0  0  0
 15 17  4  0  0  0
 16 25  4  0  0  0
 16 29  4  0  0  0
 17 18  1  0  0  0
 17 24  4  0  0  0
 18 19  4  0  0  0
 18 23  4  0  0  0
 19 20  4  0  0  0
 20 21  4  0  0  0
 21 22  4  0  0  0
 22 23  4  0  0  0
 24 25  4  0  0  0
 25 26  4  0  0  0
 26 27  4  0  0  0
 27 28  4  0  0  0
 28 29  4  0  0  0
 29 30  1  0  0  0
 30 31  1  0  0  0
 31 32  1  0  0  0
 31 34  1  0  0  0
 32 33  1  0  0  0
 34 35  4  0  0  0
 34 39  4  0  0  0
 35 36  4  0  0  0
 36 37  4  0  0  0
 37 38  4  0  0  0
 38 39  4  0  0  0
  1 40  1  0  0  0
  1 41  1  0  0  0
  1 42  1  0  0  0
  2 43  1  0  0  0
  3 44  1  0  0  0
  3 45  1  0  0  0
  3 46  1  0  0  0
  4 47  1  0  0  0
  4 48  1  0  0  0
  5 49  1  0  0  0
  5 50  1  0  0  0
  8 51  1  0  0  0
 10 52  1  0  0  0
 11 53  1  0  0  0
 12 54  1  0  0  0
 13 55  1  0  0  0
 19 56  1  0  0  0
 20 57  1  0  0  0
 21 58  1  0  0  0
 22 59  1  0  0  0
 23 60  1  0  0  0
 27 61  1  0  0  0
 30 62  1  0  0  0
 31 63  1  0  0  0
 32 64  1  0  0  0
 32 65  1  0  0  0
 33 66  1  0  0  0
 35 67  1  0  0  0
 36 68  1  0  0  0
 37 69  1  0  0  0
 38 70  1  0  0  0
 39 71  1  0  0  0
M  END
$$$$
