1o5a_ligand
  -I-interpret- 

 41 44  0  0  0  0  0  0  0  0999 V2000
    8.8380    1.4080   24.7320 C   0  0  0  0  0
    9.5770    1.2570   23.5180 C   0  0  0  0  0
   10.1720    2.3630   22.8700 C   0  0  0  0  0
   10.0190    3.6070   23.4440 C   0  0  0  0  0
    9.3150    3.7560   24.6070 C   0  0  0  0  0
    8.7160    2.6960   25.2720 C   0  0  0  0  0
    8.2460    0.3110   25.4050 C   0  0  0  0  0
    7.8690    0.4230   26.6500 N   0  0  0  0  0
    8.0680   -0.8270   24.7980 N   0  0  0  0  0
   10.4730    4.7830   23.0820 N   0  0  0  0  0
    9.3530    5.0680   24.9460 C   0  0  0  0  0
   10.0970    5.6970   23.9540 C   0  0  0  0  0
   10.2890    7.0770   23.8120 C   0  0  0  0  0
    9.9050    7.9410   24.8400 C   0  0  0  0  0
   10.0830    9.3080   24.7200 C   0  0  0  0  0
   10.6510    9.8240   23.5680 C   0  0  0  0  0
   11.0550    8.9920   22.5170 C   0  0  0  0  0
   10.8670    7.6080   22.6410 C   0  0  0  0  0
   11.2590    6.7530   21.6380 O   0  0  0  0  0
   11.6950    9.6290   21.4470 C   0  0  0  0  0
   12.9140    9.1540   20.9830 C   0  0  0  0  0
   13.6140    9.8380   19.9820 C   0  0  0  0  0
   13.0840   10.9980   19.4470 C   0  0  0  0  0
   11.8650   11.4590   19.9100 C   0  0  0  0  0
   11.1790   10.7870   20.8920 C   0  0  0  0  0
    9.6843    0.2642   23.0811 H   0  0  0  0  0
   10.7345    2.2364   21.9450 H   0  0  0  0  0
    8.1616    2.8613   26.1958 H   0  0  0  0  0
    7.4445   -0.3719   27.1278 H   0  0  0  0  0
    7.9990    1.3054   27.1448 H   0  0  0  0  0
    7.6414   -1.6089   25.2951 H   0  0  0  0  0
    8.8942    5.5344   25.8178 H   0  0  0  0  0
    9.4598    7.5336   25.7477 H   0  0  0  0  0
    9.7780    9.9740   25.5272 H   0  0  0  0  0
   10.7867   10.9017   23.4771 H   0  0  0  0  0
   11.6309    7.2609   20.9132 H   0  0  0  0  0
   13.3308    8.2384   21.4026 H   0  0  0  0  0
   14.5717    9.4583   19.6261 H   0  0  0  0  0
   13.6205   11.5423   18.6699 H   0  0  0  0  0
   11.4417   12.3708   19.4886 H   0  0  0  0  0
   10.2186   11.1696   21.2376 H   0  0  0  0  0
  1  2  4  0  0  0
  1  6  4  0  0  0
  1  7  1  0  0  0
  2  3  4  0  0  0
  3  4  4  0  0  0
  4  5  4  0  0  0
  4 10  4  0  0  0
  5  6  4  0  0  0
  5 11  4  0  0  0
  7  8  1  0  0  0
  7  9  2  0  0  0
 10 12  4  0  0  0
 11 12  4  0  0  0
 12 13  1  0  0  0
 13 14  4  0  0  0
 13 18  4  0  0  0
 14 15  4  0  0  0
 15 16  4  0  0  0
 16 17  4  0  0  0
 17 18  4  0  0  0
 17 20  1  0  0  0
 18 19  1  0  0  0
 20 21  4  0  0  0
 20 25  4  0  0  0
 21 22  4  0  0  0
 22 23  4  0  0  0
 23 24  4  0  0  0
 24 25  4  0  0  0
  2 26  1  0  0  0
  3 27  1  0  0  0
  6 28  1  0  0  0
  8 29  1  0  0  0
  8 30  1  0  0  0
  9 31  1  0  0  0
 11 32  1  0  0  0
 14 33  1  0  0  0
 15 34  1  0  0  0
 16 35  1  0  0  0
 19 36  1  0  0  0
 21 37  1  0  0  0
 22 38  1  0  0  0
 23 39  1  0  0  0
 24 40  1  0  0  0
 25 41  1  0  0  0
M  END
$$$$
