4j78_ligand
  -I-interpret- 

100 99  0  0  0  0  0  0  0  0999 V2000
    5.8550   -0.9140   19.9160 N   0  3  0  0  0
    4.4970   -0.3770   19.8750 C   0  0  0  0  0
    4.5210    1.1380   19.6870 C   0  0  0  0  0
    4.8940    1.8720   20.6010 O   0  0  0  0  0
    3.7440   -0.7520   21.1620 C   0  0  0  0  0
    2.3420   -0.1390   21.3050 C   0  0  0  0  0
    1.3850   -0.5730   20.1860 C   0  0  0  0  0
    0.8180   -1.9800   20.3910 C   0  0  0  0  0
   -0.0120   -2.3830   19.2020 N   0  3  0  0  0
    4.1320    1.6110   18.5050 N   0  0  0  0  0
    4.0460    3.0530   18.2870 C   0  0  0  0  0
    2.8110    3.6000   19.0190 C   0  0  0  0  0
    1.8840    2.8520   19.3320 O   0  0  0  0  0
    4.0180    3.4270   16.7870 C   0  0  0  0  0
    4.1450    4.8480   16.6360 O   0  0  0  0  0
    2.7380    3.0020   16.1620 C   0  0  0  0  0
    2.8090    4.8980   19.2930 N   0  0  0  0  0
    1.6830    5.5290   19.9740 C   0  0  0  0  0
    1.3760    4.8220   21.2930 C   0  0  0  0  0
    0.2210    4.5240   21.6010 O   0  0  0  0  0
    0.4440    5.5490   19.0730 C   0  0  0  0  0
    0.6410    6.3000   17.7590 C   0  0  0  0  0
    0.8570    7.7790   17.9970 C   0  0  0  0  0
   -0.3760    8.5570   17.5820 C   0  0  0  0  0
   -0.3260    9.9590   18.0640 N   0  3  0  0  0
    2.4160    4.5520   22.0700 N   0  0  0  0  0
    2.2500    3.9010   23.3640 C   0  0  0  0  0
    1.6970    4.8690   24.4090 C   0  0  0  0  0
    0.9640    4.4570   25.3090 O   0  0  0  0  0
    3.5880    3.3240   23.8400 C   0  0  0  0  0
    3.5710    2.5580   25.1670 C   0  0  0  0  0
    2.6990    1.3050   25.0820 C   0  0  0  0  0
    4.9940    2.2030   25.6050 C   0  0  0  0  0
    2.0470    6.1500   24.2910 N   0  0  0  0  0
    1.5840    7.1690   25.2430 C   0  0  0  0  0
    0.0690    7.2670   25.2710 C   0  0  0  0  0
   -0.5850    6.9620   24.2660 O   0  0  0  0  0
    2.1240    8.5510   24.8660 C   0  0  0  0  0
    3.5950    8.8560   25.1560 C   0  0  0  0  0
    3.9380   10.2340   24.6130 C   0  0  0  0  0
    3.8730    8.7920   26.6390 C   0  0  0  0  0
   -0.5050    7.7100   26.2780 O   0  0  0  0  0
    6.3458   -0.6601   19.0586 H   0  0  0  0  0
    6.3488   -0.5257   20.7196 H   0  0  0  0  0
    5.8153   -1.9299   19.9983 H   0  0  0  0  0
    3.9745   -0.8138   19.0239 H   0  0  0  0  0
    4.3375   -0.3709   21.9931 H   0  0  0  0  0
    3.6111   -1.8337   21.1419 H   0  0  0  0  0
    2.4452    0.9449   21.2538 H   0  0  0  0  0
    1.9240   -0.4800   22.2522 H   0  0  0  0  0
    1.9475   -0.5759   19.2524 H   0  0  0  0  0
    0.5467    0.1236   20.1791 H   0  0  0  0  0
    0.1912   -1.9861   21.2827 H   0  0  0  0  0
    1.6422   -2.6839   20.5064 H   0  0  0  0  0
   -0.3837   -3.3212   19.3506 H   0  0  0  0  0
   -0.7828   -1.7247   19.0881 H   0  0  0  0  0
    0.5699   -2.3753   18.3643 H   0  0  0  0  0
    3.8939    0.9664   17.7512 H   0  0  0  0  0
    4.9469    3.5124   18.6937 H   0  0  0  0  0
    4.8484    2.9177   16.2979 H   0  0  0  0  0
    4.1268    5.0724   15.7028 H   0  0  0  0  0
    2.6294    1.9217   16.2579 H   0  0  0  0  0
    1.9075    3.4980   16.6644 H   0  0  0  0  0
    2.7418    3.2758   15.1070 H   0  0  0  0  0
    3.6111    5.4668   19.0221 H   0  0  0  0  0
    1.9610    6.5590   20.1974 H   0  0  0  0  0
   -0.3458    6.0616   19.6221 H   0  0  0  0  0
    0.2116    4.5142   18.8213 H   0  0  0  0  0
   -0.2542    6.1740   17.1501 H   0  0  0  0  0
    1.5213    5.8973   17.2581 H   0  0  0  0  0
    1.7091    8.1163   17.4068 H   0  0  0  0  0
    1.0471    7.9474   19.0570 H   0  0  0  0  0
   -1.2505    8.0742   18.0182 H   0  0  0  0  0
   -0.4249    8.5691   16.4932 H   0  0  0  0  0
   -1.1693   10.4497   17.7667 H   0  0  0  0  0
   -0.2686    9.9653   19.0824 H   0  0  0  0  0
    0.4942   10.4226   17.6732 H   0  0  0  0  0
    3.3527    4.8053   21.7555 H   0  0  0  0  0
    1.5309    3.0912   23.2410 H   0  0  0  0  0
    4.2468    4.1786   23.9940 H   0  0  0  0  0
    3.8927    2.6040   23.0805 H   0  0  0  0  0
    3.1318    3.2119   25.9204 H   0  0  0  0  0
    1.6765    1.5915   24.8361 H   0  0  0  0  0
    3.0888    0.6445   24.3075 H   0  0  0  0  0
    2.7122    0.7889   26.0420 H   0  0  0  0  0
    5.4622    1.5793   24.8435 H   0  0  0  0  0
    5.5723    3.1180   25.7331 H   0  0  0  0  0
    4.9573    1.6597   26.5492 H   0  0  0  0  0
    2.6523    6.4302   23.5193 H   0  0  0  0  0
    1.9528    6.8629   26.2220 H   0  0  0  0  0
    1.5586    9.2565   25.4748 H   0  0  0  0  0
    2.0259    8.6122   23.7821 H   0  0  0  0  0
    4.2167    8.1070   24.6655 H   0  0  0  0  0
    3.7659   10.2522   23.5368 H   0  0  0  0  0
    3.3075   10.9806   25.0958 H   0  0  0  0  0
    4.9857   10.4536   24.8184 H   0  0  0  0  0
    3.2529    9.5246   27.1556 H   0  0  0  0  0
    3.6410    7.7930   27.0081 H   0  0  0  0  0
    4.9250    9.0124   26.8200 H   0  0  0  0  0
    0.1447    7.8941   26.9603 H   0  0  0  0  0
  1  2  1  0  0  0
  2  3  1  0  0  0
  2  5  1  0  0  0
  3  4  2  0  0  0
  3 10  1  0  0  0
  5  6  1  0  0  0
  6  7  1  0  0  0
  7  8  1  0  0  0
  8  9  1  0  0  0
 10 11  1  0  0  0
 11 12  1  0  0  0
 11 14  1  0  0  0
 12 13  2  0  0  0
 12 17  1  0  0  0
 14 15  1  0  0  0
 14 16  1  0  0  0
 17 18  1  0  0  0
 18 19  1  0  0  0
 18 21  1  0  0  0
 19 20  2  0  0  0
 19 26  1  0  0  0
 21 22  1  0  0  0
 22 23  1  0  0  0
 23 24  1  0  0  0
 24 25  1  0  0  0
 26 27  1  0  0  0
 27 28  1  0  0  0
 27 30  1  0  0  0
 28 29  2  0  0  0
 28 34  1  0  0  0
 30 31  1  0  0  0
 31 32  1  0  0  0
 31 33  1  0  0  0
 34 35  1  0  0  0
 35 36  1  0  0  0
 35 38  1  0  0  0
 36 37  2  0  0  0
 36 42  1  0  0  0
 38 39  1  0  0  0
 39 40  1  0  0  0
 39 41  1  0  0  0
  1 43  1  0  0  0
  1 44  1  0  0  0
  1 45  1  0  0  0
  2 46  1  0  0  0
  5 47  1  0  0  0
  5 48  1  0  0  0
  6 49  1  0  0  0
  6 50  1  0  0  0
  7 51  1  0  0  0
  7 52  1  0  0  0
  8 53  1  0  0  0
  8 54  1  0  0  0
  9 55  1  0  0  0
  9 56  1  0  0  0
  9 57  1  0  0  0
 10 58  1  0  0  0
 11 59  1  0  0  0
 14 60  1  0  0  0
 15 61  1  0  0  0
 16 62  1  0  0  0
 16 63  1  0  0  0
 16 64  1  0  0  0
 17 65  1  0  0  0
 18 66  1  0  0  0
 21 67  1  0  0  0
 21 68  1  0  0  0
 22 69  1  0  0  0
 22 70  1  0  0  0
 23 71  1  0  0  0
 23 72  1  0  0  0
 24 73  1  0  0  0
 24 74  1  0  0  0
 25 75  1  0  0  0
 25 76  1  0  0  0
 25 77  1  0  0  0
 26 78  1  0  0  0
 27 79  1  0  0  0
 30 80  1  0  0  0
 30 81  1  0  0  0
 31 82  1  0  0  0
 32 83  1  0  0  0
 32 84  1  0  0  0
 32 85  1  0  0  0
 33 86  1  0  0  0
 33 87  1  0  0  0
 33 88  1  0  0  0
 34 89  1  0  0  0
 35 90  1  0  0  0
 38 91  1  0  0  0
 38 92  1  0  0  0
 39 93  1  0  0  0
 40 94  1  0  0  0
 40 95  1  0  0  0
 40 96  1  0  0  0
 41 97  1  0  0  0
 41 98  1  0  0  0
 41 99  1  0  0  0
 42100  1  0  0  0
M  END
$$$$
