### 
### Created by X-TOOL on Mon Sep 10 21:13:12 2018
### 

@<TRIPOS>MOLECULE
4j78_ligand
   99    98     1     0     0
SMALL
GAST_HUCK


@<TRIPOS>ATOM
      1 N           5.8550   -0.9140   19.9160 N.4       1 LYS         0.2379
      2 CA          4.4970   -0.3770   19.8750 C.3       1 LYS         0.0650
      3 C           4.5210    1.1380   19.6870 C.2       1 LYS         0.2268
      4 O           4.8940    1.8720   20.6010 O.2       1 LYS        -0.3907
      5 CB          3.7440   -0.7520   21.1620 C.3       1 LYS         0.0080
      6 CG          2.3420   -0.1390   21.3050 C.3       1 LYS        -0.0410
      7 CD          1.3850   -0.5730   20.1860 C.3       1 LYS        -0.0123
      8 CE          0.8180   -1.9800   20.3910 C.3       1 LYS        -0.0354
      9 NZ         -0.0120   -2.3830   19.2020 N.4       1 LYS         0.2185
     10 N           4.1320    1.6110   18.5050 N.am      1 THR        -0.2586
     11 CA          4.0460    3.0530   18.2870 C.3       1 THR         0.1566
     12 C           2.8110    3.6000   19.0190 C.2       1 THR         0.2065
     13 O           1.8840    2.8520   19.3320 O.2       1 THR        -0.3943
     14 CB          4.0180    3.4270   16.7870 C.3       1 THR         0.0924
     15 OG1         4.1450    4.8480   16.6360 O.3       1 THR        -0.3874
     16 CG2         2.7380    3.0020   16.1620 C.3       1 THR        -0.0346
     17 N           2.8090    4.8980   19.2930 N.am      1 LYS        -0.2637
     18 CA          1.6830    5.5290   19.9740 C.3       1 LYS         0.1310
     19 C           1.3760    4.8220   21.2930 C.2       1 LYS         0.2039
     20 O           0.2210    4.5240   21.6010 O.2       1 LYS        -0.3944
     21 CB          0.4440    5.5490   19.0730 C.3       1 LYS        -0.0122
     22 CG          0.6410    6.3000   17.7590 C.3       1 LYS        -0.0440
     23 CD          0.8570    7.7790   17.9970 C.3       1 LYS        -0.0124
     24 CE         -0.3760    8.5570   17.5820 C.3       1 LYS        -0.0354
     25 NZ         -0.3260    9.9590   18.0640 N.4       1 LYS         0.2185
     26 N           2.4160    4.5520   22.0700 N.am      1 LEU        -0.2637
     27 CA          2.2500    3.9010   23.3640 C.3       1 LEU         0.1312
     28 C           1.6970    4.8690   24.4090 C.2       1 LEU         0.2033
     29 O           0.9640    4.4570   25.3090 O.2       1 LEU        -0.3944
     30 CB          3.5880    3.3240   23.8400 C.3       1 LEU        -0.0101
     31 CG          3.5710    2.5580   25.1670 C.3       1 LEU        -0.0425
     32 CD1         2.6990    1.3050   25.0820 C.3       1 LEU        -0.0625
     33 CD2         4.9940    2.2030   25.6050 C.3       1 LEU        -0.0625
     34 N           2.0470    6.1500   24.2910 N.am      1 LEU        -0.2695
     35 CA          1.5840    7.1690   25.2430 C.3       1 LEU         0.0946
     36 C           0.0690    7.2670   25.2710 C.2       1 LEU         0.0601
     37 O          -0.5850    6.9620   24.2660 O.co2     1 LEU        -0.5666
     38 CB          2.1240    8.5510   24.8660 C.3       1 LEU        -0.0156
     39 CG          3.5950    8.8560   25.1560 C.3       1 LEU        -0.0431
     40 CD1         3.9380   10.2340   24.6130 C.3       1 LEU        -0.0625
     41 CD2         3.8730    8.7920   26.6390 C.3       1 LEU        -0.0625
     42 OXT        -0.5050    7.7100   26.2780 O.co2     1 LEU        -0.5666
     43 H1          5.8174   -1.9136   20.0404 H         1 LYS         0.2015
     44 H2          6.3576   -0.4984   20.6846 H         1 LYS         0.2015
     45 H3          6.3270   -0.7006   19.0513 H         1 LYS         0.2015
     46 H4          3.9703   -0.8244   19.0192 H         1 LYS         0.1098
     47 H5          4.3489   -0.4201   22.0187 H         1 LYS         0.0346
     48 H6          3.6405   -1.8468   21.1884 H         1 LYS         0.0346
     49 H7          2.4339    0.9569   21.2832 H         1 LYS         0.0270
     50 H8          1.9184   -0.4523   22.2706 H         1 LYS         0.0270
     51 H9          1.9306   -0.5515   19.2311 H         1 LYS         0.0317
     52 H10         0.5476    0.1392   20.1460 H         1 LYS         0.0317
     53 H11         0.1893   -1.9907   21.2936 H         1 LYS         0.0813
     54 H12         1.6475   -2.6920   20.5134 H         1 LYS         0.0813
     55 H13        -0.3799   -3.3101   19.3478 H         1 LYS         0.1994
     56 H14         0.5621   -2.3758   18.3735 H         1 LYS         0.1994
     57 H15        -0.7741   -1.7332   19.0884 H         1 LYS         0.1994
     58 H16         3.8986    0.9790   17.7660 H         1 THR         0.1885
     59 H17         4.9409    3.5166   18.7277 H         1 THR         0.0826
     60 H18         4.8551    2.9275   16.2774 H         1 THR         0.0639
     61 H19         4.1270    5.0701   15.7125 H         1 THR         0.2101
     62 H20         2.7406    3.2778   15.0971 H         1 THR         0.0257
     63 H21         1.8990    3.5019   16.6681 H         1 THR         0.0257
     64 H22         2.6272    1.9118   16.2581 H         1 THR         0.0257
     65 H23         3.5954    5.4557   19.0274 H         1 LYS         0.1883
     66 H24         1.9598    6.5694   20.1995 H         1 LYS         0.0800
     67 H25        -0.3772    6.0291   19.6254 H         1 LYS         0.0312
     68 H26         0.1702    4.5096   18.8391 H         1 LYS         0.0312
     69 H27        -0.2525    6.1649   17.1318 H         1 LYS         0.0269
     70 H28         1.5192    5.8889   17.2396 H         1 LYS         0.0269
     71 H29         1.7193    8.1209   17.4058 H         1 LYS         0.0317
     72 H30         1.0535    7.9510   19.0655 H         1 LYS         0.0317
     73 H31        -1.2659    8.0665   18.0032 H         1 LYS         0.0813
     74 H32        -0.4436    8.5594   16.4841 H         1 LYS         0.0813
     75 H33        -1.1590   10.4450   17.7708 H         1 LYS         0.1994
     76 H34         0.4842   10.4182   17.6784 H         1 LYS         0.1994
     77 H35        -0.2693    9.9665   19.0704 H         1 LYS         0.1994
     78 H36         3.3343    4.8003   21.7617 H         1 LEU         0.1883
     79 H37         1.5342    3.0742   23.2454 H         1 LEU         0.0800
     80 H38         4.2935    4.1612   23.9469 H         1 LEU         0.0315
     81 H39         3.9505    2.6360   23.0621 H         1 LEU         0.0315
     82 H40         3.1360    3.2187   25.9313 H         1 LEU         0.0298
     83 H41         2.7115    0.7832   26.0503 H         1 LEU         0.0232
     84 H42         3.0914    0.6375   24.3007 H         1 LEU         0.0232
     85 H43         1.6667    1.5928   24.8339 H         1 LEU         0.0232
     86 H44         5.6004    3.1192   25.6585 H         1 LEU         0.0232
     87 H45         5.4399    1.5102   24.8762 H         1 LEU         0.0232
     88 H46         4.9643    1.7246   26.5951 H         1 LEU         0.0232
     89 H47         2.6404    6.4247   23.5344 H         1 LEU         0.1875
     90 H48         1.9460    6.8982   26.2458 H         1 LEU         0.0726
     91 H49         1.5233    9.2953   25.4093 H         1 LEU         0.0308
     92 H50         1.9721    8.6765   23.7838 H         1 LEU         0.0308
     93 H51         4.2201    8.1066   24.6485 H         1 LEU         0.0297
     94 H52         4.9952   10.4568   24.8197 H         1 LEU         0.0232
     95 H53         3.3024   10.9885   25.0995 H         1 LEU         0.0232
     96 H54         3.7647   10.2537   23.5269 H         1 LEU         0.0232
     97 H55         3.6202    7.7902   27.0165 H         1 LEU         0.0232
     98 H56         3.2626    9.5447   27.1593 H         1 LEU         0.0232
     99 H57         4.9387    8.9943   26.8214 H         1 LEU         0.0232
@<TRIPOS>BOND
     1    1    2 1  
     2    2    3 1  
     3    2    5 1  
     4    3    4 2  
     5    3   10 am 
     6    5    6 1  
     7    6    7 1  
     8    7    8 1  
     9    8    9 1  
    10   10   11 1  
    11   11   12 1  
    12   11   14 1  
    13   12   13 2  
    14   12   17 am 
    15   14   15 1  
    16   14   16 1  
    17   17   18 1  
    18   18   19 1  
    19   18   21 1  
    20   19   20 2  
    21   19   26 am 
    22   21   22 1  
    23   22   23 1  
    24   23   24 1  
    25   24   25 1  
    26   26   27 1  
    27   27   28 1  
    28   27   30 1  
    29   28   29 2  
    30   28   34 am 
    31   30   31 1  
    32   31   32 1  
    33   31   33 1  
    34   34   35 1  
    35   35   36 1  
    36   35   38 1  
    37   36   37 ar 
    38   36   42 ar 
    39   38   39 1  
    40   39   40 1  
    41   39   41 1  
    42    1   43 1  
    43    1   44 1  
    44    1   45 1  
    45    2   46 1  
    46    5   47 1  
    47    5   48 1  
    48    6   49 1  
    49    6   50 1  
    50    7   51 1  
    51    7   52 1  
    52    8   53 1  
    53    8   54 1  
    54    9   55 1  
    55    9   56 1  
    56    9   57 1  
    57   10   58 1  
    58   11   59 1  
    59   14   60 1  
    60   15   61 1  
    61   16   62 1  
    62   16   63 1  
    63   16   64 1  
    64   17   65 1  
    65   18   66 1  
    66   21   67 1  
    67   21   68 1  
    68   22   69 1  
    69   22   70 1  
    70   23   71 1  
    71   23   72 1  
    72   24   73 1  
    73   24   74 1  
    74   25   75 1  
    75   25   76 1  
    76   25   77 1  
    77   26   78 1  
    78   27   79 1  
    79   30   80 1  
    80   30   81 1  
    81   31   82 1  
    82   32   83 1  
    83   32   84 1  
    84   32   85 1  
    85   33   86 1  
    86   33   87 1  
    87   33   88 1  
    88   34   89 1  
    89   35   90 1  
    90   38   91 1  
    91   38   92 1  
    92   39   93 1  
    93   40   94 1  
    94   40   95 1  
    95   40   96 1  
    96   41   97 1  
    97   41   98 1  
    98   41   99 1  
@<TRIPOS>SUBSTRUCTURE
     1 LYS         1

