4cl6_ligand
  -I-interpret- 

 29 31  0  0  0  0  0  0  0  0999 V2000
  -37.9330   59.9620    0.0660 Cl  0  0  0  0  0
  -34.7620   52.4480    9.7560 C   0  0  0  0  0
  -35.7930   51.6480    9.9630 C   0  0  0  0  0
  -35.1650   53.5430    9.1470 C   0  0  0  0  0
  -37.6100   59.9340    2.8780 C   0  0  0  0  0
  -37.3710   57.7690    1.8540 C   0  0  0  0  0
  -37.3550   59.3680    4.1240 C   0  0  0  0  0
  -37.1180   57.1910    3.1130 C   0  0  0  0  0
  -36.8550   57.5070    5.5390 C   0  0  0  0  0
  -38.5410   54.4140    8.4250 N   0  0  0  0  0
  -36.7850   55.2800    7.4840 N   0  0  0  0  0
  -38.0350   56.9460    6.2490 N   0  0  0  0  0
  -38.9500   55.3490    7.7310 N   0  0  0  0  0
  -36.9100   52.3210    9.4230 O   0  0  0  0  0
  -37.6130   59.1430    1.7210 C   0  0  0  0  0
  -37.1160   58.0010    4.2610 C   0  0  0  0  0
  -37.2190   54.3590    8.3480 C   0  0  0  0  0
  -36.4700   53.4630    8.9740 C   0  0  0  0  0
  -37.9180   55.9200    7.1190 C   0  0  0  0  0
  -33.7333   52.2336   10.0458 H   0  0  0  0  0
  -35.7830   50.6724   10.4491 H   0  0  0  0  0
  -34.5295   54.3732    8.8387 H   0  0  0  0  0
  -37.8093   61.0029    2.8014 H   0  0  0  0  0
  -37.3788   57.1361    0.9666 H   0  0  0  0  0
  -37.3419   60.0048    5.0085 H   0  0  0  0  0
  -36.9249   56.1215    3.1964 H   0  0  0  0  0
  -36.1414   56.6915    5.4215 H   0  0  0  0  0
  -36.4996   58.3477    6.1348 H   0  0  0  0  0
  -38.9566   57.3466    6.0743 H   0  0  0  0  0
 15  1  1  0  0  0
  3  2  4  0  0  0
  4  2  4  0  0  0
 14  3  4  0  0  0
 18  4  4  0  0  0
  7  5  4  0  0  0
  5 15  4  0  0  0
  8  6  4  0  0  0
  6 15  4  0  0  0
 16  7  4  0  0  0
 16  8  4  0  0  0
 12  9  1  0  0  0
  9 16  1  0  0  0
 10 13  4  0  0  0
 17 10  4  0  0  0
 17 11  4  0  0  0
 11 19  4  0  0  0
 19 12  1  0  0  0
 19 13  4  0  0  0
 18 14  4  0  0  0
 17 18  1  0  0  0
  2 20  1  0  0  0
  3 21  1  0  0  0
  4 22  1  0  0  0
  5 23  1  0  0  0
  6 24  1  0  0  0
  7 25  1  0  0  0
  8 26  1  0  0  0
  9 27  1  0  0  0
  9 28  1  0  0  0
 12 29  1  0  0  0
M  END
$$$$
