2ewy_ligand
  -I-interpret- 

 71 75  0  0  0  0  0  0  0  0999 V2000
  107.1910   25.7420    1.6240 N   0  0  0  0  0
  107.8880   26.1820    2.8810 C   0  0  0  0  0
  107.0370   27.1410    3.7160 C   0  0  0  0  0
  107.7130   27.5260    4.8490 O   0  0  0  0  0
  105.7550   26.5120    4.1790 C   0  0  0  0  0
  104.9630   27.4260    4.9820 N   0  3  0  0  0
  104.1060   26.8440    6.0400 C   0  0  0  0  0
  104.7210   25.7210    6.9250 C   0  0  0  0  0
  105.9330   25.9350    7.8400 C   0  0  0  0  0
  106.4990   24.8120    8.6880 C   0  0  0  0  0
  105.8360   23.4350    8.6220 C   0  0  0  0  0
  104.6230   23.2080    7.7090 C   0  0  0  0  0
  104.0760   24.3490    6.8710 C   0  0  0  0  0
  107.7270   25.0800    9.5990 C   0  0  0  0  0
  109.2070   26.7720    2.4010 C   0  0  0  0  0
  110.0880   25.8130    1.5740 C   0  0  0  0  0
  110.7600   26.3290    0.3420 C   0  0  0  0  0
  111.6410   25.4220   -0.5050 C   0  0  0  0  0
  111.8280   23.9860   -0.0810 C   0  0  0  0  0
  111.1550   23.4710    1.1530 C   0  0  0  0  0
  110.3080   24.3500    1.9640 C   0  0  0  0  0
  106.5330   24.5220    1.4260 C   0  0  0  0  0
  106.4450   23.6250    2.3010 O   0  0  0  0  0
  105.8990   24.2200    0.1560 C   0  0  0  0  0
  104.5530   23.8510    0.1950 C   0  0  0  0  0
  103.6850   23.4850   -0.9760 C   0  0  0  0  0
  103.8370   24.1910   -2.3400 C   0  0  0  0  0
  102.9800   23.8200   -3.4690 C   0  0  0  0  0
  101.9740   22.7690   -3.2870 C   0  0  0  0  0
  101.8210   22.0760   -1.9530 C   0  0  0  0  0
  102.6880   22.4450   -0.7970 C   0  0  0  0  0
  104.8060   25.2120   -2.5160 O   0  0  0  0  0
  106.1290   24.8240   -2.5070 C   0  0  0  0  0
  106.7690   24.3140   -1.2080 C   0  0  0  0  0
  108.2210   23.9150   -1.2970 C   0  0  0  0  0
  108.9950   24.0190   -2.6100 C   0  0  0  0  0
  108.3240   24.5270   -3.8660 C   0  0  0  0  0
  106.8800   24.9290   -3.8030 C   0  0  0  0  0
  107.1980   26.3947    0.8402 H   0  0  0  0  0
  108.0634   25.3581    3.5727 H   0  0  0  0  0
  106.8221   27.9890    3.0658 H   0  0  0  0  0
  108.5446   27.9360    4.6003 H   0  0  0  0  0
  106.0014   25.6446    4.7913 H   0  0  0  0  0
  105.1724   26.2365    3.2999 H   0  0  0  0  0
  104.3229   27.8789    4.3297 H   0  0  0  0  0
  105.6370   28.0162    5.4697 H   0  0  0  0  0
  103.2686   26.3810    5.5180 H   0  0  0  0  0
  103.8819   27.6650    6.7211 H   0  0  0  0  0
  106.3996   26.9192    7.8820 H   0  0  0  0  0
  106.2254   22.6140    9.2240 H   0  0  0  0  0
  104.1536   22.2254    7.6625 H   0  0  0  0  0
  103.2136   24.1815    6.2258 H   0  0  0  0  0
  108.5689   25.4024    8.9863 H   0  0  0  0  0
  107.4802   25.8602   10.3191 H   0  0  0  0  0
  107.9912   24.1649   10.1290 H   0  0  0  0  0
  109.7775   27.0335    3.2922 H   0  0  0  0  0
  108.9583   27.6105    1.7505 H   0  0  0  0  0
  110.6170   27.3684    0.0466 H   0  0  0  0  0
  112.1284   25.8031   -1.4024 H   0  0  0  0  0
  112.4552   23.3215   -0.6752 H   0  0  0  0  0
  111.2963   22.4322    1.4512 H   0  0  0  0  0
  109.8272   23.9553    2.8591 H   0  0  0  0  0
  104.0824   23.8257    1.1778 H   0  0  0  0  0
  103.0889   24.3190   -4.4319 H   0  0  0  0  0
  101.3315   22.4853   -4.1205 H   0  0  0  0  0
  101.0679   21.2970   -1.8342 H   0  0  0  0  0
  102.5752   21.9433    0.1641 H   0  0  0  0  0
  108.7284   23.5449   -0.4061 H   0  0  0  0  0
  110.0437   23.7234   -2.6417 H   0  0  0  0  0
  108.8796   24.5999   -4.8009 H   0  0  0  0  0
  106.3766   25.2969   -4.6970 H   0  0  0  0  0
  1  2  1  0  0  0
  1 22  1  0  0  0
  2  3  1  0  0  0
  2 15  1  0  0  0
  3  4  1  0  0  0
  3  5  1  0  0  0
  5  6  1  0  0  0
  6  7  1  0  0  0
  7  8  1  0  0  0
  8  9  4  0  0  0
  8 13  4  0  0  0
  9 10  4  0  0  0
 10 11  4  0  0  0
 10 14  1  0  0  0
 11 12  4  0  0  0
 12 13  4  0  0  0
 15 16  1  0  0  0
 16 17  4  0  0  0
 16 21  4  0  0  0
 17 18  4  0  0  0
 18 19  4  0  0  0
 19 20  4  0  0  0
 20 21  4  0  0  0
 22 23  2  0  0  0
 22 24  1  0  0  0
 24 25  2  0  0  0
 24 34  1  0  0  0
 25 26  1  0  0  0
 26 27  4  0  0  0
 26 31  4  0  0  0
 27 28  4  0  0  0
 27 32  1  0  0  0
 28 29  4  0  0  0
 29 30  4  0  0  0
 30 31  4  0  0  0
 32 33  1  0  0  0
 33 34  4  0  0  0
 33 38  4  0  0  0
 34 35  4  0  0  0
 35 36  4  0  0  0
 36 37  4  0  0  0
 37 38  4  0  0  0
  1 39  1  0  0  0
  2 40  1  0  0  0
  3 41  1  0  0  0
  4 42  1  0  0  0
  5 43  1  0  0  0
  5 44  1  0  0  0
  6 45  1  0  0  0
  6 46  1  0  0  0
  7 47  1  0  0  0
  7 48  1  0  0  0
  9 49  1  0  0  0
 11 50  1  0  0  0
 12 51  1  0  0  0
 13 52  1  0  0  0
 14 53  1  0  0  0
 14 54  1  0  0  0
 14 55  1  0  0  0
 15 56  1  0  0  0
 15 57  1  0  0  0
 17 58  1  0  0  0
 18 59  1  0  0  0
 19 60  1  0  0  0
 20 61  1  0  0  0
 21 62  1  0  0  0
 25 63  1  0  0  0
 28 64  1  0  0  0
 29 65  1  0  0  0
 30 66  1  0  0  0
 31 67  1  0  0  0
 35 68  1  0  0  0
 36 69  1  0  0  0
 37 70  1  0  0  0
 38 71  1  0  0  0
M  END
$$$$
