1ftj_ligand
  -I-interpret- 

 20 19  0  0  0  0  0  0  0  0999 V2000
   75.2840   27.3620   43.3700 N   0  3  0  0  0
   76.2760   26.2680   43.5890 C   0  0  0  0  0
   76.4030   25.9260   45.0660 C   0  0  0  0  0
   77.1870   25.0190   45.3850 O   0  0  0  0  0
   77.6410   26.6550   43.0160 C   0  0  0  0  0
   77.7540   26.5240   41.4850 C   0  0  0  0  0
   77.8030   25.0700   41.0230 C   0  0  0  0  0
   77.6260   24.8170   39.8060 O   0  0  0  0  0
   78.0180   24.1740   41.8720 O   0  0  0  0  0
   75.6950   26.5570   45.8780 O   0  0  0  0  0
   75.2214   27.5680   42.3730 H   0  0  0  0  0
   74.3711   27.0656   43.7151 H   0  0  0  0  0
   75.5841   28.1972   43.8728 H   0  0  0  0  0
   75.9141   25.3828   43.0659 H   0  0  0  0  0
   78.3728   25.9728   43.4487 H   0  0  0  0  0
   77.8016   27.7055   43.2583 H   0  0  0  0  0
   78.6808   27.0063   41.1743 H   0  0  0  0  0
   76.8722   26.9873   41.0425 H   0  0  0  0  0
   77.4781   25.6364   39.3282 H   0  0  0  0  0
   75.1708   27.2078   45.4055 H   0  0  0  0  0
  2  1  1  0  0  0
  2  5  1  0  0  0
  2  3  1  0  0  0
  3  4  2  0  0  0
  3 10  1  0  0  0
  5  6  1  0  0  0
  6  7  1  0  0  0
  7  9  2  0  0  0
  7  8  1  0  0  0
  1 11  1  0  0  0
  1 12  1  0  0  0
  1 13  1  0  0  0
  2 14  1  0  0  0
  5 15  1  0  0  0
  5 16  1  0  0  0
  6 17  1  0  0  0
  6 18  1  0  0  0
  8 19  1  0  0  0
 10 20  1  0  0  0
M  END
$$$$
