3eky_ligand
  -I-interpret- 

104106  0  0  0  0  0  0  0  0999 V2000
   20.7340   23.4750    9.2320 C   0  0  0  0  0
   21.0810   24.8530    9.3900 O   0  0  0  0  0
   21.5960   25.3580   10.6480 C   0  0  0  0  0
   21.8310   24.5800   11.5650 O   0  0  0  0  0
   21.8050   26.6660   10.7200 N   0  0  0  0  0
   22.3140   27.3330   11.9070 C   0  0  0  0  0
   23.7220   27.8930   11.6700 C   0  0  0  0  0
   24.7030   26.7280   11.5370 C   0  0  0  0  0
   23.8190   28.7630   10.4170 C   0  0  0  0  0
   24.1400   28.7380   12.8720 C   0  0  0  0  0
   21.2880   28.3430   12.3560 C   0  0  0  0  0
   21.1160   29.3870   11.7420 O   0  0  0  0  0
   20.5650   28.0520   13.4440 N   0  0  0  0  0
   19.5270   28.9070   14.0080 C   0  0  0  0  0
   18.2010   28.1830   13.7830 C   0  0  0  0  0
   17.9890   27.7590   12.3410 C   0  0  0  0  0
   17.4460   28.6400   11.4150 C   0  0  0  0  0
   17.2490   28.2370   10.0990 C   0  0  0  0  0
   17.5900   26.9490    9.6940 C   0  0  0  0  0
   18.1330   26.0610   10.6160 C   0  0  0  0  0
   18.3210   26.4710   11.9370 C   0  0  0  0  0
   19.7420   29.1900   15.5070 C   0  0  0  0  0
   19.9670   28.0220   16.2910 O   0  0  0  0  0
   20.9700   29.9990   15.8320 C   0  0  0  0  0
   20.8690   31.4120   15.4740 N   0  3  0  0  0
   19.8860   32.0270   16.1480 N   0  0  0  0  0
   18.9560   32.7770   15.5440 C   0  0  0  0  0
   18.9320   32.9270   14.3330 O   0  0  0  0  0
   17.9460   33.4790   16.4100 C   0  0  0  0  0
   16.5010   33.4390   15.9010 C   0  0  0  0  0
   16.2520   34.3140   14.6630 C   0  0  0  0  0
   16.1180   31.9950   15.5890 C   0  0  0  0  0
   15.6170   33.9250   17.0420 C   0  0  0  0  0
   18.3790   34.8660   16.5280 N   0  0  0  0  0
   18.5720   35.4530   17.6960 C   0  0  0  0  0
   18.4140   34.8850   18.7830 O   0  0  0  0  0
   19.0030   36.8360   17.6570 O   0  0  0  0  0
   19.1700   37.5880   18.8500 C   0  0  0  0  0
   22.1780   32.0110   15.8450 C   0  0  0  0  0
   22.1500   33.5280   15.8970 C   0  0  0  0  0
   22.2870   34.2970   14.7380 C   0  0  0  0  0
   22.2550   35.6910   14.8130 C   0  0  0  0  0
   21.9850   34.1750   17.1190 C   0  0  0  0  0
   21.9500   35.5680   17.1900 C   0  0  0  0  0
   22.0800   36.3400   16.0380 C   0  0  0  0  0
   22.0340   37.8410   16.1250 C   0  0  0  0  0
   21.3440   38.5810   15.1590 C   0  0  0  0  0
   21.3040   39.9710   15.2400 C   0  0  0  0  0
   21.9460   40.6140   16.2950 C   0  0  0  0  0
   22.6140   39.8450   17.2470 C   0  0  0  0  0
   22.6390   38.5000   17.1460 N   0  0  0  0  0
   21.6141   22.8572    9.4106 H   0  0  0  0  0
   19.9540   23.2138    9.9471 H   0  0  0  0  0
   20.3703   23.3072    8.2183 H   0  0  0  0  0
   21.5975   27.2340    9.8986 H   0  0  0  0  0
   22.4512   26.6301   12.7287 H   0  0  0  0  0
   24.4479   26.1386   10.6563 H   0  0  0  0  0
   25.7158   27.1175   11.4342 H   0  0  0  0  0
   24.6423   26.1002   12.4260 H   0  0  0  0  0
   24.8354   29.1442   10.3187 H   0  0  0  0  0
   23.5675   28.1653    9.5409 H   0  0  0  0  0
   23.1231   29.5977   10.5010 H   0  0  0  0  0
   24.1159   28.1239   13.7722 H   0  0  0  0  0
   25.1504   29.1157   12.7152 H   0  0  0  0  0
   23.4509   29.5752   12.9832 H   0  0  0  0  0
   20.7540   27.1665   13.9136 H   0  0  0  0  0
   19.5456   29.8815   13.5200 H   0  0  0  0  0
   17.3990   28.8728   14.0460 H   0  0  0  0  0
   18.2089   27.2810   14.3949 H   0  0  0  0  0
   17.1735   29.6501   11.7207 H   0  0  0  0  0
   16.8239   28.9353    9.3780 H   0  0  0  0  0
   17.4323   26.6390    8.6610 H   0  0  0  0  0
   18.4098   25.0523   10.3095 H   0  0  0  0  0
   18.7344   25.7706   12.6627 H   0  0  0  0  0
   18.8123   29.7101   15.7377 H   0  0  0  0  0
   20.0920   28.2734   17.2090 H   0  0  0  0  0
   21.7936   29.5792   15.2545 H   0  0  0  0  0
   21.1105   29.9503   16.9118 H   0  0  0  0  0
   20.6535   31.5170   14.4826 H   0  0  0  0  0
   19.8454   31.9189   17.1614 H   0  0  0  0  0
   17.9165   32.9505   17.3628 H   0  0  0  0  0
   16.4819   35.3525   14.9014 H   0  0  0  0  0
   16.8914   33.9771   13.8470 H   0  0  0  0  0
   15.2067   34.2310   14.3653 H   0  0  0  0  0
   16.7867   31.6002   14.8241 H   0  0  0  0  0
   16.2042   31.3939   16.4942 H   0  0  0  0  0
   15.0905   31.9632   15.2266 H   0  0  0  0  0
   15.7425   33.2677   17.9024 H   0  0  0  0  0
   15.9033   34.9409   17.3144 H   0  0  0  0  0
   14.5748   33.9130   16.7229 H   0  0  0  0  0
   18.5391   35.4040   15.6763 H   0  0  0  0  0
   18.2212   37.6344   19.3846 H   0  0  0  0  0
   19.9197   37.1077   19.4788 H   0  0  0  0  0
   19.4968   38.5971   18.5991 H   0  0  0  0  0
   22.9014   31.7205   15.0831 H   0  0  0  0  0
   22.4345   31.6516   16.8415 H   0  0  0  0  0
   22.4192   33.8074   13.7732 H   0  0  0  0  0
   22.3681   36.2810   13.9035 H   0  0  0  0  0
   21.8820   33.5864   18.0306 H   0  0  0  0  0
   21.8198   36.0565   18.1557 H   0  0  0  0  0
   20.8367   38.0689   14.3414 H   0  0  0  0  0
   20.7745   40.5505   14.4838 H   0  0  0  0  0
   21.9267   41.7009   16.3753 H   0  0  0  0  0
   23.1199   40.3343   18.0793 H   0  0  0  0  0
  1  2  1  0  0  0
  2  3  1  0  0  0
  3  4  2  0  0  0
  3  5  1  0  0  0
  5  6  1  0  0  0
  6  7  1  0  0  0
  6 11  1  0  0  0
  7  8  1  0  0  0
  7  9  1  0  0  0
  7 10  1  0  0  0
 11 12  2  0  0  0
 11 13  1  0  0  0
 13 14  1  0  0  0
 14 15  1  0  0  0
 14 22  1  0  0  0
 15 16  1  0  0  0
 16 17  4  0  0  0
 16 21  4  0  0  0
 17 18  4  0  0  0
 18 19  4  0  0  0
 19 20  4  0  0  0
 20 21  4  0  0  0
 22 23  1  0  0  0
 22 24  1  0  0  0
 24 25  1  0  0  0
 25 26  1  0  0  0
 25 39  1  0  0  0
 26 27  1  0  0  0
 27 28  2  0  0  0
 27 29  1  0  0  0
 29 30  1  0  0  0
 29 34  1  0  0  0
 30 31  1  0  0  0
 30 32  1  0  0  0
 30 33  1  0  0  0
 34 35  1  0  0  0
 35 36  2  0  0  0
 35 37  1  0  0  0
 37 38  1  0  0  0
 39 40  1  0  0  0
 40 41  4  0  0  0
 40 43  4  0  0  0
 41 42  4  0  0  0
 42 45  4  0  0  0
 43 44  4  0  0  0
 44 45  4  0  0  0
 45 46  1  0  0  0
 46 47  4  0  0  0
 46 51  4  0  0  0
 47 48  4  0  0  0
 48 49  4  0  0  0
 49 50  4  0  0  0
 50 51  4  0  0  0
  1 52  1  0  0  0
  1 53  1  0  0  0
  1 54  1  0  0  0
  5 55  1  0  0  0
  6 56  1  0  0  0
  8 57  1  0  0  0
  8 58  1  0  0  0
  8 59  1  0  0  0
  9 60  1  0  0  0
  9 61  1  0  0  0
  9 62  1  0  0  0
 10 63  1  0  0  0
 10 64  1  0  0  0
 10 65  1  0  0  0
 13 66  1  0  0  0
 14 67  1  0  0  0
 15 68  1  0  0  0
 15 69  1  0  0  0
 17 70  1  0  0  0
 18 71  1  0  0  0
 19 72  1  0  0  0
 20 73  1  0  0  0
 21 74  1  0  0  0
 22 75  1  0  0  0
 23 76  1  0  0  0
 24 77  1  0  0  0
 24 78  1  0  0  0
 25 79  1  0  0  0
 26 80  1  0  0  0
 29 81  1  0  0  0
 31 82  1  0  0  0
 31 83  1  0  0  0
 31 84  1  0  0  0
 32 85  1  0  0  0
 32 86  1  0  0  0
 32 87  1  0  0  0
 33 88  1  0  0  0
 33 89  1  0  0  0
 33 90  1  0  0  0
 34 91  1  0  0  0
 38 92  1  0  0  0
 38 93  1  0  0  0
 38 94  1  0  0  0
 39 95  1  0  0  0
 39 96  1  0  0  0
 41 97  1  0  0  0
 42 98  1  0  0  0
 43 99  1  0  0  0
 44100  1  0  0  0
 47101  1  0  0  0
 48102  1  0  0  0
 49103  1  0  0  0
 50104  1  0  0  0
M  END
$$$$
