### 
### Created by X-TOOL on Mon Aug  2 16:12:52 2021
### 

@<TRIPOS>MOLECULE
6d19_ligand
   26    27     1     0     0
SMALL
GAST_HUCK


@<TRIPOS>ATOM
      1 C01        24.2890   15.4010    5.2230 C.3       1 YKG        -0.0301
      2 C02        23.2000   16.1070    6.0240 C.ar      1 YKG        -0.0448
      3 C03        23.3320   16.1780    7.3790 C.ar      1 YKG        -0.0541
      4 C04        22.4020   16.7920    8.1620 C.ar      1 YKG         0.0160
      5 C06        21.2620   17.3730    7.5640 C.ar      1 YKG         0.0364
      6 C07        20.1950   18.0580    8.2460 C.2       1 YKG        -0.0080
      7 C08        20.1520   18.2810    9.7090 C.3       1 YKG         0.0592
      8 C13        19.1750   18.5730    7.4580 C.2       1 YKG         0.0119
      9 C14        19.1870   18.3880    6.1270 C.2       1 YKG         0.2477
     10 C17        21.1410   17.2810    6.2210 C.ar      1 YKG         0.1386
     11 C18        22.1090   16.6630    5.4250 C.ar      1 YKG        -0.0163
     12 O10        17.6540   17.4400   10.0630 O.co2     1 YKG        -0.5604
     13 O11        19.0460   17.3980   11.9120 O.co2     1 YKG        -0.5604
     14 O12        19.4780   15.7490   10.3340 O.co2     1 YKG        -0.5604
     15 O15        18.2030   18.8490    5.3210 O.2       1 YKG        -0.3861
     16 O16        20.1350   17.7660    5.5740 O.3       1 YKG        -0.2145
     17 P09        18.9740   17.1710   10.5740 P.3       1 YKG         0.0731
     18 BR05       22.8200   16.7040    9.9730 Br        1 YKG        -0.0493
     19 H1         25.0670   15.0323    5.9077 H         1 YKG         0.0402
     20 H2         24.7349   16.1080    4.5079 H         1 YKG         0.0402
     21 H3         23.8506   14.5535    4.6758 H         1 YKG         0.0402
     22 H4         24.2026   15.7328    7.8469 H         1 YKG         0.0529
     23 H5         19.8521   19.3228    9.8954 H         1 YKG         0.0655
     24 H6         21.1585   18.1103   10.1186 H         1 YKG         0.0655
     25 H7         18.3612   19.1296    7.9205 H         1 YKG         0.0442
     26 H8         21.9941   16.6263    4.3477 H         1 YKG         0.0528
@<TRIPOS>BOND
     1    1    2 1  
     2    2    3 ar 
     3    2   11 ar 
     4    3    4 ar 
     5    4    5 ar 
     6    4   18 1  
     7    5    6 1  
     8    5   10 ar 
     9    6    7 1  
    10    6    8 2  
    11    7   17 1  
    12    8    9 1  
    13    9   15 2  
    14    9   16 1  
    15   10   11 ar 
    16   10   16 1  
    17   17   12 ar 
    18   17   13 ar 
    19   17   14 ar 
    20    1   19 1  
    21    1   20 1  
    22    1   21 1  
    23    3   22 1  
    24    7   23 1  
    25    7   24 1  
    26    8   25 1  
    27   11   26 1  
@<TRIPOS>SUBSTRUCTURE
     1 YKG         1

