6d19_ligand
  -I-interpret- 

 28 29  0  0  0  0  0  0  0  0999 V2000
   24.2890   15.4010    5.2230 C   0  0  0  0  0
   23.2000   16.1070    6.0240 C   0  0  0  0  0
   23.3320   16.1780    7.3790 C   0  0  0  0  0
   22.4020   16.7920    8.1620 C   0  0  0  0  0
   21.2620   17.3730    7.5640 C   0  0  0  0  0
   20.1950   18.0580    8.2460 C   0  0  0  0  0
   20.1520   18.2810    9.7090 C   0  0  0  0  0
   19.1750   18.5730    7.4580 C   0  0  0  0  0
   19.1870   18.3880    6.1270 C   0  0  0  0  0
   21.1410   17.2810    6.2210 C   0  0  0  0  0
   22.1090   16.6630    5.4250 C   0  0  0  0  0
   17.6540   17.4400   10.0630 O   0  0  0  0  0
   19.0460   17.3980   11.9120 O   0  0  0  0  0
   19.4780   15.7490   10.3340 O   0  0  0  0  0
   18.2030   18.8490    5.3210 O   0  0  0  0  0
   20.1350   17.7660    5.5740 O   0  0  0  0  0
   18.9740   17.1710   10.5740 P   0  0  0  0  0
   22.8200   16.7040    9.9730 Br  0  0  0  0  0
   25.2418   15.9052    5.3846 H   0  0  0  0  0
   24.3650   14.3642    5.5507 H   0  0  0  0  0
   24.0358   15.4308    4.1632 H   0  0  0  0  0
   24.2074   15.7303    7.8495 H   0  0  0  0  0
   19.8243   19.3068    9.8776 H   0  0  0  0  0
   21.1477   18.0786   10.1037 H   0  0  0  0  0
   18.3605   19.1301    7.9209 H   0  0  0  0  0
   21.9935   16.6261    4.3418 H   0  0  0  0  0
   17.6371   17.2704    9.1183 H   0  0  0  0  0
   19.4416   15.5520    9.3951 H   0  0  0  0  0
  1  2  1  0  0  0
  2  3  4  0  0  0
  2 11  4  0  0  0
  3  4  4  0  0  0
  4  5  4  0  0  0
  4 18  1  0  0  0
  5  6  1  0  0  0
  5 10  4  0  0  0
  6  7  1  0  0  0
  6  8  2  0  0  0
  7 17  1  0  0  0
  8  9  1  0  0  0
  9 15  2  0  0  0
  9 16  1  0  0  0
 10 11  4  0  0  0
 10 16  1  0  0  0
 17 12  1  0  0  0
 17 13  2  0  0  0
 17 14  1  0  0  0
  1 19  1  0  0  0
  1 20  1  0  0  0
  1 21  1  0  0  0
  3 22  1  0  0  0
  7 23  1  0  0  0
  7 24  1  0  0  0
  8 25  1  0  0  0
 11 26  1  0  0  0
 12 27  1  0  0  0
 14 28  1  0  0  0
M  END
$$$$
