1hww_ligand
  -I-interpret- 

 28 29  0  0  0  0  0  0  0  0999 V2000
   31.0850   66.8500    6.1040 C   0  0  0  0  0
   31.6160   67.9930    5.4120 O   0  0  0  0  0
   31.2910   67.0030    7.6490 C   0  0  0  0  0
   30.7310   65.8070    8.3070 N   0  3  0  0  0
   29.2560   65.6700    8.1360 C   0  0  0  0  0
   28.9520   65.4970    6.6230 C   0  0  0  0  0
   29.5540   66.6860    5.8180 C   0  0  0  0  0
   31.2840   65.7130    9.6520 C   0  0  0  0  0
   32.6480   66.4480    9.5970 C   0  0  0  0  0
   33.7150   65.5340    9.8330 O   0  0  0  0  0
   32.7550   67.0820    8.1610 C   0  0  0  0  0
   33.6410   66.3140    7.3190 O   0  0  0  0  0
   31.6175   65.9699    5.7437 H   0  0  0  0  0
   32.5536   68.0734    5.6017 H   0  0  0  0  0
   30.8123   67.9539    7.8828 H   0  0  0  0  0
   31.0310   64.9542    7.8347 H   0  0  0  0  0
   28.7521   66.5576    8.5186 H   0  0  0  0  0
   28.8951   64.8037    8.6904 H   0  0  0  0  0
   27.8723   65.4745    6.4750 H   0  0  0  0  0
   29.3968   64.5656    6.2726 H   0  0  0  0  0
   29.4190   66.4886    4.7546 H   0  0  0  0  0
   29.0449   67.6017    6.1188 H   0  0  0  0  0
   31.4041   64.6746    9.9608 H   0  0  0  0  0
   30.6186   66.1644   10.3879 H   0  0  0  0  0
   32.7158   67.2179   10.3656 H   0  0  0  0  0
   34.5514   66.0037    9.7957 H   0  0  0  0  0
   33.1621   68.0931    8.1613 H   0  0  0  0  0
   33.6885   66.7211    6.4509 H   0  0  0  0  0
  1  7  1  0  0  0
  1  3  1  0  0  0
  1  2  1  0  0  0
  3 11  1  0  0  0
  3  4  1  0  0  0
  4  8  1  0  0  0
  4  5  1  0  0  0
  5  6  1  0  0  0
  7  6  1  0  0  0
  8  9  1  0  0  0
  9 11  1  0  0  0
  9 10  1  0  0  0
 11 12  1  0  0  0
  1 13  1  0  0  0
  2 14  1  0  0  0
  3 15  1  0  0  0
  4 16  1  0  0  0
  5 17  1  0  0  0
  5 18  1  0  0  0
  6 19  1  0  0  0
  6 20  1  0  0  0
  7 21  1  0  0  0
  7 22  1  0  0  0
  8 23  1  0  0  0
  8 24  1  0  0  0
  9 25  1  0  0  0
 10 26  1  0  0  0
 11 27  1  0  0  0
 12 28  1  0  0  0
M  END
$$$$
