3e37_ligand
  -I-interpret- 

 85 88  0  0  0  0  0  0  0  0999 V2000
   17.0440  -77.3730    8.6050 O   0  0  0  0  0
   16.7930  -77.3680    7.4020 C   0  0  0  0  0
   15.7560  -78.2360    6.9230 O   0  0  0  0  0
   14.8910  -78.9940    7.7630 C   0  0  0  0  0
   15.6230  -80.0750    8.5430 C   0  0  0  0  0
   14.2790  -78.0370    8.7600 C   0  0  0  0  0
   13.8700  -79.6580    6.8510 C   0  0  0  0  0
   17.4020  -76.6650    6.5400 N   0  0  0  0  0
   18.4950  -75.7700    6.8760 C   0  0  0  0  0
   17.9820  -74.3610    6.6500 C   0  0  0  0  0
   17.0520  -76.6730    5.1200 C   0  0  0  0  0
   16.4070  -75.2970    4.9070 C   0  0  0  0  0
   17.3590  -74.1500    5.2770 C   0  0  0  0  0
   16.6010  -72.8410    5.4660 C   0  0  0  0  0
   16.3410  -72.0010    4.2810 N   0  0  0  0  0
   14.7260  -71.7450    4.0960 S   0  0  0  0  0
   14.3880  -71.4650    2.6720 O   0  0  0  0  0
   14.4850  -70.5320    4.9220 O   0  0  0  0  0
   13.7710  -72.9140    4.6940 C   0  0  0  0  0
   13.3070  -72.7860    6.0050 C   0  0  0  0  0
   12.4980  -73.7600    6.5800 C   0  0  0  0  0
   12.1330  -74.8800    5.8470 C   0  0  0  0  0
   12.5820  -75.0100    4.5390 C   0  0  0  0  0
   13.3790  -74.0300    3.9620 C   0  0  0  0  0
   13.8310  -74.2130    2.5450 C   0  0  0  0  0
   17.1660  -72.2250    3.0520 C   0  0  0  0  0
   18.2370  -71.1160    2.9750 C   0  0  0  0  0
   18.7890  -71.0490    1.6040 N   0  0  0  0  0
   20.0570  -71.6280    1.3800 C   0  0  0  0  0
   20.7670  -71.3190    0.2180 C   0  0  0  0  0
   21.9950  -71.9240   -0.0390 C   0  0  0  0  0
   20.5650  -72.5820    2.2640 C   0  0  0  0  0
   21.7930  -73.1800    2.0090 C   0  0  0  0  0
   22.5110  -72.8530    0.8660 C   0  0  0  0  0
   23.6390  -73.4400    0.6460 C   0  0  0  0  0
   24.6380  -74.0110    0.4590 N   0  0  0  0  0
   18.5240  -69.8630    0.8450 C   0  0  0  0  0
   17.7780  -70.1310   -0.4260 C   0  0  0  0  0
   17.4070  -71.4150   -0.7860 C   0  0  0  0  0
   16.7770  -71.2240   -1.9710 N   0  0  0  0  0
   16.7670  -69.8960   -2.2880 C   0  0  0  0  0
   17.3980  -69.2110   -1.3190 N   0  0  0  0  0
   17.6120  -67.7410   -1.2710 C   0  0  0  0  0
   14.9060  -80.6404    9.1383 H   0  0  0  0  0
   16.1276  -80.7450    7.8469 H   0  0  0  0  0
   16.3582  -79.6117    9.2010 H   0  0  0  0  0
   13.7542  -77.2447    8.2262 H   0  0  0  0  0
   13.5761  -78.5763    9.3951 H   0  0  0  0  0
   15.0668  -77.6023    9.3752 H   0  0  0  0  0
   13.1604  -80.2246    7.4539 H   0  0  0  0  0
   13.3384  -78.8930    6.2851 H   0  0  0  0  0
   14.3824  -80.3305    6.1630 H   0  0  0  0  0
   19.3690  -75.9714    6.2566 H   0  0  0  0  0
   18.8102  -75.9096    7.9101 H   0  0  0  0  0
   18.8350  -73.6869    6.7282 H   0  0  0  0  0
   17.2063  -74.1734    7.3924 H   0  0  0  0  0
   16.3850  -77.4941    4.8571 H   0  0  0  0  0
   17.9163  -76.8353    4.4759 H   0  0  0  0  0
   15.5283  -75.2302    5.5484 H   0  0  0  0  0
   16.1519  -75.2005    3.8517 H   0  0  0  0  0
   18.0888  -74.1225    4.4678 H   0  0  0  0  0
   17.2361  -72.2344    6.1116 H   0  0  0  0  0
   15.6160  -73.1321    5.8308 H   0  0  0  0  0
   13.5838  -71.9074    6.5876 H   0  0  0  0  0
   12.1506  -73.6435    7.6066 H   0  0  0  0  0
   11.5014  -75.6487    6.2923 H   0  0  0  0  0
   12.3058  -75.8907    3.9592 H   0  0  0  0  0
   13.4817  -73.3745    1.9424 H   0  0  0  0  0
   14.9198  -74.2551    2.5148 H   0  0  0  0  0
   13.4191  -75.1420    2.1507 H   0  0  0  0  0
   16.5317  -72.1930    2.1661 H   0  0  0  0  0
   17.6447  -73.2032    3.0974 H   0  0  0  0  0
   19.0401  -71.3404    3.6769 H   0  0  0  0  0
   17.7834  -70.1579    3.2288 H   0  0  0  0  0
   20.3579  -70.6002   -0.4920 H   0  0  0  0  0
   22.5505  -71.6731   -0.9427 H   0  0  0  0  0
   19.9986  -72.8574    3.1536 H   0  0  0  0  0
   22.1955  -73.9106    2.7107 H   0  0  0  0  0
   19.4835  -69.4201    0.5780 H   0  0  0  0  0
   17.9057  -69.2086    1.4595 H   0  0  0  0  0
   17.5788  -72.3482   -0.2497 H   0  0  0  0  0
   16.3197  -69.4617   -3.1821 H   0  0  0  0  0
   17.1350  -67.3346   -0.3792 H   0  0  0  0  0
   18.6813  -67.5316   -1.2401 H   0  0  0  0  0
   17.1762  -67.2825   -2.1587 H   0  0  0  0  0
  1  2  2  0  0  0
  2  3  1  0  0  0
  2  8  1  0  0  0
  3  4  1  0  0  0
  4  5  1  0  0  0
  4  6  1  0  0  0
  4  7  1  0  0  0
  8  9  1  0  0  0
  8 11  1  0  0  0
  9 10  1  0  0  0
 10 13  1  0  0  0
 11 12  1  0  0  0
 12 13  1  0  0  0
 13 14  1  0  0  0
 14 15  1  0  0  0
 15 16  1  0  0  0
 15 26  1  0  0  0
 16 17  2  0  0  0
 16 18  2  0  0  0
 16 19  1  0  0  0
 19 20  4  0  0  0
 19 24  4  0  0  0
 20 21  4  0  0  0
 21 22  4  0  0  0
 22 23  4  0  0  0
 23 24  4  0  0  0
 24 25  1  0  0  0
 26 27  1  0  0  0
 27 28  1  0  0  0
 28 29  1  0  0  0
 28 37  1  0  0  0
 29 30  4  0  0  0
 29 32  4  0  0  0
 30 31  4  0  0  0
 31 34  4  0  0  0
 32 33  4  0  0  0
 33 34  4  0  0  0
 34 35  1  0  0  0
 35 36  3  0  0  0
 37 38  1  0  0  0
 38 39  4  0  0  0
 38 42  4  0  0  0
 39 40  4  0  0  0
 40 41  4  0  0  0
 41 42  4  0  0  0
 42 43  1  0  0  0
  5 44  1  0  0  0
  5 45  1  0  0  0
  5 46  1  0  0  0
  6 47  1  0  0  0
  6 48  1  0  0  0
  6 49  1  0  0  0
  7 50  1  0  0  0
  7 51  1  0  0  0
  7 52  1  0  0  0
  9 53  1  0  0  0
  9 54  1  0  0  0
 10 55  1  0  0  0
 10 56  1  0  0  0
 11 57  1  0  0  0
 11 58  1  0  0  0
 12 59  1  0  0  0
 12 60  1  0  0  0
 13 61  1  0  0  0
 14 62  1  0  0  0
 14 63  1  0  0  0
 20 64  1  0  0  0
 21 65  1  0  0  0
 22 66  1  0  0  0
 23 67  1  0  0  0
 25 68  1  0  0  0
 25 69  1  0  0  0
 25 70  1  0  0  0
 26 71  1  0  0  0
 26 72  1  0  0  0
 27 73  1  0  0  0
 27 74  1  0  0  0
 30 75  1  0  0  0
 31 76  1  0  0  0
 32 77  1  0  0  0
 33 78  1  0  0  0
 37 79  1  0  0  0
 37 80  1  0  0  0
 39 81  1  0  0  0
 41 82  1  0  0  0
 43 83  1  0  0  0
 43 84  1  0  0  0
 43 85  1  0  0  0
M  END
$$$$
