3hbo_ligand
  -I-interpret- 

122121  0  0  0  0  0  0  0  0999 V2000
    4.4190   -8.9140   16.3310 C   0  0  0  0  0
    3.4770   -8.4500   16.9700 O   0  0  0  0  0
    4.2190   -9.7470   15.0860 C   0  0  0  0  0
    5.6810   -8.6040   16.6040 N   0  0  0  0  0
    6.1190   -7.9500   17.8290 C   0  0  0  0  0
    6.6920   -6.5490   17.6270 C   0  0  0  0  0
    6.9890   -5.8600   18.5990 O   0  0  0  0  0
    7.1470   -8.8010   18.5830 C   0  0  0  0  0
    8.3290   -8.9570   17.7940 O   0  0  0  0  0
    6.5470  -10.2190   18.9050 C   0  0  0  0  0
    6.8270   -6.1050   16.3870 N   0  0  0  0  0
    7.3880   -4.7810   16.1820 C   0  0  0  0  0
    6.3430   -3.9060   15.5010 C   0  0  0  0  0
    6.2670   -3.8890   14.2820 O   0  0  0  0  0
    8.6920   -4.8210   15.3830 C   0  0  0  0  0
    9.6680   -5.8900   15.9050 C   0  0  0  0  0
    9.3530   -3.4360   15.3030 C   0  0  0  0  0
   10.2020   -5.6910   17.3420 C   0  0  0  0  0
    5.4710   -3.2670   16.2700 N   0  0  0  0  0
    4.3440   -2.5570   15.6320 C   0  0  0  0  0
    4.6150   -1.0690   15.5660 C   0  0  0  0  0
    3.0730   -2.8950   16.4110 C   0  0  0  0  0
    2.8670   -4.3910   16.6750 C   0  0  0  0  0
    2.7690   -5.2070   15.3860 C   0  0  0  0  0
    1.6860   -4.6630   14.4640 C   0  0  0  0  0
    5.8420   -0.7260   14.8550 N   0  3  0  0  0
    5.8200    0.4520   13.9540 C   0  0  0  0  0
    4.7070    0.3760   12.8990 C   0  0  0  0  0
    4.4360   -0.6610   12.3150 O   0  0  0  0  0
    7.2190    0.6150   13.3360 C   0  0  0  0  0
    7.4100    1.8380   12.4500 C   0  0  0  0  0
    7.3990    1.4200   10.9710 C   0  0  0  0  0
    8.6490    0.6490   10.5650 C   0  0  0  0  0
    4.0940    1.5160   12.5940 N   0  0  0  0  0
    3.0960    1.5840   11.5190 C   0  0  0  0  0
    3.1210    2.9720   10.8970 C   0  0  0  0  0
    3.2780    3.9780   11.5830 O   0  0  0  0  0
    1.6860    1.2390   12.0400 C   0  0  0  0  0
    0.5850    1.3400   10.9750 C   0  0  0  0  0
    0.0210    2.7350   10.8600 C   0  0  0  0  0
    0.1020    3.5050   11.7950 O   0  0  0  0  0
   -0.6240    3.0430    9.7350 N   0  0  0  0  0
    3.0370    3.0080    9.5790 N   0  0  0  0  0
    3.0970    4.2670    8.8370 C   0  0  0  0  0
    1.8820    4.3110    7.9460 C   0  0  0  0  0
    1.6740    3.3870    7.1560 O   0  0  0  0  0
    4.3600    4.2850    7.9700 C   0  0  0  0  0
    5.6410    4.1900    8.7360 C   0  0  0  0  0
    5.5450    5.2230    9.8160 C   0  0  0  0  0
    6.6000    5.2210   10.8270 N   0  0  0  0  0
    7.7540    5.8380   10.6770 C   0  0  0  0  0
    8.0630    6.4340    9.5140 N   0  0  0  0  0
    8.6240    5.8240   11.6580 N   0  0  0  0  0
    1.2580    5.4660    7.7050 N   0  0  0  0  0
    3.6360  -10.6341   15.3337 H   0  0  0  0  0
    3.6875   -9.1585   14.3381 H   0  0  0  0  0
    5.1897  -10.0471   14.6914 H   0  0  0  0  0
    6.3903   -8.8395   15.9099 H   0  0  0  0  0
    5.2080   -7.8438   18.4179 H   0  0  0  0  0
    7.3974   -8.2950   19.5154 H   0  0  0  0  0
    8.6968   -8.0926   17.5963 H   0  0  0  0  0
    6.3003  -10.7278   17.9732 H   0  0  0  0  0
    7.2809  -10.8057   19.4576 H   0  0  0  0  0
    5.6455  -10.1026   19.5066 H   0  0  0  0  0
    6.5434   -6.6798   15.5935 H   0  0  0  0  0
    7.6454   -4.3554   17.1519 H   0  0  0  0  0
    8.4259   -5.1130   14.3671 H   0  0  0  0  0
   10.5387   -5.8500   15.2505 H   0  0  0  0  0
    9.1121   -6.8275   15.9160 H   0  0  0  0  0
    8.6727   -2.7378   14.8154 H   0  0  0  0  0
    9.5776   -3.0834   16.3096 H   0  0  0  0  0
   10.2759   -3.5080   14.7274 H   0  0  0  0  0
   10.7367   -4.7430   17.4015 H   0  0  0  0  0
    9.3657   -5.6824   18.0411 H   0  0  0  0  0
   10.8788   -6.5077   17.5931 H   0  0  0  0  0
    5.5771   -3.2661   17.2845 H   0  0  0  0  0
    4.2168   -2.8803   14.5989 H   0  0  0  0  0
    4.7217   -0.7119   16.5903 H   0  0  0  0  0
    3.7867   -0.6110   15.0254 H   0  0  0  0  0
    2.2302   -2.5590   15.8070 H   0  0  0  0  0
    3.1560   -2.4084   17.3828 H   0  0  0  0  0
    1.9302   -4.5098   17.2194 H   0  0  0  0  0
    3.7272   -4.7541   17.2374 H   0  0  0  0  0
    2.5175   -6.2353   15.6459 H   0  0  0  0  0
    3.7258   -5.1500   14.8670 H   0  0  0  0  0
    0.7231   -4.7033   14.9733 H   0  0  0  0  0
    1.9176   -3.6303   14.2032 H   0  0  0  0  0
    1.6448   -5.2674   13.5579 H   0  0  0  0  0
    6.0364   -1.5246   14.2509 H   0  0  0  0  0
    6.5205   -0.4977   15.5816 H   0  0  0  0  0
    5.5792    1.3423   14.5350 H   0  0  0  0  0
    7.3790   -0.2555   12.6998 H   0  0  0  0  0
    7.9137    0.7252   14.1687 H   0  0  0  0  0
    8.3664    2.3055   12.6842 H   0  0  0  0  0
    6.5982    2.5426   12.6303 H   0  0  0  0  0
    7.3564    2.3273   10.3684 H   0  0  0  0  0
    6.5396    0.7678   10.8152 H   0  0  0  0  0
    9.5280    1.2725   10.7285 H   0  0  0  0  0
    8.7272   -0.2565   11.1666 H   0  0  0  0  0
    8.5828    0.3815    9.5104 H   0  0  0  0  0
    4.3219    2.3610   13.1178 H   0  0  0  0  0
    3.3470    0.8447   10.7584 H   0  0  0  0  0
    1.4456    1.9583   12.8229 H   0  0  0  0  0
    1.7117    0.2042   12.3815 H   0  0  0  0  0
   -0.2259    0.6715   11.2642 H   0  0  0  0  0
    1.0215    1.0726   10.0127 H   0  0  0  0  0
   -1.0723    3.9540    9.6372 H   0  0  0  0  0
   -0.6693    2.3677    8.9719 H   0  0  0  0  0
    2.9273    2.1339    9.0649 H   0  0  0  0  0
    3.1206    5.1211    9.5138 H   0  0  0  0  0
    4.3727    5.2404    7.4454 H   0  0  0  0  0
    4.3123    3.4117    7.3195 H   0  0  0  0  0
    6.5029    4.3665    8.0926 H   0  0  0  0  0
    5.7826    3.1923    9.1516 H   0  0  0  0  0
    4.6188    5.0115   10.3503 H   0  0  0  0  0
    5.6144    6.1878    9.3136 H   0  0  0  0  0
    6.4337    4.7141   11.6964 H   0  0  0  0  0
    8.9744    6.8758    9.3937 H   0  0  0  0  0
    7.3863    6.4449    8.7509 H   0  0  0  0  0
    8.4043    5.3382   12.5276 H   0  0  0  0  0
    0.6421    5.5539    6.8967 H   0  0  0  0  0
    1.3971    6.2607    8.3291 H   0  0  0  0  0
  1  2  2  0  0  0
  1  3  1  0  0  0
  1  4  1  0  0  0
  4  5  1  0  0  0
  5  6  1  0  0  0
  5  8  1  0  0  0
  6  7  2  0  0  0
  6 11  1  0  0  0
  8  9  1  0  0  0
  8 10  1  0  0  0
 11 12  1  0  0  0
 12 13  1  0  0  0
 12 15  1  0  0  0
 13 14  2  0  0  0
 13 19  1  0  0  0
 15 16  1  0  0  0
 15 17  1  0  0  0
 16 18  1  0  0  0
 19 20  1  0  0  0
 20 21  1  0  0  0
 20 22  1  0  0  0
 21 26  1  0  0  0
 22 23  1  0  0  0
 23 24  1  0  0  0
 24 25  1  0  0  0
 26 27  1  0  0  0
 27 28  1  0  0  0
 27 30  1  0  0  0
 28 29  2  0  0  0
 28 34  1  0  0  0
 30 31  1  0  0  0
 31 32  1  0  0  0
 32 33  1  0  0  0
 34 35  1  0  0  0
 35 36  1  0  0  0
 35 38  1  0  0  0
 36 37  2  0  0  0
 36 43  1  0  0  0
 38 39  1  0  0  0
 39 40  1  0  0  0
 40 41  2  0  0  0
 40 42  1  0  0  0
 43 44  1  0  0  0
 44 45  1  0  0  0
 44 47  1  0  0  0
 45 46  2  0  0  0
 45 54  1  0  0  0
 47 48  1  0  0  0
 48 49  1  0  0  0
 49 50  1  0  0  0
 50 51  1  0  0  0
 51 52  1  0  0  0
 51 53  2  0  0  0
  3 55  1  0  0  0
  3 56  1  0  0  0
  3 57  1  0  0  0
  4 58  1  0  0  0
  5 59  1  0  0  0
  8 60  1  0  0  0
  9 61  1  0  0  0
 10 62  1  0  0  0
 10 63  1  0  0  0
 10 64  1  0  0  0
 11 65  1  0  0  0
 12 66  1  0  0  0
 15 67  1  0  0  0
 16 68  1  0  0  0
 16 69  1  0  0  0
 17 70  1  0  0  0
 17 71  1  0  0  0
 17 72  1  0  0  0
 18 73  1  0  0  0
 18 74  1  0  0  0
 18 75  1  0  0  0
 19 76  1  0  0  0
 20 77  1  0  0  0
 21 78  1  0  0  0
 21 79  1  0  0  0
 22 80  1  0  0  0
 22 81  1  0  0  0
 23 82  1  0  0  0
 23 83  1  0  0  0
 24 84  1  0  0  0
 24 85  1  0  0  0
 25 86  1  0  0  0
 25 87  1  0  0  0
 25 88  1  0  0  0
 26 89  1  0  0  0
 26 90  1  0  0  0
 27 91  1  0  0  0
 30 92  1  0  0  0
 30 93  1  0  0  0
 31 94  1  0  0  0
 31 95  1  0  0  0
 32 96  1  0  0  0
 32 97  1  0  0  0
 33 98  1  0  0  0
 33 99  1  0  0  0
 33100  1  0  0  0
 34101  1  0  0  0
 35102  1  0  0  0
 38103  1  0  0  0
 38104  1  0  0  0
 39105  1  0  0  0
 39106  1  0  0  0
 42107  1  0  0  0
 42108  1  0  0  0
 43109  1  0  0  0
 44110  1  0  0  0
 47111  1  0  0  0
 47112  1  0  0  0
 48113  1  0  0  0
 48114  1  0  0  0
 49115  1  0  0  0
 49116  1  0  0  0
 50117  1  0  0  0
 52118  1  0  0  0
 52119  1  0  0  0
 53120  1  0  0  0
 54121  1  0  0  0
 54122  1  0  0  0
M  END
$$$$
