### 
### Created by X-TOOL on Mon Sep 10 21:13:03 2018
### 

@<TRIPOS>MOLECULE
3hbo_ligand
  123   122     1     0     0
SMALL
GAST_HUCK


@<TRIPOS>ATOM
      1 C           4.4190   -8.9140   16.3310 C.2       1 2NC         0.1752
      2 O           3.4770   -8.4500   16.9700 O.2       1 2NC        -0.3972
      3 CH3         4.2190   -9.7470   15.0860 C.3       1 2NC         0.0258
      4 N           5.6810   -8.6040   16.6040 N.am      1 2NC        -0.2635
      5 CA          6.1190   -7.9500   17.8290 C.3       1 2NC         0.1564
      6 C1          6.6920   -6.5490   17.6270 C.2       1 2NC         0.2065
      7 O1          6.9890   -5.8600   18.5990 O.2       1 2NC        -0.3943
      8 CB          7.1470   -8.8010   18.5830 C.3       1 2NC         0.0924
      9 OG1         8.3290   -8.9570   17.7940 O.3       1 2NC        -0.3874
     10 CG2         6.5470  -10.2190   18.9050 C.3       1 2NC        -0.0346
     11 N1          6.8270   -6.1050   16.3870 N.am      1 2NC        -0.2634
     12 CA1         7.3880   -4.7810   16.1820 C.3       1 2NC         0.1334
     13 C2          6.3430   -3.9060   15.5010 C.2       1 2NC         0.2023
     14 O2          6.2670   -3.8890   14.2820 O.2       1 2NC        -0.3945
     15 CB1         8.6920   -4.8210   15.3830 C.3       1 2NC        -0.0037
     16 CG1         9.6680   -5.8900   15.9050 C.3       1 2NC        -0.0491
     17 CG21        9.3530   -3.4360   15.3030 C.3       1 2NC        -0.0582
     18 CD1        10.2020   -5.6910   17.3420 C.3       1 2NC        -0.0648
     19 N2          5.4710   -3.2670   16.2700 N.am      1 2NC        -0.2769
     20 CA2         4.3440   -2.5570   15.6320 C.3       1 2NC         0.0817
     21 C3          4.6150   -1.0690   15.5660 C.3       1 2NC        -0.0081
     22 CB2         3.0730   -2.8950   16.4110 C.3       1 2NC        -0.0249
     23 CG          2.8670   -4.3910   16.6750 C.3       1 2NC        -0.0510
     24 CD          2.7690   -5.2070   15.3860 C.3       1 2NC        -0.0558
     25 CE          1.6860   -4.6630   14.4640 C.3       1 2NC        -0.0653
     26 N3          5.8420   -0.7260   14.8550 N.4       1 2NC         0.2477
     27 CA3         5.8200    0.4520   13.9540 C.3       1 2NC         0.0668
     28 C4          4.7070    0.3760   12.8990 C.2       1 2NC         0.2268
     29 O3          4.4360   -0.6610   12.3150 O.2       1 2NC        -0.3907
     30 CB3         7.2190    0.6150   13.3360 C.3       1 2NC         0.0079
     31 CG3         7.4100    1.8380   12.4500 C.3       1 2NC        -0.0460
     32 CD2         7.3990    1.4200   10.9710 C.3       1 2NC        -0.0556
     33 CE1         8.6490    0.6490   10.5650 C.3       1 2NC        -0.0653
     34 N4          4.0940    1.5160   12.5940 N.am      1 2NC        -0.2609
     35 CA4         3.0960    1.5840   11.5190 C.3       1 2NC         0.1331
     36 C5          3.1210    2.9720   10.8970 C.2       1 2NC         0.2040
     37 O4          3.2780    3.9780   11.5830 O.2       1 2NC        -0.3944
     38 CB4         1.6860    1.2390   12.0400 C.3       1 2NC         0.0045
     39 CG4         0.5850    1.3400   10.9750 C.3       1 2NC         0.0412
     40 CD3         0.0210    2.7350   10.8600 C.2       1 2NC         0.1737
     41 OE1         0.1020    3.5050   11.7950 O.2       1 2NC        -0.3973
     42 NE2        -0.6240    3.0430    9.7350 N.am      1 2NC        -0.3009
     43 N5          3.0370    3.0080    9.5790 N.am      1 2NC        -0.2637
     44 CA5         3.0970    4.2670    8.8370 C.3       1 2NC         0.1307
     45 C6          1.8820    4.3110    7.9460 C.2       1 2NC         0.1992
     46 O5          1.6740    3.3870    7.1560 O.2       1 2NC        -0.3947
     47 CB5         4.3600    4.2850    7.9700 C.3       1 2NC        -0.0092
     48 CG5         5.6410    4.1900    8.7360 C.3       1 2NC        -0.0156
     49 CD4         5.5450    5.2230    9.8160 C.3       1 2NC         0.0627
     50 NE          6.6000    5.2210   10.8270 N.pl3     1 2NC        -0.2723
     51 CZ          7.7540    5.8380   10.6770 C.cat     1 2NC         0.2882
     52 NH1         8.0630    6.4340    9.5140 N.pl3     1 2NC        -0.2849
     53 NH2         8.6240    5.8240   11.6580 N.pl3     1 2NC        -0.2849
     54 N6          1.2580    5.4660    7.7050 N.am      1 2NC        -0.2990
     55 H           3.6360  -10.6341   15.3337 H         1 2NC         0.0467
     56 H           3.6875   -9.1585   14.3381 H         1 2NC         0.0467
     57 H           5.1897  -10.0471   14.6914 H         1 2NC         0.0467
     58 H           6.3903   -8.8395   15.9099 H         1 2NC         0.1883
     59 H           5.2080   -7.8438   18.4179 H         1 2NC         0.0826
     60 H           7.3974   -8.2950   19.5154 H         1 2NC         0.0639
     61 H           8.1056   -9.3908   16.9673 H         1 2NC         0.2101
     62 H           6.3003  -10.7278   17.9732 H         1 2NC         0.0257
     63 H           7.2809  -10.8057   19.4576 H         1 2NC         0.0257
     64 H           5.6455  -10.1026   19.5066 H         1 2NC         0.0257
     65 H           6.5434   -6.6798   15.5935 H         1 2NC         0.1883
     66 H           7.6454   -4.3554   17.1519 H         1 2NC         0.0802
     67 H           8.4259   -5.1130   14.3671 H         1 2NC         0.0345
     68 H          10.5387   -5.8500   15.2505 H         1 2NC         0.0267
     69 H           9.1121   -6.8275   15.9160 H         1 2NC         0.0267
     70 H           8.6727   -2.7378   14.8154 H         1 2NC         0.0235
     71 H           9.5776   -3.0834   16.3096 H         1 2NC         0.0235
     72 H          10.2759   -3.5080   14.7274 H         1 2NC         0.0235
     73 H          10.7367   -4.7430   17.4015 H         1 2NC         0.0230
     74 H           9.3657   -5.6824   18.0411 H         1 2NC         0.0230
     75 H          10.8788   -6.5077   17.5931 H         1 2NC         0.0230
     76 H           5.5771   -3.2661   17.2845 H         1 2NC         0.1857
     77 H           4.2168   -2.8803   14.5989 H         1 2NC         0.0609
     78 H           4.7217   -0.7119   16.5903 H         1 2NC         0.0837
     79 H           3.7867   -0.6110   15.0254 H         1 2NC         0.0837
     80 H           2.2302   -2.5590   15.8070 H         1 2NC         0.0289
     81 H           3.1560   -2.4084   17.3828 H         1 2NC         0.0289
     82 H           1.9302   -4.5098   17.2194 H         1 2NC         0.0266
     83 H           3.7272   -4.7541   17.2374 H         1 2NC         0.0266
     84 H           2.5175   -6.2353   15.6459 H         1 2NC         0.0263
     85 H           3.7258   -5.1500   14.8670 H         1 2NC         0.0263
     86 H           0.7231   -4.7033   14.9733 H         1 2NC         0.0230
     87 H           1.9176   -3.6303   14.2032 H         1 2NC         0.0230
     88 H           1.6448   -5.2674   13.5579 H         1 2NC         0.0230
     89 H           6.0364   -1.5246   14.2509 H         1 2NC         0.2036
     90 H           6.5205   -0.4977   15.5816 H         1 2NC         0.2036
     91 H           5.5792    1.3423   14.5350 H         1 2NC         0.1099
     92 H           7.3790   -0.2555   12.6998 H         1 2NC         0.0346
     93 H           7.9137    0.7252   14.1687 H         1 2NC         0.0346
     94 H           8.3664    2.3055   12.6842 H         1 2NC         0.0269
     95 H           6.5982    2.5426   12.6303 H         1 2NC         0.0269
     96 H           7.3564    2.3273   10.3684 H         1 2NC         0.0263
     97 H           6.5396    0.7678   10.8152 H         1 2NC         0.0263
     98 H           9.5280    1.2725   10.7285 H         1 2NC         0.0230
     99 H           8.7272   -0.2565   11.1666 H         1 2NC         0.0230
    100 H           8.5828    0.3815    9.5104 H         1 2NC         0.0230
    101 H           4.3219    2.3610   13.1178 H         1 2NC         0.1885
    102 H           3.3470    0.8447   10.7584 H         1 2NC         0.0801
    103 H           1.4456    1.9583   12.8229 H         1 2NC         0.0337
    104 H           1.7117    0.2042   12.3815 H         1 2NC         0.0337
    105 H          -0.2259    0.6715   11.2642 H         1 2NC         0.0504
    106 H           1.0215    1.0726   10.0127 H         1 2NC         0.0504
    107 H          -1.0723    3.9540    9.6372 H         1 2NC         0.1814
    108 H          -0.6693    2.3677    8.9719 H         1 2NC         0.1814
    109 H           2.9273    2.1339    9.0649 H         1 2NC         0.1883
    110 H           3.1206    5.1211    9.5138 H         1 2NC         0.0800
    111 H           4.3727    5.2404    7.4454 H         1 2NC         0.0313
    112 H           4.3123    3.4117    7.3195 H         1 2NC         0.0313
    113 H           6.5029    4.3665    8.0926 H         1 2NC         0.0301
    114 H           5.7826    3.1923    9.1516 H         1 2NC         0.0301
    115 H           4.6188    5.0115   10.3503 H         1 2NC         0.0689
    116 H           5.6144    6.1878    9.3136 H         1 2NC         0.0689
    117 H           6.4337    4.7141   11.6964 H         1 2NC         0.2642
    118 H           7.4017    6.4112    8.7378 H         1 2NC         0.2615
    119 H           8.9590    6.9095    9.4069 H         1 2NC         0.2615
    120 H           8.4043    5.3382   12.5276 H         1 2NC         0.2615
    121 H           9.5204    6.2989   11.5515 H         1 2NC         0.2615
    122 H           0.6421    5.5539    6.8967 H         1 2NC         0.1815
    123 H           1.3971    6.2607    8.3291 H         1 2NC         0.1815
@<TRIPOS>BOND
     1    1    2 2  
     2    1    3 1  
     3    1    4 am 
     4    4    5 1  
     5    5    6 1  
     6    5    8 1  
     7    6    7 2  
     8    6   11 am 
     9    8    9 1  
    10    8   10 1  
    11   11   12 1  
    12   12   13 1  
    13   12   15 1  
    14   13   14 2  
    15   13   19 am 
    16   15   16 1  
    17   15   17 1  
    18   16   18 1  
    19   19   20 1  
    20   20   21 1  
    21   20   22 1  
    22   21   26 1  
    23   22   23 1  
    24   23   24 1  
    25   24   25 1  
    26   26   27 1  
    27   27   28 1  
    28   27   30 1  
    29   28   29 2  
    30   28   34 am 
    31   30   31 1  
    32   31   32 1  
    33   32   33 1  
    34   34   35 1  
    35   35   36 1  
    36   35   38 1  
    37   36   37 2  
    38   36   43 am 
    39   38   39 1  
    40   39   40 1  
    41   40   41 2  
    42   40   42 am 
    43   43   44 1  
    44   44   45 1  
    45   44   47 1  
    46   45   46 2  
    47   45   54 am 
    48   47   48 1  
    49   48   49 1  
    50   49   50 1  
    51   50   51 ar 
    52   51   52 ar 
    53   51   53 ar 
    54    3   55 1  
    55    3   56 1  
    56    3   57 1  
    57    4   58 1  
    58    5   59 1  
    59    8   60 1  
    60    9   61 1  
    61   10   62 1  
    62   10   63 1  
    63   10   64 1  
    64   11   65 1  
    65   12   66 1  
    66   15   67 1  
    67   16   68 1  
    68   16   69 1  
    69   17   70 1  
    70   17   71 1  
    71   17   72 1  
    72   18   73 1  
    73   18   74 1  
    74   18   75 1  
    75   19   76 1  
    76   20   77 1  
    77   21   78 1  
    78   21   79 1  
    79   22   80 1  
    80   22   81 1  
    81   23   82 1  
    82   23   83 1  
    83   24   84 1  
    84   24   85 1  
    85   25   86 1  
    86   25   87 1  
    87   25   88 1  
    88   26   89 1  
    89   26   90 1  
    90   27   91 1  
    91   30   92 1  
    92   30   93 1  
    93   31   94 1  
    94   31   95 1  
    95   32   96 1  
    96   32   97 1  
    97   33   98 1  
    98   33   99 1  
    99   33  100 1  
   100   34  101 1  
   101   35  102 1  
   102   38  103 1  
   103   38  104 1  
   104   39  105 1  
   105   39  106 1  
   106   42  107 1  
   107   42  108 1  
   108   43  109 1  
   109   44  110 1  
   110   47  111 1  
   111   47  112 1  
   112   48  113 1  
   113   48  114 1  
   114   49  115 1  
   115   49  116 1  
   116   50  117 1  
   117   52  118 1  
   118   52  119 1  
   119   53  120 1  
   120   53  121 1  
   121   54  122 1  
   122   54  123 1  
@<TRIPOS>SUBSTRUCTURE
     1 2NC         1

