5q0w_ligand
  -I-interpret- 

 58 62  0  0  0  0  0  0  0  0999 V2000
  -14.5900   51.9440    1.4490 C   0  0  0  0  0
  -14.4500   51.7310   -0.0290 C   0  0  0  0  0
  -14.4870   52.9630   -0.6740 C   0  0  0  0  0
  -15.7420   49.6700    6.3060 C   0  0  0  0  0
  -15.9920   51.3770    1.8710 C   0  0  0  0  0
  -14.3940   53.0480   -2.0620 C   0  0  0  0  0
  -14.3310   50.5580   -0.7680 C   0  0  0  0  0
  -16.1290   51.0550    3.3360 C   0  0  0  0  0
  -11.4950   58.2310   -0.3820 C   0  0  0  0  0
  -12.7260   58.4410   -0.9840 C   0  0  0  0  0
  -13.5640   56.3490   -0.1190 C   0  0  0  0  0
   -9.5350   59.3700    0.2670 O   0  0  0  0  0
  -10.4230   59.2480   -0.5430 C   0  0  0  0  0
  -10.5290   59.9970   -1.6280 O   0  0  0  0  0
  -11.3060   57.0550    0.3700 C   0  0  0  0  0
  -12.3410   56.1250    0.4980 C   0  0  0  0  0
  -14.7350   55.4220   -0.0290 C   0  0  0  0  0
  -14.5980   53.9880    0.2800 N   0  0  0  0  0
  -14.6760   53.4700    1.5500 C   0  0  0  0  0
  -14.7950   54.1140    2.5770 O   0  0  0  0  0
  -14.9900   50.2180    3.7350 N   0  0  0  0  0
  -13.7220   50.9690    3.7450 C   0  0  0  0  0
  -13.3720   51.3670    2.3120 C   0  0  0  0  0
  -15.2230   48.9680    4.7600 S   0  0  0  0  0
  -13.9480   48.3580    4.9690 O   0  0  0  0  0
  -16.2960   48.1910    4.2260 O   0  0  0  0  0
  -14.7340   50.0580    7.1890 C   0  0  0  0  0
  -15.0630   50.6140    8.4160 C   0  0  0  0  0
  -16.3850   50.7870    8.7730 C   0  0  0  0  0
  -17.4030   50.4070    7.9080 C   0  0  0  0  0
  -17.0850   49.8510    6.6780 C   0  0  0  0  0
  -18.3880   49.3930    5.6340 Cl  0  0  0  0  0
  -14.2420   50.6550   -2.1440 C   0  0  0  0  0
  -14.0800   49.0640   -3.1580 Br  0  0  0  0  0
  -14.2740   51.8740   -2.8020 C   0  0  0  0  0
  -13.7370   57.5170   -0.8500 C   0  0  0  0  0
  -16.1318   50.4426    1.3275 H   0  0  0  0  0
  -16.7264   52.1508    1.6473 H   0  0  0  0  0
  -14.4148   54.0172   -2.5603 H   0  0  0  0  0
  -14.3085   49.5866   -0.2740 H   0  0  0  0  0
  -17.0635   50.5234    3.5153 H   0  0  0  0  0
  -16.1389   51.9748    3.9208 H   0  0  0  0  0
  -12.8945   59.3456   -1.5684 H   0  0  0  0  0
  -11.3046   59.7287   -2.1261 H   0  0  0  0  0
  -10.3474   56.8695    0.8546 H   0  0  0  0  0
  -12.1873   55.2195    1.0850 H   0  0  0  0  0
  -15.1308   55.4213   -1.0446 H   0  0  0  0  0
  -15.2936   55.8083    0.8235 H   0  0  0  0  0
  -12.9284   50.3471    4.1592 H   0  0  0  0  0
  -13.8275   51.8624    4.3605 H   0  0  0  0  0
  -12.6314   52.1638    2.3803 H   0  0  0  0  0
  -13.0334   50.4611    1.8092 H   0  0  0  0  0
  -13.6877   49.9241    6.9144 H   0  0  0  0  0
  -14.2726   50.9164    9.1029 H   0  0  0  0  0
  -16.6317   51.2248    9.7403 H   0  0  0  0  0
  -18.4457   50.5450    8.1942 H   0  0  0  0  0
  -14.2059   51.9139   -3.8891 H   0  0  0  0  0
  -14.6973   57.7066   -1.3295 H   0  0  0  0  0
  1  2  1  0  0  0
  5  1  1  0  0  0
  1 19  1  0  0  0
  1 23  1  0  0  0
  2  3  4  0  0  0
  2  7  4  0  0  0
  3  6  4  0  0  0
 18  3  1  0  0  0
 24  4  1  0  0  0
  4 27  4  0  0  0
  4 31  4  0  0  0
  8  5  1  0  0  0
  6 35  4  0  0  0
  7 33  4  0  0  0
 21  8  1  0  0  0
 10  9  4  0  0  0
  9 13  1  0  0  0
 15  9  4  0  0  0
 36 10  4  0  0  0
 11 16  4  0  0  0
 17 11  1  0  0  0
 11 36  4  0  0  0
 13 12  2  0  0  0
 13 14  1  0  0  0
 16 15  4  0  0  0
 18 17  1  0  0  0
 19 18  1  0  0  0
 19 20  2  0  0  0
 21 22  1  0  0  0
 21 24  1  0  0  0
 22 23  1  0  0  0
 24 25  2  0  0  0
 24 26  2  0  0  0
 27 28  4  0  0  0
 28 29  4  0  0  0
 29 30  4  0  0  0
 30 31  4  0  0  0
 31 32  1  0  0  0
 33 34  1  0  0  0
 33 35  4  0  0  0
  5 37  1  0  0  0
  5 38  1  0  0  0
  6 39  1  0  0  0
  7 40  1  0  0  0
  8 41  1  0  0  0
  8 42  1  0  0  0
 10 43  1  0  0  0
 14 44  1  0  0  0
 15 45  1  0  0  0
 16 46  1  0  0  0
 17 47  1  0  0  0
 17 48  1  0  0  0
 22 49  1  0  0  0
 22 50  1  0  0  0
 23 51  1  0  0  0
 23 52  1  0  0  0
 27 53  1  0  0  0
 28 54  1  0  0  0
 29 55  1  0  0  0
 30 56  1  0  0  0
 35 57  1  0  0  0
 36 58  1  0  0  0
M  END
$$$$
