2uue_ligand
  -I-interpret- 

 46 49  0  0  0  0  0  0  0  0999 V2000
   -3.9500   47.8670    2.3880 C   0  0  0  0  0
   -4.8160   46.8960    3.2050 C   0  0  0  0  0
   -4.6380   45.5080    2.8070 O   0  0  0  0  0
   -3.2700   45.0440    2.8960 C   0  0  0  0  0
   -2.3090   45.9310    2.0900 C   0  0  0  0  0
   -2.5490   47.3740    2.3640 N   0  0  0  0  0
   -1.4820   48.2300    2.6990 C   0  0  0  0  0
   -1.7650   49.5100    3.1620 C   0  0  0  0  0
   -0.7330   50.3660    3.5200 C   0  0  0  0  0
   -0.1580   47.7980    2.6280 C   0  0  0  0  0
    0.8740   48.6540    3.0030 C   0  0  0  0  0
    0.5900   49.9470    3.4400 C   0  0  0  0  0
    1.5470   50.7960    3.8290 N   0  0  0  0  0
    2.8080   50.7310    3.4150 C   0  0  0  0  0
    3.3120   49.5710    2.9600 N   0  0  0  0  0
    3.5760   51.8310    3.4620 N   0  0  0  0  0
    4.8340   51.8070    3.0410 C   0  0  0  0  0
    5.3880   50.6240    2.5630 C   0  0  0  0  0
    4.5900   49.4810    2.5450 C   0  0  0  0  0
    5.0670   48.2810    2.0160 C   0  0  0  0  0
    4.1640   46.8510    1.7580 S   0  0  0  0  0
    6.3300   48.0680    1.4680 C   0  0  0  0  0
    7.4110   49.1460    1.4830 C   0  0  0  0  0
    6.5330   46.8390    0.9600 N   0  0  0  0  0
    5.4660   46.0260    1.0190 C   0  0  0  0  0
    5.4240   44.7650    0.5780 N   0  0  0  0  0
   -3.9810   48.8562    2.8447 H   0  0  0  0  0
   -4.3327   47.9285    1.3692 H   0  0  0  0  0
   -5.8604   47.1594    3.0376 H   0  0  0  0  0
   -4.5194   46.9836    4.2502 H   0  0  0  0  0
   -3.2251   44.0340    2.4885 H   0  0  0  0  0
   -2.9665   45.0751    3.9424 H   0  0  0  0  0
   -2.4738   45.7468    1.0284 H   0  0  0  0  0
   -1.2866   45.6878    2.3790 H   0  0  0  0  0
   -2.8000   49.8420    3.2440 H   0  0  0  0  0
   -0.9614   51.3739    3.8663 H   0  0  0  0  0
    0.0688   46.7906    2.2791 H   0  0  0  0  0
    1.9078   48.3119    2.9547 H   0  0  0  0  0
    1.2941   51.5374    4.4822 H   0  0  0  0  0
    5.4346   52.7162    3.0698 H   0  0  0  0  0
    6.4193   50.5915    2.2116 H   0  0  0  0  0
    7.0552   50.0231    0.9423 H   0  0  0  0  0
    7.6354   49.4194    2.5140 H   0  0  0  0  0
    8.3115   48.7624    1.0033 H   0  0  0  0  0
    4.5668   44.2202    0.6718 H   0  0  0  0  0
    6.2492   44.3475    0.1477 H   0  0  0  0  0
  1  2  1  0  0  0
  1  6  1  0  0  0
  2  3  1  0  0  0
  3  4  1  0  0  0
  4  5  1  0  0  0
  5  6  1  0  0  0
  6  7  1  0  0  0
  7  8  4  0  0  0
  7 10  4  0  0  0
  8  9  4  0  0  0
  9 12  4  0  0  0
 10 11  4  0  0  0
 11 12  4  0  0  0
 12 13  1  0  0  0
 13 14  1  0  0  0
 14 15  4  0  0  0
 14 16  4  0  0  0
 15 19  4  0  0  0
 16 17  4  0  0  0
 17 18  4  0  0  0
 18 19  4  0  0  0
 19 20  1  0  0  0
 20 21  4  0  0  0
 20 22  4  0  0  0
 21 25  4  0  0  0
 22 23  1  0  0  0
 22 24  4  0  0  0
 24 25  4  0  0  0
 25 26  1  0  0  0
  1 27  1  0  0  0
  1 28  1  0  0  0
  2 29  1  0  0  0
  2 30  1  0  0  0
  4 31  1  0  0  0
  4 32  1  0  0  0
  5 33  1  0  0  0
  5 34  1  0  0  0
  8 35  1  0  0  0
  9 36  1  0  0  0
 10 37  1  0  0  0
 11 38  1  0  0  0
 13 39  1  0  0  0
 17 40  1  0  0  0
 18 41  1  0  0  0
 23 42  1  0  0  0
 23 43  1  0  0  0
 23 44  1  0  0  0
 26 45  1  0  0  0
 26 46  1  0  0  0
M  END
$$$$
