6iyv_ligand
  -I-interpret- 

 61 63  0  0  0  0  0  0  0  0999 V2000
    7.3850    5.8820   -2.9800 C   0  0  0  0  0
    6.3770    5.0030   -5.0610 N   0  3  0  0  0
    7.4630    4.7850   -2.5180 O   0  0  0  0  0
    6.4400    6.1480   -4.1310 C   0  0  0  0  0
    5.0120    6.4410   -3.6510 C   0  0  0  0  0
    4.9960    4.9280   -5.5450 C   0  0  0  0  0
    4.2860    6.1320   -4.9500 C   0  0  0  0  0
   -2.3980    8.9090   -5.6500 C   0  0  0  0  0
   -2.0660    7.7060   -4.7310 C   0  0  0  0  0
   -1.7800    9.9310   -5.6460 O   0  0  0  0  0
   -0.5950    7.3820   -4.5290 C   0  0  0  0  0
   -2.7930    7.8750   -3.3730 C   0  0  0  0  0
   -2.5730    6.6190   -2.5370 C   0  0  0  0  0
   -2.3400    9.0200   -2.7150 O   0  0  0  0  0
    0.1860    6.9250   -5.7960 C   0  0  0  0  0
    1.6030    7.2830   -5.3850 C   0  0  0  0  0
    0.2340    8.4490   -4.0090 N   0  0  0  0  0
    2.4930    5.8280   -4.6980 S   0  0  0  0  0
    1.3710    8.2960   -4.3430 C   0  0  0  0  0
    2.5050    9.1610   -3.7950 C   0  0  0  0  0
   -0.1850    7.6050   -7.0840 C   0  0  0  0  0
    2.3140    9.8830   -2.7740 O   0  0  0  0  0
    3.6170    9.1690   -4.3760 O   0  0  0  0  0
    8.1640    7.0200   -2.5150 N   0  0  0  0  0
    9.1400    7.0200   -1.4340 C   0  0  0  0  0
    9.5020    5.8420   -0.8080 C   0  0  0  0  0
   10.4320    5.8700    0.2200 C   0  0  0  0  0
   10.9940    7.0710    0.6120 C   0  0  0  0  0
   10.6350    8.2510   -0.0130 C   0  0  0  0  0
    9.7020    8.2250   -1.0400 C   0  0  0  0  0
   10.8370    4.5670    0.9020 C   0  0  0  0  0
   10.3430    3.4750    0.5170 O   0  0  0  0  0
   11.6750    4.5850    1.8440 O   0  0  0  0  0
    6.6445    4.1382   -4.5909 H   0  0  0  0  0
    7.0273    5.1290   -5.8367 H   0  0  0  0  0
    6.8411    7.0234   -4.6418 H   0  0  0  0  0
    4.8479    7.4402   -3.2475 H   0  0  0  0  0
    4.6826    5.8715   -2.7820 H   0  0  0  0  0
    4.5189    3.9957   -5.2428 H   0  0  0  0  0
    4.9552    4.9406   -6.6342 H   0  0  0  0  0
    4.3216    6.9847   -5.6281 H   0  0  0  0  0
   -3.2399    8.8175   -6.3362 H   0  0  0  0  0
   -2.4351    6.8341   -5.2711 H   0  0  0  0  0
   -0.7255    6.5755   -3.8074 H   0  0  0  0  0
   -3.8630    8.0036   -3.5364 H   0  0  0  0  0
   -2.9760    5.7561   -3.0671 H   0  0  0  0  0
   -1.5052    6.4780   -2.3695 H   0  0  0  0  0
   -3.0810    6.7282   -1.5788 H   0  0  0  0  0
   -2.7999    9.1093   -1.8771 H   0  0  0  0  0
   -0.0107    5.8806   -6.0380 H   0  0  0  0  0
    2.2224    7.6287   -6.2126 H   0  0  0  0  0
   -1.2386    7.4255   -7.2978 H   0  0  0  0  0
   -0.0092    8.6767   -6.9913 H   0  0  0  0  0
    0.4248    7.2042   -7.8937 H   0  0  0  0  0
    1.4165    9.7568   -2.4576 H   0  0  0  0  0
    8.0110    7.9071   -2.9946 H   0  0  0  0  0
    9.0589    4.8965   -1.1207 H   0  0  0  0  0
   11.7256    7.0877    1.4198 H   0  0  0  0  0
   11.0817    9.1951    0.2988 H   0  0  0  0  0
    9.4112    9.1508   -1.5365 H   0  0  0  0  0
   11.9487    5.4900    2.0101 H   0  0  0  0  0
  1  3  2  0  0  0
  4  1  1  0  0  0
  1 24  1  0  0  0
  2  4  1  0  0  0
  6  2  1  0  0  0
  5  4  1  0  0  0
  7  5  1  0  0  0
  7  6  1  0  0  0
 18  7  1  0  0  0
  9  8  1  0  0  0
  8 10  2  0  0  0
 11  9  1  0  0  0
  9 12  1  0  0  0
 15 11  1  0  0  0
 11 17  1  0  0  0
 12 13  1  0  0  0
 12 14  1  0  0  0
 16 15  1  0  0  0
 15 21  1  0  0  0
 16 18  1  0  0  0
 16 19  1  0  0  0
 17 19  2  0  0  0
 19 20  1  0  0  0
 20 22  1  0  0  0
 20 23  2  0  0  0
 24 25  1  0  0  0
 25 26  4  0  0  0
 25 30  4  0  0  0
 26 27  4  0  0  0
 27 28  4  0  0  0
 27 31  1  0  0  0
 28 29  4  0  0  0
 29 30  4  0  0  0
 31 32  2  0  0  0
 31 33  1  0  0  0
  2 34  1  0  0  0
  2 35  1  0  0  0
  4 36  1  0  0  0
  5 37  1  0  0  0
  5 38  1  0  0  0
  6 39  1  0  0  0
  6 40  1  0  0  0
  7 41  1  0  0  0
  8 42  1  0  0  0
  9 43  1  0  0  0
 11 44  1  0  0  0
 12 45  1  0  0  0
 13 46  1  0  0  0
 13 47  1  0  0  0
 13 48  1  0  0  0
 14 49  1  0  0  0
 15 50  1  0  0  0
 16 51  1  0  0  0
 21 52  1  0  0  0
 21 53  1  0  0  0
 21 54  1  0  0  0
 22 55  1  0  0  0
 24 56  1  0  0  0
 26 57  1  0  0  0
 28 58  1  0  0  0
 29 59  1  0  0  0
 30 60  1  0  0  0
 33 61  1  0  0  0
M  END
$$$$
