5szb_ligand
  -I-interpret- 

234233  0  0  0  0  0  0  0  0999 V2000
   -5.1960   31.3370   80.3380 N   0  3  0  0  0
   -3.7250   31.1000   80.4820 C   0  0  0  0  0
   -3.3250   29.8120   79.7980 C   0  0  0  0  0
   -4.1440   28.9220   79.6070 O   0  0  0  0  0
   -3.3320   31.0340   81.9430 C   0  0  0  0  0
   -2.0550   29.7200   79.4440 N   0  0  0  0  0
   -1.5110   28.5590   78.7620 C   0  0  0  0  0
   -0.6260   27.7800   79.7240 C   0  0  0  0  0
    0.1330   28.3670   80.4970 O   0  0  0  0  0
   -0.6650   28.9880   77.5640 C   0  0  0  0  0
   -1.4170   29.7510   76.4950 C   0  0  0  0  0
   -0.4720   30.1640   75.4130 C   0  0  0  0  0
    0.4890   31.1000   75.9680 N   0  0  0  0  0
    1.7810   31.1320   75.6540 C   0  0  0  0  0
    2.2940   30.2910   74.7690 N   0  0  0  0  0
    2.5650   32.0240   76.2210 N   0  0  0  0  0
   -0.7130   26.4630   79.6650 N   0  0  0  0  0
    0.3090   25.5900   80.2060 C   0  0  0  0  0
    0.9220   24.8280   79.0510 C   0  0  0  0  0
    0.4210   24.8550   77.9240 O   0  0  0  0  0
   -0.2700   24.5780   81.1850 C   0  0  0  0  0
   -1.1460   23.7060   80.4630 O   0  0  0  0  0
   -1.0000   25.2790   82.3180 C   0  0  0  0  0
    1.9990   24.1050   79.3400 N   0  0  0  0  0
    2.5670   23.2790   78.2960 C   0  0  0  0  0
    1.5050   22.3390   77.7380 C   0  0  0  0  0
    1.4120   22.1420   76.5210 O   0  0  0  0  0
    3.7480   22.4910   78.8370 C   0  0  0  0  0
    4.3660   21.6420   77.7350 C   0  0  0  0  0
    5.5930   20.8670   78.1530 C   0  0  0  0  0
    6.7190   21.7710   78.5660 C   0  0  0  0  0
    8.0280   21.0860   78.4070 N   0  3  0  0  0
    0.6930   21.7560   78.6150 N   0  0  0  0  0
   -0.3250   20.8320   78.1430 C   0  0  0  0  0
   -1.3440   21.5250   77.2490 C   0  0  0  0  0
   -1.6730   21.0160   76.1760 O   0  0  0  0  0
   -1.0050   20.1250   79.3090 C   0  0  0  0  0
   -2.1880   19.2550   78.7750 C   0  0  0  0  0
   -2.5970   18.0240   79.6010 C   0  0  0  0  0
   -3.4790   17.2500   79.1820 O   0  0  0  0  0
   -1.9660   17.8250   80.7420 N   0  0  0  0  0
   -1.8820   22.6750   77.6680 N   0  0  0  0  0
   -2.8940   23.3070   76.8280 C   0  0  0  0  0
   -2.2730   23.8680   75.5600 C   0  0  0  0  0
   -2.9080   23.8480   74.5010 O   0  0  0  0  0
   -3.7170   24.3540   77.5980 C   0  0  0  0  0
   -2.9020   25.4880   77.9110 O   0  0  0  0  0
   -4.3260   23.7380   78.8750 C   0  0  0  0  0
   -1.0140   24.3080   75.6330 N   0  0  0  0  0
   -0.3310   24.8180   74.4530 C   0  0  0  0  0
   -0.0780   23.7160   73.4340 C   0  0  0  0  0
   -0.2070   23.9440   72.2260 O   0  0  0  0  0
    0.9840   25.4670   74.8730 C   0  0  0  0  0
    0.3060   22.5250   73.8880 N   0  0  0  0  0
    0.4710   21.4060   72.9660 C   0  0  0  0  0
   -0.8210   21.1460   72.2300 C   0  0  0  0  0
   -0.8280   20.8980   71.0200 O   0  0  0  0  0
    0.8000   20.1400   73.7430 C   0  0  0  0  0
    2.1330   19.5610   73.4900 C   0  0  0  0  0
    2.2860   18.3020   74.2460 C   0  0  0  0  0
    3.6680   18.1240   74.6500 N   0  0  0  0  0
    4.0910   17.9850   75.9040 C   0  0  0  0  0
    3.2530   18.0210   76.9270 N   0  0  0  0  0
    5.3810   17.7940   76.1270 N   0  0  0  0  0
   -1.9270   21.1610   72.9630 N   0  0  0  0  0
   -3.2050   20.8030   72.3800 C   0  0  0  0  0
   -3.7150   21.8390   71.4030 C   0  0  0  0  0
   -4.4780   21.4960   70.5000 O   0  0  0  0  0
   -4.2390   20.6100   73.4760 C   0  0  0  0  0
   -3.9020   19.4740   74.3840 C   0  0  0  0  0
   -4.9160   19.3840   75.4850 C   0  0  0  0  0
   -4.7970   18.0960   76.2350 C   0  0  0  0  0
   -5.6320   18.1560   77.4550 N   0  3  0  0  0
   -3.3390   23.1040   71.5570 N   0  0  0  0  0
   -3.8900   24.1060   70.6620 C   0  0  0  0  0
   -2.9600   24.4320   69.5070 C   0  0  0  0  0
   -3.3770   25.1150   68.5680 O   0  0  0  0  0
   -4.2840   25.3700   71.4280 C   0  0  0  0  0
   -3.1800   25.9480   72.0810 O   0  0  0  0  0
   -1.7430   23.9040   69.5280 N   0  0  0  0  0
   -0.7660   24.0610   68.4600 C   0  0  0  0  0
   -0.5320   22.6340   67.9710 C   0  0  0  0  0
    0.4650   22.0010   68.3180 O   0  0  0  0  0
    0.5330   24.6790   68.9850 C   0  0  0  0  0
    1.2150   23.7050   69.7800 O   0  0  0  0  0
    0.2860   25.9360   69.8260 C   0  0  0  0  0
   -1.4980   22.1130   67.2180 N   0  0  0  0  0
   -1.4200   20.7500   66.7290 C   0  0  0  0  0
   -0.6700   20.6040   65.4310 C   0  0  0  0  0
   -0.3570   19.4800   65.0300 O   0  0  0  0  0
   -0.3490   21.7160   64.7810 N   0  0  0  0  0
    0.4120   21.6670   63.5650 C   0  0  0  0  0
    1.8920   21.5660   63.8450 C   0  0  0  0  0
    2.6420   21.4040   62.9530 O   0  0  0  0  0
    8.2890   25.0410   68.4650 O   0  0  0  0  0
    8.7990   24.6160   67.4590 C   0  0  0  0  0
    9.6530   25.5060   66.6470 C   0  0  0  0  0
    8.5210   23.2920   67.2000 N   0  0  0  0  0
    7.7250   22.4330   68.0370 C   0  0  0  0  0
    6.2200   22.6120   67.9680 C   0  0  0  0  0
    5.8280   21.7750   66.7930 C   0  0  0  0  0
    4.3570   21.9980   66.5910 C   0  0  0  0  0
    3.8060   21.5460   65.2300 C   0  0  0  0  0
    2.3720   21.6400   65.0780 N   0  0  0  0  0
    4.2630   20.1460   64.8910 C   0  0  0  0  0
    3.6670   19.1630   65.3310 O   0  0  0  0  0
    5.3040   20.0560   64.0590 N   0  0  0  0  0
    5.8330   18.7490   63.6780 C   0  0  0  0  0
    5.9100   17.8040   64.8630 C   0  0  0  0  0
    6.6980   18.0280   65.7800 O   0  0  0  0  0
    7.2130   18.8830   63.0630 C   0  0  0  0  0
    5.1850   16.8120   64.9090 O   0  0  0  0  0
   -5.4373   31.3777   79.3478 H   0  0  0  0  0
   -5.7072   30.5745   80.7827 H   0  0  0  0  0
   -5.4424   32.2197   80.7858 H   0  0  0  0  0
   -3.2057   31.9344   80.0107 H   0  0  0  0  0
   -3.8411   30.1950   82.4173 H   0  0  0  0  0
   -2.2534   30.8979   82.0220 H   0  0  0  0  0
   -3.6197   31.9618   82.4376 H   0  0  0  0  0
   -1.4305   30.4973   79.6589 H   0  0  0  0  0
   -2.3391   27.9404   78.4160 H   0  0  0  0  0
   -0.2918   28.0761   77.0979 H   0  0  0  0  0
    0.1069   29.6564   77.9454 H   0  0  0  0  0
   -1.8717   30.6380   76.9360 H   0  0  0  0  0
   -2.1930   29.1123   76.0731 H   0  0  0  0  0
   -1.0231   30.6369   74.6001 H   0  0  0  0  0
    0.0467   29.2895   75.0202 H   0  0  0  0  0
    0.1493   31.7813   76.6468 H   0  0  0  0  0
    3.2855   30.3396   74.5344 H   0  0  0  0  0
    1.6977   29.5946   74.3219 H   0  0  0  0  0
    2.1808   32.6848   76.8963 H   0  0  0  0  0
   -1.5309   26.0448   79.2216 H   0  0  0  0  0
    1.0411   26.1985   80.7369 H   0  0  0  0  0
    0.5325   23.9955   81.6376 H   0  0  0  0  0
   -1.5209   23.0599   81.0660 H   0  0  0  0  0
   -0.3039   25.9261   82.8517 H   0  0  0  0  0
   -1.8137   25.8777   81.9087 H   0  0  0  0  0
   -1.4044   24.5344   83.0037 H   0  0  0  0  0
    2.4137   24.1315   80.2715 H   0  0  0  0  0
    2.9211   23.9200   77.4886 H   0  0  0  0  0
    3.4028   21.8377   79.6383 H   0  0  0  0  0
    4.4979   23.1870   79.2129 H   0  0  0  0  0
    4.6747   22.3240   76.9428 H   0  0  0  0  0
    3.6143   20.9114   77.4364 H   0  0  0  0  0
    5.9275   20.2748   77.3012 H   0  0  0  0  0
    5.3269   20.2438   79.0067 H   0  0  0  0  0
    6.5877   22.0412   79.6138 H   0  0  0  0  0
    6.7073   22.6594   77.9346 H   0  0  0  0  0
    8.7772   21.7165   78.6925 H   0  0  0  0  0
    8.0455   20.2492   78.9900 H   0  0  0  0  0
    8.1566   20.8237   77.4297 H   0  0  0  0  0
    0.7838   21.9557   79.6111 H   0  0  0  0  0
    0.1754   20.0766   77.5372 H   0  0  0  0  0
   -1.3880   20.8671   80.0094 H   0  0  0  0  0
   -0.2832   19.4840   79.8152 H   0  0  0  0  0
   -1.8531   18.8643   77.8141 H   0  0  0  0  0
   -3.0582   19.9114   78.7779 H   0  0  0  0  0
   -2.1944   17.0136   81.3163 H   0  0  0  0  0
   -1.2496   18.4825   81.0501 H   0  0  0  0  0
   -1.5932   23.0985   78.5498 H   0  0  0  0  0
   -3.6030   22.5362   76.5260 H   0  0  0  0  0
   -4.5398   24.6872   76.9654 H   0  0  0  0  0
   -3.4253   26.1341   78.3909 H   0  0  0  0  0
   -4.9779   22.9084   78.6014 H   0  0  0  0  0
   -3.5252   23.3752   79.5194 H   0  0  0  0  0
   -4.9035   24.4968   79.4031 H   0  0  0  0  0
   -0.5245   24.2864   76.5276 H   0  0  0  0  0
   -0.9709   25.5606   73.9764 H   0  0  0  0  0
    0.7793   26.2879   75.5603 H   0  0  0  0  0
    1.6120   24.7257   75.3671 H   0  0  0  0  0
    1.4970   25.8496   73.9906 H   0  0  0  0  0
    0.4855   22.3942   74.8835 H   0  0  0  0  0
    1.2710   21.6584   72.2700 H   0  0  0  0  0
    0.0737   19.3894   73.4312 H   0  0  0  0  0
    0.7771   20.4114   74.7984 H   0  0  0  0  0
    2.8985   20.2678   73.8102 H   0  0  0  0  0
    2.2395   19.3558   72.4248 H   0  0  0  0  0
    1.9897   17.4668   73.6113 H   0  0  0  0  0
    1.6569   18.3415   75.1353 H   0  0  0  0  0
    4.3727   18.1038   73.9129 H   0  0  0  0  0
    2.2554   18.1581   76.7645 H   0  0  0  0  0
    5.7216   17.6760   77.0812 H   0  0  0  0  0
    6.0349   17.7647   75.3447 H   0  0  0  0  0
   -1.8774   21.4271   73.9464 H   0  0  0  0  0
   -3.0480   19.8755   71.8294 H   0  0  0  0  0
   -5.1955   20.3900   73.0018 H   0  0  0  0  0
   -4.2705   21.5210   74.0736 H   0  0  0  0  0
   -2.9151   19.6393   74.8162 H   0  0  0  0  0
   -3.9057   18.5447   73.8144 H   0  0  0  0  0
   -5.9111   19.4358   75.0432 H   0  0  0  0  0
   -4.7447   20.2057   76.1804 H   0  0  0  0  0
   -3.7562   17.9337   76.5150 H   0  0  0  0  0
   -5.1360   17.2752   75.6030 H   0  0  0  0  0
   -5.5497   17.2767   77.9654 H   0  0  0  0  0
   -5.3142   18.9244   78.0457 H   0  0  0  0  0
   -6.6057   18.3080   77.1920 H   0  0  0  0  0
   -2.6776   23.3656   72.2881 H   0  0  0  0  0
   -4.7909   23.6754   70.2248 H   0  0  0  0  0
   -5.0247   25.0988   72.1803 H   0  0  0  0  0
   -4.6794   26.0941   70.7156 H   0  0  0  0  0
   -3.4636   26.7363   72.5498 H   0  0  0  0  0
   -1.4750   23.3534   70.3437 H   0  0  0  0  0
   -1.1112   24.7284   67.6704 H   0  0  0  0  0
    1.1338   24.9771   68.1258 H   0  0  0  0  0
    2.0319   24.0820   70.1148 H   0  0  0  0  0
   -0.2210   26.6849   69.2175 H   0  0  0  0  0
   -0.3362   25.6811   70.6839 H   0  0  0  0  0
    1.2401   26.3330   70.1726 H   0  0  0  0  0
   -2.3092   22.6838   66.9802 H   0  0  0  0  0
   -2.4410   20.4124   66.5511 H   0  0  0  0  0
   -0.8831   20.1688   67.4787 H   0  0  0  0  0
   -0.6475   22.6184   65.1511 H   0  0  0  0  0
    0.2276   22.5833   63.0041 H   0  0  0  0  0
    0.1057   20.7865   63.0003 H   0  0  0  0  0
    9.0679   26.3625   66.3120 H   0  0  0  0  0
   10.4926   25.8514   67.2502 H   0  0  0  0  0
   10.0266   24.9587   65.7816 H   0  0  0  0  0
    8.9099   22.8884   66.3478 H   0  0  0  0  0
    8.0074   22.6700   69.0628 H   0  0  0  0  0
    7.9211   21.4169   67.6946 H   0  0  0  0  0
    5.9261   23.6557   67.8566 H   0  0  0  0  0
    5.7185   22.3072   68.8865 H   0  0  0  0  0
    6.0446   20.7217   66.9714 H   0  0  0  0  0
    6.3934   22.0561   65.9045 H   0  0  0  0  0
    4.1928   23.0738   66.6528 H   0  0  0  0  0
    3.8443   21.4048   67.3482 H   0  0  0  0  0
    4.2255   22.2642   64.5255 H   0  0  0  0  0
    1.7571   21.7580   65.8833 H   0  0  0  0  0
    5.7317   20.9043   63.6878 H   0  0  0  0  0
    5.1427   18.3331   62.9441 H   0  0  0  0  0
    7.1853   18.8335   65.5921 H   0  0  0  0  0
    7.1538   19.5108   62.1739 H   0  0  0  0  0
    7.8892   19.3384   63.7865 H   0  0  0  0  0
    7.5843   17.8957   62.7881 H   0  0  0  0  0
  2  1  1  0  0  0
  3  2  1  0  0  0
  2  5  1  0  0  0
  3  4  2  0  0  0
  6  3  1  0  0  0
  7  6  1  0  0  0
  8  7  1  0  0  0
  7 10  1  0  0  0
  8  9  2  0  0  0
 17  8  1  0  0  0
 10 11  1  0  0  0
 11 12  1  0  0  0
 12 13  1  0  0  0
 13 14  1  0  0  0
 14 15  1  0  0  0
 14 16  2  0  0  0
 18 17  1  0  0  0
 19 18  1  0  0  0
 18 21  1  0  0  0
 19 20  2  0  0  0
 24 19  1  0  0  0
 21 22  1  0  0  0
 21 23  1  0  0  0
 25 24  1  0  0  0
 26 25  1  0  0  0
 25 28  1  0  0  0
 26 27  2  0  0  0
 33 26  1  0  0  0
 28 29  1  0  0  0
 29 30  1  0  0  0
 30 31  1  0  0  0
 31 32  1  0  0  0
 34 33  1  0  0  0
 35 34  1  0  0  0
 34 37  1  0  0  0
 35 36  2  0  0  0
 42 35  1  0  0  0
 37 38  1  0  0  0
 38 39  1  0  0  0
 39 40  2  0  0  0
 39 41  1  0  0  0
 43 42  1  0  0  0
 44 43  1  0  0  0
 43 46  1  0  0  0
 44 45  2  0  0  0
 49 44  1  0  0  0
 46 47  1  0  0  0
 46 48  1  0  0  0
 50 49  1  0  0  0
 51 50  1  0  0  0
 50 53  1  0  0  0
 51 52  2  0  0  0
 54 51  1  0  0  0
 55 54  1  0  0  0
 56 55  1  0  0  0
 55 58  1  0  0  0
 56 57  2  0  0  0
 65 56  1  0  0  0
 58 59  1  0  0  0
 59 60  1  0  0  0
 60 61  1  0  0  0
 61 62  1  0  0  0
 62 63  2  0  0  0
 62 64  1  0  0  0
 66 65  1  0  0  0
 67 66  1  0  0  0
 66 69  1  0  0  0
 67 68  2  0  0  0
 74 67  1  0  0  0
 69 70  1  0  0  0
 70 71  1  0  0  0
 71 72  1  0  0  0
 72 73  1  0  0  0
 75 74  1  0  0  0
 76 75  1  0  0  0
 75 78  1  0  0  0
 76 77  2  0  0  0
 80 76  1  0  0  0
 78 79  1  0  0  0
 81 80  1  0  0  0
 82 81  1  0  0  0
 81 84  1  0  0  0
 82 83  2  0  0  0
 87 82  1  0  0  0
 84 85  1  0  0  0
 84 86  1  0  0  0
 88 87  1  0  0  0
 89 88  1  0  0  0
 89 90  2  0  0  0
 91 89  1  0  0  0
 92 91  1  0  0  0
 93 92  1  0  0  0
 93 94  2  0  0  0
104 93  1  0  0  0
 96 95  2  0  0  0
 96 97  1  0  0  0
 98 96  1  0  0  0
 99 98  1  0  0  0
100 99  1  0  0  0
101100  1  0  0  0
102101  1  0  0  0
103102  1  0  0  0
103104  1  0  0  0
103105  1  0  0  0
105106  2  0  0  0
105107  1  0  0  0
107108  1  0  0  0
108109  1  0  0  0
108111  1  0  0  0
109110  1  0  0  0
109112  2  0  0  0
  1113  1  0  0  0
  1114  1  0  0  0
  1115  1  0  0  0
  2116  1  0  0  0
  5117  1  0  0  0
  5118  1  0  0  0
  5119  1  0  0  0
  6120  1  0  0  0
  7121  1  0  0  0
 10122  1  0  0  0
 10123  1  0  0  0
 11124  1  0  0  0
 11125  1  0  0  0
 12126  1  0  0  0
 12127  1  0  0  0
 13128  1  0  0  0
 15129  1  0  0  0
 15130  1  0  0  0
 16131  1  0  0  0
 17132  1  0  0  0
 18133  1  0  0  0
 21134  1  0  0  0
 22135  1  0  0  0
 23136  1  0  0  0
 23137  1  0  0  0
 23138  1  0  0  0
 24139  1  0  0  0
 25140  1  0  0  0
 28141  1  0  0  0
 28142  1  0  0  0
 29143  1  0  0  0
 29144  1  0  0  0
 30145  1  0  0  0
 30146  1  0  0  0
 31147  1  0  0  0
 31148  1  0  0  0
 32149  1  0  0  0
 32150  1  0  0  0
 32151  1  0  0  0
 33152  1  0  0  0
 34153  1  0  0  0
 37154  1  0  0  0
 37155  1  0  0  0
 38156  1  0  0  0
 38157  1  0  0  0
 41158  1  0  0  0
 41159  1  0  0  0
 42160  1  0  0  0
 43161  1  0  0  0
 46162  1  0  0  0
 47163  1  0  0  0
 48164  1  0  0  0
 48165  1  0  0  0
 48166  1  0  0  0
 49167  1  0  0  0
 50168  1  0  0  0
 53169  1  0  0  0
 53170  1  0  0  0
 53171  1  0  0  0
 54172  1  0  0  0
 55173  1  0  0  0
 58174  1  0  0  0
 58175  1  0  0  0
 59176  1  0  0  0
 59177  1  0  0  0
 60178  1  0  0  0
 60179  1  0  0  0
 61180  1  0  0  0
 63181  1  0  0  0
 64182  1  0  0  0
 64183  1  0  0  0
 65184  1  0  0  0
 66185  1  0  0  0
 69186  1  0  0  0
 69187  1  0  0  0
 70188  1  0  0  0
 70189  1  0  0  0
 71190  1  0  0  0
 71191  1  0  0  0
 72192  1  0  0  0
 72193  1  0  0  0
 73194  1  0  0  0
 73195  1  0  0  0
 73196  1  0  0  0
 74197  1  0  0  0
 75198  1  0  0  0
 78199  1  0  0  0
 78200  1  0  0  0
 79201  1  0  0  0
 80202  1  0  0  0
 81203  1  0  0  0
 84204  1  0  0  0
 85205  1  0  0  0
 86206  1  0  0  0
 86207  1  0  0  0
 86208  1  0  0  0
 87209  1  0  0  0
 88210  1  0  0  0
 88211  1  0  0  0
 91212  1  0  0  0
 92213  1  0  0  0
 92214  1  0  0  0
 97215  1  0  0  0
 97216  1  0  0  0
 97217  1  0  0  0
 98218  1  0  0  0
 99219  1  0  0  0
 99220  1  0  0  0
100221  1  0  0  0
100222  1  0  0  0
101223  1  0  0  0
101224  1  0  0  0
102225  1  0  0  0
102226  1  0  0  0
103227  1  0  0  0
104228  1  0  0  0
107229  1  0  0  0
108230  1  0  0  0
110231  1  0  0  0
111232  1  0  0  0
111233  1  0  0  0
111234  1  0  0  0
M  END
$$$$
