### 
### Created by X-TOOL on Fri Nov  2 11:08:55 2018
### 

@<TRIPOS>MOLECULE
5szb_ligand
  235   234     1     0     0
SMALL
GAST_HUCK


@<TRIPOS>ATOM
      1 N          -5.1960   31.3370   80.3380 N.4       1 ALA         0.2377
      2 CA         -3.7250   31.1000   80.4820 C.3       1 ALA         0.0621
      3 C          -3.3250   29.8120   79.7980 C.2       1 ALA         0.2264
      4 O          -4.1440   28.9220   79.6070 O.2       1 ALA        -0.3907
      5 CB         -3.3320   31.0340   81.9430 C.3       1 ALA        -0.0040
      6 N          -2.0550   29.7200   79.4440 N.am      1 ALA        -0.2610
      7 CA         -1.5110   28.5590   78.7620 C.3       1 ALA         0.1312
      8 C          -0.6260   27.7800   79.7240 C.2       1 ALA         0.2040
      9 O           0.1330   28.3670   80.4970 O.2       1 ALA        -0.3944
     10 CB         -0.6650   28.9880   77.5640 C.3       1 ALA        -0.0092
     11 CG         -1.4170   29.7510   76.4950 C.3       1 ALA        -0.0156
     12 CD         -0.4720   30.1640   75.4130 C.3       1 ALA         0.0627
     13 NE          0.4890   31.1000   75.9680 N.pl3     1 ALA        -0.2723
     14 CZ          1.7810   31.1320   75.6540 C.cat     1 ALA         0.2882
     15 NH1         2.2940   30.2910   74.7690 N.pl3     1 ALA        -0.2849
     16 NH2         2.5650   32.0240   76.2210 N.pl3     1 ALA        -0.2849
     17 N          -0.7130   26.4630   79.6650 N.am      1 ALA        -0.2613
     18 CA          0.3090   25.5900   80.2060 C.3       1 ALA         0.1565
     19 C           0.9220   24.8280   79.0510 C.2       1 ALA         0.2065
     20 O           0.4210   24.8550   77.9240 O.2       1 ALA        -0.3943
     21 CB         -0.2700   24.5780   81.1850 C.3       1 ALA         0.0924
     22 OG1        -1.1460   23.7060   80.4630 O.3       1 ALA        -0.3874
     23 CG2        -1.0000   25.2790   82.3180 C.3       1 ALA        -0.0346
     24 N           1.9990   24.1050   79.3400 N.am      1 ALA        -0.2637
     25 CA          2.5670   23.2790   78.2960 C.3       1 ALA         0.1310
     26 C           1.5050   22.3390   77.7380 C.2       1 ALA         0.2039
     27 O           1.4120   22.1420   76.5210 O.2       1 ALA        -0.3944
     28 CB          3.7480   22.4910   78.8370 C.3       1 ALA        -0.0122
     29 CG          4.3660   21.6420   77.7350 C.3       1 ALA        -0.0440
     30 CD          5.5930   20.8670   78.1530 C.3       1 ALA        -0.0124
     31 CE          6.7190   21.7710   78.5660 C.3       1 ALA        -0.0354
     32 NZ          8.0280   21.0860   78.4070 N.4       1 ALA         0.2185
     33 N           0.6930   21.7560   78.6150 N.am      1 ALA        -0.2636
     34 CA         -0.3250   20.8320   78.1430 C.3       1 ALA         0.1330
     35 C          -1.3440   21.5250   77.2490 C.2       1 ALA         0.2041
     36 O          -1.6730   21.0160   76.1760 O.2       1 ALA        -0.3944
     37 CB         -1.0050   20.1250   79.3090 C.3       1 ALA         0.0045
     38 CG         -2.1880   19.2550   78.7750 C.3       1 ALA         0.0412
     39 CD         -2.5970   18.0240   79.6010 C.2       1 ALA         0.1737
     40 OE1        -3.4790   17.2500   79.1820 O.2       1 ALA        -0.3973
     41 NE2        -1.9660   17.8250   80.7420 N.am      1 ALA        -0.3009
     42 N          -1.8820   22.6750   77.6680 N.am      1 ALA        -0.2613
     43 CA         -2.8940   23.3070   76.8280 C.3       1 ALA         0.1565
     44 C          -2.2730   23.8680   75.5600 C.2       1 ALA         0.2065
     45 O          -2.9080   23.8480   74.5010 O.2       1 ALA        -0.3943
     46 CB         -3.7170   24.3540   77.5980 C.3       1 ALA         0.0924
     47 OG1        -2.9020   25.4880   77.9110 O.3       1 ALA        -0.3874
     48 CG2        -4.3260   23.7380   78.8750 C.3       1 ALA        -0.0346
     49 N          -1.0140   24.3080   75.6330 N.am      1 ALA        -0.2639
     50 CA         -0.3310   24.8180   74.4530 C.3       1 ALA         0.1282
     51 C          -0.0780   23.7160   73.4340 C.2       1 ALA         0.2036
     52 O          -0.2070   23.9440   72.2260 O.2       1 ALA        -0.3944
     53 CB          0.9840   25.4670   74.8730 C.3       1 ALA        -0.0244
     54 N           0.3060   22.5250   73.8880 N.am      1 ALA        -0.2637
     55 CA          0.4710   21.4060   72.9660 C.3       1 ALA         0.1311
     56 C          -0.8210   21.1460   72.2300 C.2       1 ALA         0.2039
     57 O          -0.8280   20.8980   71.0200 O.2       1 ALA        -0.3944
     58 CB          0.8000   20.1400   73.7430 C.3       1 ALA        -0.0092
     59 CG          2.1330   19.5610   73.4900 C.3       1 ALA        -0.0156
     60 CD          2.2860   18.3020   74.2460 C.3       1 ALA         0.0627
     61 NE          3.6680   18.1240   74.6500 N.pl3     1 ALA        -0.2723
     62 CZ          4.0910   17.9850   75.9040 C.cat     1 ALA         0.2882
     63 NH1         3.2530   18.0210   76.9270 N.pl3     1 ALA        -0.2849
     64 NH2         5.3810   17.7940   76.1270 N.pl3     1 ALA        -0.2849
     65 N          -1.9270   21.1610   72.9630 N.am      1 ALA        -0.2637
     66 CA         -3.2050   20.8030   72.3800 C.3       1 ALA         0.1310
     67 C          -3.7150   21.8390   71.4030 C.2       1 ALA         0.2040
     68 O          -4.4780   21.4960   70.5000 O.2       1 ALA        -0.3944
     69 CB         -4.2390   20.6100   73.4760 C.3       1 ALA        -0.0122
     70 CG         -3.9020   19.4740   74.3840 C.3       1 ALA        -0.0440
     71 CD         -4.9160   19.3840   75.4850 C.3       1 ALA        -0.0124
     72 CE         -4.7970   18.0960   76.2350 C.3       1 ALA        -0.0354
     73 NZ         -5.6320   18.1560   77.4550 N.4       1 ALA         0.2185
     74 N          -3.3390   23.1040   71.5570 N.am      1 ALA        -0.2616
     75 CA         -3.8900   24.1060   70.6620 C.3       1 ALA         0.1539
     76 C          -2.9600   24.4320   69.5070 C.2       1 ALA         0.2063
     77 O          -3.3770   25.1150   68.5680 O.2       1 ALA        -0.3943
     78 CB         -4.2840   25.3700   71.4280 C.3       1 ALA         0.0843
     79 OG         -3.1800   25.9480   72.0810 O.3       1 ALA        -0.3903
     80 N          -1.7430   23.9040   69.5280 N.am      1 ALA        -0.2613
     81 CA         -0.7660   24.0610   68.4600 C.3       1 ALA         0.1565
     82 C          -0.5320   22.6340   67.9710 C.2       1 ALA         0.2063
     83 O           0.4650   22.0010   68.3180 O.2       1 ALA        -0.3943
     84 CB          0.5330   24.6790   68.9850 C.3       1 ALA         0.0924
     85 OG1         1.2150   23.7050   69.7800 O.3       1 ALA        -0.3874
     86 CG2         0.2860   25.9360   69.8260 C.3       1 ALA        -0.0346
     87 N          -1.4980   22.1130   67.2180 N.am      1 ALA        -0.2663
     88 CA         -1.4200   20.7500   66.7290 C.3       1 ALA         0.1201
     89 C          -0.6700   20.6040   65.4310 C.2       1 ALA         0.2005
     90 O          -0.3570   19.4800   65.0300 O.2       1 ALA        -0.3947
     91 N          -0.3490   21.7160   64.7810 N.am      1 ALA        -0.2666
     92 CA          0.4120   21.6670   63.5650 C.3       1 ALA         0.1201
     93 C           1.8920   21.5660   63.8450 C.2       1 ALA         0.2007
     94 O           2.6420   21.4040   62.9530 O.2       1 ALA        -0.3947
     95 OH          8.2890   25.0410   68.4650 O.2       1 ALA        -0.3974
     96 CH          8.7990   24.6160   67.4590 C.2       1 ALA         0.1729
     97 CH3         9.6530   25.5060   66.6470 C.3       1 ALA         0.0256
     98 NZ          8.5210   23.2920   67.2000 N.am      1 ALA        -0.2872
     99 CE          7.7250   22.4330   68.0370 C.3       1 ALA         0.0309
    100 CD          6.2200   22.6120   67.9680 C.3       1 ALA        -0.0325
    101 CG          5.8280   21.7750   66.7930 C.3       1 ALA        -0.0470
    102 CB          4.3570   21.9980   66.5910 C.3       1 ALA        -0.0123
    103 CA          3.8060   21.5460   65.2300 C.3       1 ALA         0.1309
    104 N           2.3720   21.6400   65.0780 N.am      1 ALA        -0.2640
    105 C           4.2630   20.1460   64.8910 C.2       1 ALA         0.2033
    106 O           3.6670   19.1630   65.3310 O.2       1 ALA        -0.3944
    107 N           5.3040   20.0560   64.0590 N.am      1 ALA        -0.2698
    108 CA          5.8330   18.7490   63.6780 C.3       1 ALA         0.0916
    109 C           5.9100   17.8040   64.8630 C.2       1 ALA         0.0598
    110 O           6.6980   18.0280   65.7800 O.co2     1 ALA        -0.5666
    111 CB          7.2130   18.8830   63.0630 C.3       1 ALA        -0.0300
    112 OXT         5.1850   16.8120   64.9090 O.co2     1 ALA        -0.5666
    113 H1         -5.4443   32.1983   80.7991 H         1 ALA         0.2015
    114 H2         -5.7021   30.5731   80.7579 H         1 ALA         0.2015
    115 H3         -5.4322   31.3993   79.3601 H         1 ALA         0.2015
    116 H4         -3.1882   31.9351   80.0082 H         1 ALA         0.1095
    117 H5         -2.2489   30.8595   82.0238 H         1 ALA         0.0310
    118 H6         -3.8734   30.2105   82.4315 H         1 ALA         0.0310
    119 H7         -3.5880   31.9840   82.4349 H         1 ALA         0.0310
    120 H8         -1.4428   30.4821   79.6547 H         1 ALA         0.1884
    121 H9         -2.3370   27.9196   78.4171 H         1 ALA         0.0800
    122 H10        -0.2404   28.0836   77.1038 H         1 ALA         0.0313
    123 H11         0.1495   29.6289   77.9325 H         1 ALA         0.0313
    124 H12        -1.8775   30.6456   76.9395 H         1 ALA         0.0301
    125 H13        -2.2014   29.1077   76.0697 H         1 ALA         0.0301
    126 H14        -1.0307   30.6467   74.5977 H         1 ALA         0.0689
    127 H15         0.0544   29.2801   75.0237 H         1 ALA         0.0689
    128 H16         0.1459   31.7880   76.6535 H         1 ALA         0.2642
    129 H17         3.2974   30.3328   74.5403 H         1 ALA         0.2615
    130 H18         1.6896   29.5950   74.3094 H         1 ALA         0.2615
    131 H19         2.1792   32.6842   76.9110 H         1 ALA         0.2615
    132 H20         3.5644   32.0619   75.9747 H         1 ALA         0.2615
    133 H21        -1.5149   26.0530   79.2303 H         1 ALA         0.1884
    134 H22         1.0757   26.1932   80.7142 H         1 ALA         0.0826
    135 H23         0.5504   23.9844   81.6145 H         1 ALA         0.0639
    136 H24        -1.5170   23.0666   81.0597 H         1 ALA         0.2101
    137 H25        -1.4086   24.5285   83.0107 H         1 ALA         0.0257
    138 H26        -1.8215   25.8836   81.9063 H         1 ALA         0.0257
    139 H27        -0.2985   25.9324   82.8574 H         1 ALA         0.0257
    140 H28         2.4056   24.1309   80.2532 H         1 ALA         0.1883
    141 H29         2.9219   23.9304   77.4837 H         1 ALA         0.0800
    142 H30         3.4046   21.8353   79.6507 H         1 ALA         0.0312
    143 H31         4.5042   23.1901   79.2237 H         1 ALA         0.0312
    144 H32         4.6466   22.3076   76.9054 H         1 ALA         0.0269
    145 H33         3.6080   20.9240   77.3888 H         1 ALA         0.0269
    146 H34         5.9270   20.2484   77.3070 H         1 ALA         0.0317
    147 H35         5.3304   20.2175   79.0011 H         1 ALA         0.0317
    148 H36         6.5859   22.0550   79.6203 H         1 ALA         0.0813
    149 H37         6.7056   22.6743   77.9384 H         1 ALA         0.0813
    150 H38         8.7692   21.7082   78.6889 H         1 ALA         0.1994
    151 H39         8.1563   20.8263   77.4415 H         1 ALA         0.1994
    152 H40         8.0465   20.2589   78.9828 H         1 ALA         0.1994
    153 H41         0.7820   21.9517   79.5916 H         1 ALA         0.1883
    154 H42         0.1792   20.0650   77.5368 H         1 ALA         0.0801
    155 H43        -1.3911   20.8736   80.0164 H         1 ALA         0.0337
    156 H44        -0.2767   19.4785   79.8205 H         1 ALA         0.0337
    157 H45        -1.9087   18.9001   77.7720 H         1 ALA         0.0504
    158 H46        -3.0695   19.9087   78.7004 H         1 ALA         0.0504
    159 H47        -2.1995   17.0370   81.3117 H         1 ALA         0.1814
    160 H48        -1.2541   18.4621   81.0374 H         1 ALA         0.1814
    161 H49        -1.5989   23.0902   78.5325 H         1 ALA         0.1884
    162 H50        -3.5956   22.5180   76.5196 H         1 ALA         0.0826
    163 H51        -4.5418   24.6896   76.9522 H         1 ALA         0.0639
    164 H52        -2.5783   25.8757   77.1064 H         1 ALA         0.2101
    165 H53        -4.9091   24.5028   79.4089 H         1 ALA         0.0257
    166 H54        -3.5188   23.3715   79.5263 H         1 ALA         0.0257
    167 H55        -4.9843   22.9006   78.6002 H         1 ALA         0.0257
    168 H56        -0.5341   24.2868   76.5101 H         1 ALA         0.1883
    169 H57        -0.9680   25.5823   73.9838 H         1 ALA         0.0797
    170 H58         1.5027   25.8535   73.9833 H         1 ALA         0.0277
    171 H59         1.6188   24.7199   75.3718 H         1 ALA         0.0277
    172 H60         0.7788   26.2957   75.5667 H         1 ALA         0.0277
    173 H61         0.4820   22.3967   74.8640 H         1 ALA         0.1883
    174 H62         1.2756   21.6330   72.2511 H         1 ALA         0.0800
    175 H63         0.0474   19.3803   73.4852 H         1 ALA         0.0313
    176 H64         0.7318   20.3746   74.8155 H         1 ALA         0.0313
    177 H65         2.9071   20.2744   73.8092 H         1 ALA         0.0301
    178 H66         2.2437   19.3565   72.4149 H         1 ALA         0.0301
    179 H67         1.9818   17.4574   73.6103 H         1 ALA         0.0689
    180 H68         1.6475   18.3359   75.1411 H         1 ALA         0.0689
    181 H69         4.3796   18.1036   73.9056 H         1 ALA         0.2642
    182 H70         3.6079   17.9106   77.8876 H         1 ALA         0.2615
    183 H71         2.2456   18.1594   76.7629 H         1 ALA         0.2615
    184 H72         6.0413   17.7644   75.3371 H         1 ALA         0.2615
    185 H73         5.7250   17.6749   77.0905 H         1 ALA         0.2615
    186 H74        -1.8784   21.4219   73.9272 H         1 ALA         0.1883
    187 H75        -3.0788   19.8530   71.8400 H         1 ALA         0.0800
    188 H76        -5.2152   20.4114   73.0095 H         1 ALA         0.0312
    189 H77        -4.2983   21.5327   74.0720 H         1 ALA         0.0312
    190 H78        -2.9049   19.6377   74.8187 H         1 ALA         0.0269
    191 H79        -3.9023   18.5356   73.8101 H         1 ALA         0.0269
    192 H80        -5.9238   19.4522   75.0494 H         1 ALA         0.0317
    193 H81        -4.7609   20.2198   76.1831 H         1 ALA         0.0317
    194 H82        -3.7466   17.9320   76.5175 H         1 ALA         0.0813
    195 H83        -5.1389   17.2675   75.5973 H         1 ALA         0.0813
    196 H84        -5.5515   17.2875   77.9603 H         1 ALA         0.1994
    197 H85        -6.5946   18.3062   77.1963 H         1 ALA         0.1994
    198 H86        -5.3188   18.9151   78.0396 H         1 ALA         0.1994
    199 H87        -2.6906   23.3605   72.2738 H         1 ALA         0.1884
    200 H88        -4.8086   23.6837   70.2287 H         1 ALA         0.0823
    201 H89        -5.0455   25.1096   72.1779 H         1 ALA         0.0606
    202 H90        -4.7017   26.1005   70.7196 H         1 ALA         0.0606
    203 H91        -2.8167   25.3244   72.6987 H         1 ALA         0.2097
    204 H92        -1.4802   23.3642   70.3277 H         1 ALA         0.1884
    205 H93        -1.1685   24.6901   67.6524 H         1 ALA         0.0826
    206 H94         1.1638   24.9523   68.1263 H         1 ALA         0.0639
    207 H95         1.4115   22.9438   69.2466 H         1 ALA         0.2101
    208 H96         1.2482   26.3376   70.1764 H         1 ALA         0.0257
    209 H97        -0.3418   25.6801   70.6922 H         1 ALA         0.0257
    210 H98        -0.2256   26.6926   69.2130 H         1 ALA         0.0257
    211 H99        -2.2933   22.6726   66.9848 H         1 ALA         0.1881
    212 H100       -2.4442   20.3774   66.5799 H         1 ALA         0.0763
    213 H101       -0.9145   20.1382   67.4906 H         1 ALA         0.0763
    214 H102       -0.6416   22.6007   65.1438 H         1 ALA         0.1881
    215 H103        0.2192   22.5815   62.9850 H         1 ALA         0.0763
    216 H104        0.0976   20.7894   62.9811 H         1 ALA         0.0763
    217 H105       10.0306   24.9548   65.7732 H         1 ALA         0.0467
    218 H106       10.5008   25.8553   67.2546 H         1 ALA         0.0467
    219 H107        9.0637   26.3708   66.3082 H         1 ALA         0.0467
    220 H108        8.9023   22.8963   66.3645 H         1 ALA         0.1850
    221 H109        8.0329   22.6055   69.0788 H         1 ALA         0.0520
    222 H110        7.9494   21.3936   67.7556 H         1 ALA         0.0520
    223 H111        5.9556   23.6674   67.8058 H         1 ALA         0.0285
    224 H112        5.7375   22.2503   68.8880 H         1 ALA         0.0285
    225 H113        6.0279   20.7129   66.9979 H         1 ALA         0.0268
    226 H114        6.3872   22.0875   65.8988 H         1 ALA         0.0268
    227 H115        4.1586   23.0747   66.6975 H         1 ALA         0.0312
    228 H116        3.8186   21.4465   67.3758 H         1 ALA         0.0312
    229 H117        4.2440   22.2233   64.4820 H         1 ALA         0.0800
    230 H118        1.7692   21.7556   65.8675 H         1 ALA         0.1883
    231 H119        5.7233   20.8877   63.6951 H         1 ALA         0.1875
    232 H120        5.1559   18.3125   62.9290 H         1 ALA         0.0723
    233 H121        7.5888   17.8872   62.7851 H         1 ALA         0.0270
    234 H122        7.8964   19.3424   63.7923 H         1 ALA         0.0270
    235 H123        7.1546   19.5164   62.1656 H         1 ALA         0.0270
@<TRIPOS>BOND
     1    2    1 1  
     2    3    2 1  
     3    2    5 1  
     4    3    4 2  
     5    6    3 am 
     6    7    6 1  
     7    8    7 1  
     8    7   10 1  
     9    8    9 2  
    10   17    8 am 
    11   10   11 1  
    12   11   12 1  
    13   12   13 1  
    14   13   14 ar 
    15   14   15 ar 
    16   14   16 ar 
    17   18   17 1  
    18   19   18 1  
    19   18   21 1  
    20   19   20 2  
    21   24   19 am 
    22   21   22 1  
    23   21   23 1  
    24   25   24 1  
    25   26   25 1  
    26   25   28 1  
    27   26   27 2  
    28   33   26 am 
    29   28   29 1  
    30   29   30 1  
    31   30   31 1  
    32   31   32 1  
    33   34   33 1  
    34   35   34 1  
    35   34   37 1  
    36   35   36 2  
    37   42   35 am 
    38   37   38 1  
    39   38   39 1  
    40   39   40 2  
    41   39   41 am 
    42   43   42 1  
    43   44   43 1  
    44   43   46 1  
    45   44   45 2  
    46   49   44 am 
    47   46   47 1  
    48   46   48 1  
    49   50   49 1  
    50   51   50 1  
    51   50   53 1  
    52   51   52 2  
    53   54   51 am 
    54   55   54 1  
    55   56   55 1  
    56   55   58 1  
    57   56   57 2  
    58   65   56 am 
    59   58   59 1  
    60   59   60 1  
    61   60   61 1  
    62   61   62 ar 
    63   62   63 ar 
    64   62   64 ar 
    65   66   65 1  
    66   67   66 1  
    67   66   69 1  
    68   67   68 2  
    69   74   67 am 
    70   69   70 1  
    71   70   71 1  
    72   71   72 1  
    73   72   73 1  
    74   75   74 1  
    75   76   75 1  
    76   75   78 1  
    77   76   77 2  
    78   80   76 am 
    79   78   79 1  
    80   81   80 1  
    81   82   81 1  
    82   81   84 1  
    83   82   83 2  
    84   87   82 am 
    85   84   85 1  
    86   84   86 1  
    87   88   87 1  
    88   89   88 1  
    89   89   90 2  
    90   91   89 am 
    91   92   91 1  
    92   93   92 1  
    93   93   94 2  
    94  104   93 am 
    95   96   95 2  
    96   96   97 1  
    97   98   96 am 
    98   99   98 1  
    99  100   99 1  
   100  101  100 1  
   101  102  101 1  
   102  103  102 1  
   103  103  104 1  
   104  103  105 1  
   105  105  106 2  
   106  105  107 am 
   107  107  108 1  
   108  108  109 1  
   109  108  111 1  
   110  109  110 ar 
   111  109  112 ar 
   112    1  113 1  
   113    1  114 1  
   114    1  115 1  
   115    2  116 1  
   116    5  117 1  
   117    5  118 1  
   118    5  119 1  
   119    6  120 1  
   120    7  121 1  
   121   10  122 1  
   122   10  123 1  
   123   11  124 1  
   124   11  125 1  
   125   12  126 1  
   126   12  127 1  
   127   13  128 1  
   128   15  129 1  
   129   15  130 1  
   130   16  131 1  
   131   16  132 1  
   132   17  133 1  
   133   18  134 1  
   134   21  135 1  
   135   22  136 1  
   136   23  137 1  
   137   23  138 1  
   138   23  139 1  
   139   24  140 1  
   140   25  141 1  
   141   28  142 1  
   142   28  143 1  
   143   29  144 1  
   144   29  145 1  
   145   30  146 1  
   146   30  147 1  
   147   31  148 1  
   148   31  149 1  
   149   32  150 1  
   150   32  151 1  
   151   32  152 1  
   152   33  153 1  
   153   34  154 1  
   154   37  155 1  
   155   37  156 1  
   156   38  157 1  
   157   38  158 1  
   158   41  159 1  
   159   41  160 1  
   160   42  161 1  
   161   43  162 1  
   162   46  163 1  
   163   47  164 1  
   164   48  165 1  
   165   48  166 1  
   166   48  167 1  
   167   49  168 1  
   168   50  169 1  
   169   53  170 1  
   170   53  171 1  
   171   53  172 1  
   172   54  173 1  
   173   55  174 1  
   174   58  175 1  
   175   58  176 1  
   176   59  177 1  
   177   59  178 1  
   178   60  179 1  
   179   60  180 1  
   180   61  181 1  
   181   63  182 1  
   182   63  183 1  
   183   64  184 1  
   184   64  185 1  
   185   65  186 1  
   186   66  187 1  
   187   69  188 1  
   188   69  189 1  
   189   70  190 1  
   190   70  191 1  
   191   71  192 1  
   192   71  193 1  
   193   72  194 1  
   194   72  195 1  
   195   73  196 1  
   196   73  197 1  
   197   73  198 1  
   198   74  199 1  
   199   75  200 1  
   200   78  201 1  
   201   78  202 1  
   202   79  203 1  
   203   80  204 1  
   204   81  205 1  
   205   84  206 1  
   206   85  207 1  
   207   86  208 1  
   208   86  209 1  
   209   86  210 1  
   210   87  211 1  
   211   88  212 1  
   212   88  213 1  
   213   91  214 1  
   214   92  215 1  
   215   92  216 1  
   216   97  217 1  
   217   97  218 1  
   218   97  219 1  
   219   98  220 1  
   220   99  221 1  
   221   99  222 1  
   222  100  223 1  
   223  100  224 1  
   224  101  225 1  
   225  101  226 1  
   226  102  227 1  
   227  102  228 1  
   228  103  229 1  
   229  104  230 1  
   230  107  231 1  
   231  108  232 1  
   232  111  233 1  
   233  111  234 1  
   234  111  235 1  
@<TRIPOS>SUBSTRUCTURE
     1 ALA         1

