2w6c_ligand
  -I-interpret- 

 68 69  0  0  0  0  0  0  0  0999 V2000
    5.8970   64.0220   63.0090 O   0  0  0  0  0
    4.8440   64.6790   63.5850 C   0  0  0  0  0
    4.7150   66.0620   63.4300 C   0  0  0  0  0
    3.9020   63.9670   64.3270 C   0  0  0  0  0
    2.8340   64.6550   64.8960 C   0  0  0  0  0
    2.7210   66.0400   64.7500 C   0  0  0  0  0
    3.6720   66.7680   64.0310 C   0  0  0  0  0
    3.5540   68.3130   63.8530 C   0  0  0  0  0
    2.5890   68.5520   62.6900 C   0  0  0  0  0
    3.3220   68.4300   61.3340 C   0  0  0  0  0
    2.9960   69.0340   65.1070 C   0  0  0  0  0
    4.9130   68.9230   63.4080 C   0  0  0  0  0
    5.9280   69.2000   64.5270 C   0  0  0  0  0
    5.3930   70.2400   65.5200 C   0  0  0  0  0
    4.7830   69.5700   66.7540 C   0  0  0  0  0
    3.7200   68.6370   66.3380 N   0  3  0  0  0
    2.8680   68.2230   67.4750 C   0  0  0  0  0
    3.7430   67.4010   68.4660 C   0  0  0  0  0
    3.0570   66.1110   68.9420 C   0  0  0  0  0
    4.0510   64.9850   69.2810 C   0  0  0  0  0
    3.3270   63.6260   69.4550 C   0  0  0  0  0
    2.7070   63.4570   70.8470 C   0  0  0  0  0
    1.3820   62.6860   70.8250 C   0  0  0  0  0
    1.2000   61.8240   72.0920 C   0  0  0  0  0
   -0.2190   61.9460   72.6800 C   0  0  0  0  0
   -0.6340   60.6860   73.3320 N   0  3  0  0  0
    5.8371   63.0853   63.2105 H   0  0  0  0  0
    5.4452   66.6011   62.8264 H   0  0  0  0  0
    4.0004   62.8895   64.4592 H   0  0  0  0  0
    2.0789   64.1082   65.4607 H   0  0  0  0  0
    1.8778   66.5604   65.2041 H   0  0  0  0  0
    2.1760   69.5570   62.7770 H   0  0  0  0  0
    1.7978   67.8033   62.7304 H   0  0  0  0  0
    4.1207   69.1702   61.2863 H   0  0  0  0  0
    3.7455   67.4300   61.2400 H   0  0  0  0  0
    2.6147   68.6041   60.5231 H   0  0  0  0  0
    1.9476   68.7588   65.2223 H   0  0  0  0  0
    3.1197   70.1080   64.9681 H   0  0  0  0  0
    4.6817   69.8892   62.9596 H   0  0  0  0  0
    5.3768   68.1879   62.7503 H   0  0  0  0  0
    6.8425   69.5874   64.0779 H   0  0  0  0  0
    6.1139   68.2703   65.0648 H   0  0  0  0  0
    4.6183   70.8255   65.0249 H   0  0  0  0  0
    6.2219   70.8704   65.8420 H   0  0  0  0  0
    4.3591   70.3329   67.4071 H   0  0  0  0  0
    5.5585   69.0199   67.2871 H   0  0  0  0  0
    4.1912   67.7843   66.0359 H   0  0  0  0  0
    2.0362   67.6158   67.1178 H   0  0  0  0  0
    2.4596   69.1008   67.9758 H   0  0  0  0  0
    3.9268   68.0229   69.3421 H   0  0  0  0  0
    4.6585   67.1186   67.9461 H   0  0  0  0  0
    2.4206   65.7567   68.1311 H   0  0  0  0  0
    2.5032   66.3473   69.8506 H   0  0  0  0  0
    4.5502   65.2339   70.2175 H   0  0  0  0  0
    4.7647   64.8949   68.4621 H   0  0  0  0  0
    4.0648   62.8351   69.3199 H   0  0  0  0  0
    2.5208   63.5812   68.7228 H   0  0  0  0  0
    2.5048   64.4523   71.2428 H   0  0  0  0  0
    3.4105   62.8897   71.4565 H   0  0  0  0  0
    1.3843   62.0251   69.9582 H   0  0  0  0  0
    0.5662   63.4076   70.7812 H   0  0  0  0  0
    1.9094   62.1712   72.8432 H   0  0  0  0  0
    1.3659   60.7817   71.8198 H   0  0  0  0  0
   -0.9148   62.1657   71.8702 H   0  0  0  0  0
   -0.2210   62.7417   73.4249 H   0  0  0  0  0
   -1.5745   60.7947   73.7114 H   0  0  0  0  0
   -0.6280   59.9314   72.6457 H   0  0  0  0  0
    0.0152   60.4655   74.0872 H   0  0  0  0  0
  1  2  1  0  0  0
  2  3  4  0  0  0
  2  4  4  0  0  0
  3  7  4  0  0  0
  4  5  4  0  0  0
  5  6  4  0  0  0
  6  7  4  0  0  0
  7  8  1  0  0  0
  8  9  1  0  0  0
  8 11  1  0  0  0
  8 12  1  0  0  0
  9 10  1  0  0  0
 11 16  1  0  0  0
 12 13  1  0  0  0
 13 14  1  0  0  0
 14 15  1  0  0  0
 15 16  1  0  0  0
 16 17  1  0  0  0
 17 18  1  0  0  0
 18 19  1  0  0  0
 19 20  1  0  0  0
 20 21  1  0  0  0
 21 22  1  0  0  0
 22 23  1  0  0  0
 23 24  1  0  0  0
 24 25  1  0  0  0
 25 26  1  0  0  0
  1 27  1  0  0  0
  3 28  1  0  0  0
  4 29  1  0  0  0
  5 30  1  0  0  0
  6 31  1  0  0  0
  9 32  1  0  0  0
  9 33  1  0  0  0
 10 34  1  0  0  0
 10 35  1  0  0  0
 10 36  1  0  0  0
 11 37  1  0  0  0
 11 38  1  0  0  0
 12 39  1  0  0  0
 12 40  1  0  0  0
 13 41  1  0  0  0
 13 42  1  0  0  0
 14 43  1  0  0  0
 14 44  1  0  0  0
 15 45  1  0  0  0
 15 46  1  0  0  0
 16 47  1  0  0  0
 17 48  1  0  0  0
 17 49  1  0  0  0
 18 50  1  0  0  0
 18 51  1  0  0  0
 19 52  1  0  0  0
 19 53  1  0  0  0
 20 54  1  0  0  0
 20 55  1  0  0  0
 21 56  1  0  0  0
 21 57  1  0  0  0
 22 58  1  0  0  0
 22 59  1  0  0  0
 23 60  1  0  0  0
 23 61  1  0  0  0
 24 62  1  0  0  0
 24 63  1  0  0  0
 25 64  1  0  0  0
 25 65  1  0  0  0
 26 66  1  0  0  0
 26 67  1  0  0  0
 26 68  1  0  0  0
M  END
$$$$
