4hxr_ligand
  -I-interpret- 

 31 33  0  0  0  0  0  0  0  0999 V2000
   -7.8940    7.0590   -5.2510 C   0  0  0  0  0
   -7.6230    5.5690   -5.4490 C   0  0  0  0  0
   -6.8090    5.0570   -4.3840 C   0  0  0  0  0
   -6.4770    6.2540   -3.3590 S   0  0  0  0  0
   -7.2460    7.4900   -4.0350 C   0  0  0  0  0
   -7.2200    9.1240   -3.3540 S   0  0  0  0  0
   -5.8420    9.4810   -3.0950 O   0  0  0  0  0
   -7.7870   10.0630   -4.3390 O   0  0  0  0  0
   -8.0530    9.2230   -1.9490 N   0  0  0  0  0
   -7.7160    8.3510   -0.8650 C   0  0  0  0  0
   -8.6710    7.5100   -0.3230 C   0  0  0  0  0
   -6.4300    8.3180   -0.3450 C   0  0  0  0  0
   -6.1140    7.4580    0.7020 C   0  0  0  0  0
   -7.0780    6.6250    1.2460 C   0  0  0  0  0
   -8.3590    6.6630    0.7290 C   0  0  0  0  0
   -9.4310    5.7840    1.2440 C   0  0  0  0  0
   -9.3510    4.7710    2.2000 C   0  0  0  0  0
  -10.7280    4.0940    2.4010 S   0  0  0  0  0
  -11.6380    4.9300    1.3190 C   0  0  0  0  0
  -12.9510    4.8090    1.0380 O   0  0  0  0  0
  -10.8070    5.9200    0.6810 N   0  0  0  0  0
   -8.4797    7.6922   -5.9175 H   0  0  0  0  0
   -7.9964    4.9763   -6.2841 H   0  0  0  0  0
   -6.4704    4.0257   -4.2849 H   0  0  0  0  0
   -8.8075    9.9017   -1.8463 H   0  0  0  0  0
   -9.6827    7.5133   -0.7286 H   0  0  0  0  0
   -5.6618    8.9706   -0.7598 H   0  0  0  0  0
   -5.0986    7.4395    1.0979 H   0  0  0  0  0
   -6.8306    5.9519    2.0669 H   0  0  0  0  0
   -8.4416    4.4939    2.7332 H   0  0  0  0  0
  -11.1050    6.5915   -0.0266 H   0  0  0  0  0
  1  2  4  0  0  0
  1  5  4  0  0  0
  2  3  4  0  0  0
  3  4  4  0  0  0
  4  5  4  0  0  0
  5  6  1  0  0  0
  6  7  2  0  0  0
  6  8  2  0  0  0
  6  9  1  0  0  0
  9 10  1  0  0  0
 10 11  4  0  0  0
 10 12  4  0  0  0
 11 15  4  0  0  0
 12 13  4  0  0  0
 13 14  4  0  0  0
 14 15  4  0  0  0
 15 16  1  0  0  0
 16 17  2  0  0  0
 16 21  1  0  0  0
 17 18  1  0  0  0
 18 19  1  0  0  0
 19 20  2  0  0  0
 19 21  1  0  0  0
  1 22  1  0  0  0
  2 23  1  0  0  0
  3 24  1  0  0  0
  9 25  1  0  0  0
 11 26  1  0  0  0
 12 27  1  0  0  0
 13 28  1  0  0  0
 14 29  1  0  0  0
 17 30  1  0  0  0
 21 31  1  0  0  0
M  END
$$$$
