4kfp_ligand
  -I-interpret- 

 65 69  0  0  0  0  0  0  0  0999 V2000
   15.5550    4.8440    0.0430 C   0  0  0  0  0
   16.3210    5.6960    0.8090 C   0  0  0  0  0
   16.1860    7.0690    0.6840 C   0  0  0  0  0
   17.0690    7.9660    1.5190 C   0  0  0  0  0
   14.9810    9.1330    6.7640 C   0  0  0  0  0
   14.1240    9.4540    8.9640 C   0  0  0  0  0
   13.1270   10.5530    7.1920 C   0  0  0  0  0
   15.2300    4.6020   -4.0460 C   0  0  0  0  0
   14.1450    2.3810   -3.8010 C   0  0  0  0  0
   15.2900    7.5920   -0.2390 C   0  0  0  0  0
   14.5190    6.7340   -1.0080 C   0  0  0  0  0
   14.6480    5.3550   -0.8690 C   0  0  0  0  0
   16.6610    8.1640    2.9080 N   0  0  0  0  0
   15.6480    9.0070    3.1440 C   0  0  0  0  0
   15.1130    9.5440    2.2030 O   0  0  0  0  0
   15.2400    9.2510    4.3910 N   0  0  0  0  0
   15.8080    8.6620    5.6110 C   0  0  0  0  0
   15.0450    8.8560    8.1240 C   0  0  0  0  0
   13.2060   10.2690    8.4800 N   0  0  0  0  0
   14.0050    9.9950    6.2890 C   0  0  0  0  0
   14.1480   10.1440    4.7980 C   0  0  0  0  0
   13.6910    4.2210   -1.8290 S   0  0  0  0  0
   13.3060    3.2190   -0.8930 O   0  0  0  0  0
   12.7030    4.9790   -2.5090 O   0  0  0  0  0
   14.8340    3.5190   -3.0480 C   0  0  0  0  0
   16.1440    4.0030   -5.1230 C   0  0  0  0  0
   15.4560    2.9150   -5.8350 N   0  3  0  0  0
   15.0860    1.8400   -4.8890 C   0  0  0  0  0
   16.2950    2.3870   -6.9310 C   0  0  0  0  0
   15.5560    1.2730   -7.6810 C   0  0  0  0  0
   16.4060    0.7880   -8.8660 C   0  0  0  0  0
   16.7250    1.8860   -9.7300 O   0  0  0  0  0
   17.4710    2.9170   -9.0840 C   0  0  0  0  0
   16.6370    3.4950   -7.9330 C   0  0  0  0  0
   15.6637    3.7653    0.1557 H   0  0  0  0  0
   17.0391    5.2860    1.5192 H   0  0  0  0  0
   17.0343    8.9489    1.0492 H   0  0  0  0  0
   18.0453    7.4827    1.5552 H   0  0  0  0  0
   14.1564    9.2507   10.0344 H   0  0  0  0  0
   12.3564   11.2383    6.8391 H   0  0  0  0  0
   15.7604    5.3982   -3.5238 H   0  0  0  0  0
   14.3333    5.0054   -4.5164 H   0  0  0  0  0
   13.2315    2.7537   -4.2643 H   0  0  0  0  0
   13.8998    1.5806   -3.1029 H   0  0  0  0  0
   15.1934    8.6711   -0.3582 H   0  0  0  0  0
   13.8074    7.1418   -1.7259 H   0  0  0  0  0
   17.1314    7.6771    3.6710 H   0  0  0  0  0
   16.6740    8.0023    5.6656 H   0  0  0  0  0
   15.8046    8.1820    8.5200 H   0  0  0  0  0
   13.5566   10.7887    4.1478 H   0  0  0  0  0
   15.7187    3.1389   -2.5372 H   0  0  0  0  0
   17.0392    3.6039   -4.6461 H   0  0  0  0  0
   16.4079    4.7827   -5.8375 H   0  0  0  0  0
   14.6028    3.2894   -6.2501 H   0  0  0  0  0
   14.5761    1.0469   -5.4359 H   0  0  0  0  0
   15.9906    1.4571   -4.4165 H   0  0  0  0  0
   17.2101    1.9957   -6.4866 H   0  0  0  0  0
   14.6067    1.6583   -8.0531 H   0  0  0  0  0
   15.3770    0.4395   -7.0018 H   0  0  0  0  0
   15.8417    0.0442   -9.4285 H   0  0  0  0  0
   17.3306    0.3527   -8.4868 H   0  0  0  0  0
   17.7030    3.7052   -9.8002 H   0  0  0  0  0
   18.4012    2.5056   -8.6920 H   0  0  0  0  0
   17.2102    4.2726   -7.4282 H   0  0  0  0  0
   15.7146    3.9161   -8.3329 H   0  0  0  0  0
  1  2  4  0  0  0
 12  1  4  0  0  0
  2  3  4  0  0  0
  3  4  1  0  0  0
 10  3  4  0  0  0
  4 13  1  0  0  0
 17  5  4  0  0  0
  5 18  4  0  0  0
 20  5  4  0  0  0
 18  6  4  0  0  0
 19  6  4  0  0  0
  7 19  4  0  0  0
 20  7  4  0  0  0
 25  8  1  0  0  0
  8 26  1  0  0  0
 25  9  1  0  0  0
  9 28  1  0  0  0
 11 10  4  0  0  0
 12 11  4  0  0  0
 22 12  1  0  0  0
 13 14  1  0  0  0
 14 15  2  0  0  0
 14 16  1  0  0  0
 16 17  4  0  0  0
 16 21  4  0  0  0
 21 20  4  0  0  0
 22 23  2  0  0  0
 22 24  2  0  0  0
 22 25  1  0  0  0
 26 27  1  0  0  0
 27 28  1  0  0  0
 27 29  1  0  0  0
 29 30  1  0  0  0
 29 34  1  0  0  0
 30 31  1  0  0  0
 31 32  1  0  0  0
 32 33  1  0  0  0
 33 34  1  0  0  0
  1 35  1  0  0  0
  2 36  1  0  0  0
  4 37  1  0  0  0
  4 38  1  0  0  0
  6 39  1  0  0  0
  7 40  1  0  0  0
  8 41  1  0  0  0
  8 42  1  0  0  0
  9 43  1  0  0  0
  9 44  1  0  0  0
 10 45  1  0  0  0
 11 46  1  0  0  0
 13 47  1  0  0  0
 17 48  1  0  0  0
 18 49  1  0  0  0
 21 50  1  0  0  0
 25 51  1  0  0  0
 26 52  1  0  0  0
 26 53  1  0  0  0
 27 54  1  0  0  0
 28 55  1  0  0  0
 28 56  1  0  0  0
 29 57  1  0  0  0
 30 58  1  0  0  0
 30 59  1  0  0  0
 31 60  1  0  0  0
 31 61  1  0  0  0
 33 62  1  0  0  0
 33 63  1  0  0  0
 34 64  1  0  0  0
 34 65  1  0  0  0
M  END
$$$$
