4qp8_ligand
  -I-interpret- 

 28 31  0  0  0  0  0  0  0  0999 V2000
   35.4140  -45.5110   37.6180 C   0  0  0  0  0
   36.0880  -45.3780   35.4180 C   0  0  0  0  0
   36.5340  -44.2220   39.4350 C   0  0  0  0  0
   37.5860  -43.5970   40.0180 C   0  0  0  0  0
   34.1710  -44.4580   42.7960 C   0  0  0  0  0
   32.2650  -45.6060   41.6440 C   0  0  0  0  0
   31.6030  -46.1900   40.5450 C   0  0  0  0  0
   37.0940  -44.4830   35.7280 C   0  0  0  0  0
   37.2630  -44.0860   37.0430 C   0  0  0  0  0
   36.4080  -44.6180   38.0130 C   0  0  0  0  0
   35.2910  -45.8580   36.3540 N   0  0  0  0  0
   37.3190  -43.3910   41.3390 N   0  0  0  0  0
   36.0730  -43.8770   41.6600 C   0  0  0  0  0
   35.5220  -44.4170   40.4830 C   0  0  0  0  0
   34.3100  -44.9620   40.4980 N   0  0  0  0  0
   33.6200  -44.9960   41.6290 C   0  0  0  0  0
   35.3720  -43.9160   42.7870 N   0  0  0  0  0
   31.4320  -45.7060   42.7220 C   0  0  0  0  0
   30.3060  -46.3230   42.3120 N   0  0  0  0  0
   30.4350  -46.6150   40.9490 N   0  0  0  0  0
   34.7330  -45.9255   38.3613 H   0  0  0  0  0
   35.9504  -45.6927   34.3835 H   0  0  0  0  0
   38.5043  -43.3041   39.5090 H   0  0  0  0  0
   33.6003  -44.4873   43.7242 H   0  0  0  0  0
   31.9975  -46.2729   39.5323 H   0  0  0  0  0
   37.7466  -44.0943   34.9463 H   0  0  0  0  0
   38.0436  -43.3759   37.3158 H   0  0  0  0  0
   31.6403  -45.3510   43.7313 H   0  0  0  0  0
 10  1  4  0  0  0
  1 11  4  0  0  0
  8  2  4  0  0  0
 11  2  4  0  0  0
  3  4  4  0  0  0
  3 10  1  0  0  0
 14  3  4  0  0  0
 12  4  4  0  0  0
  5 16  4  0  0  0
 17  5  4  0  0  0
  6  7  4  0  0  0
 16  6  1  0  0  0
  6 18  4  0  0  0
  7 20  4  0  0  0
  9  8  4  0  0  0
 10  9  4  0  0  0
 13 12  4  0  0  0
 13 14  4  0  0  0
 13 17  4  0  0  0
 14 15  4  0  0  0
 15 16  4  0  0  0
 18 19  4  0  0  0
 19 20  4  0  0  0
  1 21  1  0  0  0
  2 22  1  0  0  0
  4 23  1  0  0  0
  5 24  1  0  0  0
  7 25  1  0  0  0
  8 26  1  0  0  0
  9 27  1  0  0  0
 18 28  1  0  0  0
M  END
$$$$
