3pxq_ligand
  -I-interpret- 

 34 36  0  0  0  0  0  0  0  0999 V2000
  104.9440   95.3900   28.9750 C   0  0  0  0  0
  103.9580   95.2590   30.0180 C   0  0  0  0  0
  103.7660   96.2760   30.9680 C   0  0  0  0  0
  104.5490   97.4480   30.9220 C   0  0  0  0  0
  105.5420   97.6360   29.9210 C   0  0  0  0  0
  106.3200   98.8230   29.9000 C   0  0  0  0  0
  107.3100   99.0300   28.9110 C   0  0  0  0  0
  107.5410   98.0600   27.9180 C   0  0  0  0  0
  105.1300   94.4420   28.0950 N   0  0  0  0  0
  107.1630   95.6970   26.5620 S   0  0  0  0  0
  106.7920   96.8520   27.8900 C   0  0  0  0  0
  105.7630   96.6000   28.9060 C   0  0  0  0  0
  104.2520   93.6650   27.5200 C   0  0  0  0  0
  102.9390   94.1040   27.1400 C   0  0  0  0  0
  102.0440   93.2010   26.5030 C   0  0  0  0  0
  102.4440   91.8670   26.2350 C   0  0  0  0  0
  103.7360   91.4280   26.6020 C   0  0  0  0  0
  104.6380   92.3250   27.2420 C   0  0  0  0  0
  105.9730   95.5280   25.7480 O   0  0  0  0  0
  107.5590   94.3990   27.0900 O   0  0  0  0  0
  108.3760   96.2870   25.6400 O   0  0  0  0  0
  103.3508   94.3553   30.0706 H   0  0  0  0  0
  103.0091   96.1588   31.7435 H   0  0  0  0  0
  104.3900   98.2258   31.6689 H   0  0  0  0  0
  106.1518   99.5876   30.6584 H   0  0  0  0  0
  107.8983   99.9476   28.9181 H   0  0  0  0  0
  108.3043   98.2372   27.1603 H   0  0  0  0  0
  106.0992   94.2868   27.8177 H   0  0  0  0  0
  102.6281   95.1295   27.3398 H   0  0  0  0  0
  101.0461   93.5356   26.2195 H   0  0  0  0  0
  101.7541   91.1797   25.7454 H   0  0  0  0  0
  104.0423   90.4026   26.3952 H   0  0  0  0  0
  105.6339   91.9811   27.5215 H   0  0  0  0  0
  109.1619   96.3981   26.1800 H   0  0  0  0  0
  1  2  4  0  0  0
  1  9  1  0  0  0
  1 12  4  0  0  0
  2  3  4  0  0  0
  3  4  4  0  0  0
  4  5  4  0  0  0
  5  6  4  0  0  0
  5 12  4  0  0  0
  6  7  4  0  0  0
  7  8  4  0  0  0
  8 11  4  0  0  0
  9 13  1  0  0  0
 11 10  1  0  0  0
 10 19  2  0  0  0
 10 20  2  0  0  0
 10 21  1  0  0  0
 11 12  4  0  0  0
 13 14  4  0  0  0
 13 18  4  0  0  0
 14 15  4  0  0  0
 15 16  4  0  0  0
 16 17  4  0  0  0
 17 18  4  0  0  0
  2 22  1  0  0  0
  3 23  1  0  0  0
  4 24  1  0  0  0
  6 25  1  0  0  0
  7 26  1  0  0  0
  8 27  1  0  0  0
  9 28  1  0  0  0
 14 29  1  0  0  0
 15 30  1  0  0  0
 16 31  1  0  0  0
 17 32  1  0  0  0
 18 33  1  0  0  0
 21 34  1  0  0  0
M  END
$$$$
