6qw7_ligand
  -I-interpret- 

 47 48  0  0  0  0  0  0  0  0999 V2000
   34.5340   -0.5400  -17.4880 C   0  0  0  0  0
   37.1010    2.9250  -23.3120 C   0  0  0  0  0
   35.1760    3.5970  -22.0080 C   0  0  0  0  0
   36.4690   -0.0770  -15.9070 C   0  0  0  0  0
   38.4720   -1.2450  -16.3920 C   0  0  0  0  0
   36.9890   -0.8620  -18.2200 C   0  0  0  0  0
   35.5420   -1.2920  -18.3800 C   0  0  0  0  0
   37.3160    1.6910  -22.4450 C   0  0  0  0  0
   35.3980    2.4540  -21.0270 C   0  0  0  0  0
   36.8140    1.9040  -21.0320 C   0  0  0  0  0
   37.1180    0.5210  -18.9050 C   0  0  0  0  0
   34.9730   -0.3770  -16.0270 C   0  0  0  0  0
   35.7440    3.4130  -23.3130 N   0  3  0  0  0
   36.7560    0.6240  -20.3250 N   0  0  0  0  0
   34.6520   -1.6120  -15.2850 N   0  3  0  0  0
   37.3720   -0.7720  -16.8210 N   0  0  0  0  0
   34.8650   -4.3090  -13.9260 O   0  5  0  0  0
   39.2210   -1.8140  -17.1430 O   0  0  0  0  0
   37.4970    1.4700  -18.2940 O   0  0  0  0  0
   36.9700   -3.3000  -13.8200 O   0  0  0  0  0
   36.5600   -4.9230  -15.4110 O   0  0  0  0  0
   35.4320   -2.6400  -15.8810 O   0  0  0  0  0
   35.9470   -3.7670  -14.7610 S   0  0  0  0  0
   33.6154   -1.1267  -17.4809 H   0  0  0  0  0
   34.4281    0.4626  -17.9024 H   0  0  0  0  0
   37.3447    2.6460  -24.3371 H   0  0  0  0  0
   37.7292    3.7181  -22.9065 H   0  0  0  0  0
   35.6634    4.4724  -21.5788 H   0  0  0  0  0
   34.0982    3.6796  -22.1483 H   0  0  0  0  0
   36.7545   -0.4044  -14.9073 H   0  0  0  0  0
   36.5751    0.9827  -16.1392 H   0  0  0  0  0
   38.7373   -1.1347  -15.3406 H   0  0  0  0  0
   37.6530   -1.5974  -18.6743 H   0  0  0  0  0
   35.2646   -1.0821  -19.4130 H   0  0  0  0  0
   35.4930   -2.3423  -18.0925 H   0  0  0  0  0
   38.3853    1.4840  -22.4018 H   0  0  0  0  0
   36.7618    0.8618  -22.8848 H   0  0  0  0  0
   34.7338    1.6413  -21.3209 H   0  0  0  0  0
   35.2051    2.8431  -20.0272 H   0  0  0  0  0
   37.4997    2.6035  -20.5538 H   0  0  0  0  0
   34.4346    0.4717  -15.6052 H   0  0  0  0  0
   35.1756    2.7129  -23.7897 H   0  0  0  0  0
   35.7563    4.3275  -23.7646 H   0  0  0  0  0
   36.4587   -0.2123  -20.8276 H   0  0  0  0  0
   33.6561   -1.8263  -15.3369 H   0  0  0  0  0
   34.8663   -1.5134  -14.2927 H   0  0  0  0  0
   34.1591   -4.6335  -14.4899 H   0  0  0  0  0
  1  7  1  0  0  0
 12  1  1  0  0  0
  8  2  1  0  0  0
  2 13  1  0  0  0
  9  3  1  0  0  0
  3 13  1  0  0  0
 12  4  1  0  0  0
  4 16  1  0  0  0
 16  5  1  0  0  0
  5 18  2  0  0  0
  7  6  1  0  0  0
  6 11  1  0  0  0
 16  6  1  0  0  0
 10  8  1  0  0  0
 10  9  1  0  0  0
 14 10  1  0  0  0
 11 14  1  0  0  0
 11 19  2  0  0  0
 15 12  1  0  0  0
 22 15  1  0  0  0
 23 17  1  0  0  0
 23 20  2  0  0  0
 23 21  2  0  0  0
 22 23  1  0  0  0
  1 24  1  0  0  0
  1 25  1  0  0  0
  2 26  1  0  0  0
  2 27  1  0  0  0
  3 28  1  0  0  0
  3 29  1  0  0  0
  4 30  1  0  0  0
  4 31  1  0  0  0
  5 32  1  0  0  0
  6 33  1  0  0  0
  7 34  1  0  0  0
  7 35  1  0  0  0
  8 36  1  0  0  0
  8 37  1  0  0  0
  9 38  1  0  0  0
  9 39  1  0  0  0
 10 40  1  0  0  0
 12 41  1  0  0  0
 13 42  1  0  0  0
 13 43  1  0  0  0
 14 44  1  0  0  0
 15 45  1  0  0  0
 15 46  1  0  0  0
 17 47  1  0  0  0
M  END
$$$$
