4ko8_ligand
  -I-interpret- 

 47 49  0  0  0  0  0  0  0  0999 V2000
   18.1480   52.8820  -12.0820 P   0  0  0  0  0
   16.2460   52.5280  -12.8350 S   0  0  0  0  0
   17.9520   53.2240  -10.6270 O   0  0  0  0  0
   18.8630   53.8690  -12.9660 O   0  0  0  0  0
   20.4050   51.1600  -11.5270 P   0  0  0  0  0
   20.4890   51.7820  -10.1560 O   0  0  0  0  0
   21.4890   51.3770  -12.5530 O   0  0  0  0  0
   18.9820   51.5070  -12.2120 O   0  0  0  0  0
   20.4380   48.7310  -10.0640 P   0  0  0  0  0
   21.8570   49.0370   -9.6660 O   0  0  0  0  0
   19.3070   48.9780   -9.1050 O   0  0  0  0  0
   20.1600   49.5780  -11.3980 O   0  0  0  0  0
   20.3380   47.2570  -10.6940 O   0  0  0  0  0
   19.1970   46.4290  -10.4830 C   0  0  0  0  0
   19.6580   44.9890  -10.3300 C   0  0  0  0  0
   20.1480   44.4870  -11.5840 O   0  0  0  0  0
   20.8100   44.8580   -9.3460 C   0  0  0  0  0
   20.3800   44.6290   -8.0000 O   0  0  0  0  0
   21.5770   43.6800   -9.8900 C   0  0  0  0  0
   20.9840   42.4750   -9.3980 O   0  0  0  0  0
   21.3670   43.7530  -11.3970 C   0  0  0  0  0
   22.5230   44.4400  -12.0360 N   0  0  0  0  0
   22.4700   45.6240  -12.6730 C   0  0  0  0  0
   23.6860   45.9880  -13.1410 N   0  0  0  0  0
   24.5640   45.0330  -12.7970 C   0  0  0  0  0
   26.0220   44.8050  -12.9840 C   0  0  0  0  0
   26.7870   45.7030  -13.6470 N   0  0  0  0  0
   26.5550   43.6720  -12.4710 N   0  0  0  0  0
   25.7940   42.7710  -11.8100 C   0  0  0  0  0
   24.4680   42.9180  -11.6070 N   0  0  0  0  0
   23.7970   44.0070  -12.0700 C   0  0  0  0  0
   15.6164   51.6560  -12.0527 H   0  0  0  0  0
   17.4848   52.5075  -10.1911 H   0  0  0  0  0
   21.2639   50.9067  -13.3591 H   0  0  0  0  0
   22.4457   48.8209  -10.3928 H   0  0  0  0  0
   18.5189   46.5113  -11.3324 H   0  0  0  0  0
   18.6720   46.7463   -9.5820 H   0  0  0  0  0
   18.7917   44.4312   -9.9745 H   0  0  0  0  0
   21.3975   45.7732   -9.2736 H   0  0  0  0  0
   21.1476   44.5553   -7.4282 H   0  0  0  0  0
   22.6298   43.6929   -9.6079 H   0  0  0  0  0
   21.4670   41.7192   -9.7401 H   0  0  0  0  0
   21.2978   42.7665  -11.8554 H   0  0  0  0  0
   21.5624   46.2149  -12.7963 H   0  0  0  0  0
   26.3652   46.5505  -14.0267 H   0  0  0  0  0
   27.7854   45.5324  -13.7670 H   0  0  0  0  0
   26.2784   41.8761  -11.4193 H   0  0  0  0  0
  1  2  1  0  0  0
  1  3  1  0  0  0
  1  4  2  0  0  0
  8  1  1  0  0  0
  5  6  2  0  0  0
  5  7  1  0  0  0
  5  8  1  0  0  0
 12  5  1  0  0  0
  9 10  1  0  0  0
  9 11  2  0  0  0
  9 12  1  0  0  0
  9 13  1  0  0  0
 13 14  1  0  0  0
 14 15  1  0  0  0
 15 16  1  0  0  0
 15 17  1  0  0  0
 16 21  1  0  0  0
 17 18  1  0  0  0
 17 19  1  0  0  0
 19 20  1  0  0  0
 19 21  1  0  0  0
 21 22  1  0  0  0
 22 23  4  0  0  0
 22 31  4  0  0  0
 23 24  4  0  0  0
 24 25  4  0  0  0
 25 26  4  0  0  0
 25 31  4  0  0  0
 26 27  1  0  0  0
 26 28  4  0  0  0
 28 29  4  0  0  0
 29 30  4  0  0  0
 30 31  4  0  0  0
  2 32  1  0  0  0
  3 33  1  0  0  0
  7 34  1  0  0  0
 10 35  1  0  0  0
 14 36  1  0  0  0
 14 37  1  0  0  0
 15 38  1  0  0  0
 17 39  1  0  0  0
 18 40  1  0  0  0
 19 41  1  0  0  0
 20 42  1  0  0  0
 21 43  1  0  0  0
 23 44  1  0  0  0
 27 45  1  0  0  0
 27 46  1  0  0  0
 29 47  1  0  0  0
M  END
$$$$
