4u54_ligand
  -I-interpret- 

 30 31  0  0  0  0  0  0  0  0999 V2000
   -0.1950  124.2660  -12.0830 C   0  0  0  0  0
   -4.3290  129.9320  -13.8540 C   0  0  0  0  0
   -3.6530  129.2190  -12.7730 N   0  3  0  0  0
   -2.3880  128.6600  -13.2370 C   0  0  0  0  0
   -1.7210  127.7630  -12.1890 C   0  0  0  0  0
   -1.2750  126.4970  -12.5660 C   0  0  0  0  0
   -0.6560  125.6610  -11.6460 C   0  0  0  0  0
   -0.4810  126.0960  -10.3340 C   0  0  0  0  0
   -0.9230  127.3610   -9.9510 C   0  0  0  0  0
   -1.5420  128.2010  -10.8750 C   0  0  0  0  0
    0.9890  123.7020  -11.6120 C   0  0  0  0  0
    1.3690  122.4870  -11.9940 N   0  0  0  0  0
    0.6420  121.7680  -12.8320 C   0  0  0  0  0
   -0.5530  122.2560  -13.3410 C   0  0  0  0  0
   -0.9860  123.5260  -12.9630 C   0  0  0  0  0
   -3.6923  130.7436  -14.2062 H   0  0  0  0  0
   -4.5274  129.2421  -14.6742 H   0  0  0  0  0
   -5.2699  130.3405  -13.4854 H   0  0  0  0  0
   -4.2527  128.4581  -12.4539 H   0  0  0  0  0
   -3.4658  129.8729  -12.0129 H   0  0  0  0  0
   -1.7123  129.4888  -13.4483 H   0  0  0  0  0
   -2.5930  128.0516  -14.1179 H   0  0  0  0  0
   -1.4136  126.1600  -13.5933 H   0  0  0  0  0
    0.0027  125.4454   -9.6054 H   0  0  0  0  0
   -0.7838  127.6954   -8.9229 H   0  0  0  0  0
   -1.8836  129.1916  -10.5746 H   0  0  0  0  0
    1.6134  124.2662  -10.9193 H   0  0  0  0  0
    0.9865  120.7770  -13.1275 H   0  0  0  0  0
   -1.1464  121.6532  -14.0285 H   0  0  0  0  0
   -1.9220  123.9322  -13.3464 H   0  0  0  0  0
  7  1  1  0  0  0
  1 11  4  0  0  0
  1 15  4  0  0  0
  3  2  1  0  0  0
  4  3  1  0  0  0
  5  4  1  0  0  0
  6  5  4  0  0  0
  5 10  4  0  0  0
  6  7  4  0  0  0
  7  8  4  0  0  0
  8  9  4  0  0  0
  9 10  4  0  0  0
 11 12  4  0  0  0
 12 13  4  0  0  0
 13 14  4  0  0  0
 14 15  4  0  0  0
  2 16  1  0  0  0
  2 17  1  0  0  0
  2 18  1  0  0  0
  3 19  1  0  0  0
  3 20  1  0  0  0
  4 21  1  0  0  0
  4 22  1  0  0  0
  6 23  1  0  0  0
  8 24  1  0  0  0
  9 25  1  0  0  0
 10 26  1  0  0  0
 11 27  1  0  0  0
 13 28  1  0  0  0
 14 29  1  0  0  0
 15 30  1  0  0  0
M  END
$$$$
