4g31_ligand
  -I-interpret- 

 51 55  0  0  0  0  0  0  0  0999 V2000
  -47.7950   12.4100    9.3600 C   0  0  0  0  0
  -51.5090    9.3760   -2.5890 F   0  0  0  0  0
  -47.4850   11.7710   10.5920 N   0  0  0  0  0
  -45.9760   12.3650    0.7820 O   0  0  0  0  0
  -48.5860   14.6970   10.0840 C   0  0  0  0  0
  -51.0700   10.8910   -4.0580 F   0  0  0  0  0
  -48.2930   13.7290    9.1100 N   0  0  0  0  0
  -48.4190   13.8540    7.7540 C   0  0  0  0  0
  -50.6960    8.7590   -4.5210 F   0  0  0  0  0
  -48.1720   12.3320    1.4600 N   0  0  0  0  0
  -48.0490   12.6880    7.1650 C   0  0  0  0  0
  -46.9610    9.7170    7.0010 N   0  0  0  0  0
  -48.0380   12.5320    5.6890 C   0  0  0  0  0
  -46.8500    9.8630    9.4500 N   0  0  0  0  0
  -46.7340   12.2890    5.0010 C   0  0  0  0  0
  -46.6890   12.1840    3.6700 C   0  0  0  0  0
  -47.9180   12.3110    2.8980 C   0  0  0  0  0
  -49.5960   12.4130    1.2240 C   0  0  0  0  0
  -50.2280   12.7160    2.5170 C   0  0  0  0  0
  -49.1770   12.6030    3.5590 C   0  0  0  0  0
  -49.2340   12.7140    4.9080 C   0  0  0  0  0
  -47.0990   12.4010    0.4370 C   0  0  0  0  0
  -47.4390   12.5330   -0.9610 C   0  0  0  0  0
  -47.7300   11.2120   -1.6940 C   0  0  0  0  0
  -46.6920   10.1890   -1.8540 C   0  0  0  0  0
  -46.9920    9.0340   -2.5220 C   0  0  0  0  0
  -48.3160    8.8470   -3.0900 C   0  0  0  0  0
  -49.2910    9.8340   -2.9350 C   0  0  0  0  0
  -48.9790   11.0440   -2.2250 C   0  0  0  0  0
  -50.6940    9.6840   -3.5230 C   0  0  0  0  0
  -47.6310   11.7780    8.2100 C   0  0  0  0  0
  -47.1590   10.4890    8.2180 C   0  0  0  0  0
  -47.0110   10.4900   10.5800 C   0  0  0  0  0
  -49.3533   14.3133   10.7565 H   0  0  0  0  0
  -47.6837   14.9238   10.6519 H   0  0  0  0  0
  -48.9477   15.6026    9.5971 H   0  0  0  0  0
  -48.7615   14.7464    7.2302 H   0  0  0  0  0
  -46.6111    8.7604    7.0551 H   0  0  0  0  0
  -47.1720   10.1323    6.0936 H   0  0  0  0  0
  -45.8187   12.1973    5.5857 H   0  0  0  0  0
  -45.7397   12.0046    3.1653 H   0  0  0  0  0
  -50.1044   12.2757    0.2696 H   0  0  0  0  0
  -51.2741   12.9754    2.6799 H   0  0  0  0  0
  -50.1802   12.9399    5.3996 H   0  0  0  0  0
  -46.5739   12.9785   -1.4520 H   0  0  0  0  0
  -48.3545   13.1229   -1.0053 H   0  0  0  0  0
  -45.6938   10.3470   -1.4457 H   0  0  0  0  0
  -46.2380    8.2540   -2.6282 H   0  0  0  0  0
  -48.5486    7.9341   -3.6383 H   0  0  0  0  0
  -49.7330   11.8228   -2.1105 H   0  0  0  0  0
  -46.7670    9.9915   11.5181 H   0  0  0  0  0
  1  3  4  0  0  0
  1  7  4  0  0  0
 31  1  4  0  0  0
 30  2  1  0  0  0
  3 33  4  0  0  0
 22  4  2  0  0  0
  7  5  1  0  0  0
 30  6  1  0  0  0
  8  7  4  0  0  0
 11  8  4  0  0  0
 30  9  1  0  0  0
 10 17  4  0  0  0
 10 18  4  0  0  0
 22 10  1  0  0  0
 13 11  1  0  0  0
 11 31  4  0  0  0
 32 12  1  0  0  0
 15 13  4  0  0  0
 21 13  4  0  0  0
 14 32  4  0  0  0
 33 14  4  0  0  0
 16 15  4  0  0  0
 17 16  4  0  0  0
 17 20  4  0  0  0
 18 19  4  0  0  0
 19 20  4  0  0  0
 20 21  4  0  0  0
 23 22  1  0  0  0
 24 23  1  0  0  0
 24 25  4  0  0  0
 29 24  4  0  0  0
 26 25  4  0  0  0
 27 26  4  0  0  0
 28 27  4  0  0  0
 28 29  4  0  0  0
 28 30  1  0  0  0
 31 32  4  0  0  0
  5 34  1  0  0  0
  5 35  1  0  0  0
  5 36  1  0  0  0
  8 37  1  0  0  0
 12 38  1  0  0  0
 12 39  1  0  0  0
 15 40  1  0  0  0
 16 41  1  0  0  0
 18 42  1  0  0  0
 19 43  1  0  0  0
 21 44  1  0  0  0
 23 45  1  0  0  0
 23 46  1  0  0  0
 25 47  1  0  0  0
 26 48  1  0  0  0
 27 49  1  0  0  0
 29 50  1  0  0  0
 33 51  1  0  0  0
M  END
$$$$
