2xgm_ligand
  -I-interpret- 

 12 12  0  0  0  0  0  0  0  0999 V2000
   29.9550    6.9320    0.8720 O   0  0  0  0  0
   29.9010    7.2700    2.0580 C   0  0  0  0  0
   29.7800    6.3430    3.1030 C   0  0  0  0  0
   29.7210    5.1410    2.8830 O   0  0  0  0  0
   29.7300    6.7710    4.4220 C   0  0  0  0  0
   29.6400    5.9570    5.3470 O   0  0  0  0  0
   29.7990    8.1450    4.7090 N   0  0  0  0  0
   29.9170    9.0710    3.6610 C   0  0  0  0  0
   29.9800   10.2720    3.8950 O   0  0  0  0  0
   29.9670    8.6360    2.3480 N   0  0  0  0  0
   29.7634    8.4682    5.6758 H   0  0  0  0  0
   30.0522    9.3136    1.5903 H   0  0  0  0  0
  1  2  2  0  0  0
  2  3  1  0  0  0
  2 10  1  0  0  0
  3  4  2  0  0  0
  3  5  1  0  0  0
  5  6  2  0  0  0
  5  7  1  0  0  0
  7  8  1  0  0  0
  8  9  2  0  0  0
  8 10  1  0  0  0
  7 11  1  0  0  0
 10 12  1  0  0  0
M  END
$$$$
