4ehm_ligand
  -I-interpret- 

 41 43  0  0  0  0  0  0  0  0999 V2000
    5.6010   18.7300   26.0670 C   0  0  0  0  0
    5.7420   20.2910   25.8900 C   0  0  0  0  0
    5.6300   20.8440   24.5990 C   0  0  0  0  0
    5.4200   19.8860   23.6480 O   0  0  0  0  0
    6.2680   19.9950   22.5550 C   0  0  0  0  0
    7.1290   18.9100   22.3100 C   0  0  0  0  0
    7.2080   17.6530   23.1810 C   0  0  0  0  0
    6.5510   16.6570   22.7930 O   0  0  0  0  0
    7.9410   17.6860   24.2060 O   0  0  0  0  0
    7.9810   18.9310   21.2060 C   0  0  0  0  0
    7.9970   20.0090   20.3160 C   0  0  0  0  0
    8.8490   20.0200   19.2470 O   0  0  0  0  0
    9.3310   18.7340   18.8570 C   0  0  0  0  0
    7.1500   21.0960   20.5540 C   0  0  0  0  0
    7.1440   22.3110   19.6050 C   0  0  0  0  0
    6.3050   21.0750   21.6700 C   0  0  0  0  0
    5.5320   22.1940   21.7570 O   0  0  0  0  0
    5.6130   22.8670   22.9470 C   0  0  0  0  0
    5.4880   24.0840   22.8500 O   0  0  0  0  0
    5.7560   22.2090   24.3480 C   0  0  0  0  0
    5.9990   23.0850   25.4130 C   0  0  0  0  0
    6.1600   24.5980   25.2810 C   0  0  0  0  0
    6.1240   22.5750   26.6800 C   0  0  0  0  0
    6.0020   21.2180   26.9200 C   0  0  0  0  0
    6.1350   20.8510   28.2180 O   0  0  0  0  0
    4.6185   18.4132   25.7170 H   0  0  0  0  0
    6.3745   18.2284   25.4855 H   0  0  0  0  0
    5.7129   18.4735   27.1205 H   0  0  0  0  0
    8.3351   18.5575   24.2883 H   0  0  0  0  0
    8.6496   18.0877   21.0332 H   0  0  0  0  0
    9.8725   18.2828   19.6885 H   0  0  0  0  0
    8.4883   18.0992   18.5834 H   0  0  0  0  0
    9.9990   18.8416   18.0024 H   0  0  0  0  0
    8.1376   22.7587   19.5837 H   0  0  0  0  0
    6.8692   21.9854   18.6017 H   0  0  0  0  0
    6.4209   23.0449   19.9610 H   0  0  0  0  0
    7.0040   24.8166   24.6268 H   0  0  0  0  0
    5.2504   25.0233   24.8570 H   0  0  0  0  0
    6.3401   25.0302   26.2653 H   0  0  0  0  0
    6.3229   23.2504   27.5121 H   0  0  0  0  0
    6.3077   21.6290   28.7533 H   0  0  0  0  0
  1  2  1  0  0  0
  2  3  4  0  0  0
  2 24  4  0  0  0
  3  4  1  0  0  0
  3 20  4  0  0  0
  4  5  1  0  0  0
  5  6  4  0  0  0
  5 16  4  0  0  0
  6  7  1  0  0  0
  6 10  4  0  0  0
  7  8  2  0  0  0
  7  9  1  0  0  0
 10 11  4  0  0  0
 11 12  1  0  0  0
 11 14  4  0  0  0
 12 13  1  0  0  0
 14 15  1  0  0  0
 14 16  4  0  0  0
 16 17  1  0  0  0
 17 18  1  0  0  0
 18 19  2  0  0  0
 18 20  1  0  0  0
 20 21  4  0  0  0
 21 22  1  0  0  0
 21 23  4  0  0  0
 23 24  4  0  0  0
 24 25  1  0  0  0
  1 26  1  0  0  0
  1 27  1  0  0  0
  1 28  1  0  0  0
  9 29  1  0  0  0
 10 30  1  0  0  0
 13 31  1  0  0  0
 13 32  1  0  0  0
 13 33  1  0  0  0
 15 34  1  0  0  0
 15 35  1  0  0  0
 15 36  1  0  0  0
 22 37  1  0  0  0
 22 38  1  0  0  0
 22 39  1  0  0  0
 23 40  1  0  0  0
 25 41  1  0  0  0
M  END
$$$$
