5v7a_ligand
  -I-interpret- 

 25 26  0  0  0  0  0  0  0  0999 V2000
  -17.5030    8.7360  103.5790 C   0  0  0  0  0
  -17.1280    8.4530  104.8620 C   0  0  0  0  0
  -18.9500    7.3510  104.2810 C   0  0  0  0  0
  -16.7060    9.6490  102.8240 C   0  0  0  0  0
  -15.3550    9.7740  104.8810 C   0  0  0  0  0
  -20.7960    5.4430  101.9220 C   0  0  0  0  0
  -18.0880    6.9900  106.6350 C   0  0  0  0  0
  -21.2860    6.4210  102.9850 C   0  0  0  0  0
  -18.6310    8.0530  103.2090 N   0  0  0  0  0
  -16.0720    8.9340  105.5700 N   0  0  0  0  0
  -18.0710    7.5710  105.3030 N   0  0  0  0  0
  -15.6480   10.1060  103.5670 N   0  0  0  0  0
  -14.2390   10.3990  105.3810 N   0  0  0  0  0
  -19.8540    4.6460  102.1890 O   0  0  0  0  0
  -16.9000   10.0180  101.6800 O   0  0  0  0  0
  -21.4330    5.5750  100.8450 O   0  0  0  0  0
  -20.2920    6.2530  104.4960 S   0  0  0  0  0
  -17.1675    6.4291  106.7971 H   0  0  0  0  0
  -18.1655    7.7856  107.3761 H   0  0  0  0  0
  -18.9436    6.3211  106.7273 H   0  0  0  0  0
  -22.3285    6.2033  103.2172 H   0  0  0  0  0
  -21.1901    7.4384  102.6057 H   0  0  0  0  0
  -15.8649    8.6669  106.5324 H   0  0  0  0  0
  -13.7084   11.0423  104.7935 H   0  0  0  0  0
  -19.5698    4.7807  103.0960 H   0  0  0  0  0
  2  1  4  0  0  0
  1  4  1  0  0  0
  9  1  4  0  0  0
  2 10  1  0  0  0
 11  2  4  0  0  0
  3  9  4  0  0  0
  3 11  4  0  0  0
 17  3  1  0  0  0
  4 12  1  0  0  0
  4 15  2  0  0  0
 10  5  1  0  0  0
  5 12  4  0  0  0
  5 13  2  0  0  0
  8  6  1  0  0  0
  6 14  1  0  0  0
  6 16  2  0  0  0
 11  7  1  0  0  0
  8 17  1  0  0  0
  7 18  1  0  0  0
  7 19  1  0  0  0
  7 20  1  0  0  0
  8 21  1  0  0  0
  8 22  1  0  0  0
 10 23  1  0  0  0
 13 24  1  0  0  0
 14 25  1  0  0  0
M  END
$$$$
