4hxj_ligand
  -I-interpret- 

 48 47  0  0  0  0  0  0  0  0999 V2000
   12.9530  -17.0970   14.1460 N   0  3  0  0  0
   14.1870  -17.1600   14.9270 C   0  0  0  0  0
   13.8560  -17.2050   16.4190 C   0  0  0  0  0
   12.9190  -16.5530   16.8690 O   0  0  0  0  0
   15.0900  -15.9730   14.5920 C   0  0  0  0  0
   16.5720  -16.2860   14.6360 C   0  0  0  0  0
   17.3900  -15.1310   14.0820 C   0  0  0  0  0
   18.7650  -15.1630   14.5720 N   0  0  0  0  0
   19.7830  -15.7160   13.9200 C   0  0  0  0  0
   19.5920  -16.2840   12.7360 N   0  0  0  0  0
   20.9970  -15.6960   14.4510 N   0  0  0  0  0
   14.6310  -17.9720   17.1800 N   0  0  0  0  0
   14.2260  -18.3770   18.5160 C   0  0  0  0  0
   14.5480  -17.5100   19.7240 C   0  0  0  0  0
   13.8710  -16.5160   19.9860 O   0  0  0  0  0
   15.5970  -17.9030   20.4450 N   0  0  0  0  0
   15.8220  -17.5440   21.8500 C   0  0  0  0  0
   15.1770  -18.6270   22.7100 C   0  0  0  0  0
   15.5380  -18.8570   23.8650 O   0  0  0  0  0
   15.2400  -16.1720   22.2580 C   0  0  0  0  0
   15.9290  -15.1230   21.5690 O   0  0  0  0  0
   15.3950  -15.9610   23.7540 C   0  0  0  0  0
   14.2650  -19.3110   22.2500 O   0  0  0  0  0
   12.3623  -17.8947   14.3808 H   0  0  0  0  0
   12.4589  -16.2313   14.3623 H   0  0  0  0  0
   13.1797  -17.1212   13.1518 H   0  0  0  0  0
   14.7285  -18.0706   14.6707 H   0  0  0  0  0
   14.9018  -15.2047   15.3420 H   0  0  0  0  0
   14.8561  -15.6697   13.5715 H   0  0  0  0  0
   16.7605  -17.1709   14.0281 H   0  0  0  0  0
   16.8629  -16.4546   15.6728 H   0  0  0  0  0
   16.9306  -14.1970   14.4056 H   0  0  0  0  0
   17.4096  -15.2128   12.9952 H   0  0  0  0  0
   18.9576  -14.7317   15.4761 H   0  0  0  0  0
   20.3778  -16.7028   12.2385 H   0  0  0  0  0
   18.6594  -16.3018   12.3234 H   0  0  0  0  0
   21.1494  -15.2567   15.3588 H   0  0  0  0  0
   15.5319  -18.2839   16.8173 H   0  0  0  0  0
   14.7808  -19.2981   18.6943 H   0  0  0  0  0
   13.1368  -18.3807   18.4741 H   0  0  0  0  0
   16.2918  -18.4943   19.9890 H   0  0  0  0  0
   16.8995  -17.4689   21.9968 H   0  0  0  0  0
   16.2508  -18.2590   24.1014 H   0  0  0  0  0
   14.1826  -16.1540   21.9939 H   0  0  0  0  0
   15.5608  -14.2753   21.8287 H   0  0  0  0  0
   14.8626  -16.7483   24.2878 H   0  0  0  0  0
   16.4524  -15.9932   24.0165 H   0  0  0  0  0
   14.9808  -14.9906   24.0276 H   0  0  0  0  0
  1  2  1  0  0  0
  2  3  1  0  0  0
  2  5  1  0  0  0
  3  4  2  0  0  0
  3 12  1  0  0  0
  5  6  1  0  0  0
  6  7  1  0  0  0
  7  8  1  0  0  0
  8  9  1  0  0  0
  9 10  1  0  0  0
  9 11  2  0  0  0
 12 13  1  0  0  0
 13 14  1  0  0  0
 14 15  2  0  0  0
 14 16  1  0  0  0
 16 17  1  0  0  0
 17 18  1  0  0  0
 17 20  1  0  0  0
 18 19  1  0  0  0
 18 23  2  0  0  0
 20 21  1  0  0  0
 20 22  1  0  0  0
  1 24  1  0  0  0
  1 25  1  0  0  0
  1 26  1  0  0  0
  2 27  1  0  0  0
  5 28  1  0  0  0
  5 29  1  0  0  0
  6 30  1  0  0  0
  6 31  1  0  0  0
  7 32  1  0  0  0
  7 33  1  0  0  0
  8 34  1  0  0  0
 10 35  1  0  0  0
 10 36  1  0  0  0
 11 37  1  0  0  0
 12 38  1  0  0  0
 13 39  1  0  0  0
 13 40  1  0  0  0
 16 41  1  0  0  0
 17 42  1  0  0  0
 19 43  1  0  0  0
 20 44  1  0  0  0
 21 45  1  0  0  0
 22 46  1  0  0  0
 22 47  1  0  0  0
 22 48  1  0  0  0
M  END
$$$$
