5nkg_ligand
  -I-interpret- 

 63 66  0  0  0  0  0  0  0  0999 V2000
  -80.3100  -13.1690    1.7210 C   0  0  0  0  0
  -78.9960  -13.1880    2.5010 C   0  0  0  0  0
  -78.8920  -11.9850    3.3390 N   0  3  0  0  0
  -79.9870  -12.0330    4.3230 C   0  0  0  0  0
  -81.3500  -12.1120    3.6690 C   0  0  0  0  0
  -81.4510  -13.2630    2.7090 C   0  0  0  0  0
  -81.1620  -14.5270    3.3130 N   0  0  0  0  0
  -81.7000  -15.2400    4.2820 C   0  0  0  0  0
  -81.1790  -16.3230    4.5430 O   0  0  0  0  0
  -82.7870  -14.8610    5.0750 C   0  0  0  0  0
  -84.1220  -14.8460    4.6580 C   0  0  0  0  0
  -82.4870  -14.6170    6.4070 C   0  0  0  0  0
  -83.4710  -14.3120    7.3260 C   0  0  0  0  0
  -83.1200  -14.0450    8.6540 C   0  0  0  0  0
  -84.0010  -14.7130    9.7010 C   0  0  0  0  0
  -84.7930  -14.3020    6.8960 C   0  0  0  0  0
  -85.1270  -14.5820    5.5850 C   0  0  0  0  0
  -86.3850  -14.5660    5.1360 N   0  0  0  0  0
  -87.4300  -15.0810    5.8070 C   0  0  0  0  0
  -87.3700  -15.9150    7.3280 S   0  0  0  0  0
  -88.6590  -15.0190    5.2820 N   0  0  0  0  0
  -89.5800  -15.6000    6.0940 C   0  0  0  0  0
  -89.1350  -16.1650    7.2610 C   0  0  0  0  0
  -89.8330  -16.8080    8.3040 C   0  0  0  0  0
  -89.2370  -16.9910    9.3730 O   0  0  0  0  0
  -91.1340  -17.2030    8.1440 N   0  0  0  0  0
  -91.8130  -17.8250    9.1960 C   0  0  0  0  0
  -92.2580  -17.0650   10.2790 C   0  0  0  0  0
  -91.9830  -15.3340   10.3340 Cl  0  0  0  0  0
  -92.9640  -17.6950   11.3120 C   0  0  0  0  0
  -93.2060  -19.0670   11.2820 C   0  0  0  0  0
  -92.7830  -19.8280   10.1960 C   0  0  0  0  0
  -92.0890  -19.2050    9.1450 C   0  0  0  0  0
  -91.6540  -19.9830    8.0670 C   0  0  0  0  0
  -80.3454  -14.0098    1.0283 H   0  0  0  0  0
  -80.3894  -12.2469    1.1452 H   0  0  0  0  0
  -78.1624  -13.2095    1.7991 H   0  0  0  0  0
  -78.9695  -14.0722    3.1378 H   0  0  0  0  0
  -78.9647  -11.1443    2.7659 H   0  0  0  0  0
  -77.9888  -11.9576    3.8122 H   0  0  0  0  0
  -79.9495  -11.1174    4.9133 H   0  0  0  0  0
  -79.8535  -12.9272    4.9318 H   0  0  0  0  0
  -81.5135  -11.1895    3.1118 H   0  0  0  0  0
  -82.0946  -12.2562    4.4518 H   0  0  0  0  0
  -82.4623  -13.2084    2.3060 H   0  0  0  0  0
  -80.3501  -14.9828    2.8966 H   0  0  0  0  0
  -84.3738  -15.0395    3.6153 H   0  0  0  0  0
  -81.4491  -14.6673    6.7362 H   0  0  0  0  0
  -83.2239  -12.9693    8.7961 H   0  0  0  0  0
  -82.1121  -14.4345    8.7968 H   0  0  0  0  0
  -85.0302  -14.3763    9.5763 H   0  0  0  0  0
  -83.9537  -15.7949    9.5770 H   0  0  0  0  0
  -83.6475  -14.4443   10.6965 H   0  0  0  0  0
  -85.5836  -14.0681    7.6090 H   0  0  0  0  0
  -86.5638  -14.1366    4.2282 H   0  0  0  0  0
  -90.6366  -15.6164    5.8268 H   0  0  0  0  0
  -91.6089  -17.0432    7.2555 H   0  0  0  0  0
  -93.3293  -17.1034   12.1514 H   0  0  0  0  0
  -93.7277  -19.5454   12.1109 H   0  0  0  0  0
  -92.9883  -20.8979   10.1612 H   0  0  0  0  0
  -92.0908  -19.6001    7.1446 H   0  0  0  0  0
  -90.5669  -19.9366    8.0024 H   0  0  0  0  0
  -91.9666  -21.0164    8.2169 H   0  0  0  0  0
  1  2  1  0  0  0
  1  6  1  0  0  0
  2  3  1  0  0  0
  3  4  1  0  0  0
  4  5  1  0  0  0
  5  6  1  0  0  0
  6  7  1  0  0  0
  7  8  1  0  0  0
  8  9  2  0  0  0
  8 10  1  0  0  0
 10 11  4  0  0  0
 10 12  4  0  0  0
 11 17  4  0  0  0
 12 13  4  0  0  0
 13 14  1  0  0  0
 13 16  4  0  0  0
 14 15  1  0  0  0
 16 17  4  0  0  0
 17 18  1  0  0  0
 18 19  1  0  0  0
 19 20  4  0  0  0
 19 21  4  0  0  0
 20 23  4  0  0  0
 21 22  4  0  0  0
 22 23  4  0  0  0
 23 24  1  0  0  0
 24 25  2  0  0  0
 24 26  1  0  0  0
 26 27  1  0  0  0
 27 28  4  0  0  0
 27 33  4  0  0  0
 28 29  1  0  0  0
 28 30  4  0  0  0
 30 31  4  0  0  0
 31 32  4  0  0  0
 32 33  4  0  0  0
 33 34  1  0  0  0
  1 35  1  0  0  0
  1 36  1  0  0  0
  2 37  1  0  0  0
  2 38  1  0  0  0
  3 39  1  0  0  0
  3 40  1  0  0  0
  4 41  1  0  0  0
  4 42  1  0  0  0
  5 43  1  0  0  0
  5 44  1  0  0  0
  6 45  1  0  0  0
  7 46  1  0  0  0
 11 47  1  0  0  0
 12 48  1  0  0  0
 14 49  1  0  0  0
 14 50  1  0  0  0
 15 51  1  0  0  0
 15 52  1  0  0  0
 15 53  1  0  0  0
 16 54  1  0  0  0
 18 55  1  0  0  0
 22 56  1  0  0  0
 26 57  1  0  0  0
 30 58  1  0  0  0
 31 59  1  0  0  0
 32 60  1  0  0  0
 34 61  1  0  0  0
 34 62  1  0  0  0
 34 63  1  0  0  0
M  END
$$$$
