2lsp_ligand
  -I-interpret- 

240241  0  0  0  0  0  0  0  0999 V2000
   17.9550  -16.7270    4.7120 N   0  3  0  0  0
   19.3240  -16.3480    5.1320 C   0  0  0  0  0
   19.2590  -15.1640    6.0870 C   0  0  0  0  0
   18.1740  -14.7410    6.4900 O   0  0  0  0  0
   20.1830  -15.9670    3.9220 C   0  0  0  0  0
   20.2150  -17.0080    2.8170 C   0  0  0  0  0
   21.0930  -16.5470    1.6640 C   0  0  0  0  0
   21.0160  -17.4400    0.5080 N   0  0  0  0  0
   21.8240  -17.3580   -0.5500 C   0  0  0  0  0
   22.7680  -16.4260   -0.6000 N   0  0  0  0  0
   21.6780  -18.1990   -1.5650 N   0  0  0  0  0
   20.4170  -14.6360    6.4550 N   0  0  0  0  0
   20.4750  -13.4190    7.2400 C   0  0  0  0  0
   20.1610  -12.2210    6.3540 C   0  0  0  0  0
   20.6130  -12.1510    5.2080 O   0  0  0  0  0
   21.8560  -13.2420    7.8950 C   0  0  0  0  0
   22.8890  -13.4610    6.9240 O   0  0  0  0  0
   22.0320  -14.2020    9.0600 C   0  0  0  0  0
   19.3790  -11.2900    6.8740 N   0  0  0  0  0
   18.9270  -10.1520    6.0880 C   0  0  0  0  0
   20.0150   -9.0920    5.9920 C   0  0  0  0  0
   19.9920   -8.0770    6.6910 O   0  0  0  0  0
   17.6400   -9.5800    6.6810 C   0  0  0  0  0
   16.5580  -10.6270    6.8130 C   0  0  0  0  0
   16.0640  -11.2800    5.6930 C   0  0  0  0  0
   16.0460  -10.9780    8.0550 C   0  0  0  0  0
   15.0940  -12.2520    5.8050 C   0  0  0  0  0
   15.0690  -11.9480    8.1730 C   0  0  0  0  0
   14.5980  -12.5820    7.0440 C   0  0  0  0  0
   13.6310  -13.5560    7.1530 O   0  0  0  0  0
   20.9750   -9.3620    5.1250 N   0  0  0  0  0
   22.0860   -8.4610    4.8740 C   0  0  0  0  0
   21.6300   -7.2930    4.0080 C   0  0  0  0  0
   22.1780   -6.1900    4.0810 O   0  0  0  0  0
   23.2060   -9.2370    4.1730 C   0  0  0  0  0
   24.4260   -8.4050    3.8140 C   0  0  0  0  0
   25.4520   -9.2060    3.0410 C   0  0  0  0  0
   25.2790   -9.3750    1.8140 O   0  0  0  0  0
   26.4270   -9.6850    3.6560 O   0  0  0  0  0
   20.6070   -7.5410    3.2070 N   0  0  0  0  0
   20.1360   -6.5660    2.2430 C   0  0  0  0  0
   18.9520   -5.7630    2.7770 C   0  0  0  0  0
   18.2770   -6.1710    3.7270 O   0  0  0  0  0
   19.6970   -7.2630    0.9410 C   0  0  0  0  0
   20.6170   -8.3120    0.6140 O   0  0  0  0  0
   19.6230   -6.2670   -0.2090 C   0  0  0  0  0
   18.7290   -4.6140    2.1610 N   0  0  0  0  0
   17.5160   -3.8420    2.3380 C   0  0  0  0  0
   17.1100   -3.3050    0.9710 C   0  0  0  0  0
   17.8930   -3.4110    0.0280 O   0  0  0  0  0
   17.7320   -2.7050    3.3480 C   0  0  0  0  0
   18.8080   -1.7110    2.9830 C   0  0  0  0  0
   18.5430   -0.6700    2.1090 C   0  0  0  0  0
   20.0700   -1.7930    3.5480 C   0  0  0  0  0
   19.5060    0.2660    1.8030 C   0  0  0  0  0
   21.0450   -0.8620    3.2400 C   0  0  0  0  0
   20.7590    0.1710    2.3660 C   0  0  0  0  0
   10.1250   -1.0970    1.3520 O   0  0  0  0  0
    9.8620   -1.0550    0.1500 C   0  0  0  0  0
    9.2500    0.2120   -0.4400 C   0  0  0  0  0
   10.1030   -2.0820   -0.6370 N   0  0  0  0  0
   10.6870   -3.3280   -0.1370 C   0  0  0  0  0
   12.1030   -3.1230    0.3930 C   0  0  0  0  0
   13.0910   -2.9220   -0.7360 C   0  0  0  0  0
   14.0340   -1.7480   -0.4890 C   0  0  0  0  0
   15.5230   -2.1390   -0.4330 C   0  0  0  0  0
   15.8990   -2.7650    0.8310 N   0  0  0  0  0
   16.3920   -0.9010   -0.6510 C   0  0  0  0  0
   16.0940    0.1670   -0.1150 O   0  0  0  0  0
   17.4920   -1.0740   -1.3830 N   0  0  0  0  0
   18.4510    0.0000   -1.6250 C   0  0  0  0  0
   17.7840    1.2110   -2.2660 C   0  0  0  0  0
   17.1500    1.1060   -3.3190 O   0  0  0  0  0
   19.5860   -0.5110   -2.5080 C   0  0  0  0  0
   20.2030   -1.6480   -1.9260 O   0  0  0  0  0
   17.9400    2.3620   -1.6300 N   0  0  0  0  0
   17.2350    3.5560   -2.0430 C   0  0  0  0  0
   18.1910    4.6420   -2.5140 C   0  0  0  0  0
   18.9540    5.1950   -1.7210 O   0  0  0  0  0
   16.3730    4.0620   -0.8800 C   0  0  0  0  0
   15.1680    3.1390   -0.6950 C   0  0  0  0  0
   15.9290    5.5050   -1.0870 C   0  0  0  0  0
   14.0270    3.4350   -1.6330 C   0  0  0  0  0
   18.1400    4.9180   -3.8180 N   0  0  0  0  0
   18.9340    5.9760   -4.4390 C   0  0  0  0  0
   20.4290    5.7070   -4.3030 C   0  0  0  0  0
   21.0100    5.8780   -3.2310 O   0  0  0  0  0
   18.5840    7.3450   -3.8410 C   0  0  0  0  0
   19.3670    8.4960   -4.4550 C   0  0  0  0  0
   18.9030   10.0990   -3.7710 S   0  0  0  0  0
   19.9710   11.1850   -4.7170 C   0  0  0  0  0
   21.0420    5.2800   -5.3980 N   0  0  0  0  0
   22.4800    5.0640   -5.4380 C   0  0  0  0  0
   23.2110    6.3900   -5.2450 C   0  0  0  0  0
   23.5120    7.0980   -6.2100 O   0  0  0  0  0
   22.8780    4.4260   -6.7720 C   0  0  0  0  0
   24.3660    4.1410   -6.9040 C   0  0  0  0  0
   24.7010    3.6390   -8.2970 C   0  0  0  0  0
   26.1990    3.4900   -8.5000 C   0  0  0  0  0
   26.5260    3.0970   -9.8960 N   0  3  0  0  0
   23.4630    6.7300   -3.9900 N   0  0  0  0  0
   24.1280    7.9750   -3.6510 C   0  0  0  0  0
   25.6360    7.7720   -3.6410 C   0  0  0  0  0
   26.4060    8.7190   -3.7920 O   0  0  0  0  0
   23.6530    8.4690   -2.2810 C   0  0  0  0  0
   24.0450    9.9040   -1.9700 C   0  0  0  0  0
   23.2870   10.8890   -2.8440 C   0  0  0  0  0
   23.6450   12.3270   -2.5090 C   0  0  0  0  0
   25.0580   12.6440   -2.8440 N   0  3  0  0  0
   26.0460    6.5270   -3.4630 N   0  0  0  0  0
   27.4540    6.1860   -3.4490 C   0  0  0  0  0
   27.9760    6.0610   -4.8780 C   0  0  0  0  0
   28.4420    7.0780   -5.4340 O   0  0  0  0  0
   27.6620    4.8810   -2.6800 C   0  0  0  0  0
   27.0880    4.9600   -1.3810 O   0  0  0  0  0
   27.9000    4.9540   -5.4470 O   0  0  0  0  0
   17.4050  -16.9756    5.5342 H   0  0  0  0  0
   17.5171  -15.9396    4.2339 H   0  0  0  0  0
   18.0036  -17.5259    4.0797 H   0  0  0  0  0
   19.7764  -17.2062    5.6289 H   0  0  0  0  0
   21.2058  -15.8526    4.2812 H   0  0  0  0  0
   19.7484  -15.0631    3.4952 H   0  0  0  0  0
   19.2007  -17.1587    2.4473 H   0  0  0  0  0
   20.6229  -17.9350    3.2199 H   0  0  0  0  0
   22.1259  -16.5362    2.0119 H   0  0  0  0  0
   20.7467  -15.5620    1.3511 H   0  0  0  0  0
   20.3021  -18.1685    0.5112 H   0  0  0  0  0
   23.3763  -16.3595   -1.4160 H   0  0  0  0  0
   22.8850  -15.7764    0.1776 H   0  0  0  0  0
   20.9470  -18.9098   -1.5373 H   0  0  0  0  0
   21.2853  -15.0953    6.1803 H   0  0  0  0  0
   19.7328  -13.4898    8.0351 H   0  0  0  0  0
   21.9258  -12.2230    8.2757 H   0  0  0  0  0
   23.7468  -13.3488    7.3402 H   0  0  0  0  0
   21.2622  -14.0094    9.8073 H   0  0  0  0  0
   21.9431  -15.2273    8.7009 H   0  0  0  0  0
   23.0164  -14.0554    9.5044 H   0  0  0  0  0
   19.0862  -11.3714    7.8477 H   0  0  0  0  0
   18.7123  -10.4902    5.0743 H   0  0  0  0  0
   17.2766   -8.7989    6.0132 H   0  0  0  0  0
   17.8657   -9.1980    7.6766 H   0  0  0  0  0
   16.4500  -11.0195    4.7075 H   0  0  0  0  0
   16.4202  -10.4811    8.9501 H   0  0  0  0  0
   14.7211  -12.7576    4.9143 H   0  0  0  0  0
   14.6730  -12.2102    9.1541 H   0  0  0  0  0
   13.3930  -13.6672    8.0764 H   0  0  0  0  0
   20.9339  -10.2413    4.6097 H   0  0  0  0  0
   22.4552   -8.0619    5.8187 H   0  0  0  0  0
   22.7931   -9.6148    3.2377 H   0  0  0  0  0
   23.5406  -10.0079    4.8672 H   0  0  0  0  0
   24.8886   -8.0618    4.7394 H   0  0  0  0  0
   24.0998   -7.5747    3.1877 H   0  0  0  0  0
   24.4752   -8.9270    1.5406 H   0  0  0  0  0
   20.1362   -8.4437    3.2693 H   0  0  0  0  0
   20.9679   -5.8883    2.0512 H   0  0  0  0  0
   18.7046   -7.6859    1.0971 H   0  0  0  0  0
   20.3363   -8.7407   -0.1978 H   0  0  0  0  0
   18.9007   -5.4874    0.0331 H   0  0  0  0  0
   20.6046   -5.8192   -0.3638 H   0  0  0  0  0
   19.3109   -6.7841   -1.1163 H   0  0  0  0  0
   19.4458   -4.2541    1.5308 H   0  0  0  0  0
   16.7205   -4.4678    2.7425 H   0  0  0  0  0
   18.0441   -3.1730    4.2817 H   0  0  0  0  0
   16.7963   -2.1479    3.3946 H   0  0  0  0  0
   17.5551   -0.5900    1.6553 H   0  0  0  0  0
   20.2972   -2.6009    4.2436 H   0  0  0  0  0
   19.2766    1.0807    1.1162 H   0  0  0  0  0
   22.0368   -0.9421    3.6851 H   0  0  0  0  0
   21.5240    0.9085    2.1233 H   0  0  0  0  0
    8.2991    0.4175    0.0515 H   0  0  0  0  0
    9.9299    1.0494   -0.2833 H   0  0  0  0  0
    9.0854    0.0710   -1.5082 H   0  0  0  0  0
    9.8753   -2.0074   -1.6285 H   0  0  0  0  0
   10.7314   -4.0389   -0.9621 H   0  0  0  0  0
   10.0658   -3.6912    0.6817 H   0  0  0  0  0
   12.3945   -4.0106    0.9545 H   0  0  0  0  0
   12.1116   -2.2337    1.0232 H   0  0  0  0  0
   12.5249   -2.7122   -1.6435 H   0  0  0  0  0
   13.6949   -3.8257   -0.8179 H   0  0  0  0  0
   13.7748   -1.3246    0.4814 H   0  0  0  0  0
   13.9132   -1.0562   -1.3226 H   0  0  0  0  0
   15.6847   -2.8708   -1.2245 H   0  0  0  0  0
   15.2363   -2.7893    1.6060 H   0  0  0  0  0
   17.6709   -1.9921   -1.7899 H   0  0  0  0  0
   18.8555    0.3179   -0.6640 H   0  0  0  0  0
   20.3310    0.2775   -2.6148 H   0  0  0  0  0
   19.1776   -0.7908   -3.4791 H   0  0  0  0  0
   20.9126   -1.9527   -2.4963 H   0  0  0  0  0
   18.5718    2.4078   -0.8305 H   0  0  0  0  0
   16.5967    3.3041   -2.8899 H   0  0  0  0  0
   16.9790    4.0464    0.0259 H   0  0  0  0  0
   14.8001    3.2838    0.3208 H   0  0  0  0  0
   15.5025    2.1221   -0.9002 H   0  0  0  0  0
   16.8069    6.1462   -1.1659 H   0  0  0  0  0
   15.3425    5.5755   -2.0031 H   0  0  0  0  0
   15.3211    5.8219   -0.2396 H   0  0  0  0  0
   13.6815    4.4561   -1.4719 H   0  0  0  0  0
   14.3665    3.3231   -2.6627 H   0  0  0  0  0
   13.2104    2.7391   -1.4407 H   0  0  0  0  0
   17.5185    4.3654   -4.4086 H   0  0  0  0  0
   18.6887    5.9856   -5.5010 H   0  0  0  0  0
   18.8310    7.3110   -2.7799 H   0  0  0  0  0
   17.5274    7.5270   -4.0374 H   0  0  0  0  0
   19.1522    8.5138   -5.5235 H   0  0  0  0  0
   20.4232    8.3340   -4.2398 H   0  0  0  0  0
   21.0118   10.9163   -4.5366 H   0  0  0  0  0
   19.7459   11.0797   -5.7783 H   0  0  0  0  0
   19.8022   12.2169   -4.4091 H   0  0  0  0  0
   20.4899    5.0978   -6.2361 H   0  0  0  0  0
   22.7611    4.3879   -4.6306 H   0  0  0  0  0
   22.6137    5.1323   -7.5590 H   0  0  0  0  0
   22.3591    3.4699   -6.8399 H   0  0  0  0  0
   24.6412    3.3742   -6.1799 H   0  0  0  0  0
   24.9167    5.0640   -6.7226 H   0  0  0  0  0
   24.3284    4.3641   -9.0205 H   0  0  0  0  0
   24.2392    2.6604   -8.4280 H   0  0  0  0  0
   26.5615    2.7111   -7.8292 H   0  0  0  0  0
   26.6716    4.4501   -8.2930 H   0  0  0  0  0
   27.5372    3.0067   -9.9945 H   0  0  0  0  0
   26.0813    2.2043  -10.1097 H   0  0  0  0  0
   26.1831    3.8114  -10.5382 H   0  0  0  0  0
   23.1816    6.0987   -3.2399 H   0  0  0  0  0
   23.8777    8.7258   -4.4005 H   0  0  0  0  0
   24.1230    7.8356   -1.5286 H   0  0  0  0  0
   22.5639    8.4247   -2.2816 H   0  0  0  0  0
   25.1115   10.0205   -2.1627 H   0  0  0  0  0
   23.8034   10.1101   -0.9273 H   0  0  0  0  0
   22.2196   10.7513   -2.6712 H   0  0  0  0  0
   23.5538   10.7017   -3.8841 H   0  0  0  0  0
   23.5094   12.4702   -1.4370 H   0  0  0  0  0
   23.0013   12.9830   -3.0950 H   0  0  0  0  0
   25.2534   13.6158   -2.6034 H   0  0  0  0  0
   25.6775   12.0303   -2.3149 H   0  0  0  0  0
   25.2093   12.5028   -3.8428 H   0  0  0  0  0
   25.3540    5.7891   -3.3324 H   0  0  0  0  0
   28.0122    6.9772   -2.9485 H   0  0  0  0  0
   28.4086    7.8185   -4.8240 H   0  0  0  0  0
   28.7322    4.7001   -2.5798 H   0  0  0  0  0
   27.1800    4.0710   -3.2274 H   0  0  0  0  0
   27.2309    4.1311   -0.9183 H   0  0  0  0  0
  2  1  1  0  0  0
  3  2  1  0  0  0
  2  5  1  0  0  0
  3  4  2  0  0  0
 12  3  1  0  0  0
  5  6  1  0  0  0
  6  7  1  0  0  0
  7  8  1  0  0  0
  8  9  1  0  0  0
  9 10  1  0  0  0
  9 11  2  0  0  0
 13 12  1  0  0  0
 14 13  1  0  0  0
 13 16  1  0  0  0
 14 15  2  0  0  0
 19 14  1  0  0  0
 16 17  1  0  0  0
 16 18  1  0  0  0
 20 19  1  0  0  0
 21 20  1  0  0  0
 20 23  1  0  0  0
 21 22  2  0  0  0
 31 21  1  0  0  0
 23 24  1  0  0  0
 24 25  4  0  0  0
 24 26  4  0  0  0
 25 27  4  0  0  0
 26 28  4  0  0  0
 27 29  4  0  0  0
 28 29  4  0  0  0
 29 30  1  0  0  0
 32 31  1  0  0  0
 33 32  1  0  0  0
 32 35  1  0  0  0
 33 34  2  0  0  0
 40 33  1  0  0  0
 35 36  1  0  0  0
 36 37  1  0  0  0
 37 38  1  0  0  0
 37 39  2  0  0  0
 41 40  1  0  0  0
 42 41  1  0  0  0
 41 44  1  0  0  0
 42 43  2  0  0  0
 47 42  1  0  0  0
 44 45  1  0  0  0
 44 46  1  0  0  0
 48 47  1  0  0  0
 49 48  1  0  0  0
 48 51  1  0  0  0
 49 50  2  0  0  0
 67 49  1  0  0  0
 51 52  1  0  0  0
 52 53  4  0  0  0
 52 54  4  0  0  0
 53 55  4  0  0  0
 54 56  4  0  0  0
 55 57  4  0  0  0
 56 57  4  0  0  0
 59 58  2  0  0  0
 59 60  1  0  0  0
 61 59  1  0  0  0
 62 61  1  0  0  0
 63 62  1  0  0  0
 64 63  1  0  0  0
 65 64  1  0  0  0
 66 65  1  0  0  0
 66 67  1  0  0  0
 66 68  1  0  0  0
 68 69  2  0  0  0
 68 70  1  0  0  0
 70 71  1  0  0  0
 71 72  1  0  0  0
 71 74  1  0  0  0
 72 73  2  0  0  0
 72 76  1  0  0  0
 74 75  1  0  0  0
 76 77  1  0  0  0
 77 78  1  0  0  0
 77 80  1  0  0  0
 78 79  2  0  0  0
 78 84  1  0  0  0
 80 81  1  0  0  0
 80 82  1  0  0  0
 81 83  1  0  0  0
 84 85  1  0  0  0
 85 86  1  0  0  0
 85 88  1  0  0  0
 86 87  2  0  0  0
 86 92  1  0  0  0
 88 89  1  0  0  0
 89 90  1  0  0  0
 90 91  1  0  0  0
 92 93  1  0  0  0
 93 94  1  0  0  0
 93 96  1  0  0  0
 94 95  2  0  0  0
 94101  1  0  0  0
 96 97  1  0  0  0
 97 98  1  0  0  0
 98 99  1  0  0  0
 99100  1  0  0  0
101102  1  0  0  0
102103  1  0  0  0
102105  1  0  0  0
103104  2  0  0  0
103110  1  0  0  0
105106  1  0  0  0
106107  1  0  0  0
107108  1  0  0  0
108109  1  0  0  0
110111  1  0  0  0
111112  1  0  0  0
111114  1  0  0  0
112113  1  0  0  0
112116  2  0  0  0
114115  1  0  0  0
  1117  1  0  0  0
  1118  1  0  0  0
  1119  1  0  0  0
  2120  1  0  0  0
  5121  1  0  0  0
  5122  1  0  0  0
  6123  1  0  0  0
  6124  1  0  0  0
  7125  1  0  0  0
  7126  1  0  0  0
  8127  1  0  0  0
 10128  1  0  0  0
 10129  1  0  0  0
 11130  1  0  0  0
 12131  1  0  0  0
 13132  1  0  0  0
 16133  1  0  0  0
 17134  1  0  0  0
 18135  1  0  0  0
 18136  1  0  0  0
 18137  1  0  0  0
 19138  1  0  0  0
 20139  1  0  0  0
 23140  1  0  0  0
 23141  1  0  0  0
 25142  1  0  0  0
 26143  1  0  0  0
 27144  1  0  0  0
 28145  1  0  0  0
 30146  1  0  0  0
 31147  1  0  0  0
 32148  1  0  0  0
 35149  1  0  0  0
 35150  1  0  0  0
 36151  1  0  0  0
 36152  1  0  0  0
 38153  1  0  0  0
 40154  1  0  0  0
 41155  1  0  0  0
 44156  1  0  0  0
 45157  1  0  0  0
 46158  1  0  0  0
 46159  1  0  0  0
 46160  1  0  0  0
 47161  1  0  0  0
 48162  1  0  0  0
 51163  1  0  0  0
 51164  1  0  0  0
 53165  1  0  0  0
 54166  1  0  0  0
 55167  1  0  0  0
 56168  1  0  0  0
 57169  1  0  0  0
 60170  1  0  0  0
 60171  1  0  0  0
 60172  1  0  0  0
 61173  1  0  0  0
 62174  1  0  0  0
 62175  1  0  0  0
 63176  1  0  0  0
 63177  1  0  0  0
 64178  1  0  0  0
 64179  1  0  0  0
 65180  1  0  0  0
 65181  1  0  0  0
 66182  1  0  0  0
 67183  1  0  0  0
 70184  1  0  0  0
 71185  1  0  0  0
 74186  1  0  0  0
 74187  1  0  0  0
 75188  1  0  0  0
 76189  1  0  0  0
 77190  1  0  0  0
 80191  1  0  0  0
 81192  1  0  0  0
 81193  1  0  0  0
 82194  1  0  0  0
 82195  1  0  0  0
 82196  1  0  0  0
 83197  1  0  0  0
 83198  1  0  0  0
 83199  1  0  0  0
 84200  1  0  0  0
 85201  1  0  0  0
 88202  1  0  0  0
 88203  1  0  0  0
 89204  1  0  0  0
 89205  1  0  0  0
 91206  1  0  0  0
 91207  1  0  0  0
 91208  1  0  0  0
 92209  1  0  0  0
 93210  1  0  0  0
 96211  1  0  0  0
 96212  1  0  0  0
 97213  1  0  0  0
 97214  1  0  0  0
 98215  1  0  0  0
 98216  1  0  0  0
 99217  1  0  0  0
 99218  1  0  0  0
100219  1  0  0  0
100220  1  0  0  0
100221  1  0  0  0
101222  1  0  0  0
102223  1  0  0  0
105224  1  0  0  0
105225  1  0  0  0
106226  1  0  0  0
106227  1  0  0  0
107228  1  0  0  0
107229  1  0  0  0
108230  1  0  0  0
108231  1  0  0  0
109232  1  0  0  0
109233  1  0  0  0
109234  1  0  0  0
110235  1  0  0  0
111236  1  0  0  0
113237  1  0  0  0
114238  1  0  0  0
114239  1  0  0  0
115240  1  0  0  0
M  END
$$$$
