### 
### Created by X-TOOL on Mon Sep 10 21:13:12 2018
### 

@<TRIPOS>MOLECULE
2lsp_ligand
  239   240     1     0     0
SMALL
GAST_HUCK


@<TRIPOS>ATOM
      1 N          17.9550  -16.7270    4.7120 N.4       1 ARG         0.2379
      2 CA         19.3240  -16.3480    5.1320 C.3       1 ARG         0.0651
      3 C          19.2590  -15.1640    6.0870 C.2       1 ARG         0.2268
      4 O          18.1740  -14.7410    6.4900 O.2       1 ARG        -0.3907
      5 CB         20.1830  -15.9670    3.9220 C.3       1 ARG         0.0110
      6 CG         20.2150  -17.0080    2.8170 C.3       1 ARG        -0.0125
      7 CD         21.0930  -16.5470    1.6640 C.3       1 ARG         0.0629
      8 NE         21.0160  -17.4400    0.5080 N.pl3     1 ARG        -0.2723
      9 CZ         21.8240  -17.3580   -0.5500 C.cat     1 ARG         0.2882
     10 NH1        22.7680  -16.4260   -0.6000 N.pl3     1 ARG        -0.2849
     11 NH2        21.6780  -18.1990   -1.5650 N.pl3     1 ARG        -0.2849
     12 N          20.4170  -14.6360    6.4550 N.am      1 THR        -0.2586
     13 CA         20.4750  -13.4190    7.2400 C.3       1 THR         0.1566
     14 C          20.1610  -12.2210    6.3540 C.2       1 THR         0.2066
     15 O          20.6130  -12.1510    5.2080 O.2       1 THR        -0.3943
     16 CB         21.8560  -13.2420    7.8950 C.3       1 THR         0.0924
     17 OG1        22.8890  -13.4610    6.9240 O.3       1 THR        -0.3874
     18 CG2        22.0320  -14.2020    9.0600 C.3       1 THR        -0.0346
     19 N          19.3790  -11.2900    6.8740 N.am      1 TYR        -0.2621
     20 CA         18.9270  -10.1520    6.0880 C.3       1 TYR         0.1390
     21 C          20.0150   -9.0920    5.9920 C.2       1 TYR         0.2057
     22 O          19.9920   -8.0770    6.6910 O.2       1 TYR        -0.3942
     23 CB         17.6400   -9.5800    6.6810 C.3       1 TYR         0.0163
     24 CG         16.5580  -10.6270    6.8130 C.ar      1 TYR        -0.0493
     25 CD1        16.0640  -11.2800    5.6930 C.ar      1 TYR        -0.0685
     26 CD2        16.0460  -10.9780    8.0550 C.ar      1 TYR        -0.0685
     27 CE1        15.0940  -12.2520    5.8050 C.ar      1 TYR        -0.0398
     28 CE2        15.0690  -11.9480    8.1730 C.ar      1 TYR        -0.0398
     29 CZ         14.5980  -12.5820    7.0440 C.ar      1 TYR         0.0805
     30 OH         13.6310  -13.5560    7.1530 O.3       1 TYR        -0.3376
     31 N          20.9750   -9.3620    5.1250 N.am      1 GLU        -0.2635
     32 CA         22.0860   -8.4610    4.8740 C.3       1 GLU         0.1325
     33 C          21.6300   -7.2930    4.0080 C.2       1 GLU         0.2041
     34 O          22.1780   -6.1900    4.0810 O.2       1 GLU        -0.3944
     35 CB         23.2060   -9.2370    4.1730 C.3       1 GLU        -0.0008
     36 CG         24.4260   -8.4050    3.8140 C.3       1 GLU         0.0044
     37 CD         25.4520   -9.2060    3.0410 C.2       1 GLU         0.0350
     38 OE1        25.2790   -9.3750    1.8140 O.co2     1 GLU        -0.5690
     39 OE2        26.4270   -9.6850    3.6560 O.co2     1 GLU        -0.5690
     40 N          20.6070   -7.5410    3.2070 N.am      1 THR        -0.2613
     41 CA         20.1360   -6.5660    2.2430 C.3       1 THR         0.1565
     42 C          18.9520   -5.7630    2.7770 C.2       1 THR         0.2066
     43 O          18.2770   -6.1710    3.7270 O.2       1 THR        -0.3943
     44 CB         19.6970   -7.2630    0.9410 C.3       1 THR         0.0924
     45 OG1        20.6170   -8.3120    0.6140 O.3       1 THR        -0.3874
     46 CG2        19.6230   -6.2670   -0.2090 C.3       1 THR        -0.0346
     47 N          18.7290   -4.6140    2.1610 N.am      1 PHE        -0.2619
     48 CA         17.5160   -3.8420    2.3380 C.3       1 PHE         0.1404
     49 C          17.1100   -3.3050    0.9710 C.2       1 PHE         0.2060
     50 O          17.8930   -3.4110    0.0280 O.2       1 PHE        -0.3942
     51 CB         17.7320   -2.7050    3.3480 C.3       1 PHE         0.0214
     52 CG         18.8080   -1.7110    2.9830 C.ar      1 PHE        -0.0386
     53 CD1        18.5430   -0.6700    2.1090 C.ar      1 PHE        -0.0601
     54 CD2        20.0700   -1.7930    3.5480 C.ar      1 PHE        -0.0601
     55 CE1        19.5060    0.2660    1.8030 C.ar      1 PHE        -0.0686
     56 CE2        21.0450   -0.8620    3.2400 C.ar      1 PHE        -0.0686
     57 CZ         20.7590    0.1710    2.3660 C.ar      1 PHE        -0.0687
     58 OH         10.1250   -1.0970    1.3520 O.2       1 ALY        -0.3974
     59 CH          9.8620   -1.0550    0.1500 C.2       1 ALY         0.1729
     60 CH3         9.2500    0.2120   -0.4400 C.3       1 ALY         0.0256
     61 NZ         10.1030   -2.0820   -0.6370 N.am      1 ALY        -0.2872
     62 CE         10.6870   -3.3280   -0.1370 C.3       1 ALY         0.0309
     63 CD         12.1030   -3.1230    0.3930 C.3       1 ALY        -0.0325
     64 CG         13.0910   -2.9220   -0.7360 C.3       1 ALY        -0.0470
     65 CB         14.0340   -1.7480   -0.4890 C.3       1 ALY        -0.0123
     66 CA         15.5230   -2.1390   -0.4330 C.3       1 ALY         0.1310
     67 N          15.8990   -2.7650    0.8310 N.am      1 ALY        -0.2636
     68 C          16.3920   -0.9010   -0.6510 C.2       1 ALY         0.2040
     69 O          16.0940    0.1670   -0.1150 O.2       1 ALY        -0.3944
     70 N          17.4920   -1.0740   -1.3830 N.am      1 SER        -0.2616
     71 CA         18.4510    0.0000   -1.6250 C.3       1 SER         0.1539
     72 C          17.7840    1.2110   -2.2660 C.2       1 SER         0.2062
     73 O          17.1500    1.1060   -3.3190 O.2       1 SER        -0.3943
     74 CB         19.5860   -0.5110   -2.5080 C.3       1 SER         0.0843
     75 OG         20.2030   -1.6480   -1.9260 O.3       1 SER        -0.3903
     76 N          17.9400    2.3620   -1.6300 N.am      1 ILE        -0.2634
     77 CA         17.2350    3.5560   -2.0430 C.3       1 ILE         0.1335
     78 C          18.1910    4.6420   -2.5140 C.2       1 ILE         0.2042
     79 O          18.9540    5.1950   -1.7210 O.2       1 ILE        -0.3944
     80 CB         16.3730    4.0620   -0.8800 C.3       1 ILE        -0.0037
     81 CG1        15.1680    3.1390   -0.6950 C.3       1 ILE        -0.0491
     82 CG2        15.9290    5.5050   -1.0870 C.3       1 ILE        -0.0582
     83 CD1        14.0270    3.4350   -1.6330 C.3       1 ILE        -0.0648
     84 N          18.1400    4.9180   -3.8180 N.am      1 MET        -0.2637
     85 CA         18.9340    5.9760   -4.4390 C.3       1 MET         0.1317
     86 C          20.4290    5.7070   -4.3030 C.2       1 MET         0.2039
     87 O          21.0100    5.8780   -3.2310 O.2       1 MET        -0.3944
     88 CB         18.5840    7.3450   -3.8410 C.3       1 MET        -0.0034
     89 CG         19.3670    8.4960   -4.4550 C.3       1 MET        -0.0024
     90 SD         18.9030   10.0990   -3.7710 S.3       1 MET        -0.1639
     91 CE         19.9710   11.1850   -4.7170 C.3       1 MET        -0.0181
     92 N          21.0420    5.2800   -5.3980 N.am      1 LYS        -0.2637
     93 CA         22.4800    5.0640   -5.4380 C.3       1 LYS         0.1310
     94 C          23.2110    6.3900   -5.2450 C.2       1 LYS         0.2039
     95 O          23.5120    7.0980   -6.2100 O.2       1 LYS        -0.3944
     96 CB         22.8780    4.4260   -6.7720 C.3       1 LYS        -0.0122
     97 CG         24.3660    4.1410   -6.9040 C.3       1 LYS        -0.0440
     98 CD         24.7010    3.6390   -8.2970 C.3       1 LYS        -0.0124
     99 CE         26.1990    3.4900   -8.5000 C.3       1 LYS        -0.0354
    100 NZ         26.5260    3.0970   -9.8960 N.4       1 LYS         0.2185
    101 N          23.4630    6.7300   -3.9900 N.am      1 LYS        -0.2637
    102 CA         24.1280    7.9750   -3.6510 C.3       1 LYS         0.1309
    103 C          25.6360    7.7720   -3.6410 C.2       1 LYS         0.2034
    104 O          26.4060    8.7190   -3.7920 O.2       1 LYS        -0.3944
    105 CB         23.6530    8.4690   -2.2810 C.3       1 LYS        -0.0122
    106 CG         24.0450    9.9040   -1.9700 C.3       1 LYS        -0.0440
    107 CD         23.2870   10.8890   -2.8440 C.3       1 LYS        -0.0124
    108 CE         23.6450   12.3270   -2.5090 C.3       1 LYS        -0.0354
    109 NZ         25.0580   12.6440   -2.8440 N.4       1 LYS         0.2185
    110 N          26.0460    6.5270   -3.4630 N.am      1 SER        -0.2672
    111 CA         27.4540    6.1860   -3.4490 C.3       1 SER         0.1173
    112 C          27.9760    6.0610   -4.8780 C.2       1 SER         0.0623
    113 O          28.4420    7.0780   -5.4340 O.co2     1 SER        -0.5665
    114 CB         27.6620    4.8810   -2.6800 C.3       1 SER         0.0789
    115 OG         27.0880    4.9600   -1.3810 O.3       1 SER        -0.3910
    116 OXT        27.9000    4.9540   -5.4470 O.co2     1 SER        -0.5665
    117 H1         18.0024  -17.5109    4.0801 H         1 ARG         0.2015
    118 H2         17.5180  -15.9466    4.2471 H         1 ARG         0.2015
    119 H3         17.4131  -16.9815    5.5229 H         1 ARG         0.2015
    120 H4         19.7880  -17.2030    5.6455 H         1 ARG         0.1098
    121 H5         21.2137  -15.8046    4.2703 H         1 ARG         0.0347
    122 H6         19.7866  -15.0314    3.5006 H         1 ARG         0.0347
    123 H7         19.1921  -17.1728    2.4474 H         1 ARG         0.0302
    124 H8         20.6153  -17.9497    3.2206 H         1 ARG         0.0302
    125 H9         22.1365  -16.5070    2.0096 H         1 ARG         0.0689
    126 H10        20.7702  -15.5418    1.3551 H         1 ARG         0.0689
    127 H11        20.2951  -18.1757    0.5112 H         1 ARG         0.2642
    128 H12        23.3898  -16.3662   -1.4189 H         1 ARG         0.2615
    129 H13        22.8786  -15.7626    0.1801 H         1 ARG         0.2615
    130 H14        20.9473  -18.9242   -1.5319 H         1 ARG         0.2615
    131 H15        22.2953  -18.1270   -2.3864 H         1 ARG         0.2615
    132 H16        21.2683  -15.0863    6.1857 H         1 THR         0.1885
    133 H17        19.7175  -13.4796    8.0353 H         1 THR         0.0826
    134 H18        21.9361  -12.2121    8.2730 H         1 THR         0.0639
    135 H19        22.7948  -12.8343    6.2162 H         1 THR         0.2101
    136 H20        23.0252  -14.0550    9.5094 H         1 THR         0.0257
    137 H21        21.9426  -15.2372    8.6989 H         1 THR         0.0257
    138 H22        21.2557  -14.0086    9.8150 H         1 THR         0.0257
    139 H23        19.0919  -11.3698    7.8286 H         1 TYR         0.1885
    140 H24        18.7064  -10.5041    5.0695 H         1 TYR         0.0821
    141 H25        17.2756   -8.7746    6.0264 H         1 TYR         0.0453
    142 H26        17.8605   -9.1708    7.6779 H         1 TYR         0.0453
    143 H27        16.4478  -11.0210    4.7129 H         1 TYR         0.0530
    144 H28        16.4182  -10.4838    8.9451 H         1 TYR         0.0530
    145 H29        14.7232  -12.7549    4.9192 H         1 TYR         0.0525
    146 H30        14.6752  -12.2088    9.1487 H         1 TYR         0.0525
    147 H31        13.4196  -13.8889    6.2887 H         1 TYR         0.2458
    148 H32        20.9347  -10.2241    4.6198 H         1 GLU         0.1883
    149 H33        22.4603   -8.0711    5.8320 H         1 GLU         0.0801
    150 H34        22.7979   -9.6648    3.2454 H         1 GLU         0.0330
    151 H35        23.5296  -10.0495    4.8402 H         1 GLU         0.0330
    152 H36        24.8890   -8.0355    4.7409 H         1 GLU         0.0433
    153 H37        24.1051   -7.5514    3.1988 H         1 GLU         0.0433
    154 H38        20.1455   -8.4260    3.2681 H         1 THR         0.1884
    155 H39        20.9613   -5.8740    2.0194 H         1 THR         0.0826
    156 H40        18.6990   -7.6995    1.0945 H         1 THR         0.0639
    157 H41        20.6343   -8.9479    1.3196 H         1 THR         0.2101
    158 H42        19.3082   -6.7877   -1.1253 H         1 THR         0.0257
    159 H43        20.6131   -5.8143   -0.3663 H         1 THR         0.0257
    160 H44        18.8943   -5.4797    0.0341 H         1 THR         0.0257
    161 H45        19.4317   -4.2611    1.5432 H         1 PHE         0.1885
    162 H46        16.7200   -4.4992    2.7182 H         1 PHE         0.0823
    163 H47        18.0004   -3.1561    4.3147 H         1 PHE         0.0474
    164 H48        16.7839   -2.1567    3.4498 H         1 PHE         0.0474
    165 H49        17.5606   -0.5904    1.6578 H         1 PHE         0.0557
    166 H50        20.2960   -2.5964    4.2397 H         1 PHE         0.0557
    167 H51        19.2778    1.0762    1.1200 H         1 PHE         0.0599
    168 H52        22.0313   -0.9417    3.6826 H         1 PHE         0.0599
    169 H53        21.5198    0.9045    2.1246 H         1 PHE         0.0559
    170 H54         9.0833    0.0710   -1.5181 H         1 ALY         0.0467
    171 H55         9.9353    1.0579   -0.2825 H         1 ALY         0.0467
    172 H56         8.2902    0.4205    0.0552 H         1 ALY         0.0467
    173 H57         9.8798   -2.0088   -1.6090 H         1 ALY         0.1850
    174 H58        10.7174   -4.0603   -0.9572 H         1 ALY         0.0520
    175 H59        10.0558   -3.7147    0.6766 H         1 ALY         0.0520
    176 H60        12.3993   -4.0084    0.9745 H         1 ALY         0.0285
    177 H61        12.1170   -2.2358    1.0431 H         1 ALY         0.0285
    178 H62        12.5316   -2.7351   -1.6645 H         1 ALY         0.0268
    179 H63        13.6902   -3.8377   -0.8469 H         1 ALY         0.0268
    180 H64        13.7627   -1.2827    0.4701 H         1 ALY         0.0312
    181 H65        13.8985   -1.0191   -1.3016 H         1 ALY         0.0312
    182 H66        15.7176   -2.8567   -1.2435 H         1 ALY         0.0800
    183 H67        15.2493   -2.7888    1.5908 H         1 ALY         0.1883
    184 H68        17.6674   -1.9741   -1.7819 H         1 SER         0.1884
    185 H69        18.8728    0.3116   -0.6581 H         1 SER         0.0823
    186 H70        20.3360    0.2846   -2.6280 H         1 SER         0.0606
    187 H71        19.1812   -0.7850   -3.4934 H         1 SER         0.0606
    188 H72        19.5589   -2.3387   -1.8235 H         1 SER         0.2097
    189 H73        18.5594    2.4069   -0.8462 H         1 ILE         0.1883
    190 H74        16.5736    3.2953   -2.8824 H         1 ILE         0.0803
    191 H75        16.9800    4.0248    0.0366 H         1 ILE         0.0345
    192 H76        14.8047    3.2455    0.3378 H         1 ILE         0.0267
    193 H77        15.4957    2.1025   -0.8635 H         1 ILE         0.0267
    194 H78        16.8136    6.1457   -1.2171 H         1 ILE         0.0235
    195 H79        15.3578    5.8424   -0.2096 H         1 ILE         0.0235
    196 H80        15.2952    5.5686   -1.9838 H         1 ILE         0.0235
    197 H81        13.2022    2.7333   -1.4399 H         1 ILE         0.0230
    198 H82        14.3683    3.3224   -2.6726 H         1 ILE         0.0230
    199 H83        13.6773    4.4653   -1.4714 H         1 ILE         0.0230
    200 H84        17.5307    4.3763   -4.3970 H         1 MET         0.1883
    201 H85        18.6885    5.9977   -5.5110 H         1 MET         0.0800
    202 H86        18.7952    7.3174   -2.7618 H         1 MET         0.0320
    203 H87        17.5114    7.5301   -4.0002 H         1 MET         0.0320
    204 H88        19.1809    8.5091   -5.5391 H         1 MET         0.0378
    205 H89        20.4385    8.3312   -4.2689 H         1 MET         0.0378
    206 H90        19.8016   12.2268   -4.4072 H         1 MET         0.0340
    207 H91        19.7448   11.0797   -5.7883 H         1 MET         0.0340
    208 H92        21.0218   10.9149   -4.5358 H         1 MET         0.0340
    209 H93        20.5007    5.1013   -6.2196 H         1 LYS         0.1883
    210 H94        22.7603    4.3822   -4.6216 H         1 LYS         0.0800
    211 H95        22.5837    5.1085   -7.5829 H         1 LYS         0.0312
    212 H96        22.3337    3.4759   -6.8767 H         1 LYS         0.0312
    213 H97        24.6528    3.3762   -6.1672 H         1 LYS         0.0269
    214 H98        24.9283    5.0663   -6.7100 H         1 LYS         0.0269
    215 H99        24.3114    4.3544   -9.0362 H         1 LYS         0.0317
    216 H100       24.2227    2.6598   -8.4468 H         1 LYS         0.0317
    217 H101       26.5771    2.7177   -7.8140 H         1 LYS         0.0813
    218 H102       26.6868    4.4501   -8.2760 H         1 LYS         0.0813
    219 H103       27.5252    3.0074   -9.9945 H         1 LYS         0.1994
    220 H104       26.1876    3.8023  -10.5317 H         1 LYS         0.1994
    221 H105       26.0871    2.2148  -10.1083 H         1 LYS         0.1994
    222 H106       23.1871    6.1111   -3.2546 H         1 LYS         0.1883
    223 H107       23.8756    8.7315   -4.4087 H         1 LYS         0.0800
    224 H108       24.0873    7.8170   -1.5088 H         1 LYS         0.0312
    225 H109       22.5559    8.3956   -2.2484 H         1 LYS         0.0312
    226 H110       25.1239   10.0263   -2.1462 H         1 LYS         0.0269
    227 H111       23.8196   10.1156   -0.9144 H         1 LYS         0.0269
    228 H112       22.2074   10.7451   -2.6899 H         1 LYS         0.0317
    229 H113       23.5360   10.6957   -3.8979 H         1 LYS         0.0317
    230 H114       23.4909   12.4892   -1.4320 H         1 LYS         0.0813
    231 H115       22.9861   12.9986   -3.0790 H         1 LYS         0.0813
    232 H116       25.2523   13.6042   -2.6066 H         1 LYS         0.1994
    233 H117       25.2087   12.5048   -3.8309 H         1 LYS         0.1994
    234 H118       25.6712   12.0381   -2.3217 H         1 LYS         0.1994
    235 H119       25.3676    5.8036   -3.3350 H         1 SER         0.1876
    236 H120       28.0092    6.9878   -2.9403 H         1 SER         0.0749
    237 H121       28.7406    4.6865   -2.5858 H         1 SER         0.0599
    238 H122       27.1878    4.0572   -3.2337 H         1 SER         0.0599
    239 H123       27.2294    4.1397   -0.9231 H         1 SER         0.2096
@<TRIPOS>BOND
     1    2    1 1  
     2    3    2 1  
     3    2    5 1  
     4    3    4 2  
     5   12    3 am 
     6    5    6 1  
     7    6    7 1  
     8    7    8 1  
     9    8    9 ar 
    10    9   10 ar 
    11    9   11 ar 
    12   13   12 1  
    13   14   13 1  
    14   13   16 1  
    15   14   15 2  
    16   19   14 am 
    17   16   17 1  
    18   16   18 1  
    19   20   19 1  
    20   21   20 1  
    21   20   23 1  
    22   21   22 2  
    23   31   21 am 
    24   23   24 1  
    25   24   25 ar 
    26   24   26 ar 
    27   25   27 ar 
    28   26   28 ar 
    29   27   29 ar 
    30   28   29 ar 
    31   29   30 1  
    32   32   31 1  
    33   33   32 1  
    34   32   35 1  
    35   33   34 2  
    36   40   33 am 
    37   35   36 1  
    38   36   37 1  
    39   37   38 ar 
    40   37   39 ar 
    41   41   40 1  
    42   42   41 1  
    43   41   44 1  
    44   42   43 2  
    45   47   42 am 
    46   44   45 1  
    47   44   46 1  
    48   48   47 1  
    49   49   48 1  
    50   48   51 1  
    51   49   50 2  
    52   67   49 am 
    53   51   52 1  
    54   52   53 ar 
    55   52   54 ar 
    56   53   55 ar 
    57   54   56 ar 
    58   55   57 ar 
    59   56   57 ar 
    60   59   58 2  
    61   59   60 1  
    62   61   59 am 
    63   62   61 1  
    64   63   62 1  
    65   64   63 1  
    66   65   64 1  
    67   66   65 1  
    68   66   67 1  
    69   66   68 1  
    70   68   69 2  
    71   68   70 am 
    72   70   71 1  
    73   71   72 1  
    74   71   74 1  
    75   72   73 2  
    76   72   76 am 
    77   74   75 1  
    78   76   77 1  
    79   77   78 1  
    80   77   80 1  
    81   78   79 2  
    82   78   84 am 
    83   80   81 1  
    84   80   82 1  
    85   81   83 1  
    86   84   85 1  
    87   85   86 1  
    88   85   88 1  
    89   86   87 2  
    90   86   92 am 
    91   88   89 1  
    92   89   90 1  
    93   90   91 1  
    94   92   93 1  
    95   93   94 1  
    96   93   96 1  
    97   94   95 2  
    98   94  101 am 
    99   96   97 1  
   100   97   98 1  
   101   98   99 1  
   102   99  100 1  
   103  101  102 1  
   104  102  103 1  
   105  102  105 1  
   106  103  104 2  
   107  103  110 am 
   108  105  106 1  
   109  106  107 1  
   110  107  108 1  
   111  108  109 1  
   112  110  111 1  
   113  111  112 1  
   114  111  114 1  
   115  112  113 ar 
   116  112  116 ar 
   117  114  115 1  
   118    1  117 1  
   119    1  118 1  
   120    1  119 1  
   121    2  120 1  
   122    5  121 1  
   123    5  122 1  
   124    6  123 1  
   125    6  124 1  
   126    7  125 1  
   127    7  126 1  
   128    8  127 1  
   129   10  128 1  
   130   10  129 1  
   131   11  130 1  
   132   11  131 1  
   133   12  132 1  
   134   13  133 1  
   135   16  134 1  
   136   17  135 1  
   137   18  136 1  
   138   18  137 1  
   139   18  138 1  
   140   19  139 1  
   141   20  140 1  
   142   23  141 1  
   143   23  142 1  
   144   25  143 1  
   145   26  144 1  
   146   27  145 1  
   147   28  146 1  
   148   30  147 1  
   149   31  148 1  
   150   32  149 1  
   151   35  150 1  
   152   35  151 1  
   153   36  152 1  
   154   36  153 1  
   155   40  154 1  
   156   41  155 1  
   157   44  156 1  
   158   45  157 1  
   159   46  158 1  
   160   46  159 1  
   161   46  160 1  
   162   47  161 1  
   163   48  162 1  
   164   51  163 1  
   165   51  164 1  
   166   53  165 1  
   167   54  166 1  
   168   55  167 1  
   169   56  168 1  
   170   57  169 1  
   171   60  170 1  
   172   60  171 1  
   173   60  172 1  
   174   61  173 1  
   175   62  174 1  
   176   62  175 1  
   177   63  176 1  
   178   63  177 1  
   179   64  178 1  
   180   64  179 1  
   181   65  180 1  
   182   65  181 1  
   183   66  182 1  
   184   67  183 1  
   185   70  184 1  
   186   71  185 1  
   187   74  186 1  
   188   74  187 1  
   189   75  188 1  
   190   76  189 1  
   191   77  190 1  
   192   80  191 1  
   193   81  192 1  
   194   81  193 1  
   195   82  194 1  
   196   82  195 1  
   197   82  196 1  
   198   83  197 1  
   199   83  198 1  
   200   83  199 1  
   201   84  200 1  
   202   85  201 1  
   203   88  202 1  
   204   88  203 1  
   205   89  204 1  
   206   89  205 1  
   207   91  206 1  
   208   91  207 1  
   209   91  208 1  
   210   92  209 1  
   211   93  210 1  
   212   96  211 1  
   213   96  212 1  
   214   97  213 1  
   215   97  214 1  
   216   98  215 1  
   217   98  216 1  
   218   99  217 1  
   219   99  218 1  
   220  100  219 1  
   221  100  220 1  
   222  100  221 1  
   223  101  222 1  
   224  102  223 1  
   225  105  224 1  
   226  105  225 1  
   227  106  226 1  
   228  106  227 1  
   229  107  228 1  
   230  107  229 1  
   231  108  230 1  
   232  108  231 1  
   233  109  232 1  
   234  109  233 1  
   235  109  234 1  
   236  110  235 1  
   237  111  236 1  
   238  114  237 1  
   239  114  238 1  
   240  115  239 1  
@<TRIPOS>SUBSTRUCTURE
     1 ARG         1

