5kre_ligand
  -I-interpret- 

 29 30  0  0  0  0  0  0  0  0999 V2000
   22.0090   43.9720   26.5000 C   0  0  0  0  0
   22.4500   42.8040   27.3720 C   0  0  0  0  0
   21.9920   46.3340   26.0010 C   0  0  0  0  0
   21.3660   43.4420   29.5780 C   0  0  0  0  0
   22.6650   43.0900   28.8600 C   0  0  0  0  0
   21.1800   46.1150   24.9080 C   0  0  0  0  0
   20.7930   44.8320   24.5940 C   0  0  0  0  0
   21.2060   43.7640   25.3790 C   0  0  0  0  0
   22.4110   45.2700   26.7890 C   0  0  0  0  0
   20.3290   42.3540   29.4090 C   0  0  0  0  0
   20.1530   42.0040   27.9560 C   0  0  0  0  0
   21.4550   41.7170   27.3440 N   0  0  0  0  0
   21.7170   40.4770   26.8890 C   0  0  0  0  0
   20.8960   39.5940   26.8070 O   0  0  0  0  0
   23.4126   42.5513   26.9274 H   0  0  0  0  0
   22.3067   47.3480   26.2478 H   0  0  0  0  0
   20.9729   44.3641   29.1497 H   0  0  0  0  0
   21.5782   43.5555   30.6411 H   0  0  0  0  0
   23.3393   43.9421   28.9457 H   0  0  0  0  0
   23.0720   42.1901   29.3210 H   0  0  0  0  0
   20.8466   46.9532   24.2962 H   0  0  0  0  0
   20.1594   44.6537   23.7251 H   0  0  0  0  0
   20.8992   42.7516   25.1162 H   0  0  0  0  0
   23.0622   45.4553   27.6433 H   0  0  0  0  0
   19.3773   42.7116   29.8020 H   0  0  0  0  0
   20.6609   41.4658   29.9466 H   0  0  0  0  0
   19.6930   42.8461   27.4389 H   0  0  0  0  0
   19.5181   41.1217   27.8754 H   0  0  0  0  0
   22.7366   40.2551   26.5739 H   0  0  0  0  0
  1  2  1  0  0  0
  1  8  4  0  0  0
  9  1  4  0  0  0
  2  5  1  0  0  0
  2 12  1  0  0  0
  3  6  4  0  0  0
  3  9  4  0  0  0
  5  4  1  0  0  0
  4 10  1  0  0  0
  6  7  4  0  0  0
  7  8  4  0  0  0
 10 11  1  0  0  0
 11 12  1  0  0  0
 12 13  1  0  0  0
 13 14  2  0  0  0
  2 15  1  0  0  0
  3 16  1  0  0  0
  4 17  1  0  0  0
  4 18  1  0  0  0
  5 19  1  0  0  0
  5 20  1  0  0  0
  6 21  1  0  0  0
  7 22  1  0  0  0
  8 23  1  0  0  0
  9 24  1  0  0  0
 10 25  1  0  0  0
 10 26  1  0  0  0
 11 27  1  0  0  0
 11 28  1  0  0  0
 13 29  1  0  0  0
M  END
$$$$
