5vse_ligand
  -I-interpret- 

 63 66  0  0  0  0  0  0  0  0999 V2000
    7.2590   14.9250   28.0250 C   0  0  0  0  0
    5.9250   15.3260   28.0360 C   0  0  0  0  0
    5.6120   16.6480   27.6990 C   0  0  0  0  0
   12.3710   18.1230   28.0930 C   0  0  0  0  0
   11.0740   18.3450   26.0440 C   0  0  0  0  0
    6.6010   17.5080   27.3670 N   0  0  0  0  0
   12.4960   18.2420   26.5770 C   0  0  0  0  0
    8.2190   15.8200   27.6830 N   0  0  0  0  0
    8.5750   19.3810   26.6610 C   0  0  0  0  0
    7.8880   17.0980   27.3620 C   0  0  0  0  0
    8.2790   11.0090   29.1080 C   0  0  0  0  0
    2.9580   12.6220   29.3310 C   0  0  0  0  0
    1.3230   21.4460   25.9260 C   0  0  0  0  0
    7.5920   13.6110   28.3620 C   0  0  0  0  0
    4.9280   14.4100   28.3860 C   0  0  0  0  0
   10.8850   17.9340   28.3850 C   0  0  0  0  0
   10.2720   17.5400   27.0490 C   0  0  0  0  0
    3.0010   19.0230   28.2630 C   0  0  0  0  0
    3.4460   18.3710   25.9300 C   0  0  0  0  0
    2.5170   20.3700   27.7310 C   0  0  0  0  0
    2.9540   19.7410   25.4690 C   0  0  0  0  0
    6.5900   12.7000   28.7040 C   0  0  0  0  0
    5.2630   13.1010   28.7250 C   0  0  0  0  0
    4.0630   18.4730   27.3170 C   0  0  0  0  0
    8.9000   18.0070   27.0230 N   0  0  0  0  0
    4.3280   17.0880   27.6890 N   0  0  0  0  0
    1.9120   20.1840   26.4020 N   0  3  0  0  0
    6.8990   11.4060   29.0350 O   0  0  0  0  0
    4.2930   12.1840   29.0680 O   0  0  0  0  0
   12.7588   19.0122   28.5900 H   0  0  0  0  0
   12.9552   17.2838   28.4705 H   0  0  0  0  0
   10.9765   17.9667   25.0264 H   0  0  0  0  0
   10.7295   19.3755   25.9578 H   0  0  0  0  0
   13.0136   17.3804   26.1553 H   0  0  0  0  0
   13.0860   19.1148   26.2974 H   0  0  0  0  0
    7.9255   19.3808   25.7857 H   0  0  0  0  0
    8.0640   19.8637   27.4941 H   0  0  0  0  0
    9.4933   19.9224   26.4335 H   0  0  0  0  0
    8.7513   11.1609   28.1374 H   0  0  0  0  0
    8.7895   11.6106   29.8600 H   0  0  0  0  0
    8.3387    9.9556   29.3817 H   0  0  0  0  0
    2.9650   13.3242   30.1646 H   0  0  0  0  0
    2.5566   13.1127   28.4443 H   0  0  0  0  0
    2.3380   11.7619   29.5839 H   0  0  0  0  0
    0.5530   21.7725   26.6250 H   0  0  0  0  0
    2.1012   22.2063   25.8595 H   0  0  0  0  0
    0.8802   21.2905   24.9422 H   0  0  0  0  0
    8.6355   13.2960   28.3581 H   0  0  0  0  0
    3.8836   14.7218   28.3936 H   0  0  0  0  0
   10.4324   18.8405   28.7870 H   0  0  0  0  0
   10.7153   17.1748   29.1485 H   0  0  0  0  0
   10.2865   16.4669   26.8584 H   0  0  0  0  0
    2.1639   18.3274   28.3227 H   0  0  0  0  0
    3.4244   19.1502   29.2593 H   0  0  0  0  0
    4.1993   18.0087   25.2304 H   0  0  0  0  0
    2.6019   17.6822   25.9650 H   0  0  0  0  0
    3.3616   21.0546   27.6531 H   0  0  0  0  0
    1.7749   20.7847   28.4132 H   0  0  0  0  0
    2.5524   19.6770   24.4577 H   0  0  0  0  0
    3.7785   20.4539   25.4581 H   0  0  0  0  0
    4.9501   19.1054   27.3519 H   0  0  0  0  0
    3.5624   16.4614   27.9371 H   0  0  0  0  0
    1.1721   19.4843   26.4600 H   0  0  0  0  0
  2  1  4  0  0  0
  1  8  4  0  0  0
  1 14  4  0  0  0
  3  2  4  0  0  0
  2 15  4  0  0  0
  3  6  4  0  0  0
 26  3  1  0  0  0
  4  7  1  0  0  0
 16  4  1  0  0  0
  5  7  1  0  0  0
 17  5  1  0  0  0
  6 10  4  0  0  0
 10  8  4  0  0  0
 25  9  1  0  0  0
 10 25  1  0  0  0
 28 11  1  0  0  0
 29 12  1  0  0  0
 27 13  1  0  0  0
 14 22  4  0  0  0
 15 23  4  0  0  0
 17 16  1  0  0  0
 25 17  1  0  0  0
 18 20  1  0  0  0
 24 18  1  0  0  0
 19 21  1  0  0  0
 24 19  1  0  0  0
 20 27  1  0  0  0
 21 27  1  0  0  0
 23 22  4  0  0  0
 22 28  1  0  0  0
 23 29  1  0  0  0
 24 26  1  0  0  0
  4 30  1  0  0  0
  4 31  1  0  0  0
  5 32  1  0  0  0
  5 33  1  0  0  0
  7 34  1  0  0  0
  7 35  1  0  0  0
  9 36  1  0  0  0
  9 37  1  0  0  0
  9 38  1  0  0  0
 11 39  1  0  0  0
 11 40  1  0  0  0
 11 41  1  0  0  0
 12 42  1  0  0  0
 12 43  1  0  0  0
 12 44  1  0  0  0
 13 45  1  0  0  0
 13 46  1  0  0  0
 13 47  1  0  0  0
 14 48  1  0  0  0
 15 49  1  0  0  0
 16 50  1  0  0  0
 16 51  1  0  0  0
 17 52  1  0  0  0
 18 53  1  0  0  0
 18 54  1  0  0  0
 19 55  1  0  0  0
 19 56  1  0  0  0
 20 57  1  0  0  0
 20 58  1  0  0  0
 21 59  1  0  0  0
 21 60  1  0  0  0
 24 61  1  0  0  0
 26 62  1  0  0  0
 27 63  1  0  0  0
M  END
$$$$
