6mhc_ligand
  -I-interpret- 

 28 29  0  0  0  0  0  0  0  0999 V2000
   24.4350    6.6500   11.2010 N   0  0  0  0  0
   26.5800    1.3410    9.5700 C   0  0  0  0  0
   22.2370   10.2570   10.7850 C   0  0  0  0  0
   23.6220    9.7490   13.1250 C   0  0  0  0  0
   24.9000    4.4210   10.7320 N   0  0  0  0  0
   25.9560    3.5380   10.5850 C   0  0  0  0  0
   25.9750    2.7010    9.3290 C   0  0  0  0  0
   26.8160    3.4390   11.4420 O   0  0  0  0  0
   24.9280    5.5040   11.5790 C   0  0  0  0  0
   25.3480    5.3670   13.2550 S   0  0  0  0  0
   24.7480    6.9630   13.4690 C   0  0  0  0  0
   24.2970    7.4900   12.2990 C   0  0  0  0  0
   23.6110    8.7830   12.1160 C   0  0  0  0  0
   22.9350   10.9420   12.9630 C   0  0  0  0  0
   22.2530   11.2010   11.7920 C   0  0  0  0  0
   22.9060    9.0540   10.9410 C   0  0  0  0  0
   27.6059    1.4578    9.9191 H   0  0  0  0  0
   25.9961    0.8135   10.3242 H   0  0  0  0  0
   26.5738    0.7721    8.6403 H   0  0  0  0  0
   21.6947   10.4594    9.8614 H   0  0  0  0  0
   24.1746    9.5634   14.0460 H   0  0  0  0  0
   24.0559    4.2597   10.1826 H   0  0  0  0  0
   24.9470    2.5636    8.9938 H   0  0  0  0  0
   26.5794    3.2171    8.5830 H   0  0  0  0  0
   24.7310    7.4880   14.4241 H   0  0  0  0  0
   22.9336   11.6797   13.7654 H   0  0  0  0  0
   21.7286   12.1478   11.6625 H   0  0  0  0  0
   22.8821    8.3138   10.1413 H   0  0  0  0  0
  1  9  4  0  0  0
 12  1  4  0  0  0
  7  2  1  0  0  0
  3 15  4  0  0  0
 16  3  4  0  0  0
 13  4  4  0  0  0
  4 14  4  0  0  0
  5  6  1  0  0  0
  9  5  1  0  0  0
  6  7  1  0  0  0
  6  8  2  0  0  0
 10  9  4  0  0  0
 11 10  4  0  0  0
 12 11  4  0  0  0
 13 12  1  0  0  0
 13 16  4  0  0  0
 14 15  4  0  0  0
  2 17  1  0  0  0
  2 18  1  0  0  0
  2 19  1  0  0  0
  3 20  1  0  0  0
  4 21  1  0  0  0
  5 22  1  0  0  0
  7 23  1  0  0  0
  7 24  1  0  0  0
 11 25  1  0  0  0
 14 26  1  0  0  0
 15 27  1  0  0  0
 16 28  1  0  0  0
M  END
$$$$
