5t19_ligand
  -I-interpret- 

 40 42  0  0  0  0  0  0  0  0999 V2000
   -1.3990   67.2070    0.4080 C   0  0  0  0  0
   -1.3370   61.4490    2.5880 C   0  0  0  0  0
   -0.0040   59.4320    1.8120 C   0  0  0  0  0
   -0.3100   62.9470    0.4380 C   0  0  0  0  0
   -3.6300   59.2750    4.6870 C   0  0  0  0  0
   -3.7310   69.5760    1.8840 C   0  0  0  0  0
   -3.1890   68.8470    0.7850 N   0  0  0  0  0
   -2.6560   67.5310    0.9170 C   0  0  0  0  0
   -3.4120   66.5470    1.5340 C   0  0  0  0  0
   -2.9050   65.2660    1.6610 C   0  0  0  0  0
   -1.6460   64.9490    1.1770 C   0  0  0  0  0
   -0.8870   65.9160    0.5350 C   0  0  0  0  0
   -1.1890   63.5230    1.3410 C   0  0  0  0  0
   -1.7060   62.7750    2.3960 C   0  0  0  0  0
   -0.4480   60.8720    1.6760 C   0  0  0  0  0
    0.0620   61.6200    0.6160 C   0  0  0  0  0
   -1.9170   60.7370    3.6920 N   0  0  0  0  0
   -3.4160   60.0390    3.5910 C   0  0  0  0  0
   -4.5850   58.5710    4.8810 O   0  0  0  0  0
   -2.4700   59.4560    5.6560 N   0  0  0  0  0
   -1.3990   60.5410    4.9620 S   0  0  0  0  0
   -0.0450   60.0220    4.9430 O   0  0  0  0  0
   -1.4620   61.7350    5.7580 O   0  0  0  0  0
   -0.8089   67.9726   -0.0957 H   0  0  0  0  0
    0.4975   59.2967    2.7703 H   0  0  0  0  0
   -0.8747   58.7783    1.7607 H   0  0  0  0  0
    0.6839   59.1873    1.0027 H   0  0  0  0  0
    0.0832   63.5252   -0.3982 H   0  0  0  0  0
   -4.5703   69.0234    2.3064 H   0  0  0  0  0
   -2.9619   69.7088    2.6449 H   0  0  0  0  0
   -4.0737   70.5511    1.5379 H   0  0  0  0  0
   -3.1822   69.2859   -0.1357 H   0  0  0  0  0
   -4.4045   66.7819    1.9186 H   0  0  0  0  0
   -3.5037   64.4963    2.1481 H   0  0  0  0  0
    0.0967   65.6703    0.1350 H   0  0  0  0  0
   -2.4133   63.2383    3.0839 H   0  0  0  0  0
    0.7609   61.1585   -0.0816 H   0  0  0  0  0
   -4.1772   60.8172    3.5352 H   0  0  0  0  0
   -3.4687   59.4170    2.6974 H   0  0  0  0  0
   -2.3642   59.0000    6.5622 H   0  0  0  0  0
  1  8  4  0  0  0
 12  1  4  0  0  0
  2 14  4  0  0  0
  2 15  4  0  0  0
 17  2  1  0  0  0
 15  3  1  0  0  0
 13  4  4  0  0  0
 16  4  4  0  0  0
 18  5  1  0  0  0
  5 19  2  0  0  0
  5 20  1  0  0  0
  7  6  1  0  0  0
  8  7  1  0  0  0
  9  8  4  0  0  0
 10  9  4  0  0  0
 11 10  4  0  0  0
 11 12  4  0  0  0
 13 11  1  0  0  0
 14 13  4  0  0  0
 15 16  4  0  0  0
 17 18  1  0  0  0
 17 21  1  0  0  0
 20 21  1  0  0  0
 21 22  2  0  0  0
 21 23  2  0  0  0
  1 24  1  0  0  0
  3 25  1  0  0  0
  3 26  1  0  0  0
  3 27  1  0  0  0
  4 28  1  0  0  0
  6 29  1  0  0  0
  6 30  1  0  0  0
  6 31  1  0  0  0
  7 32  1  0  0  0
  9 33  1  0  0  0
 10 34  1  0  0  0
 12 35  1  0  0  0
 14 36  1  0  0  0
 16 37  1  0  0  0
 18 38  1  0  0  0
 18 39  1  0  0  0
 20 40  1  0  0  0
M  END
$$$$
