4pm0_ligand
  -I-interpret- 

 40 42  0  0  0  0  0  0  0  0999 V2000
  -44.5470   27.1740    0.4480 C   0  0  0  0  0
  -44.9700   24.6020    1.2970 C   0  0  0  0  0
  -43.7860   24.8990    0.5620 N   0  0  0  0  0
  -45.9510   25.5610    1.5850 N   0  0  0  0  0
  -45.7260   26.8630    1.1210 C   0  0  0  0  0
  -43.5590   26.1870    0.1720 C   0  0  0  0  0
  -44.5550   28.8640   -0.0220 S   0  0  0  0  0
  -46.5570   27.9450    1.3190 C   0  0  0  0  0
  -46.0460   29.1170    0.7520 C   0  0  0  0  0
  -45.1730   23.2480    1.7230 N   0  0  0  0  0
  -47.8600   27.8540    2.0800 C   0  0  0  0  0
  -48.9550   27.8320    2.6950 C   0  0  0  0  0
  -42.4160   26.4410   -0.5120 O   0  0  0  0  0
  -42.8060   23.8300    0.3100 C   0  0  0  0  0
  -46.4690   22.9270    2.3500 C   0  0  0  0  0
  -47.4530   22.4790    1.3130 C   0  0  0  0  0
  -46.3400   21.7800    3.3090 C   0  0  0  0  0
  -41.9320   23.6900    1.5210 C   0  0  0  0  0
  -47.7020   21.1330    3.2770 C   0  0  0  0  0
  -48.4790   21.7810    2.1800 C   0  0  0  0  0
  -44.7606   25.6381    1.5631 H   0  0  0  0  0
  -46.7921   25.3209    2.1097 H   0  0  0  0  0
  -43.2870   27.1696    0.5576 H   0  0  0  0  0
  -46.5477   30.0834    0.8012 H   0  0  0  0  0
  -44.4678   23.0738    2.4390 H   0  0  0  0  0
  -42.3741   27.3757   -0.7271 H   0  0  0  0  0
  -42.1988   24.0796   -0.5601 H   0  0  0  0  0
  -43.3226   22.8905    0.1135 H   0  0  0  0  0
  -46.7981   23.8315    2.8614 H   0  0  0  0  0
  -47.0225   21.8449    0.5380 H   0  0  0  0  0
  -47.8607   23.2897    0.7092 H   0  0  0  0  0
  -46.0571   22.1047    4.3103 H   0  0  0  0  0
  -45.5448   21.0897    3.0274 H   0  0  0  0  0
  -41.4161   24.6322    1.7061 H   0  0  0  0  0
  -42.5472   23.4355    2.3840 H   0  0  0  0  0
  -41.1998   22.9009    1.3498 H   0  0  0  0  0
  -48.2093   21.2637    4.2329 H   0  0  0  0  0
  -47.6115   20.0614    3.0993 H   0  0  0  0  0
  -49.0508   21.0487    1.6100 H   0  0  0  0  0
  -49.2135   22.4840    2.5730 H   0  0  0  0  0
  1  5  4  0  0  0
  6  1  1  0  0  0
  1  7  4  0  0  0
  3  2  1  0  0  0
  2  4  1  0  0  0
  2 10  1  0  0  0
  3  6  1  0  0  0
  3 14  1  0  0  0
  4  5  1  0  0  0
  5  8  4  0  0  0
  6 13  1  0  0  0
  7  9  4  0  0  0
  8  9  4  0  0  0
  8 11  1  0  0  0
 10 15  1  0  0  0
 11 12  3  0  0  0
 14 18  1  0  0  0
 15 16  1  0  0  0
 15 17  1  0  0  0
 16 20  1  0  0  0
 17 19  1  0  0  0
 19 20  1  0  0  0
  2 21  1  0  0  0
  4 22  1  0  0  0
  6 23  1  0  0  0
  9 24  1  0  0  0
 10 25  1  0  0  0
 13 26  1  0  0  0
 14 27  1  0  0  0
 14 28  1  0  0  0
 15 29  1  0  0  0
 16 30  1  0  0  0
 16 31  1  0  0  0
 17 32  1  0  0  0
 17 33  1  0  0  0
 18 34  1  0  0  0
 18 35  1  0  0  0
 18 36  1  0  0  0
 19 37  1  0  0  0
 19 38  1  0  0  0
 20 39  1  0  0  0
 20 40  1  0  0  0
M  END
$$$$
