1nf8_ligand
  -I-interpret- 

 26 26  0  0  0  0  0  0  0  0999 V2000
    6.0430   20.8580   75.2370 C   0  0  0  0  0
    5.8600   21.4630   73.8410 C   0  0  0  0  0
    4.6730   22.1250   73.7890 O   0  0  0  0  0
    6.2820   20.7470   72.7800 C   0  0  0  0  0
    6.1200   19.2830   72.8920 C   0  0  0  0  0
    6.0980   18.6590   74.1370 C   0  0  0  0  0
    6.1280   19.3940   75.3370 C   0  0  0  0  0
    6.0480   21.6670   76.5190 C   0  0  0  0  0
    5.8480   22.8860   76.3170 O   0  0  0  0  0
    6.2470   21.2140   77.6550 O   0  0  0  0  0
    7.7890   20.2940   70.1780 C   0  0  0  0  0
    7.9580   19.2460   69.5050 O   0  0  0  0  0
    6.9450   21.1680   69.8900 O   0  0  0  0  0
    8.3640   20.4100   71.4990 C   0  0  0  0  0
    7.6690   20.9510   72.5440 O   0  0  0  0  0
    9.7130   19.9490   71.6550 C   0  0  0  0  0
    6.6243   22.2258   73.6925 H   0  0  0  0  0
    4.5253   22.5807   74.6210 H   0  0  0  0  0
    5.6438   21.1122   71.9753 H   0  0  0  0  0
    6.0163   18.6829   71.9880 H   0  0  0  0  0
    6.0564   17.5708   74.1833 H   0  0  0  0  0
    6.2111   18.8966   76.3033 H   0  0  0  0  0
    5.7159   23.0362   75.3781 H   0  0  0  0  0
    8.6539   18.7191   69.9047 H   0  0  0  0  0
   10.2504   19.5371   70.8008 H   0  0  0  0  0
   10.2009   20.0105   72.6278 H   0  0  0  0  0
  2  1  1  0  0  0
  1  7  2  0  0  0
  1  8  1  0  0  0
  2  3  1  0  0  0
  4  2  1  0  0  0
  4  5  1  0  0  0
 15  4  1  0  0  0
  5  6  2  0  0  0
  6  7  1  0  0  0
  8  9  1  0  0  0
  8 10  2  0  0  0
 11 12  1  0  0  0
 11 13  2  0  0  0
 14 11  1  0  0  0
 15 14  1  0  0  0
 14 16  2  0  0  0
  2 17  1  0  0  0
  3 18  1  0  0  0
  4 19  1  0  0  0
  5 20  1  0  0  0
  6 21  1  0  0  0
  7 22  1  0  0  0
  9 23  1  0  0  0
 12 24  1  0  0  0
 16 25  1  0  0  0
 16 26  1  0  0  0
M  END
$$$$
