4idt_ligand
  -I-interpret- 

 32 35  0  0  0  0  0  0  0  0999 V2000
   95.0560   51.1900  118.5230 Br  0  0  0  0  0
   96.0790   50.1640  119.7540 C   0  0  0  0  0
   96.3100   48.8030  119.5650 C   0  0  0  0  0
   97.0740   48.1000  120.5040 C   0  0  0  0  0
   97.6000   48.7420  121.6140 C   0  0  0  0  0
   97.3710   50.0990  121.7990 C   0  0  0  0  0
   96.6150   50.8040  120.8700 C   0  0  0  0  0
   97.4430   46.7550  120.5690 C   0  0  0  0  0
   98.1990   46.6250  121.7280 C   0  0  0  0  0
   98.2820   47.8300  122.3370 N   0  0  0  0  0
   97.0970   45.7240  119.5400 C   0  0  0  0  0
   96.1940   46.1180  118.6170 N   0  0  0  0  0
   95.7970   45.3250  117.6090 C   0  0  0  0  0
   94.8800   45.7770  116.7260 N   0  0  0  0  0
   96.3090   44.0880  117.4840 N   0  0  0  0  0
   97.2120   43.6490  118.3640 C   0  0  0  0  0
   97.6500   44.4490  119.4150 C   0  0  0  0  0
   98.6740   43.8010  120.3310 C   0  0  0  0  0
   99.5730   44.7750  121.0550 C   0  0  0  0  0
   98.8450   45.3660  122.2370 C   0  0  0  0  0
   95.8999   48.2908  118.6946 H   0  0  0  0  0
   97.7827   50.6095  122.6697 H   0  0  0  0  0
   96.4393   51.8698  121.0159 H   0  0  0  0  0
   94.4936   46.7155  116.8274 H   0  0  0  0  0
   94.5740   45.1798  115.9579 H   0  0  0  0  0
   97.6150   42.6419  118.2569 H   0  0  0  0  0
   99.3150   43.1810  119.7043 H   0  0  0  0  0
   98.1189   43.2531  121.0925 H   0  0  0  0  0
   99.8590   45.5753  120.3725 H   0  0  0  0  0
  100.4618   44.2507  121.4061 H   0  0  0  0  0
   98.1049   44.6723  122.6358 H   0  0  0  0  0
   99.5274   45.5741  123.0611 H   0  0  0  0  0
  1  2  1  0  0  0
  2  3  4  0  0  0
  2  7  4  0  0  0
  3  4  4  0  0  0
  4  5  4  0  0  0
  4  8  4  0  0  0
  5  6  4  0  0  0
  5 10  4  0  0  0
  6  7  4  0  0  0
  8  9  4  0  0  0
  8 11  1  0  0  0
  9 10  4  0  0  0
  9 20  1  0  0  0
 11 12  4  0  0  0
 11 17  4  0  0  0
 12 13  4  0  0  0
 13 14  1  0  0  0
 13 15  4  0  0  0
 15 16  4  0  0  0
 16 17  4  0  0  0
 17 18  1  0  0  0
 18 19  1  0  0  0
 19 20  1  0  0  0
  3 21  1  0  0  0
  6 22  1  0  0  0
  7 23  1  0  0  0
 14 24  1  0  0  0
 14 25  1  0  0  0
 16 26  1  0  0  0
 18 27  1  0  0  0
 18 28  1  0  0  0
 19 29  1  0  0  0
 19 30  1  0  0  0
 20 31  1  0  0  0
 20 32  1  0  0  0
M  END
$$$$
