2bal_ligand
  -I-interpret- 

 50 53  0  0  0  0  0  0  0  0999 V2000
   -3.4720   -1.8760   19.8050 N   0  0  0  0  0
   -3.2090   -0.7670   20.5380 C   0  0  0  0  0
   -2.7450   -0.6820   21.8380 C   0  0  0  0  0
   -2.6450    0.7020   22.0820 C   0  0  0  0  0
   -3.0140    1.4410   21.0360 N   0  0  0  0  0
   -3.3480    0.5360   20.0700 N   0  0  0  0  0
   -3.8560    0.9580   18.8210 C   0  0  0  0  0
   -3.1310    1.5570   17.7900 C   0  0  0  0  0
   -3.7900    1.9150   16.6150 C   0  0  0  0  0
   -5.1490    1.6710   16.4640 C   0  0  0  0  0
   -5.7650    2.0290   15.3300 F   0  0  0  0  0
   -5.8820    1.0610   17.4730 C   0  0  0  0  0
   -5.2360    0.7080   18.6530 C   0  0  0  0  0
   -2.4700   -1.8390   22.6650 C   0  0  0  0  0
   -2.8650   -2.9540   22.3220 O   0  0  0  0  0
   -1.7400   -1.7020   23.9480 C   0  0  0  0  0
   -0.6230   -0.8560   24.0650 C   0  0  0  0  0
    0.0410   -0.7510   25.2950 C   0  0  0  0  0
   -0.4020   -1.4910   26.3870 C   0  0  0  0  0
   -1.5050   -2.3350   26.2710 C   0  0  0  0  0
   -1.8710   -3.0090   27.4110 O   0  0  0  0  0
   -3.2360   -2.8040   27.8010 C   0  0  0  0  0
   -3.7740   -4.1230   28.3590 C   0  0  0  0  0
   -3.2380   -4.4370   29.7580 C   0  0  0  0  0
   -2.2840   -3.4430   30.2770 N   0  3  0  0  0
   -2.7700   -2.0620   30.2230 C   0  0  0  0  0
   -3.2870   -1.6700   28.8380 C   0  0  0  0  0
   -2.1810   -2.4520   25.0530 C   0  0  0  0  0
   -3.3286   -2.8010   20.2102 H   0  0  0  0  0
   -3.8134   -1.7857   18.8481 H   0  0  0  0  0
   -2.3020    1.1239   23.0267 H   0  0  0  0  0
   -2.0628    1.7426   17.9021 H   0  0  0  0  0
   -3.2337    2.3908   15.8073 H   0  0  0  0  0
   -6.9457    0.8621   17.3426 H   0  0  0  0  0
   -5.8002    0.2338   19.4560 H   0  0  0  0  0
   -0.2754   -0.2850   23.2040 H   0  0  0  0  0
    0.9026   -0.0910   25.3959 H   0  0  0  0  0
    0.1182   -1.4099   27.3414 H   0  0  0  0  0
   -3.8596   -2.5097   26.9568 H   0  0  0  0  0
   -3.4544   -4.9232   27.6915 H   0  0  0  0  0
   -4.8586   -4.0389   28.4279 H   0  0  0  0  0
   -2.7082   -5.3874   29.6932 H   0  0  0  0  0
   -4.0924   -4.4461   30.4348 H   0  0  0  0  0
   -1.4494   -3.4922   29.6927 H   0  0  0  0  0
   -2.1193   -3.6667   31.2584 H   0  0  0  0  0
   -1.9355   -1.4044   30.4664 H   0  0  0  0  0
   -3.5977   -1.9714   30.9264 H   0  0  0  0  0
   -4.3333   -1.3874   28.9538 H   0  0  0  0  0
   -2.6453   -0.8693   28.4703 H   0  0  0  0  0
   -3.0399   -3.1168   24.9608 H   0  0  0  0  0
  1  2  1  0  0  0
  2  3  4  0  0  0
  2  6  4  0  0  0
  3  4  4  0  0  0
  3 14  1  0  0  0
  4  5  4  0  0  0
  5  6  4  0  0  0
  6  7  1  0  0  0
  7  8  4  0  0  0
  7 13  4  0  0  0
  8  9  4  0  0  0
  9 10  4  0  0  0
 10 11  1  0  0  0
 10 12  4  0  0  0
 12 13  4  0  0  0
 14 15  2  0  0  0
 14 16  1  0  0  0
 16 17  4  0  0  0
 16 28  4  0  0  0
 17 18  4  0  0  0
 18 19  4  0  0  0
 19 20  4  0  0  0
 20 21  1  0  0  0
 20 28  4  0  0  0
 21 22  1  0  0  0
 22 23  1  0  0  0
 22 27  1  0  0  0
 23 24  1  0  0  0
 24 25  1  0  0  0
 25 26  1  0  0  0
 26 27  1  0  0  0
  1 29  1  0  0  0
  1 30  1  0  0  0
  4 31  1  0  0  0
  8 32  1  0  0  0
  9 33  1  0  0  0
 12 34  1  0  0  0
 13 35  1  0  0  0
 17 36  1  0  0  0
 18 37  1  0  0  0
 19 38  1  0  0  0
 22 39  1  0  0  0
 23 40  1  0  0  0
 23 41  1  0  0  0
 24 42  1  0  0  0
 24 43  1  0  0  0
 25 44  1  0  0  0
 25 45  1  0  0  0
 26 46  1  0  0  0
 26 47  1  0  0  0
 27 48  1  0  0  0
 27 49  1  0  0  0
 28 50  1  0  0  0
M  END
$$$$
