2zq1_ligand
  -I-interpret- 

 60 62  0  0  0  0  0  0  0  0999 V2000
  -28.8100    0.5730   15.7780 N   0  0  0  0  0
  -28.5500    0.6150   17.0920 C   0  0  0  0  0
  -27.4060    0.4690   17.5260 O   0  0  0  0  0
  -29.7300    0.8660   17.9930 C   0  0  0  0  0
  -30.1340    0.9520   15.1860 C   0  0  0  0  0
  -29.9140    1.1260   13.6900 C   0  0  0  0  0
  -28.6960    0.2510   13.4830 C   0  0  0  0  0
  -27.8060    0.2630   14.7160 C   0  0  0  0  0
  -26.6900    1.2320   14.5650 C   0  0  0  0  0
  -25.5260    0.9130   14.1420 N   0  0  0  0  0
  -24.4520    1.7750   13.8220 C   0  0  0  0  0
  -23.3300    1.6090   14.7910 C   0  0  0  0  0
  -23.3880    2.0090   16.1110 C   0  0  0  0  0
  -22.2710    1.8000   16.9210 C   0  0  0  0  0
  -21.0980    1.2150   16.4960 C   0  0  0  0  0
  -19.9230    1.0150   17.4160 C   0  0  0  0  0
  -19.7540    1.8620   18.4450 N   0  0  0  0  0
  -19.0720    0.0060   17.2020 N   0  0  0  0  0
  -21.0730    0.8250   15.1600 C   0  0  0  0  0
  -22.1650    1.0140   14.3150 C   0  0  0  0  0
  -26.9130    2.3890   14.8910 O   0  0  0  0  0
  -29.5380    0.3620   19.3210 N   0  3  0  0  0
  -29.4990   -1.0840   19.4450 C   0  0  0  0  0
  -30.7430   -1.6390   18.7950 C   0  0  0  0  0
  -30.8470   -3.1540   18.8960 C   0  0  0  0  0
  -30.7720   -3.6020   20.3400 C   0  0  0  0  0
  -29.4640   -3.1180   20.9490 C   0  0  0  0  0
  -29.3690   -1.5990   20.8510 C   0  0  0  0  0
  -30.5904    0.3523   17.5641 H   0  0  0  0  0
  -29.8698    1.9446   18.0642 H   0  0  0  0  0
  -30.5082    1.8734   15.6322 H   0  0  0  0  0
  -30.8801    0.1816   15.3807 H   0  0  0  0  0
  -29.7755    2.1614   13.3787 H   0  0  0  0  0
  -30.7719    0.8452   13.0790 H   0  0  0  0  0
  -28.1277    0.6348   12.6358 H   0  0  0  0  0
  -29.0253   -0.7713   13.2974 H   0  0  0  0  0
  -27.2604   -0.6553   14.9333 H   0  0  0  0  0
  -25.3512   -0.0846   14.0208 H   0  0  0  0  0
  -24.8042    2.8056   13.8664 H   0  0  0  0  0
  -24.0916    1.5303   12.8228 H   0  0  0  0  0
  -24.2867    2.4779   16.5118 H   0  0  0  0  0
  -22.3305    2.1214   17.9608 H   0  0  0  0  0
  -18.9652    1.7417   19.0803 H   0  0  0  0  0
  -20.4145    2.6254   18.5909 H   0  0  0  0  0
  -19.2192   -0.6273   16.4161 H   0  0  0  0  0
  -20.1720    0.3576   14.7627 H   0  0  0  0  0
  -22.1065    0.6939   13.2747 H   0  0  0  0  0
  -30.3385    0.6777   19.8687 H   0  0  0  0  0
  -28.6283    0.7035   19.6312 H   0  0  0  0  0
  -28.5908   -1.4233   18.9468 H   0  0  0  0  0
  -30.7064   -1.3802   17.7368 H   0  0  0  0  0
  -31.6035   -1.2136   19.3114 H   0  0  0  0  0
  -30.0191   -3.6009   18.3456 H   0  0  0  0  0
  -31.8034   -3.4695   18.4790 H   0  0  0  0  0
  -30.8162   -4.6901   20.3874 H   0  0  0  0  0
  -31.6107   -3.1832   20.8962 H   0  0  0  0  0
  -28.6306   -3.5638   20.4060 H   0  0  0  0  0
  -29.4284   -3.4112   21.9982 H   0  0  0  0  0
  -30.1901   -1.1796   21.4324 H   0  0  0  0  0
  -28.3857   -1.3062   21.2192 H   0  0  0  0  0
  1  2  1  0  0  0
  1  5  1  0  0  0
  1  8  1  0  0  0
  2  3  2  0  0  0
  2  4  1  0  0  0
  4 22  1  0  0  0
  5  6  1  0  0  0
  6  7  1  0  0  0
  7  8  1  0  0  0
  8  9  1  0  0  0
  9 10  1  0  0  0
  9 21  2  0  0  0
 10 11  1  0  0  0
 11 12  1  0  0  0
 12 13  4  0  0  0
 12 20  4  0  0  0
 13 14  4  0  0  0
 14 15  4  0  0  0
 15 16  1  0  0  0
 15 19  4  0  0  0
 16 17  1  0  0  0
 16 18  2  0  0  0
 19 20  4  0  0  0
 22 23  1  0  0  0
 23 24  1  0  0  0
 23 28  1  0  0  0
 24 25  1  0  0  0
 25 26  1  0  0  0
 26 27  1  0  0  0
 27 28  1  0  0  0
  4 29  1  0  0  0
  4 30  1  0  0  0
  5 31  1  0  0  0
  5 32  1  0  0  0
  6 33  1  0  0  0
  6 34  1  0  0  0
  7 35  1  0  0  0
  7 36  1  0  0  0
  8 37  1  0  0  0
 10 38  1  0  0  0
 11 39  1  0  0  0
 11 40  1  0  0  0
 13 41  1  0  0  0
 14 42  1  0  0  0
 17 43  1  0  0  0
 17 44  1  0  0  0
 18 45  1  0  0  0
 19 46  1  0  0  0
 20 47  1  0  0  0
 22 48  1  0  0  0
 22 49  1  0  0  0
 23 50  1  0  0  0
 24 51  1  0  0  0
 24 52  1  0  0  0
 25 53  1  0  0  0
 25 54  1  0  0  0
 26 55  1  0  0  0
 26 56  1  0  0  0
 27 57  1  0  0  0
 27 58  1  0  0  0
 28 59  1  0  0  0
 28 60  1  0  0  0
M  END
$$$$
