1mx1_ligand
  -I-interpret- 

 29 31  0  0  0  0  0  0  0  0999 V2000
   22.9510  -28.7130   25.7730 C   0  0  0  0  0
   23.2920  -29.5050   26.8960 C   0  0  0  0  0
   22.2970  -29.8660   27.8410 C   0  0  0  0  0
   20.8940  -29.4120   27.6510 C   0  0  0  0  0
   20.6030  -28.6090   26.4930 C   0  0  0  0  0
   21.6220  -28.2690   25.5710 C   0  0  0  0  0
   22.6380  -30.6140   28.8950 N   0  0  0  0  0
   21.7640  -30.9990   29.8330 C   0  0  0  0  0
   20.3600  -30.6200   29.7640 C   0  0  0  0  0
   19.9270  -29.8130   28.6510 C   0  0  0  0  0
   22.3190  -31.8720   31.0080 C   0  0  0  0  0
   21.2510  -32.5540   31.9190 C   0  0  0  0  0
   20.0870  -31.5770   32.2290 C   0  0  0  0  0
   19.3940  -31.1150   30.9150 C   0  0  0  0  0
   18.6270  -29.4480   28.5650 N   0  0  0  0  0
   23.7232  -28.4411   25.0533 H   0  0  0  0  0
   24.3206  -29.8380   27.0348 H   0  0  0  0  0
   19.5851  -28.2580   26.3236 H   0  0  0  0  0
   21.3815  -27.6608   24.6990 H   0  0  0  0  0
   22.8826  -31.1961   31.6511 H   0  0  0  0  0
   22.8877  -32.6794   30.5467 H   0  0  0  0  0
   21.7238  -32.8463   32.8566 H   0  0  0  0  0
   20.8504  -33.4246   31.3998 H   0  0  0  0  0
   20.4872  -30.7031   32.7430 H   0  0  0  0  0
   19.3543  -32.0880   32.8535 H   0  0  0  0  0
   18.8679  -31.9851   30.5222 H   0  0  0  0  0
   18.7690  -30.2623   31.1801 H   0  0  0  0  0
   18.3083  -28.8770   27.7822 H   0  0  0  0  0
   17.9657  -29.7438   29.2830 H   0  0  0  0  0
  2  1  4  0  0  0
  1  6  4  0  0  0
  2  3  4  0  0  0
  3  4  4  0  0  0
  3  7  4  0  0  0
  4  5  4  0  0  0
  4 10  4  0  0  0
  5  6  4  0  0  0
  7  8  4  0  0  0
  8  9  4  0  0  0
  8 11  1  0  0  0
  9 10  4  0  0  0
  9 14  1  0  0  0
 10 15  1  0  0  0
 11 12  1  0  0  0
 12 13  1  0  0  0
 13 14  1  0  0  0
  1 16  1  0  0  0
  2 17  1  0  0  0
  5 18  1  0  0  0
  6 19  1  0  0  0
 11 20  1  0  0  0
 11 21  1  0  0  0
 12 22  1  0  0  0
 12 23  1  0  0  0
 13 24  1  0  0  0
 13 25  1  0  0  0
 14 26  1  0  0  0
 14 27  1  0  0  0
 15 28  1  0  0  0
 15 29  1  0  0  0
M  END
$$$$
