2p4j_ligand
  -I-interpret- 

104105  0  0  0  0  0  0  0  0999 V2000
  -10.8270   -0.4670   31.5230 O   0  0  0  0  0
    4.8920   -5.4360   32.8140 C   0  0  0  0  0
    5.7650   -4.6750   33.6240 C   0  0  0  0  0
    5.2300   -3.7980   34.5980 C   0  0  0  0  0
    3.8230   -3.6810   34.7610 C   0  0  0  0  0
    2.9480   -4.4420   33.9490 C   0  0  0  0  0
    3.4750   -5.3290   32.9680 C   0  0  0  0  0
    2.5640   -1.5730   25.9320 C   0  0  0  0  0
    1.5520   -5.1710   30.0280 C   0  0  0  0  0
   -3.3190   -3.9380   30.0730 C   0  0  0  0  0
    0.6620   -3.3610   28.4870 C   0  0  0  0  0
   -1.9510   -3.7140   29.5230 C   0  0  0  0  0
   -7.9750   -2.1290   32.1150 C   0  0  0  0  0
   -4.5810   -4.6300   32.1330 C   0  0  0  0  0
   -5.0460   -3.4840   33.0740 C   0  0  0  0  0
   -4.2590   -5.9790   32.8730 C   0  0  0  0  0
   -3.3460   -7.0010   32.1050 C   0  0  0  0  0
   -2.8000   -8.0890   33.0390 C   0  0  0  0  0
    2.5660   -6.1850   32.0580 C   0  0  0  0  0
    1.7600   -7.2710   32.7960 C   0  0  0  0  0
    1.5690   -5.3790   31.3580 N   0  0  0  0  0
    2.4070   -5.6740   29.2800 O   0  0  0  0  0
    0.4370   -4.3260   29.5020 C   0  0  0  0  0
   -0.4060   -2.5550   27.9730 C   0  0  0  0  0
   -1.7140   -2.7610   28.5170 C   0  0  0  0  0
   -0.8620   -4.4710   29.9860 C   0  0  0  0  0
   -0.1600   -1.5680   26.8960 N   0  0  0  0  0
   -1.2280   -0.5660   26.5640 C   0  0  0  0  0
    1.4100   -0.7470   26.9990 S   0  0  0  0  0
    1.2930    0.7300   26.4690 O   0  0  0  0  0
    1.9970   -0.6270   28.4540 O   0  0  0  0  0
   -4.3480   -3.8450   29.3740 O   0  0  0  0  0
   -3.3660   -4.2990   31.3720 N   0  0  0  0  0
   -4.0990   -7.6970   30.9680 C   0  0  0  0  0
   -5.4170   -2.2070   32.2960 C   0  0  0  0  0
   -6.6970   -1.5010   32.7630 C   0  0  0  0  0
   -6.5910    0.0110   32.4080 C   0  0  0  0  0
   -4.0250   -3.1200   33.9830 O   0  0  0  0  0
   -7.9810   -2.5270   30.9470 O   0  0  0  0  0
   -9.0680   -2.1900   32.8910 N   0  0  0  0  0
  -10.3650   -2.7250   32.4070 C   0  0  0  0  0
  -11.3110   -3.0130   33.6380 C   0  0  0  0  0
  -12.6410   -3.6610   33.1960 C   0  0  0  0  0
  -11.6950   -1.7670   34.4770 C   0  0  0  0  0
  -10.8960   -1.6930   31.3340 C   0  0  0  0  0
  -11.3940   -2.2260   30.2100 N   0  0  0  0  0
  -11.9160   -1.4450   29.0840 C   0  0  0  0  0
  -13.3220   -1.9630   28.7960 C   0  0  0  0  0
  -10.9870   -1.6680   27.8890 C   0  0  0  0  0
    5.3035   -6.1115   32.0641 H   0  0  0  0  0
    6.8443   -4.7629   33.4995 H   0  0  0  0  0
    5.8999   -3.2101   35.2255 H   0  0  0  0  0
    3.4169   -3.0041   35.5126 H   0  0  0  0  0
    1.8693   -4.3487   34.0750 H   0  0  0  0  0
    2.1889   -1.5535   24.9088 H   0  0  0  0  0
    3.5269   -1.0642   25.9771 H   0  0  0  0  0
    2.6822   -2.6066   26.2574 H   0  0  0  0  0
    1.6684   -3.2296   28.0895 H   0  0  0  0  0
   -5.4415   -4.7526   31.4753 H   0  0  0  0  0
   -5.9188   -3.8742   33.5975 H   0  0  0  0  0
   -5.2165   -6.4796   33.0171 H   0  0  0  0  0
   -3.7117   -5.7047   33.7749 H   0  0  0  0  0
   -2.5237   -6.4126   31.6979 H   0  0  0  0  0
   -2.2079   -7.6252   33.8279 H   0  0  0  0  0
   -3.6318   -8.6370   33.4817 H   0  0  0  0  0
   -2.1738   -8.7750   32.4686 H   0  0  0  0  0
    3.2799   -6.6486   31.3772 H   0  0  0  0  0
    1.0665   -6.7976   33.4910 H   0  0  0  0  0
    1.2020   -7.8633   32.0708 H   0  0  0  0  0
    2.4433   -7.9177   33.3465 H   0  0  0  0  0
    0.8345   -4.9434   31.9158 H   0  0  0  0  0
   -2.5460   -2.1648   28.1423 H   0  0  0  0  0
   -1.0425   -5.2113   30.7654 H   0  0  0  0  0
   -2.1317   -1.0898   26.2524 H   0  0  0  0  0
   -1.4428    0.0394   27.4446 H   0  0  0  0  0
   -0.8821    0.0772   25.7549 H   0  0  0  0  0
   -2.4784   -4.3468   31.8722 H   0  0  0  0  0
   -4.9510   -8.2400   31.3771 H   0  0  0  0  0
   -4.4503   -6.9502   30.2560 H   0  0  0  0  0
   -3.4298   -8.3946   30.4643 H   0  0  0  0  0
   -5.5877   -2.5102   31.2630 H   0  0  0  0  0
   -4.5996   -1.5019   32.4469 H   0  0  0  0  0
   -6.7942   -1.6261   33.8414 H   0  0  0  0  0
   -6.5321    0.1255   31.3256 H   0  0  0  0  0
   -7.4713    0.5334   32.7826 H   0  0  0  0  0
   -5.6957    0.4290   32.8681 H   0  0  0  0  0
   -4.3401   -2.4121   34.5497 H   0  0  0  0  0
   -9.0049   -1.8551   33.8524 H   0  0  0  0  0
  -10.2938   -3.6925   31.9100 H   0  0  0  0  0
  -10.7103   -3.6802   34.2562 H   0  0  0  0  0
  -13.1610   -2.9901   32.5122 H   0  0  0  0  0
  -12.4340   -4.6056   32.6930 H   0  0  0  0  0
  -13.2636   -3.8432   34.0719 H   0  0  0  0  0
  -10.7914   -1.3082   34.8783 H   0  0  0  0  0
  -12.2171   -1.0504   33.8429 H   0  0  0  0  0
  -12.3456   -2.0695   35.2976 H   0  0  0  0  0
  -11.4111   -3.2429   30.1324 H   0  0  0  0  0
  -11.9598   -0.3767   29.2960 H   0  0  0  0  0
  -13.2727   -3.0217   28.5413 H   0  0  0  0  0
  -13.9453   -1.8293   29.6802 H   0  0  0  0  0
  -13.7489   -1.4067   27.9615 H   0  0  0  0  0
   -9.9809   -1.3363   28.1457 H   0  0  0  0  0
  -10.9683   -2.7285   27.6379 H   0  0  0  0  0
  -11.3522   -1.0975   27.0351 H   0  0  0  0  0
 45  1  2  0  0  0
  2  3  4  0  0  0
  7  2  4  0  0  0
  3  4  4  0  0  0
  5  4  4  0  0  0
  6  5  4  0  0  0
  7  6  4  0  0  0
 19  7  1  0  0  0
 29  8  1  0  0  0
  9 21  1  0  0  0
  9 22  2  0  0  0
 23  9  1  0  0  0
 10 12  1  0  0  0
 10 32  2  0  0  0
 33 10  1  0  0  0
 23 11  4  0  0  0
 24 11  4  0  0  0
 12 25  4  0  0  0
 12 26  4  0  0  0
 13 36  1  0  0  0
 13 39  2  0  0  0
 40 13  1  0  0  0
 15 14  1  0  0  0
 14 16  1  0  0  0
 14 33  1  0  0  0
 35 15  1  0  0  0
 15 38  1  0  0  0
 16 17  1  0  0  0
 17 18  1  0  0  0
 17 34  1  0  0  0
 19 20  1  0  0  0
 21 19  1  0  0  0
 26 23  4  0  0  0
 25 24  4  0  0  0
 24 27  1  0  0  0
 27 28  1  0  0  0
 27 29  1  0  0  0
 29 30  2  0  0  0
 29 31  2  0  0  0
 36 35  1  0  0  0
 36 37  1  0  0  0
 41 40  1  0  0  0
 41 42  1  0  0  0
 41 45  1  0  0  0
 42 43  1  0  0  0
 42 44  1  0  0  0
 45 46  1  0  0  0
 46 47  1  0  0  0
 47 48  1  0  0  0
 47 49  1  0  0  0
  2 50  1  0  0  0
  3 51  1  0  0  0
  4 52  1  0  0  0
  5 53  1  0  0  0
  6 54  1  0  0  0
  8 55  1  0  0  0
  8 56  1  0  0  0
  8 57  1  0  0  0
 11 58  1  0  0  0
 14 59  1  0  0  0
 15 60  1  0  0  0
 16 61  1  0  0  0
 16 62  1  0  0  0
 17 63  1  0  0  0
 18 64  1  0  0  0
 18 65  1  0  0  0
 18 66  1  0  0  0
 19 67  1  0  0  0
 20 68  1  0  0  0
 20 69  1  0  0  0
 20 70  1  0  0  0
 21 71  1  0  0  0
 25 72  1  0  0  0
 26 73  1  0  0  0
 28 74  1  0  0  0
 28 75  1  0  0  0
 28 76  1  0  0  0
 33 77  1  0  0  0
 34 78  1  0  0  0
 34 79  1  0  0  0
 34 80  1  0  0  0
 35 81  1  0  0  0
 35 82  1  0  0  0
 36 83  1  0  0  0
 37 84  1  0  0  0
 37 85  1  0  0  0
 37 86  1  0  0  0
 38 87  1  0  0  0
 40 88  1  0  0  0
 41 89  1  0  0  0
 42 90  1  0  0  0
 43 91  1  0  0  0
 43 92  1  0  0  0
 43 93  1  0  0  0
 44 94  1  0  0  0
 44 95  1  0  0  0
 44 96  1  0  0  0
 46 97  1  0  0  0
 47 98  1  0  0  0
 48 99  1  0  0  0
 48100  1  0  0  0
 48101  1  0  0  0
 49102  1  0  0  0
 49103  1  0  0  0
 49104  1  0  0  0
M  END
$$$$
