3be2_ligand
  -I-interpret- 

 69 72  0  0  0  0  0  0  0  0999 V2000
   37.7300   40.0880   15.3620 C   0  0  0  0  0
   37.5900   38.7530   15.9600 N   0  3  0  0  0
   38.3070   37.7500   15.1510 C   0  0  0  0  0
   36.1470   38.4420   16.0550 C   0  0  0  0  0
   35.9280   37.3790   17.1150 C   0  0  0  0  0
   34.4720   36.9410   17.1690 C   0  0  0  0  0
   34.0630   36.1550   15.9320 C   0  0  0  0  0
   34.9740   35.2590   15.2700 C   0  0  0  0  0
   32.7310   36.3350   15.4060 C   0  0  0  0  0
   32.2910   35.6300   14.2170 C   0  0  0  0  0
   30.8600   35.8160   13.6230 C   0  0  0  0  0
   30.7630   36.9920   13.0440 F   0  0  0  0  0
   29.9520   35.7200   14.5600 F   0  0  0  0  0
   30.5610   34.9300   12.7110 F   0  0  0  0  0
   33.2460   34.7470   13.5930 C   0  0  0  0  0
   34.5720   34.5490   14.0960 C   0  0  0  0  0
   35.4630   33.6860   13.4890 N   0  0  0  0  0
   35.4810   33.4210   12.1550 C   0  0  0  0  0
   34.7740   33.9910   11.3270 O   0  0  0  0  0
   36.4170   32.3760   11.7510 C   0  0  0  0  0
   36.5400   32.1320   10.3360 C   0  0  0  0  0
   37.1270   31.6410   12.7620 C   0  0  0  0  0
   38.0250   30.5840   12.3700 C   0  0  0  0  0
   38.1470   30.3380   10.9700 C   0  0  0  0  0
   39.0620   29.2380   10.5240 C   0  0  0  0  0
   37.4400   31.0750    9.9690 C   0  0  0  0  0
   37.6310   30.7570    8.6530 N   0  0  0  0  0
   38.4860   31.4120    7.8070 C   0  0  0  0  0
   39.3130   32.3920    8.3640 N   0  0  0  0  0
   40.2340   33.1760    7.7000 C   0  0  0  0  0
   40.3430   32.9470    6.2880 C   0  0  0  0  0
   39.5100   31.9450    5.6730 C   0  0  0  0  0
   38.5350   31.1210    6.3920 C   0  0  0  0  0
   37.6600   30.0880    5.7080 C   0  0  0  0  0
   37.7120   29.7890    4.2760 C   0  0  0  0  0
   36.8000   28.7880    3.8300 C   0  0  0  0  0
   35.9330   28.1540    4.6950 N   0  0  0  0  0
   35.8620   28.4120    6.0340 C   0  0  0  0  0
   36.7220   29.3650    6.5070 N   0  0  0  0  0
   37.2785   40.0895   14.3699 H   0  0  0  0  0
   37.2275   40.8216   15.9924 H   0  0  0  0  0
   38.7875   40.3396   15.2817 H   0  0  0  0  0
   38.0024   38.7341   16.8927 H   0  0  0  0  0
   38.1947   36.7675   15.6096 H   0  0  0  0  0
   37.8903   37.7321   14.1439 H   0  0  0  0  0
   39.3641   38.0116   15.1036 H   0  0  0  0  0
   35.7902   38.0748   15.0928 H   0  0  0  0  0
   35.5978   39.3438   16.3257 H   0  0  0  0  0
   36.2004   37.7957   18.0847 H   0  0  0  0  0
   36.5414   36.5124   16.8682 H   0  0  0  0  0
   33.8505   37.8347   17.2242 H   0  0  0  0  0
   34.3434   36.2965   18.0386 H   0  0  0  0  0
   35.9795   35.1204   15.6672 H   0  0  0  0  0
   32.0432   37.0130   15.9114 H   0  0  0  0  0
   32.9441   34.2052   12.6967 H   0  0  0  0  0
   36.1512   33.2176   14.0784 H   0  0  0  0  0
   35.9877   32.7102    9.5952 H   0  0  0  0  0
   36.9874   31.8810   13.8160 H   0  0  0  0  0
   38.5819   30.0028   13.1049 H   0  0  0  0  0
   40.0758   29.4503   10.8635 H   0  0  0  0  0
   38.7256   28.2925   10.9493 H   0  0  0  0  0
   39.0477   29.1740    9.4360 H   0  0  0  0  0
   37.0977   29.9747    8.2735 H   0  0  0  0  0
   40.8398   33.9214    8.2152 H   0  0  0  0  0
   41.0470   33.5237    5.6880 H   0  0  0  0  0
   39.6122   31.7893    4.5990 H   0  0  0  0  0
   38.3993   30.2958    3.5986 H   0  0  0  0  0
   36.7876   28.5159    2.7746 H   0  0  0  0  0
   35.1622   27.8901    6.6867 H   0  0  0  0  0
  1  2  1  0  0  0
  2  3  1  0  0  0
  2  4  1  0  0  0
  4  5  1  0  0  0
  5  6  1  0  0  0
  6  7  1  0  0  0
  7  8  4  0  0  0
  7  9  4  0  0  0
  8 16  4  0  0  0
  9 10  4  0  0  0
 10 11  1  0  0  0
 10 15  4  0  0  0
 11 12  1  0  0  0
 11 13  1  0  0  0
 11 14  1  0  0  0
 15 16  4  0  0  0
 16 17  1  0  0  0
 17 18  1  0  0  0
 18 19  2  0  0  0
 18 20  1  0  0  0
 20 21  4  0  0  0
 20 22  4  0  0  0
 21 26  4  0  0  0
 22 23  4  0  0  0
 23 24  4  0  0  0
 24 25  1  0  0  0
 24 26  4  0  0  0
 26 27  1  0  0  0
 27 28  1  0  0  0
 28 29  4  0  0  0
 28 33  4  0  0  0
 29 30  4  0  0  0
 30 31  4  0  0  0
 31 32  4  0  0  0
 32 33  4  0  0  0
 33 34  1  0  0  0
 34 35  4  0  0  0
 34 39  4  0  0  0
 35 36  4  0  0  0
 36 37  4  0  0  0
 37 38  4  0  0  0
 38 39  4  0  0  0
  1 40  1  0  0  0
  1 41  1  0  0  0
  1 42  1  0  0  0
  2 43  1  0  0  0
  3 44  1  0  0  0
  3 45  1  0  0  0
  3 46  1  0  0  0
  4 47  1  0  0  0
  4 48  1  0  0  0
  5 49  1  0  0  0
  5 50  1  0  0  0
  6 51  1  0  0  0
  6 52  1  0  0  0
  8 53  1  0  0  0
  9 54  1  0  0  0
 15 55  1  0  0  0
 17 56  1  0  0  0
 21 57  1  0  0  0
 22 58  1  0  0  0
 23 59  1  0  0  0
 25 60  1  0  0  0
 25 61  1  0  0  0
 25 62  1  0  0  0
 27 63  1  0  0  0
 30 64  1  0  0  0
 31 65  1  0  0  0
 32 66  1  0  0  0
 35 67  1  0  0  0
 36 68  1  0  0  0
 38 69  1  0  0  0
M  END
$$$$
