### 
### Created by X-TOOL on Mon Sep 10 21:12:48 2018
### 

@<TRIPOS>MOLECULE
1hc9_ligand
  229   235     1     0     0
SMALL
GAST_HUCK


@<TRIPOS>ATOM
      1 N          -0.1630   45.3100    5.7140 N.4       1 TRP         0.2388
      2 CA          0.6860   46.4680    5.3280 C.3       1 TRP         0.0691
      3 C           2.1670   46.1500    5.5030 C.2       1 TRP         0.2280
      4 O           2.5400   45.1440    6.1060 O.2       1 TRP        -0.3906
      5 CB          0.3170   47.6960    6.1660 C.3       1 TRP         0.0245
      6 CG          0.1950   47.4050    7.6370 C.2       1 TRP        -0.0386
      7 CD1         1.1940   47.0230    8.4890 C.2       1 TRP         0.0168
      8 CD2        -1.0070   47.4410    8.4170 C.ar      1 TRP        -0.0213
      9 NE1         0.6840   46.8160    9.7540 N.pl3     1 TRP        -0.2890
     10 CE2        -0.6640   47.0650    9.7350 C.ar      1 TRP         0.0603
     11 CE3        -2.3430   47.7550    8.1290 C.ar      1 TRP        -0.0747
     12 CZ2        -1.6080   46.9920   10.7640 C.ar      1 TRP        -0.0443
     13 CZ3        -3.2840   47.6840    9.1540 C.ar      1 TRP        -0.0792
     14 CH2        -2.9090   47.3040   10.4550 C.ar      1 TRP        -0.0768
     15 N           3.0060   47.0250    4.9720 N.am      1 ARG        -0.2609
     16 CA          4.4440   46.8420    5.0530 C.3       1 ARG         0.1312
     17 C           5.1040   48.1800    5.3290 C.2       1 ARG         0.2040
     18 O           4.7150   49.2010    4.7580 O.2       1 ARG        -0.3944
     19 CB          4.9640   46.2530    3.7380 C.3       1 ARG        -0.0092
     20 CG          6.4750   46.3170    3.5750 C.3       1 ARG        -0.0156
     21 CD          6.9530   45.5060    2.3730 C.3       1 ARG         0.0627
     22 NE          6.7700   44.0720    2.5840 N.pl3     1 ARG        -0.2723
     23 CZ          7.3230   43.1240    1.8330 C.cat     1 ARG         0.2882
     24 NH1         8.1040   43.4490    0.8080 N.pl3     1 ARG        -0.2849
     25 NH2         7.1020   41.8470    2.1160 N.pl3     1 ARG        -0.2849
     26 N           6.0910   48.1790    6.2170 N.am      1 TYR        -0.2621
     27 CA          6.8050   49.4040    6.5430 C.3       1 TYR         0.1390
     28 C           8.1640   49.4500    5.8500 C.2       1 TYR         0.2058
     29 O           8.7860   48.4150    5.6000 O.2       1 TYR        -0.3942
     30 CB          7.0420   49.5240    8.0510 C.3       1 TYR         0.0163
     31 CG          5.8090   49.8300    8.8640 C.ar      1 TYR        -0.0493
     32 CD1         5.0180   48.8040    9.3950 C.ar      1 TYR        -0.0685
     33 CD2         5.4400   51.1490    9.1160 C.ar      1 TYR        -0.0685
     34 CE1         3.8810   49.0950   10.1670 C.ar      1 TYR        -0.0398
     35 CE2         4.3180   51.4500    9.8750 C.ar      1 TYR        -0.0398
     36 CZ          3.5450   50.4260   10.4000 C.ar      1 TYR         0.0805
     37 OH          2.4450   50.7470   11.1610 O.3       1 TYR        -0.3376
     38 N           8.6000   50.6610    5.5320 N.am      1 TYR        -0.2620
     39 CA          9.9020   50.8870    4.9200 C.3       1 TYR         0.1390
     40 C          10.6020   51.9090    5.8070 C.2       1 TYR         0.2057
     41 O           9.9460   52.6950    6.4950 O.2       1 TYR        -0.3942
     42 CB          9.7630   51.4130    3.4860 C.3       1 TYR         0.0163
     43 CG          9.1950   50.3880    2.5280 C.ar      1 TYR        -0.0493
     44 CD1         7.8180   50.1980    2.4120 C.ar      1 TYR        -0.0685
     45 CD2        10.0410   49.5720    1.7690 C.ar      1 TYR        -0.0685
     46 CE1         7.2930   49.2170    1.5630 C.ar      1 TYR        -0.0398
     47 CE2         9.5290   48.5910    0.9210 C.ar      1 TYR        -0.0398
     48 CZ          8.1540   48.4170    0.8230 C.ar      1 TYR         0.0805
     49 OH          7.6450   47.4350   -0.0050 O.3       1 TYR        -0.3376
     50 N          11.9300   51.9070    5.7980 N.am      1 GLU        -0.2635
     51 CA         12.6700   52.8270    6.6480 C.3       1 GLU         0.1325
     52 C          12.4070   54.2970    6.3310 C.2       1 GLU         0.2041
     53 O          12.6700   55.1660    7.1580 O.2       1 GLU        -0.3944
     54 CB         14.1750   52.5310    6.5650 C.3       1 GLU        -0.0008
     55 CG         14.8140   52.7950    5.2120 C.3       1 GLU         0.0044
     56 CD         16.2840   52.4080    5.1870 C.2       1 GLU         0.0350
     57 OE1        16.6300   51.4020    4.5270 O.co2     1 GLU        -0.5690
     58 OE2        17.0930   53.1000    5.8410 O.co2     1 GLU        -0.5690
     59 N          11.8640   54.5710    5.1500 N.am      1 SER        -0.2616
     60 CA         11.5970   55.9480    4.7430 C.3       1 SER         0.1539
     61 C          10.3780   56.6120    5.3880 C.2       1 SER         0.2062
     62 O          10.2340   57.8340    5.3250 O.2       1 SER        -0.3943
     63 CB         11.4710   56.0250    3.2160 C.3       1 SER         0.0843
     64 OG         10.4590   55.1580    2.7300 O.3       1 SER        -0.3903
     65 N           9.5010   55.8340    6.0160 N.am      1 SER        -0.2615
     66 CA          8.3230   56.4380    6.6340 C.3       1 SER         0.1539
     67 C           7.7250   55.6540    7.7910 C.2       1 SER         0.2062
     68 O           7.7640   54.4270    7.8120 O.2       1 SER        -0.3943
     69 CB          7.2370   56.6650    5.5780 C.3       1 SER         0.0843
     70 OG          6.0750   57.2200    6.1690 O.3       1 SER        -0.3903
     71 N           7.1780   56.3820    8.7580 N.am      1 LEU        -0.2636
     72 CA          6.5300   55.7660    9.9080 C.3       1 LEU         0.1312
     73 C           5.1280   55.3220    9.5000 C.2       1 LEU         0.2039
     74 O           4.4340   54.6460   10.2570 O.2       1 LEU        -0.3944
     75 CB          6.4490   56.7570   11.0720 C.3       1 LEU        -0.0101
     76 CG          7.7650   56.9720   11.8230 C.3       1 LEU        -0.0425
     77 CD1         7.5970   58.0680   12.8680 C.3       1 LEU        -0.0625
     78 CD2         8.1930   55.6620   12.4760 C.3       1 LEU        -0.0625
     79 N           4.7170   55.7160    8.2980 N.am      1 LEU        -0.2637
     80 CA          3.4110   55.3440    7.7740 C.3       1 LEU         0.1314
     81 C           3.5850   54.0820    6.9320 C.2       1 LEU         0.2064
     82 O           4.4800   54.0050    6.0930 O.2       1 LEU        -0.3942
     83 CB          2.8390   56.4730    6.9100 C.3       1 LEU        -0.0101
     84 CG          2.6210   57.8190    7.6090 C.3       1 LEU        -0.0425
     85 CD1         2.0790   58.8330    6.6100 C.3       1 LEU        -0.0625
     86 CD2         1.6520   57.6460    8.7720 C.3       1 LEU        -0.0625
     87 N           2.7330   53.0720    7.1510 N.am      1 PRO        -0.2498
     88 CA          2.8190   51.8180    6.3980 C.3       1 PRO         0.1338
     89 C           2.2930   51.8930    4.9660 C.2       1 PRO         0.2042
     90 O           1.4290   52.7100    4.6480 O.2       1 PRO        -0.3944
     91 CB          2.0080   50.8550    7.2580 C.3       1 PRO        -0.0104
     92 CG          0.9320   51.7400    7.7870 C.3       1 PRO        -0.0281
     93 CD          1.6980   52.9820    8.1970 C.3       1 PRO         0.0369
     94 N           2.8310   51.0340    4.1070 N.am      1 TYR        -0.2621
     95 CA          2.4110   50.9660    2.7130 C.3       1 TYR         0.1392
     96 C           1.4940   49.7640    2.5450 C.2       1 TYR         0.2082
     97 O           1.5340   48.8280    3.3450 O.2       1 TYR        -0.3940
     98 CB          3.6130   50.7940    1.7830 C.3       1 TYR         0.0164
     99 CG          4.4090   52.0480    1.5270 C.ar      1 TYR        -0.0493
    100 CD1         5.2370   52.5890    2.5080 C.ar      1 TYR        -0.0685
    101 CD2         4.3430   52.6900    0.2900 C.ar      1 TYR        -0.0685
    102 CE1         5.9840   53.7390    2.2630 C.ar      1 TYR        -0.0398
    103 CE2         5.0830   53.8360    0.0340 C.ar      1 TYR        -0.0398
    104 CZ          5.9010   54.3550    1.0220 C.ar      1 TYR         0.0805
    105 OH          6.6360   55.4860    0.7600 O.3       1 TYR        -0.3376
    106 N           0.6540   49.7730    1.5000 N.am      1 PRO        -0.2497
    107 CA         -0.2650   48.6580    1.2500 C.3       1 PRO         0.1337
    108 C           0.4830   47.3290    1.1090 C.2       1 PRO         0.2036
    109 O           1.7120   47.3100    1.0200 O.2       1 PRO        -0.3944
    110 CB         -0.9600   49.0740   -0.0440 C.3       1 PRO        -0.0104
    111 CG         -0.9900   50.5660    0.0690 C.3       1 PRO        -0.0281
    112 CD          0.4040   50.8780    0.5580 C.3       1 PRO         0.0369
    113 N          -0.2730   46.2320    1.0900 N.am      1 ASP        -0.2679
    114 CA          0.2690   44.8760    0.9660 C.3       1 ASP         0.1057
    115 C           0.7630   44.3500    2.3080 C.2       1 ASP         0.0618
    116 O           0.1640   43.3800    2.8190 O.co2     1 ASP        -0.5665
    117 CB          1.4180   44.8360   -0.0510 C.3       1 ASP         0.0351
    118 CG          1.0010   45.3260   -1.4230 C.2       1 ASP         0.0387
    119 OD1         1.8630   45.3610   -2.3260 O.co2     1 ASP        -0.5688
    120 OD2        -0.1850   45.6760   -1.6010 O.co2     1 ASP        -0.5688
    121 OXT         1.7420   44.9170    2.8360 O.co2     1 ASP        -0.5665
    122 H1         -1.1342   45.5488    5.5883 H         1 TRP         0.2016
    123 H2          0.0036   45.0786    6.6808 H         1 TRP         0.2016
    124 H3          0.0659   44.5176    5.1346 H         1 TRP         0.2016
    125 H4          0.5012   46.6961    4.2679 H         1 TRP         0.1114
    126 H5         -0.6472   48.0853    5.8072 H         1 TRP         0.0430
    127 H6          1.0960   48.4599    6.0258 H         1 TRP         0.0430
    128 H7          2.2394   46.9001    8.2098 H         1 TRP         0.0795
    129 H8          1.2273   46.5223   10.5783 H         1 TRP         0.2216
    130 H9         -2.6381   48.0475    7.1278 H         1 TRP         0.0540
    131 H10        -1.3233   46.6999   11.7683 H         1 TRP         0.0541
    132 H11        -4.3201   47.9251    8.9456 H         1 TRP         0.0510
    133 H12        -3.6640   47.2563   11.2314 H         1 TRP         0.0530
    134 H13         2.6413   47.8303    4.5045 H         1 ARG         0.1885
    135 H14         4.6765   46.1484    5.8745 H         1 ARG         0.0800
    136 H15         4.5045   46.8081    2.9069 H         1 ARG         0.0313
    137 H16         4.6570   45.1979    3.6884 H         1 ARG         0.0313
    138 H17         6.9480   45.9175    4.4842 H         1 ARG         0.0301
    139 H18         6.7737   47.3667    3.4372 H         1 ARG         0.0301
    140 H19         8.0214   45.7089    2.2077 H         1 ARG         0.0689
    141 H20         6.3800   45.8120    1.4853 H         1 ARG         0.0689
    142 H21         6.1717   43.7749    3.3681 H         1 ARG         0.2642
    143 H22         8.5294   42.7101    0.2301 H         1 ARG         0.2615
    144 H23         8.2839   44.4398    0.5915 H         1 ARG         0.2615
    145 H24         6.4971   41.5927    2.9099 H         1 ARG         0.2615
    146 H25         7.5353   41.1098    1.5418 H         1 ARG         0.2615
    147 H26         6.3473   47.3241    6.6682 H         1 TYR         0.1885
    148 H27         6.2003   50.2587    6.2056 H         1 TYR         0.0821
    149 H28         7.7713   50.3300    8.2195 H         1 TYR         0.0453
    150 H29         7.4594   48.5711    8.4084 H         1 TYR         0.0453
    151 H30         5.2867   47.7707    9.2078 H         1 TYR         0.0530
    152 H31         6.0406   51.9558    8.7116 H         1 TYR         0.0530
    153 H32         3.2741   48.2950   10.5754 H         1 TYR         0.0525
    154 H33         4.0466   52.4836   10.0570 H         1 TYR         0.0525
    155 H34         2.0173   49.9494   11.4497 H         1 TYR         0.2458
    156 H35         8.0129   51.4486    5.7194 H         1 TYR         0.1885
    157 H36        10.4754   49.9485    4.9013 H         1 TYR         0.0821
    158 H37        10.7578   51.7145    3.1261 H         1 TYR         0.0453
    159 H38         9.0965   52.2880    3.4975 H         1 TYR         0.0453
    160 H39         7.1435   50.8203    2.9889 H         1 TYR         0.0530
    161 H40        11.1144   49.7050    1.8417 H         1 TYR         0.0530
    162 H41         6.2203   49.0823    1.4834 H         1 TYR         0.0525
    163 H42        10.1999   47.9674    0.3413 H         1 TYR         0.0525
    164 H43         7.9673   46.5868    0.2763 H         1 TYR         0.2458
    165 H44        12.4232   51.2707    5.2047 H         1 GLU         0.1883
    166 H45        12.3445   52.6509    7.6839 H         1 GLU         0.0801
    167 H46        14.3270   51.4698    6.8115 H         1 GLU         0.0330
    168 H47        14.6864   53.1575    7.3106 H         1 GLU         0.0330
    169 H48        14.7258   53.8669    4.9814 H         1 GLU         0.0433
    170 H49        14.2806   52.2104    4.4480 H         1 GLU         0.0433
    171 H50        11.6341   53.8216    4.5290 H         1 SER         0.1884
    172 H51        12.4748   56.5403    5.0408 H         1 SER         0.0823
    173 H52        12.4324   55.7398    2.7639 H         1 SER         0.0606
    174 H53        11.2233   57.0579    2.9301 H         1 SER         0.0606
    175 H54         9.6242   55.4016    3.1126 H         1 SER         0.2097
    176 H55         9.6464   54.8458    6.0647 H         1 SER         0.1884
    177 H56         8.6320   57.4173    7.0282 H         1 SER         0.0823
    178 H57         6.9805   55.7029    5.1106 H         1 SER         0.0606
    179 H58         7.6174   57.3555    4.8109 H         1 SER         0.0606
    180 H59         6.2926   58.0526    6.5714 H         1 SER         0.2097
    181 H60         7.2119   57.3794    8.6949 H         1 LEU         0.1883
    182 H61         7.1122   54.8883   10.2253 H         1 LEU         0.0800
    183 H62         5.7029   56.3832   11.7887 H         1 LEU         0.0315
    184 H63         6.1200   57.7278   10.6730 H         1 LEU         0.0315
    185 H64         8.5401   57.2825   11.1069 H         1 LEU         0.0298
    186 H65         8.5476   58.2146   13.4016 H         1 LEU         0.0232
    187 H66         6.8157   57.7747   13.5846 H         1 LEU         0.0232
    188 H67         7.3065   59.0060   12.3722 H         1 LEU         0.0232
    189 H68         8.3076   54.8875   11.7033 H         1 LEU         0.0232
    190 H69         7.4281   55.3465   13.2008 H         1 LEU         0.0232
    191 H70         9.1520   55.8071   12.9948 H         1 LEU         0.0232
    192 H71         5.3217   56.2833    7.7390 H         1 LEU         0.1883
    193 H72         2.7225   55.1420    8.6078 H         1 LEU         0.0800
    194 H73         1.8671   56.1368    6.5197 H         1 LEU         0.0315
    195 H74         3.5329   56.6387    6.0727 H         1 LEU         0.0315
    196 H75         3.5837   58.1815    7.9986 H         1 LEU         0.0298
    197 H76         1.9236   59.7979    7.1147 H         1 LEU         0.0232
    198 H77         1.1219   58.4729    6.2047 H         1 LEU         0.0232
    199 H78         2.8001   58.9605    5.7892 H         1 LEU         0.0232
    200 H79         2.0592   56.9113    9.4823 H         1 LEU         0.0232
    201 H80         0.6829   57.2905    8.3920 H         1 LEU         0.0232
    202 H81         1.5145   58.6112    9.2814 H         1 LEU         0.0232
    203 H82         3.8678   51.4896    6.3513 H         1 PRO         0.0802
    204 H83         2.6175   50.4368    8.0726 H         1 PRO         0.0313
    205 H84         1.5904   50.0355    6.6546 H         1 PRO         0.0313
    206 H85         0.4287   51.2807    8.6505 H         1 PRO         0.0287
    207 H86         0.1890   51.9703    7.0093 H         1 PRO         0.0287
    208 H87         1.0488   53.8700    8.1926 H         1 PRO         0.0524
    209 H88         2.1480   52.8617    9.1935 H         1 PRO         0.0524
    210 H89         3.5473   50.4140    4.4273 H         1 TYR         0.1885
    211 H90         1.8731   51.8881    2.4478 H         1 TYR         0.0821
    212 H91         3.2448   50.4210    0.8159 H         1 TYR         0.0453
    213 H92         4.2865   50.0487    2.2312 H         1 TYR         0.0453
    214 H93         5.3010   52.1076    3.4771 H         1 TYR         0.0530
    215 H94         3.7020   52.2863   -0.4854 H         1 TYR         0.0530
    216 H95         6.6247   54.1493    3.0351 H         1 TYR         0.0525
    217 H96         5.0205   54.3211   -0.9334 H         1 TYR         0.0525
    218 H97         7.1434   55.7177    1.5290 H         1 TYR         0.2458
    219 H98        -0.9957   48.5675    2.0672 H         1 PRO         0.0802
    220 H99        -1.9772   48.6592   -0.0999 H         1 PRO         0.0313
    221 H100       -0.3845   48.7537   -0.9250 H         1 PRO         0.0313
    222 H101       -1.7495   50.8958    0.7931 H         1 PRO         0.0287
    223 H102       -1.1848   51.0358   -0.9063 H         1 PRO         0.0287
    224 H103        1.1288   50.8693   -0.2694 H         1 PRO         0.0524
    225 H104        0.4400   51.8526    1.0668 H         1 PRO         0.0524
    226 H105       -1.2644   46.3398    1.1644 H         1 ASP         0.1876
    227 H106       -0.5363   44.2169    0.6094 H         1 ASP         0.0745
    228 H107        1.7729   43.7987   -0.1406 H         1 ASP         0.0471
    229 H108        2.2359   45.4730    0.3167 H         1 ASP         0.0471
@<TRIPOS>BOND
     1    1    2 1  
     2    2    3 1  
     3    2    5 1  
     4    3    4 2  
     5    3   15 am 
     6    5    6 1  
     7    6    7 2  
     8    6    8 1  
     9    7    9 1  
    10    8   10 ar 
    11    8   11 ar 
    12    9   10 1  
    13   10   12 ar 
    14   11   13 ar 
    15   12   14 ar 
    16   13   14 ar 
    17   15   16 1  
    18   16   17 1  
    19   16   19 1  
    20   17   18 2  
    21   17   26 am 
    22   19   20 1  
    23   20   21 1  
    24   21   22 1  
    25   22   23 ar 
    26   23   24 ar 
    27   23   25 ar 
    28   26   27 1  
    29   27   28 1  
    30   27   30 1  
    31   28   29 2  
    32   28   38 am 
    33   30   31 1  
    34   31   32 ar 
    35   31   33 ar 
    36   32   34 ar 
    37   33   35 ar 
    38   34   36 ar 
    39   35   36 ar 
    40   36   37 1  
    41   38   39 1  
    42   39   40 1  
    43   39   42 1  
    44   40   41 2  
    45   40   50 am 
    46   42   43 1  
    47   43   44 ar 
    48   43   45 ar 
    49   44   46 ar 
    50   45   47 ar 
    51   46   48 ar 
    52   47   48 ar 
    53   48   49 1  
    54   50   51 1  
    55   51   52 1  
    56   51   54 1  
    57   52   53 2  
    58   52   59 am 
    59   54   55 1  
    60   55   56 1  
    61   56   57 ar 
    62   56   58 ar 
    63   59   60 1  
    64   60   61 1  
    65   60   63 1  
    66   61   62 2  
    67   61   65 am 
    68   63   64 1  
    69   65   66 1  
    70   66   67 1  
    71   66   69 1  
    72   67   68 2  
    73   67   71 am 
    74   69   70 1  
    75   71   72 1  
    76   72   73 1  
    77   72   75 1  
    78   73   74 2  
    79   73   79 am 
    80   75   76 1  
    81   76   77 1  
    82   76   78 1  
    83   79   80 1  
    84   80   81 1  
    85   80   83 1  
    86   81   82 2  
    87   81   87 am 
    88   83   84 1  
    89   84   85 1  
    90   84   86 1  
    91   87   88 1  
    92   87   93 1  
    93   88   89 1  
    94   88   91 1  
    95   89   90 2  
    96   89   94 am 
    97   91   92 1  
    98   92   93 1  
    99   94   95 1  
   100   95   96 1  
   101   95   98 1  
   102   96   97 2  
   103   96  106 am 
   104   98   99 1  
   105   99  100 ar 
   106   99  101 ar 
   107  100  102 ar 
   108  101  103 ar 
   109  102  104 ar 
   110  103  104 ar 
   111  104  105 1  
   112  106  107 1  
   113  106  112 1  
   114  107  108 1  
   115  107  110 1  
   116  108  109 2  
   117  108  113 am 
   118  110  111 1  
   119  111  112 1  
   120  113  114 1  
   121  114  115 1  
   122  114  117 1  
   123  115  116 ar 
   124  115  121 ar 
   125  117  118 1  
   126  118  119 ar 
   127  118  120 ar 
   128    1  122 1  
   129    1  123 1  
   130    1  124 1  
   131    2  125 1  
   132    5  126 1  
   133    5  127 1  
   134    7  128 1  
   135    9  129 1  
   136   11  130 1  
   137   12  131 1  
   138   13  132 1  
   139   14  133 1  
   140   15  134 1  
   141   16  135 1  
   142   19  136 1  
   143   19  137 1  
   144   20  138 1  
   145   20  139 1  
   146   21  140 1  
   147   21  141 1  
   148   22  142 1  
   149   24  143 1  
   150   24  144 1  
   151   25  145 1  
   152   25  146 1  
   153   26  147 1  
   154   27  148 1  
   155   30  149 1  
   156   30  150 1  
   157   32  151 1  
   158   33  152 1  
   159   34  153 1  
   160   35  154 1  
   161   37  155 1  
   162   38  156 1  
   163   39  157 1  
   164   42  158 1  
   165   42  159 1  
   166   44  160 1  
   167   45  161 1  
   168   46  162 1  
   169   47  163 1  
   170   49  164 1  
   171   50  165 1  
   172   51  166 1  
   173   54  167 1  
   174   54  168 1  
   175   55  169 1  
   176   55  170 1  
   177   59  171 1  
   178   60  172 1  
   179   63  173 1  
   180   63  174 1  
   181   64  175 1  
   182   65  176 1  
   183   66  177 1  
   184   69  178 1  
   185   69  179 1  
   186   70  180 1  
   187   71  181 1  
   188   72  182 1  
   189   75  183 1  
   190   75  184 1  
   191   76  185 1  
   192   77  186 1  
   193   77  187 1  
   194   77  188 1  
   195   78  189 1  
   196   78  190 1  
   197   78  191 1  
   198   79  192 1  
   199   80  193 1  
   200   83  194 1  
   201   83  195 1  
   202   84  196 1  
   203   85  197 1  
   204   85  198 1  
   205   85  199 1  
   206   86  200 1  
   207   86  201 1  
   208   86  202 1  
   209   88  203 1  
   210   91  204 1  
   211   91  205 1  
   212   92  206 1  
   213   92  207 1  
   214   93  208 1  
   215   93  209 1  
   216   94  210 1  
   217   95  211 1  
   218   98  212 1  
   219   98  213 1  
   220  100  214 1  
   221  101  215 1  
   222  102  216 1  
   223  103  217 1  
   224  105  218 1  
   225  107  219 1  
   226  110  220 1  
   227  110  221 1  
   228  111  222 1  
   229  111  223 1  
   230  112  224 1  
   231  112  225 1  
   232  113  226 1  
   233  114  227 1  
   234  117  228 1  
   235  117  229 1  
@<TRIPOS>SUBSTRUCTURE
     1 TRP         1

