1hc9_ligand
  -I-interpret- 

230236  0  0  0  0  0  0  0  0999 V2000
   -0.1630   45.3100    5.7140 N   0  3  0  0  0
    0.6860   46.4680    5.3280 C   0  0  0  0  0
    2.1670   46.1500    5.5030 C   0  0  0  0  0
    2.5400   45.1440    6.1060 O   0  0  0  0  0
    0.3170   47.6960    6.1660 C   0  0  0  0  0
    0.1950   47.4050    7.6370 C   0  0  0  0  0
    1.1940   47.0230    8.4890 C   0  0  0  0  0
   -1.0070   47.4410    8.4170 C   0  0  0  0  0
    0.6840   46.8160    9.7540 N   0  0  0  0  0
   -0.6640   47.0650    9.7350 C   0  0  0  0  0
   -2.3430   47.7550    8.1290 C   0  0  0  0  0
   -1.6080   46.9920   10.7640 C   0  0  0  0  0
   -3.2840   47.6840    9.1540 C   0  0  0  0  0
   -2.9090   47.3040   10.4550 C   0  0  0  0  0
    3.0060   47.0250    4.9720 N   0  0  0  0  0
    4.4440   46.8420    5.0530 C   0  0  0  0  0
    5.1040   48.1800    5.3290 C   0  0  0  0  0
    4.7150   49.2010    4.7580 O   0  0  0  0  0
    4.9640   46.2530    3.7380 C   0  0  0  0  0
    6.4750   46.3170    3.5750 C   0  0  0  0  0
    6.9530   45.5060    2.3730 C   0  0  0  0  0
    6.7700   44.0720    2.5840 N   0  0  0  0  0
    7.3230   43.1240    1.8330 C   0  0  0  0  0
    8.1040   43.4490    0.8080 N   0  0  0  0  0
    7.1020   41.8470    2.1160 N   0  0  0  0  0
    6.0910   48.1790    6.2170 N   0  0  0  0  0
    6.8050   49.4040    6.5430 C   0  0  0  0  0
    8.1640   49.4500    5.8500 C   0  0  0  0  0
    8.7860   48.4150    5.6000 O   0  0  0  0  0
    7.0420   49.5240    8.0510 C   0  0  0  0  0
    5.8090   49.8300    8.8640 C   0  0  0  0  0
    5.0180   48.8040    9.3950 C   0  0  0  0  0
    5.4400   51.1490    9.1160 C   0  0  0  0  0
    3.8810   49.0950   10.1670 C   0  0  0  0  0
    4.3180   51.4500    9.8750 C   0  0  0  0  0
    3.5450   50.4260   10.4000 C   0  0  0  0  0
    2.4450   50.7470   11.1610 O   0  0  0  0  0
    8.6000   50.6610    5.5320 N   0  0  0  0  0
    9.9020   50.8870    4.9200 C   0  0  0  0  0
   10.6020   51.9090    5.8070 C   0  0  0  0  0
    9.9460   52.6950    6.4950 O   0  0  0  0  0
    9.7630   51.4130    3.4860 C   0  0  0  0  0
    9.1950   50.3880    2.5280 C   0  0  0  0  0
    7.8180   50.1980    2.4120 C   0  0  0  0  0
   10.0410   49.5720    1.7690 C   0  0  0  0  0
    7.2930   49.2170    1.5630 C   0  0  0  0  0
    9.5290   48.5910    0.9210 C   0  0  0  0  0
    8.1540   48.4170    0.8230 C   0  0  0  0  0
    7.6450   47.4350   -0.0050 O   0  0  0  0  0
   11.9300   51.9070    5.7980 N   0  0  0  0  0
   12.6700   52.8270    6.6480 C   0  0  0  0  0
   12.4070   54.2970    6.3310 C   0  0  0  0  0
   12.6700   55.1660    7.1580 O   0  0  0  0  0
   14.1750   52.5310    6.5650 C   0  0  0  0  0
   14.8140   52.7950    5.2120 C   0  0  0  0  0
   16.2840   52.4080    5.1870 C   0  0  0  0  0
   16.6300   51.4020    4.5270 O   0  0  0  0  0
   17.0930   53.1000    5.8410 O   0  0  0  0  0
   11.8640   54.5710    5.1500 N   0  0  0  0  0
   11.5970   55.9480    4.7430 C   0  0  0  0  0
   10.3780   56.6120    5.3880 C   0  0  0  0  0
   10.2340   57.8340    5.3250 O   0  0  0  0  0
   11.4710   56.0250    3.2160 C   0  0  0  0  0
   10.4590   55.1580    2.7300 O   0  0  0  0  0
    9.5010   55.8340    6.0160 N   0  0  0  0  0
    8.3230   56.4380    6.6340 C   0  0  0  0  0
    7.7250   55.6540    7.7910 C   0  0  0  0  0
    7.7640   54.4270    7.8120 O   0  0  0  0  0
    7.2370   56.6650    5.5780 C   0  0  0  0  0
    6.0750   57.2200    6.1690 O   0  0  0  0  0
    7.1780   56.3820    8.7580 N   0  0  0  0  0
    6.5300   55.7660    9.9080 C   0  0  0  0  0
    5.1280   55.3220    9.5000 C   0  0  0  0  0
    4.4340   54.6460   10.2570 O   0  0  0  0  0
    6.4490   56.7570   11.0720 C   0  0  0  0  0
    7.7650   56.9720   11.8230 C   0  0  0  0  0
    7.5970   58.0680   12.8680 C   0  0  0  0  0
    8.1930   55.6620   12.4760 C   0  0  0  0  0
    4.7170   55.7160    8.2980 N   0  0  0  0  0
    3.4110   55.3440    7.7740 C   0  0  0  0  0
    3.5850   54.0820    6.9320 C   0  0  0  0  0
    4.4800   54.0050    6.0930 O   0  0  0  0  0
    2.8390   56.4730    6.9100 C   0  0  0  0  0
    2.6210   57.8190    7.6090 C   0  0  0  0  0
    2.0790   58.8330    6.6100 C   0  0  0  0  0
    1.6520   57.6460    8.7720 C   0  0  0  0  0
    2.7330   53.0720    7.1510 N   0  0  0  0  0
    2.8190   51.8180    6.3980 C   0  0  0  0  0
    2.2930   51.8930    4.9660 C   0  0  0  0  0
    1.4290   52.7100    4.6480 O   0  0  0  0  0
    2.0080   50.8550    7.2580 C   0  0  0  0  0
    0.9320   51.7400    7.7870 C   0  0  0  0  0
    1.6980   52.9820    8.1970 C   0  0  0  0  0
    2.8310   51.0340    4.1070 N   0  0  0  0  0
    2.4110   50.9660    2.7130 C   0  0  0  0  0
    1.4940   49.7640    2.5450 C   0  0  0  0  0
    1.5340   48.8280    3.3450 O   0  0  0  0  0
    3.6130   50.7940    1.7830 C   0  0  0  0  0
    4.4090   52.0480    1.5270 C   0  0  0  0  0
    5.2370   52.5890    2.5080 C   0  0  0  0  0
    4.3430   52.6900    0.2900 C   0  0  0  0  0
    5.9840   53.7390    2.2630 C   0  0  0  0  0
    5.0830   53.8360    0.0340 C   0  0  0  0  0
    5.9010   54.3550    1.0220 C   0  0  0  0  0
    6.6360   55.4860    0.7600 O   0  0  0  0  0
    0.6540   49.7730    1.5000 N   0  0  0  0  0
   -0.2650   48.6580    1.2500 C   0  0  0  0  0
    0.4830   47.3290    1.1090 C   0  0  0  0  0
    1.7120   47.3100    1.0200 O   0  0  0  0  0
   -0.9600   49.0740   -0.0440 C   0  0  0  0  0
   -0.9900   50.5660    0.0690 C   0  0  0  0  0
    0.4040   50.8780    0.5580 C   0  0  0  0  0
   -0.2730   46.2320    1.0900 N   0  0  0  0  0
    0.2690   44.8760    0.9660 C   0  0  0  0  0
    0.7630   44.3500    2.3080 C   0  0  0  0  0
    0.1640   43.3800    2.8190 O   0  0  0  0  0
    1.4180   44.8360   -0.0510 C   0  0  0  0  0
    1.0010   45.3260   -1.4230 C   0  0  0  0  0
    1.8630   45.3610   -2.3260 O   0  0  0  0  0
   -0.1850   45.6760   -1.6010 O   0  0  0  0  0
    1.7420   44.9170    2.8360 O   0  0  0  0  0
    0.0922   44.4997    5.1495 H   0  0  0  0  0
   -0.0179   45.0976    6.7010 H   0  0  0  0  0
   -1.1437   45.5411    5.5553 H   0  0  0  0  0
    0.5038   46.6803    4.2745 H   0  0  0  0  0
   -0.6549   48.0482    5.8203 H   0  0  0  0  0
    1.1147   48.4285    6.0423 H   0  0  0  0  0
    2.2404   46.9000    8.2095 H   0  0  0  0  0
   -2.6397   48.0491    7.1222 H   0  0  0  0  0
   -1.3217   46.6983   11.7739 H   0  0  0  0  0
   -4.3258   47.9265    8.9445 H   0  0  0  0  0
   -3.6682   47.2561   11.2357 H   0  0  0  0  0
    2.6340   47.8464    4.4951 H   0  0  0  0  0
    4.6829   46.1526    5.8628 H   0  0  0  0  0
    4.5298   46.8418    2.9299 H   0  0  0  0  0
    4.6854   45.1993    3.7272 H   0  0  0  0  0
    6.9334   45.9009    4.4721 H   0  0  0  0  0
    6.7581   47.3580    3.4192 H   0  0  0  0  0
    8.0158   45.6997    2.2278 H   0  0  0  0  0
    6.3680   45.8032    1.5026 H   0  0  0  0  0
    6.1776   43.7778    3.3604 H   0  0  0  0  0
    8.5320   42.7172    0.2408 H   0  0  0  0  0
    8.2754   44.4302    0.5885 H   0  0  0  0  0
    6.5097   41.5951    2.9073 H   0  0  0  0  0
    6.3524   47.3070    6.6772 H   0  0  0  0  0
    6.1815   50.2288    6.1981 H   0  0  0  0  0
    7.7314   50.3555    8.1973 H   0  0  0  0  0
    7.4124   48.5567    8.3906 H   0  0  0  0  0
    5.2882   47.7649    9.2067 H   0  0  0  0  0
    6.0439   51.9602    8.7094 H   0  0  0  0  0
    3.2707   48.2906   10.5776 H   0  0  0  0  0
    4.0451   52.4893   10.0580 H   0  0  0  0  0
    2.3640   51.7019   11.2175 H   0  0  0  0  0
    8.0012   51.4643    5.7231 H   0  0  0  0  0
   10.4695   49.9593    4.8471 H   0  0  0  0  0
   10.7596   51.6785    3.1333 H   0  0  0  0  0
    9.0767   52.2595    3.5095 H   0  0  0  0  0
    7.1397   50.8238    2.9921 H   0  0  0  0  0
   11.1203   49.7058    1.8421 H   0  0  0  0  0
    6.2144   49.0816    1.4830 H   0  0  0  0  0
   10.2037   47.9640    0.3381 H   0  0  0  0  0
    8.3686   46.9778   -0.4397 H   0  0  0  0  0
   12.4330   51.2580    5.1929 H   0  0  0  0  0
   12.3111   52.6615    7.6638 H   0  0  0  0  0
   14.2955   51.4663    6.7651 H   0  0  0  0  0
   14.6640   53.1962    7.2766 H   0  0  0  0  0
   14.7404   53.8625    5.0043 H   0  0  0  0  0
   14.2921   52.1944    4.4671 H   0  0  0  0  0
   15.8590   51.0183    4.1028 H   0  0  0  0  0
   11.6295   53.8066    4.5166 H   0  0  0  0  0
   12.4547   56.5137    5.1070 H   0  0  0  0  0
   12.4220   55.7238    2.7768 H   0  0  0  0  0
   11.2081   57.0472    2.9437 H   0  0  0  0  0
   10.4079   55.2317    1.7742 H   0  0  0  0  0
    9.6493   54.8261    6.0657 H   0  0  0  0  0
    8.6792   57.3775    7.0567 H   0  0  0  0  0
    6.9798   55.7078    5.1245 H   0  0  0  0  0
    7.6153   57.3568    4.8254 H   0  0  0  0  0
    5.4068   57.3549    5.4930 H   0  0  0  0  0
    7.2126   57.3994    8.6936 H   0  0  0  0  0
    7.1121   54.9047   10.2357 H   0  0  0  0  0
    5.7384   56.3461   11.7891 H   0  0  0  0  0
    6.1646   57.7204   10.6488 H   0  0  0  0  0
    8.5392   57.2866   11.1231 H   0  0  0  0  0
    7.3091   58.9968   12.3755 H   0  0  0  0  0
    6.8226   57.7762   13.5774 H   0  0  0  0  0
    8.5396   58.2123   13.3961 H   0  0  0  0  0
    7.4223   55.3371   13.1750 H   0  0  0  0  0
    8.3312   54.9022   11.7068 H   0  0  0  0  0
    9.1303   55.8136   13.0113 H   0  0  0  0  0
    5.3338   56.2946    7.7278 H   0  0  0  0  0
    2.7173   55.1636    8.5952 H   0  0  0  0  0
    1.8545   56.1371    6.5845 H   0  0  0  0  0
    3.5717   56.6545    6.1237 H   0  0  0  0  0
    3.5712   58.1839    7.9991 H   0  0  0  0  0
    2.7943   58.9584    5.7972 H   0  0  0  0  0
    1.1307   58.4750    6.2091 H   0  0  0  0  0
    1.9255   59.7886    7.1113 H   0  0  0  0  0
    0.6981   57.2757    8.3965 H   0  0  0  0  0
    2.0653   56.9321    9.4845 H   0  0  0  0  0
    1.5018   58.6069    9.2641 H   0  0  0  0  0
    3.8545   51.5153    6.2425 H   0  0  0  0  0
    2.5963   50.3765    8.0410 H   0  0  0  0  0
    1.6270   49.9978    6.7029 H   0  0  0  0  0
    0.3766   51.2905    8.6102 H   0  0  0  0  0
    0.1496   51.9436    7.0559 H   0  0  0  0  0
    1.0714   53.8718    8.2581 H   0  0  0  0  0
    2.1102   52.9188    9.2041 H   0  0  0  0  0
    3.5616   50.4016    4.4337 H   0  0  0  0  0
    1.9003   51.8938    2.4551 H   0  0  0  0  0
    3.2200   50.4700    0.8194 H   0  0  0  0  0
    4.2870   50.0886    2.2690 H   0  0  0  0  0
    5.3014   52.1049    3.4825 H   0  0  0  0  0
    3.6984   52.2841   -0.4897 H   0  0  0  0  0
    6.6283   54.1516    3.0394 H   0  0  0  0  0
    5.0202   54.3238   -0.9387 H   0  0  0  0  0
    6.4614   55.7790   -0.1374 H   0  0  0  0  0
   -0.9655   48.4827    2.0665 H   0  0  0  0  0
   -1.9511   48.6344   -0.1566 H   0  0  0  0  0
   -0.4433   48.7239   -0.9376 H   0  0  0  0  0
   -1.7709   50.9306    0.7364 H   0  0  0  0  0
   -1.2373   51.0629   -0.8691 H   0  0  0  0  0
    1.1396   50.9355   -0.2443 H   0  0  0  0  0
    0.4898   51.8632    1.0164 H   0  0  0  0  0
   -1.2842   46.3420    1.1659 H   0  0  0  0  0
   -0.5419   44.2369    0.6167 H   0  0  0  0  0
   -0.5528   43.1076    2.2414 H   0  0  0  0  0
    1.7421   43.8000   -0.1496 H   0  0  0  0  0
    2.2098   45.4912    0.3123 H   0  0  0  0  0
   -0.6749   45.5705   -0.7822 H   0  0  0  0  0
  1  2  1  0  0  0
  2  3  1  0  0  0
  2  5  1  0  0  0
  3  4  2  0  0  0
  3 15  1  0  0  0
  5  6  1  0  0  0
  6  7  4  0  0  0
  6  8  4  0  0  0
  7  9  4  0  0  0
  8 10  4  0  0  0
  8 11  4  0  0  0
  9 10  4  0  0  0
 10 12  4  0  0  0
 11 13  4  0  0  0
 12 14  4  0  0  0
 13 14  4  0  0  0
 15 16  1  0  0  0
 16 17  1  0  0  0
 16 19  1  0  0  0
 17 18  2  0  0  0
 17 26  1  0  0  0
 19 20  1  0  0  0
 20 21  1  0  0  0
 21 22  1  0  0  0
 22 23  1  0  0  0
 23 24  1  0  0  0
 23 25  2  0  0  0
 26 27  1  0  0  0
 27 28  1  0  0  0
 27 30  1  0  0  0
 28 29  2  0  0  0
 28 38  1  0  0  0
 30 31  1  0  0  0
 31 32  4  0  0  0
 31 33  4  0  0  0
 32 34  4  0  0  0
 33 35  4  0  0  0
 34 36  4  0  0  0
 35 36  4  0  0  0
 36 37  1  0  0  0
 38 39  1  0  0  0
 39 40  1  0  0  0
 39 42  1  0  0  0
 40 41  2  0  0  0
 40 50  1  0  0  0
 42 43  1  0  0  0
 43 44  4  0  0  0
 43 45  4  0  0  0
 44 46  4  0  0  0
 45 47  4  0  0  0
 46 48  4  0  0  0
 47 48  4  0  0  0
 48 49  1  0  0  0
 50 51  1  0  0  0
 51 52  1  0  0  0
 51 54  1  0  0  0
 52 53  2  0  0  0
 52 59  1  0  0  0
 54 55  1  0  0  0
 55 56  1  0  0  0
 56 57  1  0  0  0
 56 58  2  0  0  0
 59 60  1  0  0  0
 60 61  1  0  0  0
 60 63  1  0  0  0
 61 62  2  0  0  0
 61 65  1  0  0  0
 63 64  1  0  0  0
 65 66  1  0  0  0
 66 67  1  0  0  0
 66 69  1  0  0  0
 67 68  2  0  0  0
 67 71  1  0  0  0
 69 70  1  0  0  0
 71 72  1  0  0  0
 72 73  1  0  0  0
 72 75  1  0  0  0
 73 74  2  0  0  0
 73 79  1  0  0  0
 75 76  1  0  0  0
 76 77  1  0  0  0
 76 78  1  0  0  0
 79 80  1  0  0  0
 80 81  1  0  0  0
 80 83  1  0  0  0
 81 82  2  0  0  0
 81 87  1  0  0  0
 83 84  1  0  0  0
 84 85  1  0  0  0
 84 86  1  0  0  0
 87 88  1  0  0  0
 87 93  1  0  0  0
 88 89  1  0  0  0
 88 91  1  0  0  0
 89 90  2  0  0  0
 89 94  1  0  0  0
 91 92  1  0  0  0
 92 93  1  0  0  0
 94 95  1  0  0  0
 95 96  1  0  0  0
 95 98  1  0  0  0
 96 97  2  0  0  0
 96106  1  0  0  0
 98 99  1  0  0  0
 99100  4  0  0  0
 99101  4  0  0  0
100102  4  0  0  0
101103  4  0  0  0
102104  4  0  0  0
103104  4  0  0  0
104105  1  0  0  0
106107  1  0  0  0
106112  1  0  0  0
107108  1  0  0  0
107110  1  0  0  0
108109  2  0  0  0
108113  1  0  0  0
110111  1  0  0  0
111112  1  0  0  0
113114  1  0  0  0
114115  1  0  0  0
114117  1  0  0  0
115116  1  0  0  0
115121  2  0  0  0
117118  1  0  0  0
118119  2  0  0  0
118120  1  0  0  0
  1122  1  0  0  0
  1123  1  0  0  0
  1124  1  0  0  0
  2125  1  0  0  0
  5126  1  0  0  0
  5127  1  0  0  0
  7128  1  0  0  0
 11129  1  0  0  0
 12130  1  0  0  0
 13131  1  0  0  0
 14132  1  0  0  0
 15133  1  0  0  0
 16134  1  0  0  0
 19135  1  0  0  0
 19136  1  0  0  0
 20137  1  0  0  0
 20138  1  0  0  0
 21139  1  0  0  0
 21140  1  0  0  0
 22141  1  0  0  0
 24142  1  0  0  0
 24143  1  0  0  0
 25144  1  0  0  0
 26145  1  0  0  0
 27146  1  0  0  0
 30147  1  0  0  0
 30148  1  0  0  0
 32149  1  0  0  0
 33150  1  0  0  0
 34151  1  0  0  0
 35152  1  0  0  0
 37153  1  0  0  0
 38154  1  0  0  0
 39155  1  0  0  0
 42156  1  0  0  0
 42157  1  0  0  0
 44158  1  0  0  0
 45159  1  0  0  0
 46160  1  0  0  0
 47161  1  0  0  0
 49162  1  0  0  0
 50163  1  0  0  0
 51164  1  0  0  0
 54165  1  0  0  0
 54166  1  0  0  0
 55167  1  0  0  0
 55168  1  0  0  0
 57169  1  0  0  0
 59170  1  0  0  0
 60171  1  0  0  0
 63172  1  0  0  0
 63173  1  0  0  0
 64174  1  0  0  0
 65175  1  0  0  0
 66176  1  0  0  0
 69177  1  0  0  0
 69178  1  0  0  0
 70179  1  0  0  0
 71180  1  0  0  0
 72181  1  0  0  0
 75182  1  0  0  0
 75183  1  0  0  0
 76184  1  0  0  0
 77185  1  0  0  0
 77186  1  0  0  0
 77187  1  0  0  0
 78188  1  0  0  0
 78189  1  0  0  0
 78190  1  0  0  0
 79191  1  0  0  0
 80192  1  0  0  0
 83193  1  0  0  0
 83194  1  0  0  0
 84195  1  0  0  0
 85196  1  0  0  0
 85197  1  0  0  0
 85198  1  0  0  0
 86199  1  0  0  0
 86200  1  0  0  0
 86201  1  0  0  0
 88202  1  0  0  0
 91203  1  0  0  0
 91204  1  0  0  0
 92205  1  0  0  0
 92206  1  0  0  0
 93207  1  0  0  0
 93208  1  0  0  0
 94209  1  0  0  0
 95210  1  0  0  0
 98211  1  0  0  0
 98212  1  0  0  0
100213  1  0  0  0
101214  1  0  0  0
102215  1  0  0  0
103216  1  0  0  0
105217  1  0  0  0
107218  1  0  0  0
110219  1  0  0  0
110220  1  0  0  0
111221  1  0  0  0
111222  1  0  0  0
112223  1  0  0  0
112224  1  0  0  0
113225  1  0  0  0
114226  1  0  0  0
116227  1  0  0  0
117228  1  0  0  0
117229  1  0  0  0
120230  1  0  0  0
M  END
$$$$
