5bnj_ligand
  -I-interpret- 

 54 58  0  0  0  0  0  0  0  0999 V2000
   37.5450   55.8820   45.9430 C   0  0  0  0  0
   38.8030   56.9580   47.8320 C   0  0  0  0  0
   39.7420   56.5680   48.7420 C   0  0  0  0  0
   40.0140   55.2090   48.4870 C   0  0  0  0  0
   40.3650   57.4170   49.8010 C   0  0  0  0  0
   40.4500   58.8130   49.6500 C   0  0  0  0  0
   41.4690   57.6060   51.9350 C   0  0  0  0  0
   40.8870   56.8250   50.9580 C   0  0  0  0  0
   43.5310   61.2680   54.7360 C   0  0  0  0  0
   42.3710   60.6310   55.1280 C   0  0  0  0  0
   41.6590   59.8610   54.1940 C   0  0  0  0  0
   40.5660   58.0030   55.4170 C   0  0  0  0  0
   38.0210   58.1310   55.6090 C   0  0  0  0  0
   37.6330   56.9590   54.6780 C   0  0  0  0  0
   36.9070   58.1590   56.6250 C   0  0  0  0  0
   36.6290   59.1020   57.3350 O   0  0  0  0  0
   39.2420   59.4320   53.8520 C   0  0  0  0  0
   38.5060   55.9010   47.0500 N   0  0  0  0  0
   39.2780   54.8210   47.4800 N   0  0  0  0  0
   41.0350   59.5970   50.6330 C   0  0  0  0  0
   41.5470   58.9960   51.7860 C   0  0  0  0  0
   42.1820   59.7880   52.8670 C   0  0  0  0  0
   43.3710   60.4680   52.5710 C   0  0  0  0  0
   43.9960   61.1760   53.4960 N   0  0  0  0  0
   41.8370   60.8110   56.7760 Cl  0  0  0  0  0
   40.4830   59.2300   54.6120 N   0  0  0  0  0
   39.3450   57.8860   56.3410 C   0  0  0  0  0
   36.8520   56.0530   55.6500 C   0  0  0  0  0
   36.2680   56.9740   56.6320 N   0  0  0  0  0
   38.0660   59.4470   54.8310 C   0  0  0  0  0
   36.5542   56.1364   46.3193 H   0  0  0  0  0
   37.8466   56.6093   45.1892 H   0  0  0  0  0
   37.5223   54.8862   45.5003 H   0  0  0  0  0
   38.3675   57.9540   47.7512 H   0  0  0  0  0
   40.7196   54.5865   49.0373 H   0  0  0  0  0
   40.0519   59.2834   48.7509 H   0  0  0  0  0
   41.8722   57.1362   52.8321 H   0  0  0  0  0
   40.8332   55.7440   51.0869 H   0  0  0  0  0
   44.0807   61.8633   55.4651 H   0  0  0  0  0
   41.4698   58.0377   56.0253 H   0  0  0  0  0
   40.5904   57.1414   54.7498 H   0  0  0  0  0
   38.4862   56.4687   54.2091 H   0  0  0  0  0
   37.0586   57.2638   53.8032 H   0  0  0  0  0
   39.1136   58.6252   53.1304 H   0  0  0  0  0
   39.2874   60.3780   53.3124 H   0  0  0  0  0
   41.0952   60.6780   50.5067 H   0  0  0  0  0
   43.7860   60.4124   51.5646 H   0  0  0  0  0
   39.4414   58.6431   57.1192 H   0  0  0  0  0
   39.3236   56.8716   56.7393 H   0  0  0  0  0
   37.4973   55.3119   56.1218 H   0  0  0  0  0
   36.0882   55.4693   55.1362 H   0  0  0  0  0
   35.4813   56.7463   57.2400 H   0  0  0  0  0
   38.1900   60.2742   55.5299 H   0  0  0  0  0
   37.1364   59.5684   54.2750 H   0  0  0  0  0
 18  1  1  0  0  0
  3  2  4  0  0  0
  2 18  4  0  0  0
  3  4  4  0  0  0
  5  3  1  0  0  0
  4 19  4  0  0  0
  6  5  4  0  0  0
  8  5  4  0  0  0
 20  6  4  0  0  0
  7  8  4  0  0  0
 21  7  4  0  0  0
 10  9  4  0  0  0
  9 24  4  0  0  0
 11 10  4  0  0  0
 10 25  1  0  0  0
 22 11  4  0  0  0
 11 26  1  0  0  0
 26 12  1  0  0  0
 12 27  1  0  0  0
 13 14  1  0  0  0
 13 15  1  0  0  0
 27 13  1  0  0  0
 30 13  1  0  0  0
 14 28  1  0  0  0
 15 16  2  0  0  0
 15 29  1  0  0  0
 26 17  1  0  0  0
 17 30  1  0  0  0
 19 18  4  0  0  0
 21 20  4  0  0  0
 21 22  1  0  0  0
 22 23  4  0  0  0
 23 24  4  0  0  0
 28 29  1  0  0  0
  1 31  1  0  0  0
  1 32  1  0  0  0
  1 33  1  0  0  0
  2 34  1  0  0  0
  4 35  1  0  0  0
  6 36  1  0  0  0
  7 37  1  0  0  0
  8 38  1  0  0  0
  9 39  1  0  0  0
 12 40  1  0  0  0
 12 41  1  0  0  0
 14 42  1  0  0  0
 14 43  1  0  0  0
 17 44  1  0  0  0
 17 45  1  0  0  0
 20 46  1  0  0  0
 23 47  1  0  0  0
 27 48  1  0  0  0
 27 49  1  0  0  0
 28 50  1  0  0  0
 28 51  1  0  0  0
 29 52  1  0  0  0
 30 53  1  0  0  0
 30 54  1  0  0  0
M  END
$$$$
