4w55_ligand
  -I-interpret- 

 21 21  0  0  0  0  0  0  0  0999 V2000
  -38.8110   19.2810   15.7920 C   0  0  0  0  0
  -39.8230   19.0370   14.6800 C   0  0  0  0  0
  -40.2380   20.3540   14.0150 C   0  0  0  0  0
  -41.2100   20.0750   12.8830 C   0  0  0  0  0
  -40.6930   19.7270   11.6490 C   0  0  0  0  0
  -41.5120   19.4530   10.5630 C   0  0  0  0  0
  -42.8900   19.5150   10.7330 C   0  0  0  0  0
  -43.4140   19.8630   11.9720 C   0  0  0  0  0
  -42.5940   20.1500   13.0600 C   0  0  0  0  0
  -37.9235   19.7575   15.3757 H   0  0  0  0  0
  -39.2530   19.9304   16.5477 H   0  0  0  0  0
  -38.5349   18.3291   16.2456 H   0  0  0  0  0
  -40.7083   18.5686   15.1100 H   0  0  0  0  0
  -39.3667   18.3942   13.9272 H   0  0  0  0  0
  -39.3534   20.8505   13.6161 H   0  0  0  0  0
  -40.7197   20.9945   14.7538 H   0  0  0  0  0
  -39.6117   19.6662   11.5257 H   0  0  0  0  0
  -41.0829   19.1941    9.5951 H   0  0  0  0  0
  -43.5558   19.2919    9.8993 H   0  0  0  0  0
  -44.4959   19.9126   12.0954 H   0  0  0  0  0
  -43.0204   20.4259   14.0244 H   0  0  0  0  0
  1  2  1  0  0  0
  2  3  1  0  0  0
  3  4  1  0  0  0
  4  5  4  0  0  0
  4  9  4  0  0  0
  5  6  4  0  0  0
  6  7  4  0  0  0
  7  8  4  0  0  0
  8  9  4  0  0  0
  1 10  1  0  0  0
  1 11  1  0  0  0
  1 12  1  0  0  0
  2 13  1  0  0  0
  2 14  1  0  0  0
  3 15  1  0  0  0
  3 16  1  0  0  0
  5 17  1  0  0  0
  6 18  1  0  0  0
  7 19  1  0  0  0
  8 20  1  0  0  0
  9 21  1  0  0  0
M  END
$$$$
