3t6y_ligand
  -I-interpret- 

 53 56  0  0  0  0  0  0  0  0999 V2000
   -6.0010   25.7660   -0.9900 N   0  0  0  0  0
   -5.4830   24.6610   -1.5510 C   0  0  0  0  0
   -6.1590   23.6410   -1.5360 O   0  0  0  0  0
   -4.2150   24.6960   -2.1180 N   0  0  0  0  0
   -3.4730   25.8920   -2.0900 C   0  0  0  0  0
   -2.3430   25.9120   -2.5830 O   0  0  0  0  0
   -3.9830   27.0370   -1.4990 C   0  0  0  0  0
   -5.2400   26.9580   -0.9370 C   0  0  0  0  0
   -7.3390   25.6510   -0.4070 C   0  0  0  0  0
   -8.8740   26.7450   -5.1960 C   0  0  0  0  0
   -7.5320   27.0900   -5.3840 C   0  0  0  0  0
   -6.6400   26.0940   -4.9480 C   0  0  0  0  0
   -7.5420   26.7690    0.5820 C   0  0  0  0  0
   -5.2710   26.2000   -4.9840 C   0  0  0  0  0
   -4.7540   27.3580   -5.5110 C   0  0  0  0  0
   -5.6240   28.3460   -5.9660 C   0  0  0  0  0
   -7.0130   28.2490   -5.9060 C   0  0  0  0  0
   -9.7610   26.1760   -6.1630 C   0  0  0  0  0
  -10.9300   25.6630   -5.7420 N   0  0  0  0  0
  -11.8340   25.2760   -6.8470 C   0  0  0  0  0
  -11.0280   25.6000   -8.0930 C   0  0  0  0  0
   -9.8000   26.1630   -7.5280 N   0  0  0  0  0
   -8.8650   26.6520   -8.4510 C   0  0  0  0  0
   -8.2530   27.8200   -0.2140 C   0  0  0  0  0
   -8.9980   27.1100   -1.3370 C   0  0  0  0  0
   -8.4050   25.7830   -1.4030 O   0  0  0  0  0
   -9.1890   28.1880    0.7270 O   0  0  0  0  0
   -8.9470   27.7010   -2.7830 C   0  0  0  0  0
   -9.2580   26.5840   -3.7490 N   0  3  0  0  0
   -3.8240   23.8599   -2.5521 H   0  0  0  0  0
   -3.4121   27.9653   -1.4791 H   0  0  0  0  0
   -5.6571   27.8341   -0.4404 H   0  0  0  0  0
   -7.3948   24.6631    0.0503 H   0  0  0  0  0
   -9.1708   27.6511   -5.7243 H   0  0  0  0  0
   -7.0657   25.1715   -4.5531 H   0  0  0  0  0
   -6.6029   27.1290    1.0022 H   0  0  0  0  0
   -8.1106   26.4532    1.4567 H   0  0  0  0  0
   -4.6262   25.4036   -4.6123 H   0  0  0  0  0
   -3.6753   27.5023   -5.5725 H   0  0  0  0  0
   -5.1922   29.2501   -6.3951 H   0  0  0  0  0
   -7.6570   29.0553   -6.2570 H   0  0  0  0  0
  -12.8386   24.8581   -6.7825 H   0  0  0  0  0
  -11.2952   25.4515   -9.1393 H   0  0  0  0  0
   -8.7315   27.7230   -8.2983 H   0  0  0  0  0
   -7.9127   26.1417   -8.3066 H   0  0  0  0  0
   -9.2263   26.4703   -9.4632 H   0  0  0  0  0
   -7.6395   28.6161   -0.6360 H   0  0  0  0  0
  -10.0526   27.1869   -1.0723 H   0  0  0  0  0
   -9.7488   28.8796    0.3665 H   0  0  0  0  0
   -7.9597   28.1148   -2.9881 H   0  0  0  0  0
   -9.6741   28.5061   -2.8886 H   0  0  0  0  0
   -8.7107   25.7894   -3.4180 H   0  0  0  0  0
  -10.2756   26.5145   -3.7526 H   0  0  0  0  0
  1  2  1  0  0  0
  1  8  1  0  0  0
  9  1  1  0  0  0
  2  3  2  0  0  0
  2  4  1  0  0  0
  4  5  1  0  0  0
  5  6  2  0  0  0
  7  5  1  0  0  0
  8  7  2  0  0  0
  9 13  1  0  0  0
 26  9  1  0  0  0
 10 11  1  0  0  0
 10 18  1  0  0  0
 29 10  1  0  0  0
 11 12  4  0  0  0
 11 17  4  0  0  0
 12 14  4  0  0  0
 24 13  1  0  0  0
 14 15  4  0  0  0
 16 15  4  0  0  0
 17 16  4  0  0  0
 18 19  4  0  0  0
 18 22  4  0  0  0
 19 20  4  0  0  0
 21 20  4  0  0  0
 22 21  4  0  0  0
 22 23  1  0  0  0
 25 24  1  0  0  0
 24 27  1  0  0  0
 25 26  1  0  0  0
 28 25  1  0  0  0
 28 29  1  0  0  0
  4 30  1  0  0  0
  7 31  1  0  0  0
  8 32  1  0  0  0
  9 33  1  0  0  0
 10 34  1  0  0  0
 12 35  1  0  0  0
 13 36  1  0  0  0
 13 37  1  0  0  0
 14 38  1  0  0  0
 15 39  1  0  0  0
 16 40  1  0  0  0
 17 41  1  0  0  0
 20 42  1  0  0  0
 21 43  1  0  0  0
 23 44  1  0  0  0
 23 45  1  0  0  0
 23 46  1  0  0  0
 24 47  1  0  0  0
 25 48  1  0  0  0
 27 49  1  0  0  0
 28 50  1  0  0  0
 28 51  1  0  0  0
 29 52  1  0  0  0
 29 53  1  0  0  0
M  END
$$$$
