5ovx_ligand
  -I-interpret- 

 45 47  0  0  0  0  0  0  0  0999 V2000
    0.7410  -14.0130  -22.9490 C   0  0  0  0  0
    2.0180  -14.4870  -22.7420 C   0  0  0  0  0
    4.3500  -16.2760  -22.7070 C   0  0  0  0  0
    6.6090  -15.1640  -23.8350 C   0  0  0  0  0
    1.5840  -11.1560  -26.8530 C   0  0  0  0  0
    2.3600  -10.1940  -27.4610 C   0  0  0  0  0
    2.4820  -14.3050  -25.0670 C   0  0  0  0  0
    2.3100  -12.7760  -28.4650 C   0  0  0  0  0
    4.2230  -15.1830  -23.5410 C   0  0  0  0  0
    2.9030  -14.6430  -23.7940 C   0  0  0  0  0
    6.7160  -16.2540  -22.9940 C   0  0  0  0  0
    1.2020  -13.8260  -25.2890 C   0  0  0  0  0
    1.5570  -12.4460  -27.3500 C   0  0  0  0  0
    0.7130  -13.4650  -26.6550 C   0  0  0  0  0
    8.0280  -16.8790  -22.6850 C   0  0  0  0  0
    5.3630  -14.6290  -24.0950 C   0  0  0  0  0
    0.3380  -13.6890  -24.2260 C   0  0  0  0  0
    5.5880  -16.8080  -22.4240 C   0  0  0  0  0
    3.1050  -10.5370  -28.5690 C   0  0  0  0  0
    3.0860  -11.8180  -29.0800 C   0  0  0  0  0
    9.8170  -14.7630  -22.9490 O   0  0  0  0  0
    0.6500  -14.6630  -27.4180 O   0  0  0  0  0
    8.6120  -17.3180  -23.8960 O   0  0  0  0  0
   10.4370  -16.9280  -21.6540 O   0  0  0  0  0
    8.6830  -15.2050  -20.6320 O   0  0  0  0  0
    9.3120  -15.8050  -21.9880 P   0  0  0  0  0
    4.0690   -9.3340  -29.3230 Cl  0  0  0  0  0
    4.0400  -12.2220  -30.4750 Cl  0  0  0  0  0
    0.0555  -13.8954  -22.1097 H   0  0  0  0  0
    2.3367  -14.7436  -21.7317 H   0  0  0  0  0
    3.4588  -16.7234  -22.2670 H   0  0  0  0  0
    7.4998  -14.7301  -24.2893 H   0  0  0  0  0
    0.9889  -10.8993  -25.9766 H   0  0  0  0  0
    2.3846   -9.1762  -27.0717 H   0  0  0  0  0
    3.1672  -14.4172  -25.9073 H   0  0  0  0  0
    2.2885  -13.7934  -28.8557 H   0  0  0  0  0
   -0.2674  -12.9996  -26.5531 H   0  0  0  0  0
    7.7702  -17.6401  -21.9485 H   0  0  0  0  0
    5.2765  -13.7586  -24.7454 H   0  0  0  0  0
   -0.6738  -13.3210  -24.3962 H   0  0  0  0  0
    5.6766  -17.6625  -21.7531 H   0  0  0  0  0
    0.3380  -14.4613  -28.3032 H   0  0  0  0  0
    8.0017  -17.9033  -24.3505 H   0  0  0  0  0
   10.0739  -17.5703  -21.0398 H   0  0  0  0  0
    8.3845  -15.9259  -20.0727 H   0  0  0  0  0
  1  2  4  0  0  0
 17  1  4  0  0  0
 10  2  4  0  0  0
  9  3  4  0  0  0
  3 18  4  0  0  0
  4 11  4  0  0  0
 16  4  4  0  0  0
  5  6  4  0  0  0
 13  5  4  0  0  0
  6 19  4  0  0  0
  7 10  4  0  0  0
 12  7  4  0  0  0
 13  8  4  0  0  0
  8 20  4  0  0  0
 10  9  1  0  0  0
  9 16  4  0  0  0
 11 15  1  0  0  0
 18 11  4  0  0  0
 14 12  1  0  0  0
 12 17  4  0  0  0
 13 14  1  0  0  0
 14 22  1  0  0  0
 15 23  1  0  0  0
 15 26  1  0  0  0
 19 20  4  0  0  0
 19 27  1  0  0  0
 20 28  1  0  0  0
 26 21  2  0  0  0
 26 24  1  0  0  0
 26 25  1  0  0  0
  1 29  1  0  0  0
  2 30  1  0  0  0
  3 31  1  0  0  0
  4 32  1  0  0  0
  5 33  1  0  0  0
  6 34  1  0  0  0
  7 35  1  0  0  0
  8 36  1  0  0  0
 14 37  1  0  0  0
 15 38  1  0  0  0
 16 39  1  0  0  0
 17 40  1  0  0  0
 18 41  1  0  0  0
 22 42  1  0  0  0
 23 43  1  0  0  0
 24 44  1  0  0  0
 25 45  1  0  0  0
M  END
$$$$
