### 
### Created by X-TOOL on Mon Sep 10 21:13:33 2018
### 

@<TRIPOS>MOLECULE
5ovx_ligand
   43    45     1     0     0
SMALL
GAST_HUCK


@<TRIPOS>ATOM
      1 C1          0.7410  -14.0130  -22.9490 C.ar      1 AY5        -0.0684
      2 C2          2.0180  -14.4870  -22.7420 C.ar      1 AY5        -0.0623
      3 C3          4.3500  -16.2760  -22.7070 C.ar      1 AY5        -0.0600
      4 C7          6.6090  -15.1640  -23.8350 C.ar      1 AY5        -0.0550
      5 C8          1.5840  -11.1560  -26.8530 C.ar      1 AY5        -0.0551
      6 C9          2.3600  -10.1940  -27.4610 C.ar      1 AY5        -0.0537
      7 C10         2.4820  -14.3050  -25.0670 C.ar      1 AY5        -0.0501
      8 C11         2.3100  -12.7760  -28.4650 C.ar      1 AY5        -0.0414
      9 C12         4.2230  -15.1830  -23.5410 C.ar      1 AY5        -0.0258
     10 C13         2.9030  -14.6430  -23.7940 C.ar      1 AY5        -0.0285
     11 C14         6.7160  -16.2540  -22.9940 C.ar      1 AY5         0.0029
     12 C15         1.2020  -13.8260  -25.2890 C.ar      1 AY5        -0.0041
     13 C16         1.5570  -12.4460  -27.3500 C.ar      1 AY5        -0.0028
     14 C19         0.7130  -13.4650  -26.6550 C.3       1 AY5         0.1222
     15 C20         8.0280  -16.8790  -22.6850 C.3       1 AY5         0.1596
     16 C4          5.3630  -14.6290  -24.0950 C.ar      1 AY5        -0.0600
     17 C5          0.3380  -13.6890  -24.2260 C.ar      1 AY5        -0.0566
     18 C6          5.5880  -16.8080  -22.4240 C.ar      1 AY5        -0.0550
     19 C17         3.1050  -10.5370  -28.5690 C.ar      1 AY5         0.0471
     20 C18         3.0860  -11.8180  -29.0800 C.ar      1 AY5         0.0481
     21 O21         9.8170  -14.7630  -22.9490 O.co2     1 AY5        -0.5591
     22 O22         0.6500  -14.6630  -27.4180 O.3       1 AY5        -0.3671
     23 O23         8.6120  -17.3180  -23.8960 O.3       1 AY5        -0.3630
     24 O24        10.4370  -16.9280  -21.6540 O.co2     1 AY5        -0.5591
     25 O25         8.6830  -15.2050  -20.6320 O.co2     1 AY5        -0.5591
     26 P26         9.3120  -15.8050  -21.9880 P.3       1 AY5         0.1009
     27 CL1         4.0690   -9.3340  -29.3230 Cl        1 AY5        -0.0762
     28 CL2         4.0400  -12.2220  -30.4750 Cl        1 AY5        -0.0717
     29 H1          0.0593  -13.8960  -22.1144 H         1 AY5         0.0598
     30 H2          2.3349  -14.7422  -21.7373 H         1 AY5         0.0560
     31 H3          3.4637  -16.7210  -22.2694 H         1 AY5         0.0609
     32 H4          7.4949  -14.7325  -24.2868 H         1 AY5         0.0562
     33 H5          0.9921  -10.9007  -25.9814 H         1 AY5         0.0564
     34 H6          2.3845   -9.1818  -27.0738 H         1 AY5         0.0606
     35 H7          3.1634  -14.4166  -25.9026 H         1 AY5         0.0556
     36 H8          2.2887  -13.7878  -28.8535 H         1 AY5         0.0567
     37 H9         -0.3009  -13.0494  -26.5591 H         1 AY5         0.0918
     38 H10         7.8526  -17.7235  -22.0024 H         1 AY5         0.0958
     39 H11         5.2770  -13.7634  -24.7418 H         1 AY5         0.0609
     40 H12        -0.6682  -13.3230  -24.3952 H         1 AY5         0.0555
     41 H13         5.6761  -17.6578  -21.7568 H         1 AY5         0.0562
     42 H14         0.1107  -15.2990  -26.9629 H         1 AY5         0.2161
     43 H15         8.0081  -17.8972  -24.3458 H         1 AY5         0.2148
@<TRIPOS>BOND
     1    1    2 ar 
     2   17    1 ar 
     3   10    2 ar 
     4    9    3 ar 
     5    3   18 ar 
     6    4   11 ar 
     7   16    4 ar 
     8    5    6 ar 
     9   13    5 ar 
    10    6   19 ar 
    11    7   10 ar 
    12   12    7 ar 
    13   13    8 ar 
    14    8   20 ar 
    15   10    9 1  
    16    9   16 ar 
    17   11   15 1  
    18   18   11 ar 
    19   14   12 1  
    20   12   17 ar 
    21   13   14 1  
    22   14   22 1  
    23   15   23 1  
    24   15   26 1  
    25   19   20 ar 
    26   19   27 1  
    27   20   28 1  
    28   26   21 ar 
    29   26   24 ar 
    30   26   25 ar 
    31    1   29 1  
    32    2   30 1  
    33    3   31 1  
    34    4   32 1  
    35    5   33 1  
    36    6   34 1  
    37    7   35 1  
    38    8   36 1  
    39   14   37 1  
    40   15   38 1  
    41   16   39 1  
    42   17   40 1  
    43   18   41 1  
    44   22   42 1  
    45   23   43 1  
@<TRIPOS>SUBSTRUCTURE
     1 AY5         1

