6idb_ligand
  -I-interpret- 

 88 90  0  0  0  0  0  0  0  0999 V2000
   13.3250   23.7990   13.7170 C   0  0  0  0  0
   12.9130   23.5720   12.1900 C   0  0  0  0  0
   14.1380   23.5270   11.2840 C   0  0  0  0  0
   14.9530   22.2860   11.6170 C   0  0  0  0  0
   14.1180   21.0320   11.3450 C   0  0  0  0  0
   12.8150   21.1020   12.1910 C   0  0  0  0  0
   11.7970   19.9660   11.8840 C   0  0  0  0  0
   10.4940   19.9550   12.7510 C   0  0  0  0  0
    9.8820   18.5490   12.7980 C   0  0  0  0  0
   14.9060   18.6740   11.0420 C   0  0  0  0  0
   15.8080   17.6000   11.6210 C   0  0  0  0  0
   14.8990   19.8500   11.7080 N   0  0  0  0  0
   14.1040   24.7560   13.9620 O   0  0  0  0  0
   12.8080   22.9770   14.5250 O   0  0  0  0  0
   16.1990   22.2070   10.9060 O   0  0  0  0  0
   12.1450   22.3280   11.9440 O   0  0  0  0  0
   11.5220   20.0090   10.5000 O   0  0  0  0  0
   10.7340   20.4560   14.0700 O   0  0  0  0  0
    8.4700   18.5730   13.0450 O   0  0  0  0  0
   14.2470   18.4370   10.0430 O   0  0  0  0  0
    8.4950   25.4550   10.6210 C   0  0  0  0  0
    7.4860   26.3880   11.4030 C   0  0  0  0  0
    8.2040   27.4820   12.2470 C   0  0  0  0  0
    9.2990   26.8510   13.1020 C   0  0  0  0  0
   10.2080   26.0920   12.1640 C   0  0  0  0  0
   11.4430   25.4960   12.7960 C   0  0  0  0  0
    6.5890   27.0450   10.5360 O   0  0  0  0  0
    7.3060   28.1420   13.1400 O   0  0  0  0  0
    8.7220   25.9310   14.0370 O   0  0  0  0  0
    9.4910   24.9870   11.5610 O   0  0  0  0  0
   11.7000   24.2130   12.2630 O   0  0  0  0  0
    7.9430   21.9600    6.7150 C   0  0  0  0  0
    9.1620   21.8380    7.5950 C   0  0  0  0  0
    8.9140   22.5490    8.9200 C   0  0  0  0  0
    8.4110   23.9740    8.7130 C   0  0  0  0  0
    7.3730   24.0990    7.5880 C   0  0  0  0  0
    7.2360   25.5190    7.0850 C   0  0  0  0  0
   10.7400   19.9500    7.6120 C   0  0  0  0  0
   10.9020   18.4850    7.8590 C   0  0  0  0  0
    9.5110   20.4420    7.8120 N   0  0  0  0  0
    8.1260   21.2440    5.5360 O   0  0  0  0  0
   10.1380   22.6110    9.6410 O   0  0  0  0  0
    7.7820   24.3930    9.9220 O   0  0  0  0  0
    7.7090   23.3030    6.4370 O   0  0  0  0  0
    6.2490   26.2330    7.8150 O   0  0  0  0  0
   11.6820   20.6610    7.2610 O   0  0  0  0  0
   14.7447   24.4189   11.4406 H   0  0  0  0  0
   13.8234   23.4919   10.2410 H   0  0  0  0  0
   15.2067   22.3554   12.6748 H   0  0  0  0  0
   13.8550   20.9711   10.2890 H   0  0  0  0  0
   13.1414   21.0013   13.2261 H   0  0  0  0  0
   12.2636   19.0235   12.1706 H   0  0  0  0  0
    9.7759   20.6230   12.2754 H   0  0  0  0  0
   10.3568   18.0026   13.6129 H   0  0  0  0  0
   10.0459   18.0782   11.8287 H   0  0  0  0  0
   15.2077   16.7331   11.8969 H   0  0  0  0  0
   16.5484   17.3086   10.8760 H   0  0  0  0  0
   16.3136   17.9895   12.5046 H   0  0  0  0  0
   15.4902   19.9192   12.5363 H   0  0  0  0  0
   12.2559   22.3585   14.0410 H   0  0  0  0  0
   16.7168   22.9962   11.0813 H   0  0  0  0  0
   12.3480   20.0142   10.0108 H   0  0  0  0  0
    9.9164   20.4352   14.5727 H   0  0  0  0  0
    8.1345   17.6738   13.0653 H   0  0  0  0  0
    9.0148   26.0018    9.8343 H   0  0  0  0  0
    6.9452   25.7124   12.0657 H   0  0  0  0  0
    8.6138   28.2019   11.5385 H   0  0  0  0  0
    9.8422   27.6166   13.6559 H   0  0  0  0  0
   10.5291   26.8467   11.4460 H   0  0  0  0  0
   11.2842   25.4082   13.8708 H   0  0  0  0  0
   12.2951   26.1433   12.5886 H   0  0  0  0  0
    5.9967   27.5988   11.0499 H   0  0  0  0  0
    7.7850   28.8066   13.6404 H   0  0  0  0  0
    9.4179   25.5394   14.5699 H   0  0  0  0  0
    7.0789   21.5457    7.2344 H   0  0  0  0  0
   10.0050   22.3130    7.0932 H   0  0  0  0  0
    8.1543   21.9891    9.4654 H   0  0  0  0  0
    9.2711   24.5847    8.4386 H   0  0  0  0  0
    6.4439   23.7538    8.0416 H   0  0  0  0  0
    6.9375   25.4883    6.0371 H   0  0  0  0  0
    8.1933   26.0249    7.2101 H   0  0  0  0  0
   11.2467   17.9998    6.9458 H   0  0  0  0  0
   11.6332   18.3303    8.6524 H   0  0  0  0  0
    9.9438   18.0602    8.1582 H   0  0  0  0  0
    8.7816   19.8054    8.1331 H   0  0  0  0  0
    7.3439   21.3301    4.9860 H   0  0  0  0  0
    9.9926   23.0576   10.4783 H   0  0  0  0  0
    6.1853   27.1280    7.4737 H   0  0  0  0  0
  2  1  1  0  0  0
  1 13  2  0  0  0
  1 14  1  0  0  0
  2  3  1  0  0  0
  2 16  1  0  0  0
 31  2  1  0  0  0
  3  4  1  0  0  0
  4  5  1  0  0  0
  4 15  1  0  0  0
  6  5  1  0  0  0
  5 12  1  0  0  0
  6  7  1  0  0  0
 16  6  1  0  0  0
  7  8  1  0  0  0
  7 17  1  0  0  0
  8  9  1  0  0  0
  8 18  1  0  0  0
  9 19  1  0  0  0
 10 11  1  0  0  0
 12 10  1  0  0  0
 10 20  2  0  0  0
 21 22  1  0  0  0
 21 30  1  0  0  0
 43 21  1  0  0  0
 22 23  1  0  0  0
 22 27  1  0  0  0
 23 24  1  0  0  0
 23 28  1  0  0  0
 25 24  1  0  0  0
 24 29  1  0  0  0
 25 26  1  0  0  0
 30 25  1  0  0  0
 26 31  1  0  0  0
 33 32  1  0  0  0
 32 41  1  0  0  0
 32 44  1  0  0  0
 33 34  1  0  0  0
 40 33  1  0  0  0
 34 35  1  0  0  0
 34 42  1  0  0  0
 35 36  1  0  0  0
 35 43  1  0  0  0
 36 37  1  0  0  0
 44 36  1  0  0  0
 37 45  1  0  0  0
 38 39  1  0  0  0
 38 40  1  0  0  0
 38 46  2  0  0  0
  3 47  1  0  0  0
  3 48  1  0  0  0
  4 49  1  0  0  0
  5 50  1  0  0  0
  6 51  1  0  0  0
  7 52  1  0  0  0
  8 53  1  0  0  0
  9 54  1  0  0  0
  9 55  1  0  0  0
 11 56  1  0  0  0
 11 57  1  0  0  0
 11 58  1  0  0  0
 12 59  1  0  0  0
 14 60  1  0  0  0
 15 61  1  0  0  0
 17 62  1  0  0  0
 18 63  1  0  0  0
 19 64  1  0  0  0
 21 65  1  0  0  0
 22 66  1  0  0  0
 23 67  1  0  0  0
 24 68  1  0  0  0
 25 69  1  0  0  0
 26 70  1  0  0  0
 26 71  1  0  0  0
 27 72  1  0  0  0
 28 73  1  0  0  0
 29 74  1  0  0  0
 32 75  1  0  0  0
 33 76  1  0  0  0
 34 77  1  0  0  0
 35 78  1  0  0  0
 36 79  1  0  0  0
 37 80  1  0  0  0
 37 81  1  0  0  0
 39 82  1  0  0  0
 39 83  1  0  0  0
 39 84  1  0  0  0
 40 85  1  0  0  0
 41 86  1  0  0  0
 42 87  1  0  0  0
 45 88  1  0  0  0
M  END
$$$$
