3atl_ligand
  -I-interpret- 

 17 17  0  0  0  0  0  0  0  0999 V2000
   -1.7770  -14.1860   16.8080 C   0  0  0  0  0
   -2.1120  -15.5380   16.6920 C   0  0  0  0  0
   -1.8270  -16.2400   15.5230 C   0  0  0  0  0
   -1.2000  -15.6110   14.4540 C   0  0  0  0  0
   -0.8630  -14.2680   14.5580 C   0  0  0  0  0
   -1.1500  -13.5650   15.7230 C   0  0  0  0  0
   -2.0850  -13.4110   18.0700 C   0  0  0  0  0
   -1.6000  -12.1960   18.2740 N   0  0  0  0  0
   -2.8200  -13.8630   18.9870 N   0  0  0  0  0
   -2.6002  -16.0472   17.5230 H   0  0  0  0  0
   -2.0984  -17.2929   15.4460 H   0  0  0  0  0
   -0.9751  -16.1662   13.5434 H   0  0  0  0  0
   -0.3727  -13.7640   13.7251 H   0  0  0  0  0
   -0.8814  -12.5108   15.7918 H   0  0  0  0  0
   -1.8301  -11.6922   19.1305 H   0  0  0  0  0
   -0.9963  -11.7638   17.5746 H   0  0  0  0  0
   -3.0054  -13.2992   19.8166 H   0  0  0  0  0
  1  2  4  0  0  0
  1  6  4  0  0  0
  1  7  1  0  0  0
  2  3  4  0  0  0
  3  4  4  0  0  0
  4  5  4  0  0  0
  5  6  4  0  0  0
  7  8  1  0  0  0
  7  9  2  0  0  0
  2 10  1  0  0  0
  3 11  1  0  0  0
  4 12  1  0  0  0
  5 13  1  0  0  0
  6 14  1  0  0  0
  8 15  1  0  0  0
  8 16  1  0  0  0
  9 17  1  0  0  0
M  END
$$$$
