5qik_ligand
  -I-interpret- 

 42 45  0  0  0  0  0  0  0  0999 V2000
    4.6070    8.7450    9.7860 N   0  0  0  0  0
    3.7640    7.5680    9.9210 C   0  0  0  0  0
    5.7440    9.7830    5.4400 C   0  0  0  0  0
    5.0240    9.2780    8.6330 C   0  0  0  0  0
    7.0260    9.7990    5.9760 C   0  0  0  0  0
    7.7130   11.3470    4.4890 C   0  0  0  0  0
    6.4970   11.4240    3.8520 C   0  0  0  0  0
    5.4900   10.6190    4.3570 C   0  0  0  0  0
   -0.1860    6.2540    2.2320 C   0  0  0  0  0
    2.7400    7.4360    8.8080 C   0  0  0  0  0
    3.3180    6.6680    1.3620 N   0  0  0  0  0
    2.2500    6.8050    2.1870 C   0  0  0  0  0
    2.3550    7.3890    3.4610 C   0  0  0  0  0
    3.6100    7.7810    3.9170 C   0  0  0  0  0
    4.7020    7.6640    3.0620 C   0  0  0  0  0
    4.5060    7.1120    1.8110 C   0  0  0  0  0
    3.7880    8.1270    5.3430 C   0  0  0  0  0
    4.6910    8.9200    6.0130 C   0  0  0  0  0
    4.4450    8.7380    7.4320 C   0  0  0  0  0
    3.3670    7.8940    7.5290 C   0  0  0  0  0
    2.9790    7.5350    6.2770 N   0  0  0  0  0
    1.0450    6.3150    1.6470 N   0  0  0  0  0
    5.8580   10.1700    8.6700 O   0  0  0  0  0
    8.0110   10.5790    5.5130 N   0  0  0  0  0
   -1.2580    5.5990    1.4060 C   0  0  0  0  0
   -0.4210    6.7040    3.3470 O   0  0  0  0  0
    8.7200   12.1550    4.0840 F   0  0  0  0  0
    4.9064    9.2042   10.6462 H   0  0  0  0  0
    3.2204    7.6568   10.8616 H   0  0  0  0  0
    4.4109    6.6916    9.8807 H   0  0  0  0  0
    7.2413    9.1415    6.8183 H   0  0  0  0  0
    6.3349   12.0815    2.9979 H   0  0  0  0  0
    4.4979   10.6401    3.9060 H   0  0  0  0  0
    1.8653    8.0463    9.0329 H   0  0  0  0  0
    2.4227    6.3973    8.7157 H   0  0  0  0  0
    1.4697    7.5323    4.0805 H   0  0  0  0  0
    5.6909    8.0008    3.3730 H   0  0  0  0  0
    5.3666    7.0312    1.1469 H   0  0  0  0  0
    1.0999    5.9588    0.6928 H   0  0  0  0  0
   -1.6535    4.7372    1.9436 H   0  0  0  0  0
   -2.0603    6.3134    1.2217 H   0  0  0  0  0
   -0.8346    5.2731    0.4559 H   0  0  0  0  0
  1  2  1  0  0  0
  4  1  1  0  0  0
  2 10  1  0  0  0
  3  5  4  0  0  0
  3  8  4  0  0  0
 18  3  1  0  0  0
 19  4  1  0  0  0
  4 23  2  0  0  0
  5 24  4  0  0  0
  7  6  4  0  0  0
 24  6  4  0  0  0
  6 27  1  0  0  0
  8  7  4  0  0  0
 22  9  1  0  0  0
  9 25  1  0  0  0
  9 26  2  0  0  0
 10 20  1  0  0  0
 12 11  4  0  0  0
 16 11  4  0  0  0
 13 12  4  0  0  0
 12 22  1  0  0  0
 14 13  4  0  0  0
 14 15  4  0  0  0
 17 14  1  0  0  0
 15 16  4  0  0  0
 18 17  4  0  0  0
 17 21  4  0  0  0
 18 19  4  0  0  0
 19 20  4  0  0  0
 20 21  4  0  0  0
  1 28  1  0  0  0
  2 29  1  0  0  0
  2 30  1  0  0  0
  5 31  1  0  0  0
  7 32  1  0  0  0
  8 33  1  0  0  0
 10 34  1  0  0  0
 10 35  1  0  0  0
 13 36  1  0  0  0
 15 37  1  0  0  0
 16 38  1  0  0  0
 22 39  1  0  0  0
 25 40  1  0  0  0
 25 41  1  0  0  0
 25 42  1  0  0  0
M  END
$$$$
