### 
### Created by X-TOOL on Mon Sep 10 21:12:54 2018
### 

@<TRIPOS>MOLECULE
1ybo_ligand
   97    98     1     0     0
SMALL
GAST_HUCK


@<TRIPOS>ATOM
      1 N          44.5230   12.7260   34.9950 N.4       1 THR         0.2398
      2 CA         43.2330   13.4550   35.2380 C.3       1 THR         0.0910
      3 C          43.1480   14.7340   34.3690 C.2       1 THR         0.2294
      4 O          42.1260   14.9070   33.7000 O.2       1 THR        -0.3906
      5 CB         42.8840   13.7240   36.7580 C.3       1 THR         0.1120
      6 OG1        43.4590   12.7840   37.6760 O.3       1 THR        -0.3840
      7 CG2        41.3740   13.7250   37.0040 C.3       1 THR        -0.0314
      8 N          44.1010   15.6680   34.3250 N.am      1 ASN        -0.2588
      9 CA         45.3200   15.7840   35.1410 C.3       1 ASN         0.1477
     10 C          45.1250   16.8670   36.2210 C.2       1 ASN         0.2063
     11 O          45.9310   17.7460   36.4720 O.2       1 ASN        -0.3942
     12 CB         46.5060   16.0500   34.2010 C.3       1 ASN         0.0773
     13 CG         47.7320   15.2110   34.5310 C.2       1 ASN         0.1780
     14 OD1        47.6710   13.9800   34.5890 O.2       1 ASN        -0.3970
     15 ND2        48.8640   15.8830   34.7360 N.am      1 ASN        -0.3007
     16 N          43.9830   16.8190   36.8810 N.am      1 GLU        -0.2635
     17 CA         43.5670   17.6650   37.9900 C.3       1 GLU         0.1325
     18 C          44.2070   17.2500   39.3070 C.2       1 GLU         0.2041
     19 O          44.3200   16.0630   39.6120 O.2       1 GLU        -0.3944
     20 CB         42.0620   17.4920   38.1830 C.3       1 GLU        -0.0008
     21 CG         41.2500   18.0530   37.0470 C.3       1 GLU         0.0044
     22 CD         39.9670   17.2770   36.8430 C.2       1 GLU         0.0350
     23 OE1        39.8780   16.6840   35.7400 O.co2     1 GLU        -0.5690
     24 OE2        39.0870   17.2370   37.7370 O.co2     1 GLU        -0.5690
     25 N          44.6050   18.2590   40.0770 N.am      1 PHE        -0.2619
     26 CA         45.1280   18.0600   41.4220 C.3       1 PHE         0.1404
     27 C          44.0000   18.3570   42.4110 C.2       1 PHE         0.2061
     28 O          43.1630   19.2460   42.2110 O.2       1 PHE        -0.3942
     29 CB         46.4210   18.8660   41.5510 C.3       1 PHE         0.0214
     30 CG         47.5860   18.2130   40.8600 C.ar      1 PHE        -0.0386
     31 CD1        47.6820   18.2300   39.4720 C.ar      1 PHE        -0.0601
     32 CD2        48.5640   17.5550   41.5950 C.ar      1 PHE        -0.0601
     33 CE1        48.7240   17.6340   38.8080 C.ar      1 PHE        -0.0686
     34 CE2        49.6280   16.9270   40.9420 C.ar      1 PHE        -0.0686
     35 CZ         49.6980   16.9870   39.5460 C.ar      1 PHE        -0.0687
     36 N          43.9800   17.5620   43.4740 N.am      1 TYR        -0.2620
     37 CA         43.0520   17.7020   44.5910 C.3       1 TYR         0.1390
     38 C          43.7730   18.3420   45.7750 C.2       1 TYR         0.2052
     39 O          44.5980   17.6570   46.3720 O.2       1 TYR        -0.3943
     40 CB         42.4820   16.3310   44.9770 C.3       1 TYR         0.0163
     41 CG         41.5630   16.2440   46.1780 C.ar      1 TYR        -0.0493
     42 CD1        40.8300   17.3550   46.6210 C.ar      1 TYR        -0.0685
     43 CD2        41.3880   15.0290   46.8430 C.ar      1 TYR        -0.0685
     44 CE1        39.9760   17.2690   47.7030 C.ar      1 TYR        -0.0398
     45 CE2        40.5010   14.9230   47.9460 C.ar      1 TYR        -0.0398
     46 CZ         39.8100   16.0650   48.3620 C.ar      1 TYR         0.0805
     47 OH         38.9430   16.0700   49.4320 O.3       1 TYR        -0.3376
     48 N          43.4690   19.6010   46.0840 N.am      1 ALA        -0.2696
     49 CA         43.9970   20.3200   47.2390 C.3       1 ALA         0.0916
     50 C          43.1060   20.1160   48.4580 C.2       1 ALA         0.0598
     51 O          41.8760   19.9830   48.3710 O.co2     1 ALA        -0.5666
     52 CB         44.1220   21.8370   46.9680 C.3       1 ALA        -0.0300
     53 OXT        43.6630   20.0810   49.5570 O.co2     1 ALA        -0.5666
     54 H1         44.6574   12.6023   34.0037 H         1 THR         0.2016
     55 H2         44.4893   11.8244   35.4445 H         1 THR         0.2016
     56 H3         45.2883   13.2618   35.3736 H         1 THR         0.2016
     57 H4         42.4408   12.7847   34.8732 H         1 THR         0.1125
     58 H5         43.2769   14.7211   37.0055 H         1 THR         0.0674
     59 H6         43.2045   13.0124   38.5623 H         1 THR         0.2102
     60 H7         41.1762   13.9149   38.0693 H         1 THR         0.0258
     61 H8         40.9559   12.7474   36.7221 H         1 THR         0.0258
     62 H9         40.9042   14.5134   36.3977 H         1 THR         0.0258
     63 H10        43.9681   16.3878   33.6437 H         1 ASN         0.1886
     64 H11        45.4983   14.8270   35.6532 H         1 ASN         0.0826
     65 H12        46.7794   17.1129   34.2752 H         1 ASN         0.0551
     66 H13        46.1937   15.8227   33.1711 H         1 ASN         0.0551
     67 H14        49.7054   15.3897   34.9568 H         1 ASN         0.1814
     68 H15        48.8723   16.8807   34.6691 H         1 ASN         0.1814
     69 H16        43.3293   16.1223   36.5856 H         1 GLU         0.1883
     70 H17        43.8146   18.7131   37.7659 H         1 GLU         0.0801
     71 H18        41.7672   18.0052   39.1102 H         1 GLU         0.0330
     72 H19        41.8422   16.4179   38.2726 H         1 GLU         0.0330
     73 H20        41.8466   18.0053   36.1241 H         1 GLU         0.0433
     74 H21        41.0016   19.1013   37.2693 H         1 GLU         0.0433
     75 H22        44.5428   19.1905   39.7186 H         1 PHE         0.1885
     76 H23        45.3962   17.0008   41.5486 H         1 PHE         0.0823
     77 H24        46.6620   18.9753   42.6187 H         1 PHE         0.0474
     78 H25        46.2614   19.8599   41.1074 H         1 PHE         0.0474
     79 H26        46.9099   18.7294   38.8979 H         1 PHE         0.0557
     80 H27        48.5017   17.5286   42.6769 H         1 PHE         0.0557
     81 H28        48.7826   17.6696   37.7262 H         1 PHE         0.0599
     82 H29        50.3879   16.4012   41.5087 H         1 PHE         0.0599
     83 H30        50.5304   16.5180   39.0339 H         1 PHE         0.0559
     84 H31        44.6459   16.8169   43.5116 H         1 TYR         0.1885
     85 H32        42.2216   18.3558   44.2859 H         1 TYR         0.0821
     86 H33        43.3368   15.6671   45.1732 H         1 TYR         0.0453
     87 H34        41.9189   15.9571   44.1092 H         1 TYR         0.0453
     88 H35        40.9361   18.3013   46.1030 H         1 TYR         0.0530
     89 H36        41.9370   14.1547   46.5125 H         1 TYR         0.0530
     90 H37        39.4348   18.1472   48.0362 H         1 TYR         0.0525
     91 H38        40.3622   13.9762   48.4553 H         1 TYR         0.0525
     92 H39        38.5830   16.9422   49.5424 H         1 TYR         0.2458
     93 H40        42.8349   20.0876   45.4830 H         1 ALA         0.1875
     94 H41        44.9977   19.9211   47.4615 H         1 ALA         0.0723
     95 H42        44.5224   22.3374   47.8620 H         1 ALA         0.0270
     96 H43        43.1306   22.2499   46.7298 H         1 ALA         0.0270
     97 H44        44.8019   22.0031   46.1194 H         1 ALA         0.0270
@<TRIPOS>BOND
     1    1    2 1  
     2    2    3 1  
     3    2    5 1  
     4    3    4 2  
     5    3    8 am 
     6    5    6 1  
     7    5    7 1  
     8    8    9 1  
     9    9   10 1  
    10    9   12 1  
    11   10   11 2  
    12   10   16 am 
    13   12   13 1  
    14   13   14 2  
    15   13   15 am 
    16   16   17 1  
    17   17   18 1  
    18   17   20 1  
    19   18   19 2  
    20   18   25 am 
    21   20   21 1  
    22   21   22 1  
    23   22   23 ar 
    24   22   24 ar 
    25   25   26 1  
    26   26   27 1  
    27   26   29 1  
    28   27   28 2  
    29   27   36 am 
    30   29   30 1  
    31   30   31 ar 
    32   30   32 ar 
    33   31   33 ar 
    34   32   34 ar 
    35   33   35 ar 
    36   34   35 ar 
    37   36   37 1  
    38   37   38 1  
    39   37   40 1  
    40   38   39 2  
    41   38   48 am 
    42   40   41 1  
    43   41   42 ar 
    44   41   43 ar 
    45   42   44 ar 
    46   43   45 ar 
    47   44   46 ar 
    48   45   46 ar 
    49   46   47 1  
    50   48   49 1  
    51   49   50 1  
    52   49   52 1  
    53   50   51 ar 
    54   50   53 ar 
    55    1   54 1  
    56    1   55 1  
    57    1   56 1  
    58    2   57 1  
    59    5   58 1  
    60    6   59 1  
    61    7   60 1  
    62    7   61 1  
    63    7   62 1  
    64    8   63 1  
    65    9   64 1  
    66   12   65 1  
    67   12   66 1  
    68   15   67 1  
    69   15   68 1  
    70   16   69 1  
    71   17   70 1  
    72   20   71 1  
    73   20   72 1  
    74   21   73 1  
    75   21   74 1  
    76   25   75 1  
    77   26   76 1  
    78   29   77 1  
    79   29   78 1  
    80   31   79 1  
    81   32   80 1  
    82   33   81 1  
    83   34   82 1  
    84   35   83 1  
    85   36   84 1  
    86   37   85 1  
    87   40   86 1  
    88   40   87 1  
    89   42   88 1  
    90   43   89 1  
    91   44   90 1  
    92   45   91 1  
    93   47   92 1  
    94   48   93 1  
    95   49   94 1  
    96   52   95 1  
    97   52   96 1  
    98   52   97 1  
@<TRIPOS>SUBSTRUCTURE
     1 THR         1

