1ybo_ligand
  -I-interpret- 

 99100  0  0  0  0  0  0  0  0999 V2000
   44.5230   12.7260   34.9950 N   0  3  0  0  0
   43.2330   13.4550   35.2380 C   0  0  0  0  0
   43.1480   14.7340   34.3690 C   0  0  0  0  0
   42.1260   14.9070   33.7000 O   0  0  0  0  0
   42.8840   13.7240   36.7580 C   0  0  0  0  0
   43.4590   12.7840   37.6760 O   0  0  0  0  0
   41.3740   13.7250   37.0040 C   0  0  0  0  0
   44.1010   15.6680   34.3250 N   0  0  0  0  0
   45.3200   15.7840   35.1410 C   0  0  0  0  0
   45.1250   16.8670   36.2210 C   0  0  0  0  0
   45.9310   17.7460   36.4720 O   0  0  0  0  0
   46.5060   16.0500   34.2010 C   0  0  0  0  0
   47.7320   15.2110   34.5310 C   0  0  0  0  0
   47.6710   13.9800   34.5890 O   0  0  0  0  0
   48.8640   15.8830   34.7360 N   0  0  0  0  0
   43.9830   16.8190   36.8810 N   0  0  0  0  0
   43.5670   17.6650   37.9900 C   0  0  0  0  0
   44.2070   17.2500   39.3070 C   0  0  0  0  0
   44.3200   16.0630   39.6120 O   0  0  0  0  0
   42.0620   17.4920   38.1830 C   0  0  0  0  0
   41.2500   18.0530   37.0470 C   0  0  0  0  0
   39.9670   17.2770   36.8430 C   0  0  0  0  0
   39.8780   16.6840   35.7400 O   0  0  0  0  0
   39.0870   17.2370   37.7370 O   0  0  0  0  0
   44.6050   18.2590   40.0770 N   0  0  0  0  0
   45.1280   18.0600   41.4220 C   0  0  0  0  0
   44.0000   18.3570   42.4110 C   0  0  0  0  0
   43.1630   19.2460   42.2110 O   0  0  0  0  0
   46.4210   18.8660   41.5510 C   0  0  0  0  0
   47.5860   18.2130   40.8600 C   0  0  0  0  0
   47.6820   18.2300   39.4720 C   0  0  0  0  0
   48.5640   17.5550   41.5950 C   0  0  0  0  0
   48.7240   17.6340   38.8080 C   0  0  0  0  0
   49.6280   16.9270   40.9420 C   0  0  0  0  0
   49.6980   16.9870   39.5460 C   0  0  0  0  0
   43.9800   17.5620   43.4740 N   0  0  0  0  0
   43.0520   17.7020   44.5910 C   0  0  0  0  0
   43.7730   18.3420   45.7750 C   0  0  0  0  0
   44.5980   17.6570   46.3720 O   0  0  0  0  0
   42.4820   16.3310   44.9770 C   0  0  0  0  0
   41.5630   16.2440   46.1780 C   0  0  0  0  0
   40.8300   17.3550   46.6210 C   0  0  0  0  0
   41.3880   15.0290   46.8430 C   0  0  0  0  0
   39.9760   17.2690   47.7030 C   0  0  0  0  0
   40.5010   14.9230   47.9460 C   0  0  0  0  0
   39.8100   16.0650   48.3620 C   0  0  0  0  0
   38.9430   16.0700   49.4320 O   0  0  0  0  0
   43.4690   19.6010   46.0840 N   0  0  0  0  0
   43.9970   20.3200   47.2390 C   0  0  0  0  0
   43.1060   20.1160   48.4580 C   0  0  0  0  0
   41.8760   19.9830   48.3710 O   0  0  0  0  0
   44.1220   21.8370   46.9680 C   0  0  0  0  0
   43.6630   20.0810   49.5570 O   0  0  0  0  0
   44.6580   12.6015   33.9917 H   0  0  0  0  0
   45.2965   13.2691   35.3785 H   0  0  0  0  0
   44.4877   11.8140   35.4503 H   0  0  0  0  0
   42.4484   12.7690   34.9188 H   0  0  0  0  0
   43.3189   14.7053   36.9479 H   0  0  0  0  0
   44.4103   12.7564   37.5501 H   0  0  0  0  0
   40.9781   12.7245   36.8295 H   0  0  0  0  0
   41.1752   14.0213   38.0339 H   0  0  0  0  0
   40.8967   14.4298   36.3232 H   0  0  0  0  0
   43.9654   16.4022   33.6301 H   0  0  0  0  0
   45.5320   14.8610   35.6807 H   0  0  0  0  0
   46.7843   17.0984   34.3087 H   0  0  0  0  0
   46.1909   15.7913   33.1901 H   0  0  0  0  0
   49.7245   15.3791   34.9505 H   0  0  0  0  0
   48.8701   16.9014   34.6785 H   0  0  0  0  0
   43.3162   16.1083   36.5797 H   0  0  0  0  0
   43.8617   18.6860   37.7474 H   0  0  0  0  0
   41.7810   18.0313   39.0876 H   0  0  0  0  0
   41.8570   16.4229   38.2390 H   0  0  0  0  0
   41.8421   17.9856   36.1343 H   0  0  0  0  0
   40.9939   19.0857   37.2838 H   0  0  0  0  0
   40.6659   16.8581   35.2199 H   0  0  0  0  0
   44.5415   19.2091   39.7114 H   0  0  0  0  0
   45.4272   17.0372   41.6511 H   0  0  0  0  0
   46.6621   18.9429   42.6112 H   0  0  0  0  0
   46.2571   19.8370   41.0836 H   0  0  0  0  0
   46.9057   18.7321   38.8947 H   0  0  0  0  0
   48.5014   17.5285   42.6829 H   0  0  0  0  0
   48.7830   17.6698   37.7202 H   0  0  0  0  0
   50.3921   16.3983   41.5119 H   0  0  0  0  0
   50.5350   16.5154   39.0311 H   0  0  0  0  0
   44.6593   16.8020   43.5124 H   0  0  0  0  0
   42.2222   18.3445   44.2966 H   0  0  0  0  0
   43.3494   15.7241   45.2367 H   0  0  0  0  0
   41.8709   16.0264   44.1273 H   0  0  0  0  0
   40.9367   18.3065   46.1001 H   0  0  0  0  0
   41.9400   14.1499   46.5106 H   0  0  0  0  0
   39.4318   18.1520   48.0380 H   0  0  0  0  0
   40.3614   13.9710   48.4581 H   0  0  0  0  0
   38.9025   15.1901   49.8137 H   0  0  0  0  0
   42.8223   20.0973   45.4710 H   0  0  0  0  0
   44.9900   19.9132   47.4302 H   0  0  0  0  0
   41.6140   20.0359   47.4490 H   0  0  0  0  0
   44.7959   22.0002   46.1270 H   0  0  0  0  0
   43.1391   22.2448   46.7321 H   0  0  0  0  0
   44.5188   22.3317   47.8545 H   0  0  0  0  0
  1  2  1  0  0  0
  2  3  1  0  0  0
  2  5  1  0  0  0
  3  4  2  0  0  0
  3  8  1  0  0  0
  5  6  1  0  0  0
  5  7  1  0  0  0
  8  9  1  0  0  0
  9 10  1  0  0  0
  9 12  1  0  0  0
 10 11  2  0  0  0
 10 16  1  0  0  0
 12 13  1  0  0  0
 13 14  2  0  0  0
 13 15  1  0  0  0
 16 17  1  0  0  0
 17 18  1  0  0  0
 17 20  1  0  0  0
 18 19  2  0  0  0
 18 25  1  0  0  0
 20 21  1  0  0  0
 21 22  1  0  0  0
 22 23  1  0  0  0
 22 24  2  0  0  0
 25 26  1  0  0  0
 26 27  1  0  0  0
 26 29  1  0  0  0
 27 28  2  0  0  0
 27 36  1  0  0  0
 29 30  1  0  0  0
 30 31  4  0  0  0
 30 32  4  0  0  0
 31 33  4  0  0  0
 32 34  4  0  0  0
 33 35  4  0  0  0
 34 35  4  0  0  0
 36 37  1  0  0  0
 37 38  1  0  0  0
 37 40  1  0  0  0
 38 39  2  0  0  0
 38 48  1  0  0  0
 40 41  1  0  0  0
 41 42  4  0  0  0
 41 43  4  0  0  0
 42 44  4  0  0  0
 43 45  4  0  0  0
 44 46  4  0  0  0
 45 46  4  0  0  0
 46 47  1  0  0  0
 48 49  1  0  0  0
 49 50  1  0  0  0
 49 52  1  0  0  0
 50 51  1  0  0  0
 50 53  2  0  0  0
  1 54  1  0  0  0
  1 55  1  0  0  0
  1 56  1  0  0  0
  2 57  1  0  0  0
  5 58  1  0  0  0
  6 59  1  0  0  0
  7 60  1  0  0  0
  7 61  1  0  0  0
  7 62  1  0  0  0
  8 63  1  0  0  0
  9 64  1  0  0  0
 12 65  1  0  0  0
 12 66  1  0  0  0
 15 67  1  0  0  0
 15 68  1  0  0  0
 16 69  1  0  0  0
 17 70  1  0  0  0
 20 71  1  0  0  0
 20 72  1  0  0  0
 21 73  1  0  0  0
 21 74  1  0  0  0
 23 75  1  0  0  0
 25 76  1  0  0  0
 26 77  1  0  0  0
 29 78  1  0  0  0
 29 79  1  0  0  0
 31 80  1  0  0  0
 32 81  1  0  0  0
 33 82  1  0  0  0
 34 83  1  0  0  0
 35 84  1  0  0  0
 36 85  1  0  0  0
 37 86  1  0  0  0
 40 87  1  0  0  0
 40 88  1  0  0  0
 42 89  1  0  0  0
 43 90  1  0  0  0
 44 91  1  0  0  0
 45 92  1  0  0  0
 47 93  1  0  0  0
 48 94  1  0  0  0
 49 95  1  0  0  0
 51 96  1  0  0  0
 52 97  1  0  0  0
 52 98  1  0  0  0
 52 99  1  0  0  0
M  END
$$$$
