6h51_ligand
  -I-interpret- 

 42 45  0  0  0  0  0  0  0  0999 V2000
   85.2500   66.9060   12.8750 C   0  0  0  0  0
   84.5150   64.8160   12.3070 C   0  0  0  0  0
   85.6530   64.1950   12.8720 C   0  0  0  0  0
   86.5550   65.0510   13.5150 C   0  0  0  0  0
   87.7300   64.4720   14.1460 C   0  0  0  0  0
   86.9700   62.4190   13.3240 C   0  0  0  0  0
   81.3820   63.7730   11.2930 C   0  0  0  0  0
   81.9340   62.4990   11.5060 C   0  0  0  0  0
   81.2340   61.1810   11.3410 C   0  0  0  0  0
   79.9730   61.3210   10.4870 C   0  0  0  0  0
   80.0940   59.2690   12.4850 C   0  0  0  0  0
   80.8720   60.5600   12.6910 C   0  0  0  0  0
   88.4970   65.1070   14.8500 O   0  0  0  0  0
   86.3600   66.4260   13.5260 C   0  0  0  0  0
   87.8650   63.1720   13.9880 N   0  0  0  0  0
   85.8720   62.8590   12.7750 N   0  0  0  0  0
   84.3420   66.1320   12.2760 N   0  0  0  0  0
   83.3880   64.0850   11.8770 N   0  0  0  0  0
   83.2200   62.7500   11.8790 C   0  0  0  0  0
   82.2530   64.7390   11.5040 N   0  0  0  0  0
   78.8730   59.5130   11.7220 N   0  3  0  0  0
   79.2470   59.9890   10.3950 C   0  0  0  0  0
   78.0420   58.3060   11.6430 C   0  0  0  0  0
   85.1012   67.9854   12.8456 H   0  0  0  0  0
   87.1798   61.3529   13.2376 H   0  0  0  0  0
   80.3496   63.9433   10.9876 H   0  0  0  0  0
   81.9334   60.5188   10.8306 H   0  0  0  0  0
   80.2562   61.6417    9.4845 H   0  0  0  0  0
   79.3118   62.0554   10.9469 H   0  0  0  0  0
   79.8232   58.8634   13.4598 H   0  0  0  0  0
   80.7187   58.5675   11.9321 H   0  0  0  0  0
   80.2554   61.2620   13.2523 H   0  0  0  0  0
   81.7881   60.3404   13.2394 H   0  0  0  0  0
   87.0577   67.0952   14.0295 H   0  0  0  0  0
   88.6851   62.7154   14.3871 H   0  0  0  0  0
   83.9747   62.0056   12.1326 H   0  0  0  0  0
   78.3107   60.2216   12.1933 H   0  0  0  0  0
   79.9097   59.2577    9.9321 H   0  0  0  0  0
   78.3431   60.1207    9.8002 H   0  0  0  0  0
   78.6041   57.5109   11.1532 H   0  0  0  0  0
   77.7652   57.9905   12.6490 H   0  0  0  0  0
   77.1416   58.5233   11.0684 H   0  0  0  0  0
  1 14  4  0  0  0
 17  1  4  0  0  0
  2  3  4  0  0  0
  2 17  4  0  0  0
 18  2  1  0  0  0
  3  4  4  0  0  0
  3 16  1  0  0  0
  4  5  1  0  0  0
  4 14  4  0  0  0
  5 13  2  0  0  0
  5 15  1  0  0  0
  6 15  1  0  0  0
 16  6  2  0  0  0
  8  7  4  0  0  0
  7 20  4  0  0  0
  8  9  1  0  0  0
 19  8  4  0  0  0
  9 10  1  0  0  0
  9 12  1  0  0  0
 10 22  1  0  0  0
 12 11  1  0  0  0
 11 21  1  0  0  0
 18 19  4  0  0  0
 18 20  4  0  0  0
 21 22  1  0  0  0
 21 23  1  0  0  0
  1 24  1  0  0  0
  6 25  1  0  0  0
  7 26  1  0  0  0
  9 27  1  0  0  0
 10 28  1  0  0  0
 10 29  1  0  0  0
 11 30  1  0  0  0
 11 31  1  0  0  0
 12 32  1  0  0  0
 12 33  1  0  0  0
 14 34  1  0  0  0
 15 35  1  0  0  0
 19 36  1  0  0  0
 21 37  1  0  0  0
 22 38  1  0  0  0
 22 39  1  0  0  0
 23 40  1  0  0  0
 23 41  1  0  0  0
 23 42  1  0  0  0
M  END
$$$$
