5u0g_ligand
  -I-interpret- 

 31 32  0  0  0  0  0  0  0  0999 V2000
   -4.9760    5.3550   15.0650 C   0  0  0  0  0
   -4.4980    6.6060   15.3600 C   0  0  0  0  0
   -2.5270    6.1970   14.1030 C   0  0  0  0  0
   -4.2370    4.4850   14.2900 C   0  0  0  0  0
   -3.2790    7.0420   14.8840 C   0  0  0  0  0
   -3.0110    4.9140   13.8150 C   0  0  0  0  0
   -4.7730    0.7390   14.8810 C   0  0  0  0  0
   -5.8070    1.0360   16.7960 C   0  0  0  0  0
   -4.2880    2.1500   15.1330 C   0  0  0  0  0
   -1.6140    8.7670   14.7740 C   0  0  0  0  0
   -1.1380    4.5770   12.4010 C   0  0  0  0  0
   -4.8400    3.1210   14.0540 C   0  0  0  0  0
   -5.5690    0.1980   15.8150 N   0  0  0  0  0
   -4.4360    0.1730   13.8630 O   0  0  0  0  0
   -6.5560    0.8790   17.7140 O   0  0  0  0  0
   -2.9120    8.3540   15.2480 O   0  0  0  0  0
   -2.3020    4.0100   13.0360 O   0  0  0  0  0
   -4.8650    2.4800   16.8110 S   0  0  0  0  0
   -5.9489    5.0450   15.4464 H   0  0  0  0  0
   -5.0947    7.2707   15.9846 H   0  0  0  0  0
   -1.5631    6.5220   13.7114 H   0  0  0  0  0
   -3.2089    2.2848   15.0589 H   0  0  0  0  0
   -0.8520    8.1009   15.1787 H   0  0  0  0  0
   -1.5955    8.7233   13.6850 H   0  0  0  0  0
   -1.4170    9.7879   15.1013 H   0  0  0  0  0
   -1.4436    5.3962   11.7502 H   0  0  0  0  0
   -0.4561    4.9524   13.1640 H   0  0  0  0  0
   -0.6377    3.8094   11.8106 H   0  0  0  0  0
   -4.5762    2.7629   13.0589 H   0  0  0  0  0
   -5.9265    3.1760   14.1214 H   0  0  0  0  0
   -5.9437   -0.7495   15.7683 H   0  0  0  0  0
  1  2  4  0  0  0
  4  1  4  0  0  0
  2  5  4  0  0  0
  3  5  4  0  0  0
  6  3  4  0  0  0
  4  6  4  0  0  0
 12  4  1  0  0  0
  5 16  1  0  0  0
  6 17  1  0  0  0
  9  7  1  0  0  0
  7 13  1  0  0  0
  7 14  2  0  0  0
 13  8  1  0  0  0
  8 15  2  0  0  0
  8 18  1  0  0  0
  9 12  1  0  0  0
  9 18  1  0  0  0
 16 10  1  0  0  0
 17 11  1  0  0  0
  1 19  1  0  0  0
  2 20  1  0  0  0
  3 21  1  0  0  0
  9 22  1  0  0  0
 10 23  1  0  0  0
 10 24  1  0  0  0
 10 25  1  0  0  0
 11 26  1  0  0  0
 11 27  1  0  0  0
 11 28  1  0  0  0
 12 29  1  0  0  0
 12 30  1  0  0  0
 13 31  1  0  0  0
M  END
$$$$
