2w6z_ligand
  -I-interpret- 

 28 29  0  0  0  0  0  0  0  0999 V2000
    1.3260  -20.4300   21.5610 C   0  0  0  0  0
    1.6000  -20.6690   23.0180 C   0  0  0  0  0
    2.2600  -21.7840   23.3840 C   0  0  0  0  0
    1.1190  -19.6250   23.9820 C   0  0  0  0  0
    2.1580  -27.7970   24.6540 N   0  0  0  0  0
    2.2830  -26.4590   24.6930 C   0  0  0  0  0
    3.4650  -25.8200   24.0800 C   0  0  0  0  0
    4.5840  -26.1890   23.4250 N   0  0  0  0  0
    3.5080  -24.3710   24.1810 C   0  0  0  0  0
    4.6360  -23.9560   23.5860 N   0  0  0  0  0
    5.2850  -25.0630   23.1320 C   0  0  0  0  0
    2.6240  -22.2020   24.8070 C   0  0  0  0  0
    2.5440  -23.6630   24.7890 N   0  0  0  0  0
    1.4800  -24.3070   25.3160 C   0  0  0  0  0
    1.3510  -25.6530   25.2790 N   0  0  0  0  0
    2.2701  -20.3801   21.0185 H   0  0  0  0  0
    0.7221  -21.2475   21.1673 H   0  0  0  0  0
    0.7877  -19.4895   21.4433 H   0  0  0  0  0
    2.5657  -22.4570   22.5829 H   0  0  0  0  0
    0.4213  -20.0771   24.6869 H   0  0  0  0  0
    1.9702  -19.2136   24.5246 H   0  0  0  0  0
    0.6173  -18.8285   23.4325 H   0  0  0  0  0
    2.8766  -28.3634   24.2033 H   0  0  0  0  0
    1.3446  -28.2457   25.0751 H   0  0  0  0  0
    6.2387  -25.0479   22.6044 H   0  0  0  0  0
    1.9534  -21.7643   25.5465 H   0  0  0  0  0
    3.6140  -21.8497   25.0966 H   0  0  0  0  0
    0.6942  -23.7187   25.7899 H   0  0  0  0  0
  2  1  1  0  0  0
  3  2  2  0  0  0
  2  4  1  0  0  0
 12  3  1  0  0  0
  6  5  1  0  0  0
  7  6  4  0  0  0
  6 15  4  0  0  0
  7  8  4  0  0  0
  9  7  4  0  0  0
 11  8  4  0  0  0
  9 10  4  0  0  0
 13  9  4  0  0  0
 10 11  4  0  0  0
 12 13  1  0  0  0
 13 14  4  0  0  0
 14 15  4  0  0  0
  1 16  1  0  0  0
  1 17  1  0  0  0
  1 18  1  0  0  0
  3 19  1  0  0  0
  4 20  1  0  0  0
  4 21  1  0  0  0
  4 22  1  0  0  0
  5 23  1  0  0  0
  5 24  1  0  0  0
 11 25  1  0  0  0
 12 26  1  0  0  0
 12 27  1  0  0  0
 14 28  1  0  0  0
M  END
$$$$
