6kzd_ligand
  -I-interpret- 

 86 91  0  0  0  0  0  0  0  0999 V2000
  -18.6940  -13.2000   15.8530 C   0  0  0  0  0
  -18.5140  -12.5920   17.2460 C   0  0  0  0  0
  -18.5430  -11.2520   17.2890 N   0  3  0  0  0
  -18.8290  -10.8470   18.4910 C   0  0  0  0  0
  -19.4160  -10.7490   16.4080 C   0  0  0  0  0
  -19.1830  -11.2240   14.9710 C   0  0  0  0  0
  -18.4740  -12.3660   14.8160 N   0  0  0  0  0
  -17.1930  -12.5040   13.7050 C   0  0  0  0  0
  -16.2600  -13.5350   13.8930 C   0  0  0  0  0
  -16.8630  -11.5270   12.7630 C   0  0  0  0  0
  -15.6520  -11.5730   12.0600 C   0  0  0  0  0
  -15.3180  -10.5010   11.0520 C   0  0  0  0  0
  -16.5440  -10.1550   10.2320 C   0  0  0  0  0
  -14.7610   -9.2920   11.7640 C   0  0  0  0  0
  -14.7340  -12.6070   12.2710 C   0  0  0  0  0
  -15.0740  -13.5970   13.1790 C   0  0  0  0  0
  -14.2360  -14.7150   13.5520 N   0  0  0  0  0
  -12.8240  -14.6040   13.5840 C   0  0  0  0  0
  -12.2260  -13.5690   13.3070 O   0  0  0  0  0
  -12.0280  -15.7880   14.1300 C   0  0  0  0  0
  -10.8100  -16.1420   13.6190 C   0  0  0  0  0
  -10.2100  -15.4690   12.4030 C   0  0  0  0  0
  -12.5370  -16.4100   15.2600 C   0  0  0  0  0
  -11.8460  -17.4590   15.8920 C   0  0  0  0  0
  -10.6110  -17.8530   15.3730 C   0  0  0  0  0
  -10.1650  -17.2140   14.2290 C   0  0  0  0  0
   -8.8080  -17.5030   13.6890 C   0  0  0  0  0
   -7.5610  -17.6650   13.2150 C   0  0  0  0  0
   -6.1570  -17.8400   12.7350 C   0  0  0  0  0
   -5.5620  -18.1920   11.5110 C   0  0  0  0  0
   -4.2320  -18.0960   11.7620 N   0  0  0  0  0
   -4.0320  -17.6830   13.0600 C   0  0  0  0  0
   -2.8110  -17.4380   13.7470 C   0  0  0  0  0
   -2.9080  -17.0350   15.0240 N   0  0  0  0  0
   -5.1810  -17.5190   13.6420 N   0  0  0  0  0
   -5.2730  -17.0950   14.9540 C   0  0  0  0  0
   -4.0920  -16.8640   15.6460 C   0  0  0  0  0
   -4.1080  -16.3450   17.0590 C   0  0  0  0  0
   -3.2530  -16.8050   18.0460 C   0  0  0  0  0
   -3.3270  -16.2300   19.3040 C   0  0  0  0  0
   -4.2300  -15.2010   19.5630 C   0  0  0  0  0
   -4.3040  -14.6100   20.8580 N   0  0  0  0  0
   -5.0680  -14.7380   18.5650 C   0  0  0  0  0
   -5.0000  -15.3070   17.3140 C   0  0  0  0  0
  -19.7371  -13.5086   15.7841 H   0  0  0  0  0
  -17.9568  -13.9984   15.7679 H   0  0  0  0  0
  -17.5278  -12.8963   17.5965 H   0  0  0  0  0
  -19.3485  -12.9439   17.8526 H   0  0  0  0  0
  -17.6158  -10.9120   17.0338 H   0  0  0  0  0
  -18.7836   -9.7585   18.5267 H   0  0  0  0  0
  -19.8330  -11.1789   18.7556 H   0  0  0  0  0
  -18.1094  -11.2652   19.1948 H   0  0  0  0  0
  -19.2994   -9.6653   16.4160 H   0  0  0  0  0
  -20.4094  -11.0850   16.7053 H   0  0  0  0  0
  -18.6001  -10.4406   14.4866 H   0  0  0  0  0
  -20.1711  -11.4256   14.5574 H   0  0  0  0  0
  -16.4753  -14.3132   14.6252 H   0  0  0  0  0
  -17.5615  -10.7126   12.5710 H   0  0  0  0  0
  -14.5568  -10.8678   10.3635 H   0  0  0  0  0
  -16.8909  -11.0447    9.7064 H   0  0  0  0  0
  -17.3310   -9.7919   10.8930 H   0  0  0  0  0
  -16.2890   -9.3804    9.5087 H   0  0  0  0  0
  -15.5030   -8.9114   12.4659 H   0  0  0  0  0
  -13.8582   -9.5747   12.3055 H   0  0  0  0  0
  -14.5210   -8.5200   11.0329 H   0  0  0  0  0
  -13.7830  -12.6332   11.7390 H   0  0  0  0  0
  -14.6716  -15.6040   13.7977 H   0  0  0  0  0
  -10.8748  -15.6036   11.5498 H   0  0  0  0  0
  -10.0845  -14.4049   12.6031 H   0  0  0  0  0
   -9.2402  -15.9156   12.1836 H   0  0  0  0  0
  -13.4925  -16.0789   15.6668 H   0  0  0  0  0
  -12.2653  -17.9538   16.7680 H   0  0  0  0  0
  -10.0203  -18.6345   15.8509 H   0  0  0  0  0
   -9.1716  -17.3270   12.6766 H   0  0  0  0  0
   -8.4623  -17.7592   14.6905 H   0  0  0  0  0
   -7.4840  -16.5904   13.0495 H   0  0  0  0  0
   -7.6509  -18.7433   13.3462 H   0  0  0  0  0
   -6.0531  -18.4752   10.5800 H   0  0  0  0  0
   -1.8445  -17.5708   13.2609 H   0  0  0  0  0
   -6.2421  -16.9467   15.4304 H   0  0  0  0  0
   -2.5382  -17.6012   17.8380 H   0  0  0  0  0
   -2.6722  -16.5861   20.0993 H   0  0  0  0  0
   -3.6926  -14.9399   21.6048 H   0  0  0  0  0
   -4.9684  -13.8572   21.0378 H   0  0  0  0  0
   -5.7737  -13.9322   18.7669 H   0  0  0  0  0
   -5.6488  -14.9427   16.5175 H   0  0  0  0  0
  1  2  1  0  0  0
  1  7  1  0  0  0
  2  3  1  0  0  0
  3  4  1  0  0  0
  3  5  1  0  0  0
  5  6  1  0  0  0
  6  7  1  0  0  0
  7  8  1  0  0  0
  8  9  4  0  0  0
  8 10  4  0  0  0
  9 16  4  0  0  0
 10 11  4  0  0  0
 11 12  1  0  0  0
 11 15  4  0  0  0
 12 13  1  0  0  0
 12 14  1  0  0  0
 15 16  4  0  0  0
 16 17  1  0  0  0
 17 18  1  0  0  0
 18 19  2  0  0  0
 18 20  1  0  0  0
 20 21  4  0  0  0
 20 23  4  0  0  0
 21 22  1  0  0  0
 21 26  4  0  0  0
 23 24  4  0  0  0
 24 25  4  0  0  0
 25 26  4  0  0  0
 26 27  1  0  0  0
 27 28  1  0  0  0
 28 29  1  0  0  0
 29 30  4  0  0  0
 29 35  4  0  0  0
 30 31  4  0  0  0
 31 32  4  0  0  0
 32 33  4  0  0  0
 32 35  4  0  0  0
 33 34  4  0  0  0
 34 37  4  0  0  0
 35 36  4  0  0  0
 36 37  4  0  0  0
 37 38  1  0  0  0
 38 39  4  0  0  0
 38 44  4  0  0  0
 39 40  4  0  0  0
 40 41  4  0  0  0
 41 42  1  0  0  0
 41 43  4  0  0  0
 43 44  4  0  0  0
  1 45  1  0  0  0
  1 46  1  0  0  0
  2 47  1  0  0  0
  2 48  1  0  0  0
  3 49  1  0  0  0
  4 50  1  0  0  0
  4 51  1  0  0  0
  4 52  1  0  0  0
  5 53  1  0  0  0
  5 54  1  0  0  0
  6 55  1  0  0  0
  6 56  1  0  0  0
  9 57  1  0  0  0
 10 58  1  0  0  0
 12 59  1  0  0  0
 13 60  1  0  0  0
 13 61  1  0  0  0
 13 62  1  0  0  0
 14 63  1  0  0  0
 14 64  1  0  0  0
 14 65  1  0  0  0
 15 66  1  0  0  0
 17 67  1  0  0  0
 22 68  1  0  0  0
 22 69  1  0  0  0
 22 70  1  0  0  0
 23 71  1  0  0  0
 24 72  1  0  0  0
 25 73  1  0  0  0
 27 74  1  0  0  0
 27 75  1  0  0  0
 28 76  1  0  0  0
 28 77  1  0  0  0
 30 78  1  0  0  0
 33 79  1  0  0  0
 36 80  1  0  0  0
 39 81  1  0  0  0
 40 82  1  0  0  0
 42 83  1  0  0  0
 42 84  1  0  0  0
 43 85  1  0  0  0
 44 86  1  0  0  0
M  END
$$$$
