1dg9_ligand
  -I-interpret- 

 35 35  0  0  0  0  0  0  0  0999 V2000
    8.0230   42.5550   27.0260 N   0  3  0  0  0
    6.5510   42.5080   26.9560 C   0  0  0  0  0
    5.7540   43.7960   27.0300 C   0  0  0  0  0
    6.2020   44.6540   25.8930 N   0  3  0  0  0
    7.6890   44.8360   26.0050 C   0  0  0  0  0
    8.4490   43.5100   25.9790 C   0  0  0  0  0
    5.3320   45.8700   25.6410 C   0  0  0  0  0
    3.9310   45.7400   26.2350 C   0  0  0  0  0
    2.8360   45.7740   25.3050 O   0  0  0  0  0
    8.6030   41.3260   27.6150 C   0  0  0  0  0
    9.2410   40.3430   26.6070 C   0  0  0  0  0
   10.3530   39.2790   27.5250 S   0  0  0  0  0
   11.3640   40.0880   28.1720 O   0  0  0  0  0
    9.5170   38.6240   28.4960 O   0  0  0  0  0
   10.8860   38.3810   26.5140 O   0  0  0  0  0
    8.6419   42.9748   27.7196 H   0  0  0  0  0
    6.2513   41.9478   27.8417 H   0  0  0  0  0
    6.3354   42.1077   25.9654 H   0  0  0  0  0
    5.9227   44.2992   27.9821 H   0  0  0  0  0
    4.6854   43.5923   26.9611 H   0  0  0  0  0
    6.0471   44.1887   24.9987 H   0  0  0  0  0
    7.8959   45.3218   26.9586 H   0  0  0  0  0
    8.0191   45.4278   25.1512 H   0  0  0  0  0
    8.2528   43.0424   25.0141 H   0  0  0  0  0
    9.5009   43.7355   26.1541 H   0  0  0  0  0
    5.2246   45.9817   24.5621 H   0  0  0  0  0
    5.8139   46.7252   26.1148 H   0  0  0  0  0
    3.7989   46.6017   26.8893 H   0  0  0  0  0
    3.8938   44.7597   26.7101 H   0  0  0  0  0
    2.0085   45.6848   25.7834 H   0  0  0  0  0
    7.7809   40.7921   28.0917 H   0  0  0  0  0
    9.4020   41.6486   28.2825 H   0  0  0  0  0
    9.7844   40.8874   25.8347 H   0  0  0  0  0
    8.4711   39.7526   26.1102 H   0  0  0  0  0
   10.1679   37.8760   26.1255 H   0  0  0  0  0
  1  2  1  0  0  0
  1  6  1  0  0  0
  1 10  1  0  0  0
  2  3  1  0  0  0
  3  4  1  0  0  0
  4  5  1  0  0  0
  4  7  1  0  0  0
  5  6  1  0  0  0
  7  8  1  0  0  0
  8  9  1  0  0  0
 10 11  1  0  0  0
 11 12  1  0  0  0
 12 13  2  0  0  0
 12 14  2  0  0  0
 12 15  1  0  0  0
  1 16  1  0  0  0
  2 17  1  0  0  0
  2 18  1  0  0  0
  3 19  1  0  0  0
  3 20  1  0  0  0
  4 21  1  0  0  0
  5 22  1  0  0  0
  5 23  1  0  0  0
  6 24  1  0  0  0
  6 25  1  0  0  0
  7 26  1  0  0  0
  7 27  1  0  0  0
  8 28  1  0  0  0
  8 29  1  0  0  0
  9 30  1  0  0  0
 10 31  1  0  0  0
 10 32  1  0  0  0
 11 33  1  0  0  0
 11 34  1  0  0  0
 15 35  1  0  0  0
M  END
$$$$
