1sw1_ligand
  -I-interpret- 

 24 24  0  0  0  0  0  0  0  0999 V2000
   13.5970    2.1320   15.1660 N   0  3  0  0  0
   12.3000    2.1790   15.7850 C   0  0  0  0  0
   13.9600    3.4960   14.8080 C   0  0  0  0  0
   13.4950    4.2730   16.0480 C   0  0  0  0  0
   12.5720    3.3170   16.7550 C   0  0  0  0  0
   14.4490    1.6270   16.2540 C   0  0  0  0  0
   13.5800    1.3710   13.9090 C   0  0  0  0  0
   15.4350    3.5270   14.5670 C   0  0  0  0  0
   15.8980    3.2440   13.4280 O   0  0  0  0  0
   16.1370    3.8610   15.5430 O   0  0  0  0  0
   11.9611    1.2469   16.2372 H   0  0  0  0  0
   11.4606    2.3305   15.1063 H   0  0  0  0  0
   13.5189    3.9121   13.9023 H   0  0  0  0  0
   12.9989    5.2077   15.7867 H   0  0  0  0  0
   14.3293    4.5821   16.6776 H   0  0  0  0  0
   13.0256    2.9454   17.6738 H   0  0  0  0  0
   11.6450    3.8124   17.0438 H   0  0  0  0  0
   14.1278    0.6223   16.5288 H   0  0  0  0  0
   15.4858    1.5994   15.9189 H   0  0  0  0  0
   14.3624    2.2865   17.1175 H   0  0  0  0  0
   14.5873    1.3347   13.4941 H   0  0  0  0  0
   13.2293    0.3576   14.1040 H   0  0  0  0  0
   12.9109    1.8583   13.1998 H   0  0  0  0  0
   15.1758    3.0172   12.8376 H   0  0  0  0  0
  1  2  1  0  0  0
  1  3  1  0  0  0
  1  6  1  0  0  0
  1  7  1  0  0  0
  2  5  1  0  0  0
  3  4  1  0  0  0
  3  8  1  0  0  0
  4  5  1  0  0  0
  8  9  1  0  0  0
  8 10  2  0  0  0
  2 11  1  0  0  0
  2 12  1  0  0  0
  3 13  1  0  0  0
  4 14  1  0  0  0
  4 15  1  0  0  0
  5 16  1  0  0  0
  5 17  1  0  0  0
  6 18  1  0  0  0
  6 19  1  0  0  0
  6 20  1  0  0  0
  7 21  1  0  0  0
  7 22  1  0  0  0
  7 23  1  0  0  0
  9 24  1  0  0  0
M  END
$$$$
