6mvx_ligand
  -I-interpret- 

 49 50  0  0  0  0  0  0  0  0999 V2000
   -3.3800  -43.8620  -24.8810 C   0  0  0  0  0
   -2.7790  -44.2870  -26.1250 N   0  0  0  0  0
   -1.4200  -43.7530  -26.4400 C   0  0  0  0  0
   -0.8270  -46.0990  -25.9110 C   0  0  0  0  0
   -0.3070  -46.6150  -28.2120 C   0  0  0  0  0
   -5.5740  -43.4590  -23.6400 C   0  0  0  0  0
   -5.1510  -41.1320  -24.1440 C   0  0  0  0  0
   -7.3700  -45.0820  -23.6060 C   0  0  0  0  0
   -8.8060  -48.9420  -24.4040 C   0  0  0  0  0
   -8.2940  -47.5420  -24.0150 C   0  0  0  0  0
   -6.5990  -45.9520  -24.4120 C   0  0  0  0  0
   -5.3000  -45.5540  -24.8290 C   0  0  0  0  0
   -4.7880  -44.3180  -24.4410 C   0  0  0  0  0
   -0.3200  -44.6670  -26.1150 C   0  0  0  0  0
   -0.1660  -47.0340  -26.8010 C   0  0  0  0  0
    0.2100  -45.1980  -28.4420 C   0  0  0  0  0
   -4.1980  -40.0560  -23.6720 C   0  0  0  0  0
   -6.8630  -43.8600  -23.2290 C   0  0  0  0  0
   -9.8710  -49.2360  -23.6640 F   0  0  0  0  0
   -7.8600  -49.8410  -24.1820 F   0  0  0  0  0
   -9.1300  -48.9620  -25.7130 F   0  0  0  0  0
   -3.0100  -40.2150  -24.2620 F   0  0  0  0  0
   -4.0610  -40.1580  -22.3530 F   0  0  0  0  0
   -4.6690  -38.8690  -23.9660 F   0  0  0  0  0
    0.6530  -44.5570  -27.2170 N   0  3  0  0  0
   -7.1490  -47.2040  -24.7830 O   0  0  0  0  0
   -2.7320  -43.1100  -24.1720 O   0  0  0  0  0
   -5.0890  -42.1730  -23.2090 O   0  0  0  0  0
   -3.2615  -44.9233  -26.7596 H   0  0  0  0  0
   -1.2804  -42.8566  -25.8357 H   0  0  0  0  0
   -1.3854  -43.5804  -27.5157 H   0  0  0  0  0
   -1.8957  -46.1186  -26.1245 H   0  0  0  0  0
   -0.6157  -46.3950  -24.8835 H   0  0  0  0  0
   -1.3658  -46.6375  -28.4700 H   0  0  0  0  0
    0.2785  -47.2959  -28.8298 H   0  0  0  0  0
   -4.8709  -41.4872  -25.1357 H   0  0  0  0  0
   -6.1660  -40.7419  -24.2200 H   0  0  0  0  0
   -8.3674  -45.3803  -23.2831 H   0  0  0  0  0
   -8.0259  -47.5425  -22.9585 H   0  0  0  0  0
   -9.0791  -46.8105  -24.2066 H   0  0  0  0  0
   -4.7027  -46.2177  -25.4541 H   0  0  0  0  0
    0.1551  -44.4000  -25.1710 H   0  0  0  0  0
   -0.6256  -48.0150  -26.6806 H   0  0  0  0  0
    0.8943  -47.0646  -26.5502 H   0  0  0  0  0
   -0.6080  -44.6060  -28.8524 H   0  0  0  0  0
    1.0648  -45.2590  -29.1156 H   0  0  0  0  0
   -7.4625  -43.1953  -22.6070 H   0  0  0  0  0
    1.5101  -45.0225  -26.9185 H   0  0  0  0  0
    0.7804  -43.5650  -27.4173 H   0  0  0  0  0
  1  2  1  0  0  0
 13  1  1  0  0  0
  1 27  2  0  0  0
  2  3  1  0  0  0
  3 14  1  0  0  0
 14  4  1  0  0  0
  4 15  1  0  0  0
 15  5  1  0  0  0
  5 16  1  0  0  0
  6 13  4  0  0  0
 18  6  4  0  0  0
  6 28  1  0  0  0
  7 17  1  0  0  0
 28  7  1  0  0  0
 11  8  4  0  0  0
  8 18  4  0  0  0
 10  9  1  0  0  0
  9 19  1  0  0  0
  9 20  1  0  0  0
  9 21  1  0  0  0
 26 10  1  0  0  0
 11 12  4  0  0  0
 11 26  1  0  0  0
 12 13  4  0  0  0
 14 25  1  0  0  0
 16 25  1  0  0  0
 17 22  1  0  0  0
 17 23  1  0  0  0
 17 24  1  0  0  0
  2 29  1  0  0  0
  3 30  1  0  0  0
  3 31  1  0  0  0
  4 32  1  0  0  0
  4 33  1  0  0  0
  5 34  1  0  0  0
  5 35  1  0  0  0
  7 36  1  0  0  0
  7 37  1  0  0  0
  8 38  1  0  0  0
 10 39  1  0  0  0
 10 40  1  0  0  0
 12 41  1  0  0  0
 14 42  1  0  0  0
 15 43  1  0  0  0
 15 44  1  0  0  0
 16 45  1  0  0  0
 16 46  1  0  0  0
 18 47  1  0  0  0
 25 48  1  0  0  0
 25 49  1  0  0  0
M  END
$$$$
