5v2l_ligand
  -I-interpret- 

 47 49  0  0  0  0  0  0  0  0999 V2000
  -12.5820   17.0260  -13.1440 P   0  0  0  0  0
  -11.3670   16.3920  -13.8630 O   0  0  0  0  0
  -12.2400   17.3090  -11.7220 O   0  0  0  0  0
  -12.9570   18.3490  -13.8460 O   0  0  0  0  0
  -14.0910   14.4930  -12.7160 P   0  0  0  0  0
  -14.6110   13.6480  -13.8220 O   0  0  0  0  0
  -12.7330   13.8700  -12.1070 O   0  0  0  0  0
  -13.8440   16.0120  -13.2160 O   0  0  0  0  0
  -15.2510   15.4690  -10.1610 P   0  0  0  0  0
  -16.5820   15.0220   -9.3680 O   0  0  0  0  0
  -14.0130   15.2490   -9.3650 O   0  0  0  0  0
  -15.2180   14.6610  -11.5630 O   0  0  0  0  0
  -15.3800   16.9920  -10.6200 O   0  0  0  0  0
  -16.2510   17.3110  -11.6870 C   0  0  0  0  0
  -16.5910   18.7820  -11.6700 C   0  0  0  0  0
  -17.9920   18.8870  -11.9550 O   0  0  0  0  0
  -16.4380   19.3980  -10.2670 C   0  0  0  0  0
  -15.1070   19.8750  -10.0420 O   0  0  0  0  0
  -17.4330   20.5620  -10.3430 C   0  0  0  0  0
  -16.8410   21.6960  -10.9960 O   0  0  0  0  0
  -18.5720   19.9510  -11.1900 C   0  0  0  0  0
  -19.6380   19.4000  -10.3600 N   0  0  0  0  0
  -19.5490   18.5120   -9.3320 C   0  0  0  0  0
  -20.7080   18.2640   -8.7780 N   0  0  0  0  0
  -21.5840   19.0440   -9.4670 C   0  0  0  0  0
  -22.9520   19.2820   -9.3880 C   0  0  0  0  0
  -23.7540   18.6900   -8.4820 N   0  0  0  0  0
  -23.4670   20.1350  -10.2560 N   0  0  0  0  0
  -22.7150   20.7380  -11.1580 C   0  0  0  0  0
  -21.4250   20.6180  -11.3260 N   0  0  0  0  0
  -20.9170   19.7610  -10.4570 C   0  0  0  0  0
  -11.5957   16.2130  -14.7780 H   0  0  0  0  0
  -13.1783   18.1717  -14.7632 H   0  0  0  0  0
  -12.4158   14.4311  -11.3956 H   0  0  0  0  0
  -17.3510   15.1824   -9.9198 H   0  0  0  0  0
  -17.1694   16.7339  -11.5792 H   0  0  0  0  0
  -15.7587   17.0721  -12.6297 H   0  0  0  0  0
  -15.9328   19.2872  -12.3769 H   0  0  0  0  0
  -16.6217   18.6967   -9.4531 H   0  0  0  0  0
  -15.0478   20.2512   -9.1608 H   0  0  0  0  0
  -17.7629   20.9335   -9.3728 H   0  0  0  0  0
  -17.4795   22.4119  -11.0329 H   0  0  0  0  0
  -19.0127   20.7277  -11.8150 H   0  0  0  0  0
  -18.6137   18.0570   -9.0059 H   0  0  0  0  0
  -23.3635   18.0303   -7.8091 H   0  0  0  0  0
  -24.7518   18.9014   -8.4688 H   0  0  0  0  0
  -23.2296   21.4137  -11.8412 H   0  0  0  0  0
  1  2  1  0  0  0
  1  3  2  0  0  0
  1  4  1  0  0  0
  8  1  1  0  0  0
  5  6  2  0  0  0
  5  7  1  0  0  0
  5  8  1  0  0  0
 12  5  1  0  0  0
  9 10  1  0  0  0
  9 11  2  0  0  0
  9 12  1  0  0  0
  9 13  1  0  0  0
 13 14  1  0  0  0
 14 15  1  0  0  0
 15 16  1  0  0  0
 15 17  1  0  0  0
 16 21  1  0  0  0
 17 18  1  0  0  0
 17 19  1  0  0  0
 19 20  1  0  0  0
 19 21  1  0  0  0
 21 22  1  0  0  0
 22 23  4  0  0  0
 22 31  4  0  0  0
 23 24  4  0  0  0
 24 25  4  0  0  0
 25 26  4  0  0  0
 25 31  4  0  0  0
 26 27  1  0  0  0
 26 28  4  0  0  0
 28 29  4  0  0  0
 29 30  4  0  0  0
 30 31  4  0  0  0
  2 32  1  0  0  0
  4 33  1  0  0  0
  7 34  1  0  0  0
 10 35  1  0  0  0
 14 36  1  0  0  0
 14 37  1  0  0  0
 15 38  1  0  0  0
 17 39  1  0  0  0
 18 40  1  0  0  0
 19 41  1  0  0  0
 20 42  1  0  0  0
 21 43  1  0  0  0
 23 44  1  0  0  0
 27 45  1  0  0  0
 27 46  1  0  0  0
 29 47  1  0  0  0
M  END
$$$$
