### 
### Created by X-TOOL on Mon Sep 10 21:13:31 2018
### 

@<TRIPOS>MOLECULE
5v2l_ligand
   43    45     1     0     0
SMALL
GAST_HUCK


@<TRIPOS>ATOM
      1 PG        -12.5820   17.0260  -13.1440 P.3       1 ATP         0.1879
      2 O1G       -11.3670   16.3920  -13.8630 O.co2     1 ATP        -0.6091
      3 O2G       -12.2400   17.3090  -11.7220 O.co2     1 ATP        -0.6091
      4 O3G       -12.9570   18.3490  -13.8460 O.co2     1 ATP        -0.6091
      5 PB        -14.0910   14.4930  -12.7160 P.3       1 ATP         0.3553
      6 O1B       -14.6110   13.6480  -13.8220 O.co2     1 ATP        -0.5652
      7 O2B       -12.7330   13.8700  -12.1070 O.co2     1 ATP        -0.5652
      8 O3B       -13.8440   16.0120  -13.2160 O.3       1 ATP        -0.1546
      9 PA        -15.2510   15.4690  -10.1610 P.3       1 ATP         0.3266
     10 O1A       -16.5820   15.0220   -9.3680 O.co2     1 ATP        -0.5692
     11 O2A       -14.0130   15.2490   -9.3650 O.co2     1 ATP        -0.5692
     12 O3A       -15.2180   14.6610  -11.5630 O.3       1 ATP        -0.1171
     13 O5'       -15.3800   16.9920  -10.6200 O.3       1 ATP        -0.2441
     14 C5'       -16.2510   17.3110  -11.6870 C.3       1 ATP         0.1131
     15 C4'       -16.5910   18.7820  -11.6700 C.3       1 ATP         0.1189
     16 O4'       -17.9920   18.8870  -11.9550 O.3       1 ATP        -0.3364
     17 C3'       -16.4380   19.3980  -10.2670 C.3       1 ATP         0.1149
     18 O3'       -15.1070   19.8750  -10.0420 O.3       1 ATP        -0.3864
     19 C2'       -17.4330   20.5620  -10.3430 C.3       1 ATP         0.1385
     20 O2'       -16.8410   21.6960  -10.9960 O.3       1 ATP        -0.3836
     21 C1'       -18.5720   19.9510  -11.1900 C.3       1 ATP         0.2010
     22 N9        -19.6380   19.4000  -10.3600 N.pl3     1 ATP        -0.1919
     23 C8        -19.5490   18.5120   -9.3320 C.2       1 ATP         0.1123
     24 N7        -20.7080   18.2640   -8.7780 N.2       1 ATP        -0.2958
     25 C5        -21.5840   19.0440   -9.4670 C.ar      1 ATP         0.1045
     26 C6        -22.9520   19.2820   -9.3880 C.ar      1 ATP         0.1298
     27 N6        -23.7540   18.6900   -8.4820 N.pl3     1 ATP        -0.3152
     28 N1        -23.4670   20.1350  -10.2560 N.ar      1 ATP        -0.2698
     29 C2        -22.7150   20.7380  -11.1580 C.ar      1 ATP         0.0533
     30 N3        -21.4250   20.6180  -11.3260 N.ar      1 ATP        -0.2714
     31 C4        -20.9170   19.7610  -10.4570 C.ar      1 ATP         0.1613
     32 H1        -17.1762   16.7245  -11.5869 H         1 ATP         0.0648
     33 H2        -15.7613   17.0636  -12.6404 H         1 ATP         0.0648
     34 H3        -15.9794   19.3254  -12.4052 H         1 ATP         0.0651
     35 H4        -16.7113   18.6808   -9.4791 H         1 ATP         0.0648
     36 H5        -14.8972   20.5407  -10.6865 H         1 ATP         0.2100
     37 H6        -17.7889   20.8550   -9.3443 H         1 ATP         0.0676
     38 H7        -17.4728   22.4045  -11.0325 H         1 ATP         0.2101
     39 H8        -18.9905   20.7189  -11.8572 H         1 ATP         0.0996
     40 H9        -18.6146   18.0574   -9.0062 H         1 ATP         0.1349
     41 H10       -24.7615   18.9035   -8.4687 H         1 ATP         0.1820
     42 H11       -23.3597   18.0238   -7.8025 H         1 ATP         0.1820
     43 H12       -23.2267   21.4100  -11.8374 H         1 ATP         0.0996
@<TRIPOS>BOND
     1    1    2 ar 
     2    1    3 ar 
     3    1    4 ar 
     4    8    1 1  
     5    5    6 ar 
     6    5    7 ar 
     7    5    8 1  
     8   12    5 1  
     9    9   10 ar 
    10    9   11 ar 
    11    9   12 1  
    12    9   13 1  
    13   13   14 1  
    14   14   15 1  
    15   15   16 1  
    16   15   17 1  
    17   16   21 1  
    18   17   18 1  
    19   17   19 1  
    20   19   20 1  
    21   19   21 1  
    22   21   22 1  
    23   22   23 1  
    24   22   31 1  
    25   23   24 2  
    26   24   25 1  
    27   25   26 ar 
    28   25   31 ar 
    29   26   27 1  
    30   26   28 ar 
    31   28   29 ar 
    32   29   30 ar 
    33   30   31 ar 
    34   14   32 1  
    35   14   33 1  
    36   15   34 1  
    37   17   35 1  
    38   18   36 1  
    39   19   37 1  
    40   20   38 1  
    41   21   39 1  
    42   23   40 1  
    43   27   41 1  
    44   27   42 1  
    45   29   43 1  
@<TRIPOS>SUBSTRUCTURE
     1 ATP         1

