4a4w_ligand
  -I-interpret- 

 62 63  0  0  0  0  0  0  0  0999 V2000
  -10.5160   15.8320  -13.1880 C   0  0  0  0  0
  -11.9000   15.8090  -13.8430 C   0  0  0  0  0
  -12.1460   14.6730  -14.8480 C   0  0  0  0  0
  -12.8510   16.8110  -13.5600 C   0  0  0  0  0
  -14.1780   16.9410  -14.0050 C   0  0  0  0  0
  -14.8900   18.1340  -13.3510 C   0  0  0  0  0
  -16.4000   17.9090  -13.0740 C   0  0  0  0  0
  -17.3380   17.5290  -14.2490 C   0  0  0  0  0
  -16.9190   18.0270  -11.7750 C   0  0  0  0  0
  -16.2630   18.3270  -10.5670 C   0  0  0  0  0
  -16.5680   19.7680  -10.0800 C   0  0  0  0  0
  -17.8640   20.2670   -9.9570 C   0  0  0  0  0
  -18.1170   21.5650   -9.5230 C   0  0  0  0  0
  -18.9230   19.4830  -10.2640 O   0  0  0  0  0
  -19.8240   19.4470   -9.1470 C   0  0  0  0  0
  -15.5250   20.6440   -9.7260 C   0  0  0  0  0
  -14.2290   20.2090   -9.8120 O   0  0  0  0  0
  -15.7640   21.9550   -9.2890 C   0  0  0  0  0
  -14.5460   22.8550   -8.9380 C   0  0  0  0  0
  -13.4020   22.3230   -8.9460 O   0  0  0  0  0
  -14.7560   24.0710   -8.6850 O   0  0  0  0  0
  -17.0840   22.4240   -9.1810 C   0  0  0  0  0
  -17.5210   23.8180   -8.7310 C   0  0  0  0  0
  -17.7520   23.8660   -7.2280 C   0  0  0  0  0
  -17.9220   25.3110   -6.7480 C   0  0  0  0  0
  -18.9480   26.1100   -7.2610 C   0  0  0  0  0
  -19.1080   27.4270   -6.8260 C   0  0  0  0  0
  -18.2250   27.9350   -5.8680 C   0  0  0  0  0
  -17.2000   27.1370   -5.3480 C   0  0  0  0  0
  -17.0460   25.8210   -5.7900 C   0  0  0  0  0
  -10.0029   16.7549  -13.4582 H   0  0  0  0  0
  -10.6271   15.7802  -12.1049 H   0  0  0  0  0
   -9.9363   14.9771  -13.5363 H   0  0  0  0  0
  -13.0096   14.0889  -14.5299 H   0  0  0  0  0
  -12.3357   15.0968  -15.8342 H   0  0  0  0  0
  -11.2666   14.0303  -14.8903 H   0  0  0  0  0
  -12.5052   17.6037  -12.8966 H   0  0  0  0  0
  -14.7179   16.0330  -13.7365 H   0  0  0  0  0
  -14.1617   17.1030  -15.0828 H   0  0  0  0  0
  -14.8143   18.9706  -14.0456 H   0  0  0  0  0
  -14.4104   18.3023  -12.3868 H   0  0  0  0  0
  -17.7873   16.5554  -14.0533 H   0  0  0  0  0
  -18.1222   18.2801  -14.3437 H   0  0  0  0  0
  -16.7614   17.4853  -15.1730 H   0  0  0  0  0
  -17.9929   17.8611  -11.6892 H   0  0  0  0  0
  -15.1890   18.2445  -10.7336 H   0  0  0  0  0
  -16.6145   17.6295   -9.8067 H   0  0  0  0  0
  -19.1474   21.9129   -9.4506 H   0  0  0  0  0
  -19.3071   19.0403   -8.2778 H   0  0  0  0  0
  -20.1681   20.4575   -8.9267 H   0  0  0  0  0
  -20.6785   18.8160   -9.3913 H   0  0  0  0  0
  -13.6372   20.9140   -9.5393 H   0  0  0  0  0
  -13.4849   21.3917   -9.1636 H   0  0  0  0  0
  -18.4551   24.0682   -9.2340 H   0  0  0  0  0
  -16.7330   24.5274   -8.9840 H   0  0  0  0  0
  -16.8888   23.4288   -6.7262 H   0  0  0  0  0
  -18.6597   23.3096   -6.9945 H   0  0  0  0  0
  -19.6292   25.7011   -8.0073 H   0  0  0  0  0
  -19.9083   28.0492   -7.2267 H   0  0  0  0  0
  -18.3363   28.9629   -5.5229 H   0  0  0  0  0
  -16.5214   27.5425   -4.5976 H   0  0  0  0  0
  -16.2471   25.1972   -5.3892 H   0  0  0  0  0
  1  2  1  0  0  0
  2  3  1  0  0  0
  2  4  2  0  0  0
  4  5  1  0  0  0
  5  6  1  0  0  0
  6  7  1  0  0  0
  7  8  1  0  0  0
  7  9  2  0  0  0
  9 10  1  0  0  0
 10 11  1  0  0  0
 11 12  4  0  0  0
 11 16  4  0  0  0
 12 13  4  0  0  0
 12 14  1  0  0  0
 13 22  4  0  0  0
 14 15  1  0  0  0
 16 17  1  0  0  0
 16 18  4  0  0  0
 18 19  1  0  0  0
 18 22  4  0  0  0
 19 20  1  0  0  0
 19 21  2  0  0  0
 22 23  1  0  0  0
 23 24  1  0  0  0
 24 25  1  0  0  0
 25 26  4  0  0  0
 25 30  4  0  0  0
 26 27  4  0  0  0
 27 28  4  0  0  0
 28 29  4  0  0  0
 29 30  4  0  0  0
  1 31  1  0  0  0
  1 32  1  0  0  0
  1 33  1  0  0  0
  3 34  1  0  0  0
  3 35  1  0  0  0
  3 36  1  0  0  0
  4 37  1  0  0  0
  5 38  1  0  0  0
  5 39  1  0  0  0
  6 40  1  0  0  0
  6 41  1  0  0  0
  8 42  1  0  0  0
  8 43  1  0  0  0
  8 44  1  0  0  0
  9 45  1  0  0  0
 10 46  1  0  0  0
 10 47  1  0  0  0
 13 48  1  0  0  0
 15 49  1  0  0  0
 15 50  1  0  0  0
 15 51  1  0  0  0
 17 52  1  0  0  0
 20 53  1  0  0  0
 23 54  1  0  0  0
 23 55  1  0  0  0
 24 56  1  0  0  0
 24 57  1  0  0  0
 26 58  1  0  0  0
 27 59  1  0  0  0
 28 60  1  0  0  0
 29 61  1  0  0  0
 30 62  1  0  0  0
M  END
$$$$
