3asx_ligand
  -I-interpret- 

 71 73  0  0  0  0  0  0  0  0999 V2000
   17.1720   -3.6090   55.0720 C   0  0  0  0  0
   17.7110   -4.4110   56.1220 N   0  0  0  0  0
   18.2250   -0.9550   56.5470 O   0  0  0  0  0
   20.8020   -3.0400   53.5230 Cl  0  0  0  0  0
   16.0590   -4.1290   54.3920 C   0  0  0  0  0
   16.6720   -2.1020   60.8980 N   0  0  0  0  0
   17.3800   -5.0240   58.2240 O   0  0  0  0  0
   15.2160   -1.1440   51.7320 Cl  0  0  0  0  0
   15.4900   -3.3920   53.3120 C   0  0  0  0  0
   17.6730   -2.0720   58.8660 O   0  0  0  0  0
   15.9900   -2.1250   53.0290 C   0  0  0  0  0
   13.3240   -2.0530   63.5300 O   0  0  0  0  0
   17.1170   -1.6100   53.7100 C   0  0  0  0  0
   13.8630   -0.0160   64.1890 O   0  0  0  0  0
   17.6860   -2.3480   54.7330 C   0  0  0  0  0
   18.8270   -1.7400   55.4850 C   0  0  0  0  0
   19.7400   -0.8120   54.7180 C   0  0  0  0  0
   20.6910   -1.2910   53.8320 C   0  0  0  0  0
   21.5820   -0.4420   53.1940 C   0  0  0  0  0
   21.4820    0.9240   53.4140 C   0  0  0  0  0
   20.5160    1.4400   54.2820 C   0  0  0  0  0
   19.6330    0.5850   54.9270 C   0  0  0  0  0
   17.0270   -4.3600   57.2880 C   0  0  0  0  0
   15.7980   -3.4450   57.4440 C   0  0  0  0  0
   15.5750   -3.1990   58.9680 C   0  0  0  0  0
   16.7170   -2.4000   59.5700 C   0  0  0  0  0
   15.4230   -2.1920   61.6970 C   0  0  0  0  0
   15.5800   -1.4330   63.0240 C   0  0  0  0  0
   16.3650   -0.1270   62.7840 C   0  0  0  0  0
   17.7540   -0.3790   62.1790 C   0  0  0  0  0
   17.9060   -1.8010   61.6380 C   0  0  0  0  0
   14.1910   -1.1810   63.5930 C   0  0  0  0  0
   18.9500   -5.2230   55.9130 C   0  0  0  0  0
   18.7830   -6.6130   55.3220 C   0  0  0  0  0
   17.6280   -7.4140   55.9390 C   0  0  0  0  0
   20.0960   -7.2870   55.6750 C   0  0  0  0  0
   18.6620   -6.5330   53.7790 C   0  0  0  0  0
   18.9163   -0.5382   57.0665 H   0  0  0  0  0
   15.6335   -5.0881   54.6872 H   0  0  0  0  0
   14.6783   -3.8136   52.7191 H   0  0  0  0  0
   17.5333   -0.6417   53.4321 H   0  0  0  0  0
   14.6198    0.5744   64.1732 H   0  0  0  0  0
   19.4627   -2.5698   55.7939 H   0  0  0  0  0
   22.3488   -0.8413   52.5302 H   0  0  0  0  0
   22.1651    1.6030   52.9037 H   0  0  0  0  0
   20.4559    2.5149   54.4527 H   0  0  0  0  0
   18.8643    0.9849   55.5883 H   0  0  0  0  0
   14.9184   -3.9155   57.0046 H   0  0  0  0  0
   15.9636   -2.4988   56.9288 H   0  0  0  0  0
   15.5233   -4.1643   59.4716 H   0  0  0  0  0
   14.6510   -2.6354   59.0972 H   0  0  0  0  0
   15.2127   -3.2401   61.9102 H   0  0  0  0  0
   14.6054   -1.7483   61.1289 H   0  0  0  0  0
   16.1484   -2.0154   63.7491 H   0  0  0  0  0
   16.5016    0.3652   63.7469 H   0  0  0  0  0
   15.7973    0.4825   62.0809 H   0  0  0  0  0
   18.4949   -0.2369   62.9657 H   0  0  0  0  0
   17.8905    0.3137   61.3486 H   0  0  0  0  0
   18.7784   -1.8799   60.9893 H   0  0  0  0  0
   18.0570   -2.5126   62.4497 H   0  0  0  0  0
   19.3739   -5.3742   56.9058 H   0  0  0  0  0
   19.5486   -4.6664   55.1919 H   0  0  0  0  0
   17.8020   -7.5351   57.0082 H   0  0  0  0  0
   16.6914   -6.8796   55.7802 H   0  0  0  0  0
   17.5734   -8.3941   55.4652 H   0  0  0  0  0
   20.9198   -6.7335   55.2242 H   0  0  0  0  0
   20.2159   -7.3012   56.7583 H   0  0  0  0  0
   20.0921   -8.3087   55.2951 H   0  0  0  0  0
   17.7949   -5.9277   53.5147 H   0  0  0  0  0
   19.5633   -6.0779   53.3683 H   0  0  0  0  0
   18.5430   -7.5374   53.3726 H   0  0  0  0  0
  2  1  1  0  0  0
  1  5  4  0  0  0
  1 15  4  0  0  0
 23  2  1  0  0  0
  2 33  1  0  0  0
 16  3  1  0  0  0
 18  4  1  0  0  0
  5  9  4  0  0  0
  6 26  1  0  0  0
 27  6  1  0  0  0
  6 31  1  0  0  0
 23  7  2  0  0  0
 11  8  1  0  0  0
  9 11  4  0  0  0
 26 10  2  0  0  0
 13 11  4  0  0  0
 32 12  2  0  0  0
 15 13  4  0  0  0
 32 14  1  0  0  0
 15 16  1  0  0  0
 16 17  1  0  0  0
 17 18  4  0  0  0
 17 22  4  0  0  0
 18 19  4  0  0  0
 19 20  4  0  0  0
 21 20  4  0  0  0
 22 21  4  0  0  0
 24 23  1  0  0  0
 25 24  1  0  0  0
 26 25  1  0  0  0
 28 27  1  0  0  0
 28 29  1  0  0  0
 28 32  1  0  0  0
 29 30  1  0  0  0
 30 31  1  0  0  0
 33 34  1  0  0  0
 34 35  1  0  0  0
 34 36  1  0  0  0
 34 37  1  0  0  0
  3 38  1  0  0  0
  5 39  1  0  0  0
  9 40  1  0  0  0
 13 41  1  0  0  0
 14 42  1  0  0  0
 16 43  1  0  0  0
 19 44  1  0  0  0
 20 45  1  0  0  0
 21 46  1  0  0  0
 22 47  1  0  0  0
 24 48  1  0  0  0
 24 49  1  0  0  0
 25 50  1  0  0  0
 25 51  1  0  0  0
 27 52  1  0  0  0
 27 53  1  0  0  0
 28 54  1  0  0  0
 29 55  1  0  0  0
 29 56  1  0  0  0
 30 57  1  0  0  0
 30 58  1  0  0  0
 31 59  1  0  0  0
 31 60  1  0  0  0
 33 61  1  0  0  0
 33 62  1  0  0  0
 35 63  1  0  0  0
 35 64  1  0  0  0
 35 65  1  0  0  0
 36 66  1  0  0  0
 36 67  1  0  0  0
 36 68  1  0  0  0
 37 69  1  0  0  0
 37 70  1  0  0  0
 37 71  1  0  0  0
M  END
$$$$
