1jje_ligand
  -I-interpret- 

 43 45  0  0  0  0  0  0  0  0999 V2000
   57.4160   25.1030   33.0280 C   0  0  0  0  0
   57.9150   26.3470   32.3210 C   0  0  0  0  0
   57.0850   27.1160   31.7890 O   0  0  0  0  0
   59.1230   26.6600   32.2440 O   0  0  0  0  0
   58.1130   23.8370   32.4910 C   0  0  0  0  0
   58.0040   23.7750   30.9750 C   0  0  0  0  0
   59.0930   24.1020   30.1700 C   0  0  0  0  0
   59.0050   24.0770   28.7710 C   0  0  0  0  0
   57.8070   23.6650   28.1580 C   0  0  0  0  0
   56.7110   23.3550   28.9530 C   0  0  0  0  0
   56.8170   23.3670   30.3540 C   0  0  0  0  0
   57.6370   25.1710   34.5470 C   0  0  0  0  0
   57.5140   26.5790   35.0580 C   0  0  0  0  0
   56.6730   27.3870   34.6000 O   0  0  0  0  0
   58.2960   26.9840   35.9560 O   0  0  0  0  0
   56.6260   24.2210   35.2430 C   0  0  0  0  0
   57.0770   24.1100   36.6850 C   0  0  0  0  0
   56.4830   24.8980   37.7000 C   0  0  0  0  0
   56.9680   24.6860   38.9890 C   0  0  0  0  0
   56.6450   25.3320   40.1140 O   0  0  0  0  0
   57.4370   24.7990   41.1870 C   0  0  0  0  0
   58.2800   23.8030   40.5730 O   0  0  0  0  0
   57.9960   23.7970   39.2640 C   0  0  0  0  0
   58.6040   23.0440   38.2630 C   0  0  0  0  0
   58.0950   23.2020   36.9550 C   0  0  0  0  0
   56.3459   25.0521   32.8270 H   0  0  0  0  0
   56.1998   26.7672   31.9164 H   0  0  0  0  0
   57.6307   22.9577   32.9181 H   0  0  0  0  0
   59.1662   23.8656   32.7706 H   0  0  0  0  0
   60.0357   24.3839   30.6389 H   0  0  0  0  0
   59.8587   24.3747   28.1622 H   0  0  0  0  0
   57.7400   23.5901   27.0726 H   0  0  0  0  0
   55.7598   23.1001   28.4857 H   0  0  0  0  0
   55.9680   23.0561   30.9628 H   0  0  0  0  0
   58.6515   24.8465   34.7786 H   0  0  0  0  0
   58.8828   26.2693   36.2139 H   0  0  0  0  0
   56.6073   23.2440   34.7601 H   0  0  0  0  0
   55.6102   24.6107   35.1772 H   0  0  0  0  0
   55.6976   25.6232   37.4871 H   0  0  0  0  0
   56.8148   24.3712   41.9731 H   0  0  0  0  0
   58.0231   25.5751   41.6793 H   0  0  0  0  0
   59.4308   22.3670   38.4779 H   0  0  0  0  0
   58.5071   22.6021   36.1436 H   0  0  0  0  0
  1 12  1  0  0  0
  5  1  1  0  0  0
  1  2  1  0  0  0
  2  4  2  0  0  0
  2  3  1  0  0  0
  6  5  1  0  0  0
  6 11  4  0  0  0
  7  6  4  0  0  0
  8  7  4  0  0  0
  8  9  4  0  0  0
  9 10  4  0  0  0
 10 11  4  0  0  0
 12 16  1  0  0  0
 12 13  1  0  0  0
 13 15  1  0  0  0
 13 14  2  0  0  0
 16 17  1  0  0  0
 17 25  4  0  0  0
 17 18  4  0  0  0
 18 19  4  0  0  0
 19 23  4  0  0  0
 19 20  1  0  0  0
 20 21  1  0  0  0
 21 22  1  0  0  0
 22 23  1  0  0  0
 23 24  4  0  0  0
 24 25  4  0  0  0
  1 26  1  0  0  0
  3 27  1  0  0  0
  5 28  1  0  0  0
  5 29  1  0  0  0
  7 30  1  0  0  0
  8 31  1  0  0  0
  9 32  1  0  0  0
 10 33  1  0  0  0
 11 34  1  0  0  0
 12 35  1  0  0  0
 15 36  1  0  0  0
 16 37  1  0  0  0
 16 38  1  0  0  0
 18 39  1  0  0  0
 21 40  1  0  0  0
 21 41  1  0  0  0
 24 42  1  0  0  0
 25 43  1  0  0  0
M  END
$$$$
