5azg_ligand
  -I-interpret- 

 90 91  0  0  0  0  0  0  0  0999 V2000
    7.5190   30.9150   15.2310 N   0  3  0  0  0
    8.5660   30.9590   16.2880 C   0  0  0  0  0
    8.8650   29.5360   16.7670 C   0  0  0  0  0
    8.0060   28.6620   16.6930 O   0  0  0  0  0
    8.0990   31.8320   17.4640 C   0  0  0  0  0
    9.1320   32.8730   17.8770 C   0  0  0  0  0
    9.5770   33.6470   17.0050 O   0  0  0  0  0
    9.4830   32.9350   19.0760 O   0  0  0  0  0
   10.0760   29.3230   17.2730 N   0  0  0  0  0
   10.5160   27.9990   17.7300 C   0  0  0  0  0
    9.9150   27.6240   19.0800 C   0  0  0  0  0
    9.7520   28.4730   19.9590 O   0  0  0  0  0
   12.0400   27.9350   17.8440 C   0  0  0  0  0
   12.7450   27.9390   16.5270 C   0  0  0  0  0
   13.0210   29.1370   15.8780 C   0  0  0  0  0
   13.1390   26.7440   15.9300 C   0  0  0  0  0
   13.6720   29.1470   14.6580 C   0  0  0  0  0
   13.7920   26.7480   14.7070 C   0  0  0  0  0
   14.0610   27.9550   14.0720 C   0  0  0  0  0
    9.6100   26.3400   19.2370 N   0  0  0  0  0
    9.1480   25.7890   20.5030 C   0  0  0  0  0
   10.3370   25.1680   21.2300 C   0  0  0  0  0
   11.0440   24.3360   20.6660 O   0  0  0  0  0
    8.0550   24.7300   20.2770 C   0  0  0  0  0
    6.9300   25.3440   19.6290 O   0  0  0  0  0
    7.6050   24.1120   21.6000 C   0  0  0  0  0
   10.5470   25.5730   22.4810 N   0  0  0  0  0
   11.6270   25.0340   23.3110 C   0  0  0  0  0
   11.1440   23.7580   23.9880 C   0  0  0  0  0
   10.0880   23.7640   24.6280 O   0  0  0  0  0
   12.0570   26.0490   24.3810 C   0  0  0  0  0
   12.8340   27.2160   23.8400 C   0  0  0  0  0
   12.1980   28.2200   23.1120 C   0  0  0  0  0
   14.2040   27.3250   24.0670 C   0  0  0  0  0
   12.9140   29.3010   22.6170 C   0  0  0  0  0
   14.9250   28.4070   23.5720 C   0  0  0  0  0
   14.2750   29.3930   22.8460 C   0  0  0  0  0
   11.9060   22.6720   23.8420 N   0  0  0  0  0
   11.6310   21.4130   24.5470 C   0  0  0  0  0
   12.6380   21.1980   25.6810 C   0  0  0  0  0
   12.5550   20.2320   26.4440 O   0  0  0  0  0
   11.6560   20.2320   23.5680 C   0  0  0  0  0
   10.5630   20.2130   22.4910 C   0  0  0  0  0
   10.7660   19.0500   21.5340 C   0  0  0  0  0
    9.1690   20.1420   23.0990 C   0  0  0  0  0
   13.5630   21.9890   25.8740 O   0  0  0  0  0
    7.8421   30.3331   14.4581 H   0  0  0  0  0
    6.6619   30.5214   15.6193 H   0  0  0  0  0
    7.3381   31.8605   14.8938 H   0  0  0  0  0
    9.4752   31.3970   15.8762 H   0  0  0  0  0
    7.9276   31.1763   18.3177 H   0  0  0  0  0
    7.2002   32.3619   17.1487 H   0  0  0  0  0
    9.0266   32.2554   19.5774 H   0  0  0  0  0
   10.7229   30.1082   17.3463 H   0  0  0  0  0
   10.1664   27.2893   16.9802 H   0  0  0  0  0
   12.2892   26.9984   18.3427 H   0  0  0  0  0
   12.3624   28.8231   18.3875 H   0  0  0  0  0
   12.7208   30.0794   16.3361 H   0  0  0  0  0
   12.9321   25.7971   16.4287 H   0  0  0  0  0
   13.8787   30.0933   14.1581 H   0  0  0  0  0
   14.0934   25.8079   14.2450 H   0  0  0  0  0
   14.5783   27.9627   13.1126 H   0  0  0  0  0
    9.7035   25.7143   18.4369 H   0  0  0  0  0
    8.7171   26.5888   21.1054 H   0  0  0  0  0
    8.4646   23.9371   19.6511 H   0  0  0  0  0
    6.2459   24.6858   19.4864 H   0  0  0  0  0
    8.4569   23.6361   22.0856 H   0  0  0  0  0
    7.2058   24.8930   22.2472 H   0  0  0  0  0
    6.8324   23.3676   21.4076 H   0  0  0  0  0
    9.9329   26.2852   22.8761 H   0  0  0  0  0
   12.4858   24.8223   22.6741 H   0  0  0  0  0
   12.7072   25.5245   25.0812 H   0  0  0  0  0
   11.1483   26.4472   24.8324 H   0  0  0  0  0
   11.1254   28.1554   22.9292 H   0  0  0  0  0
   14.7177   26.5528   24.6397 H   0  0  0  0  0
   12.4036   30.0778   22.0476 H   0  0  0  0  0
   15.9972   28.4792   23.7544 H   0  0  0  0  0
   14.8369   30.2414   22.4553 H   0  0  0  0  0
   12.7105   22.7181   23.2166 H   0  0  0  0  0
   10.6344   21.4744   24.9842 H   0  0  0  0  0
   11.8010   19.6926   26.1947 H   0  0  0  0  0
   11.5019   19.3368   24.1705 H   0  0  0  0  0
   12.6042   20.3016   23.0349 H   0  0  0  0  0
   10.6447   21.1493   21.9389 H   0  0  0  0  0
   11.7367   19.1465   21.0477 H   0  0  0  0  0
   10.7280   18.1130   22.0897 H   0  0  0  0  0
    9.9783   19.0593   20.7806 H   0  0  0  0  0
    9.0793   19.2330   23.6937 H   0  0  0  0  0
    9.0070   21.0117   23.7357 H   0  0  0  0  0
    8.4262   20.1306   22.3013 H   0  0  0  0  0
  1  2  1  0  0  0
  2  3  1  0  0  0
  2  5  1  0  0  0
  3  4  2  0  0  0
  3  9  1  0  0  0
  5  6  1  0  0  0
  6  7  2  0  0  0
  6  8  1  0  0  0
  9 10  1  0  0  0
 10 11  1  0  0  0
 10 13  1  0  0  0
 11 12  2  0  0  0
 11 20  1  0  0  0
 13 14  1  0  0  0
 14 15  4  0  0  0
 14 16  4  0  0  0
 15 17  4  0  0  0
 16 18  4  0  0  0
 17 19  4  0  0  0
 18 19  4  0  0  0
 20 21  1  0  0  0
 21 22  1  0  0  0
 21 24  1  0  0  0
 22 23  2  0  0  0
 22 27  1  0  0  0
 24 25  1  0  0  0
 24 26  1  0  0  0
 27 28  1  0  0  0
 28 29  1  0  0  0
 28 31  1  0  0  0
 29 30  2  0  0  0
 29 38  1  0  0  0
 31 32  1  0  0  0
 32 33  4  0  0  0
 32 34  4  0  0  0
 33 35  4  0  0  0
 34 36  4  0  0  0
 35 37  4  0  0  0
 36 37  4  0  0  0
 38 39  1  0  0  0
 39 40  1  0  0  0
 39 42  1  0  0  0
 40 41  1  0  0  0
 40 46  2  0  0  0
 42 43  1  0  0  0
 43 44  1  0  0  0
 43 45  1  0  0  0
  1 47  1  0  0  0
  1 48  1  0  0  0
  1 49  1  0  0  0
  2 50  1  0  0  0
  5 51  1  0  0  0
  5 52  1  0  0  0
  8 53  1  0  0  0
  9 54  1  0  0  0
 10 55  1  0  0  0
 13 56  1  0  0  0
 13 57  1  0  0  0
 15 58  1  0  0  0
 16 59  1  0  0  0
 17 60  1  0  0  0
 18 61  1  0  0  0
 19 62  1  0  0  0
 20 63  1  0  0  0
 21 64  1  0  0  0
 24 65  1  0  0  0
 25 66  1  0  0  0
 26 67  1  0  0  0
 26 68  1  0  0  0
 26 69  1  0  0  0
 27 70  1  0  0  0
 28 71  1  0  0  0
 31 72  1  0  0  0
 31 73  1  0  0  0
 33 74  1  0  0  0
 34 75  1  0  0  0
 35 76  1  0  0  0
 36 77  1  0  0  0
 37 78  1  0  0  0
 38 79  1  0  0  0
 39 80  1  0  0  0
 41 81  1  0  0  0
 42 82  1  0  0  0
 42 83  1  0  0  0
 43 84  1  0  0  0
 44 85  1  0  0  0
 44 86  1  0  0  0
 44 87  1  0  0  0
 45 88  1  0  0  0
 45 89  1  0  0  0
 45 90  1  0  0  0
M  END
$$$$
