### 
### Created by X-TOOL on Mon Sep 10 21:13:06 2018
### 

@<TRIPOS>MOLECULE
3otx_ligand
   81    86     1     0     0
SMALL
GAST_HUCK


@<TRIPOS>ATOM
      1 PA         24.2220    2.1670   20.8420 P.3       1 AP5         0.2978
      2 O1A        24.7170    3.5500   20.4310 O.co2     1 AP5        -0.6127
      3 O2A        25.3280    1.1950   21.2000 O.co2     1 AP5        -0.6127
      4 O3A        23.2190    2.1960   22.1010 O.3       1 AP5        -0.1265
      5 PB         23.3180    3.1530   23.3970 P.3       1 AP5         0.3361
      6 O1B        24.6840    3.7380   23.5800 O.co2     1 AP5        -0.6079
      7 O2B        22.7390    2.3830   24.5330 O.co2     1 AP5        -0.6079
      8 O3B        22.3090    4.2910   22.9250 O.3       1 AP5        -0.1210
      9 PG         22.0750    5.7990   23.3790 P.3       1 AP5         0.3367
     10 O1G        21.4580    6.5080   22.2130 O.co2     1 AP5        -0.6078
     11 O2G        23.3290    6.5450   23.7780 O.co2     1 AP5        -0.6078
     12 O3G        21.0100    5.5790   24.4860 O.3       1 AP5        -0.1210
     13 PD         20.2560    6.6420   25.4430 P.3       1 AP5         0.3361
     14 O1D        20.6680    8.0840   25.2090 O.co2     1 AP5        -0.6079
     15 O2D        20.3810    6.0740   26.8290 O.co2     1 AP5        -0.6079
     16 O3D        18.7510    6.5240   24.8840 O.3       1 AP5        -0.1265
     17 PE         17.6470    5.4440   25.3520 P.3       1 AP5         0.2978
     18 O1E        18.3030    4.1070   25.5520 O.co2     1 AP5        -0.6127
     19 O2E        16.4520    5.5160   24.4040 O.co2     1 AP5        -0.6127
     20 O5F        23.2610    1.6360   19.6730 O.3       1 AP5        -0.2476
     21 C5F        22.5010    0.4390   19.8390 C.3       1 AP5         0.1128
     22 C4F        22.1650   -0.1180   18.4770 C.3       1 AP5         0.1189
     23 O4F        21.5140    0.8850   17.6850 O.3       1 AP5        -0.3364
     24 C3F        23.3740   -0.4980   17.6270 C.3       1 AP5         0.1149
     25 O3F        23.7640   -1.8180   17.9170 O.3       1 AP5        -0.3864
     26 C2F        22.8930   -0.2780   16.2220 C.3       1 AP5         0.1385
     27 O2F        22.1320   -1.3820   15.8000 O.3       1 AP5        -0.3836
     28 C1F        21.9370    0.9090   16.3770 C.3       1 AP5         0.2010
     29 N9A        22.5870    2.2310   16.1460 N.pl3     1 AP5        -0.1919
     30 C8A        22.8870    3.1970   17.1110 C.2       1 AP5         0.1123
     31 N7A        23.4510    4.2580   16.4710 N.2       1 AP5        -0.2958
     32 C5A        23.4970    3.9930   15.1440 C.ar      1 AP5         0.1045
     33 C6A        23.9160    4.7100   14.0450 C.ar      1 AP5         0.1298
     34 N6A        24.3150    5.9810   14.1420 N.pl3     1 AP5        -0.3152
     35 N1A        23.8060    4.1400   12.8000 N.ar      1 AP5        -0.2698
     36 C2A        23.2640    2.8780   12.6150 C.ar      1 AP5         0.0533
     37 N3A        22.8370    2.1760   13.7220 N.ar      1 AP5        -0.2714
     38 C4A        22.9280    2.7250   14.9490 C.ar      1 AP5         0.1613
     39 O5J        17.1990    5.9760   26.8200 O.3       1 AP5        -0.2476
     40 C5J        16.5960    7.2520   26.9510 C.3       1 AP5         0.1128
     41 C4J        15.6270    7.1050   28.1120 C.3       1 AP5         0.1189
     42 O4J        16.3380    7.0080   29.3570 O.3       1 AP5        -0.3364
     43 C3J        14.7270    8.3270   28.3220 C.3       1 AP5         0.1149
     44 O3J        13.4250    7.9930   27.8400 O.3       1 AP5        -0.3864
     45 C2J        14.7690    8.5900   29.8360 C.3       1 AP5         0.1385
     46 O2J        13.4850    8.7860   30.4170 O.3       1 AP5        -0.3836
     47 C1J        15.4040    7.3240   30.3570 C.3       1 AP5         0.2010
     48 N9B        16.0610    7.4880   31.6620 N.pl3     1 AP5        -0.1919
     49 C8B        17.0700    8.3720   31.9330 C.2       1 AP5         0.1123
     50 N7B        17.3640    8.2430   33.2530 N.2       1 AP5        -0.2958
     51 C5B        16.5510    7.2860   33.8010 C.ar      1 AP5         0.1045
     52 C6B        16.4370    6.7560   35.0920 C.ar      1 AP5         0.1298
     53 N6B        17.1330    7.2050   36.1490 N.pl3     1 AP5        -0.3152
     54 N1B        15.4620    5.8130   35.2690 N.ar      1 AP5        -0.2698
     55 C2B        14.6870    5.2950   34.2570 C.ar      1 AP5         0.0533
     56 N3B        14.7690    5.8490   32.9960 N.ar      1 AP5        -0.2714
     57 C4B        15.7230    6.8050   32.7850 C.ar      1 AP5         0.1613
     58 H1         21.5731    0.6632   20.3856 H         1 AP5         0.0648
     59 H2         23.0907   -0.2977   20.4042 H         1 AP5         0.0648
     60 H3         21.5133   -0.9941   18.6100 H         1 AP5         0.0651
     61 H4         24.2227    0.1697   17.8367 H         1 AP5         0.0648
     62 H5         24.5166   -2.0488   17.3851 H         1 AP5         0.2100
     63 H6         23.7190   -0.0717   15.5255 H         1 AP5         0.0676
     64 H7         22.6689   -2.1652   15.8295 H         1 AP5         0.2101
     65 H8         21.0883    0.7934   15.6869 H         1 AP5         0.0996
     66 H9         22.7028    3.1155   18.1812 H         1 AP5         0.1349
     67 H10        24.6226    6.4898   13.3009 H         1 AP5         0.1820
     68 H11        24.3151    6.4523   15.0579 H         1 AP5         0.1820
     69 H12        23.1777    2.4523   11.6218 H         1 AP5         0.0996
     70 H13        16.0592    7.5235   26.0301 H         1 AP5         0.0648
     71 H14        17.3537    8.0179   27.1731 H         1 AP5         0.0648
     72 H15        15.0125    6.2082   27.9443 H         1 AP5         0.0651
     73 H16        15.1082    9.2024   27.7758 H         1 AP5         0.0648
     74 H17        12.8445    8.7357   27.9585 H         1 AP5         0.2100
     75 H18        15.3953    9.4668   30.0570 H         1 AP5         0.0676
     76 H19        13.0656    9.5351   30.0103 H         1 AP5         0.2101
     77 H20        14.6473    6.5305   30.4448 H         1 AP5         0.0996
     78 H21        17.5462    9.0494   31.2257 H         1 AP5         0.1349
     79 H22        17.0024    6.7706   37.0738 H         1 AP5         0.1820
     80 H23        17.7974    7.9838   36.0350 H         1 AP5         0.1820
     81 H24        14.0202    4.4619   34.4480 H         1 AP5         0.0996
@<TRIPOS>BOND
     1    1    2 ar 
     2    1    3 ar 
     3    1    4 1  
     4    1   20 1  
     5    4    5 1  
     6    5    6 ar 
     7    5    7 ar 
     8    5    8 1  
     9    8    9 1  
    10    9   10 ar 
    11    9   11 ar 
    12    9   12 1  
    13   12   13 1  
    14   13   14 ar 
    15   13   15 ar 
    16   13   16 1  
    17   16   17 1  
    18   17   18 ar 
    19   17   19 ar 
    20   17   39 1  
    21   20   21 1  
    22   21   22 1  
    23   22   23 1  
    24   22   24 1  
    25   23   28 1  
    26   24   25 1  
    27   24   26 1  
    28   26   27 1  
    29   26   28 1  
    30   28   29 1  
    31   29   30 1  
    32   29   38 1  
    33   30   31 2  
    34   31   32 1  
    35   32   33 ar 
    36   32   38 ar 
    37   33   34 1  
    38   33   35 ar 
    39   35   36 ar 
    40   36   37 ar 
    41   37   38 ar 
    42   39   40 1  
    43   40   41 1  
    44   41   42 1  
    45   41   43 1  
    46   42   47 1  
    47   43   44 1  
    48   43   45 1  
    49   45   46 1  
    50   45   47 1  
    51   47   48 1  
    52   48   49 1  
    53   48   57 1  
    54   49   50 2  
    55   50   51 1  
    56   51   52 ar 
    57   51   57 ar 
    58   52   53 1  
    59   52   54 ar 
    60   54   55 ar 
    61   55   56 ar 
    62   56   57 ar 
    63   21   58 1  
    64   21   59 1  
    65   22   60 1  
    66   24   61 1  
    67   25   62 1  
    68   26   63 1  
    69   27   64 1  
    70   28   65 1  
    71   30   66 1  
    72   34   67 1  
    73   34   68 1  
    74   36   69 1  
    75   40   70 1  
    76   40   71 1  
    77   41   72 1  
    78   43   73 1  
    79   44   74 1  
    80   45   75 1  
    81   46   76 1  
    82   47   77 1  
    83   49   78 1  
    84   53   79 1  
    85   53   80 1  
    86   55   81 1  
@<TRIPOS>SUBSTRUCTURE
     1 AP5         1

