3q6s_ligand
  -I-interpret- 

281282  0  0  0  0  0  0  0  0999 V2000
   -3.3150   38.6330    4.2160 N   0  3  0  0  0
   -2.5980   38.4990    5.4690 C   0  0  0  0  0
   -1.9010   37.1610    5.4940 C   0  0  0  0  0
   -2.5400   36.1230    5.3730 O   0  0  0  0  0
   -3.5580   38.5720    6.6600 C   0  0  0  0  0
   -4.2750   39.8060    6.6090 O   0  0  0  0  0
   -2.7950   38.4860    7.9720 C   0  0  0  0  0
   -0.5820   37.1760    5.6280 N   0  0  0  0  0
    0.1550   35.9330    5.7160 C   0  0  0  0  0
   -0.0080   35.3900    7.1330 C   0  0  0  0  0
    0.2500   36.1020    8.1130 O   0  0  0  0  0
    1.6310   36.1610    5.4140 C   0  0  0  0  0
    2.4440   34.8700    5.4820 C   0  0  0  0  0
    3.0440   34.5470    6.5110 O   0  0  0  0  0
    2.4610   34.1280    4.3840 N   0  0  0  0  0
   -0.4370   34.1350    7.2460 N   0  0  0  0  0
   -0.6640   33.5460    8.5750 C   0  0  0  0  0
    0.1000   32.2340    8.7740 C   0  0  0  0  0
    0.4750   31.5370    7.8180 O   0  0  0  0  0
   -2.1690   33.3250    8.8710 C   0  0  0  0  0
   -2.9260   34.6510    8.8430 C   0  0  0  0  0
   -2.7950   32.3290    7.8930 C   0  0  0  0  0
    0.3080   31.8900   10.0290 N   0  0  0  0  0
    0.9680   30.6520   10.3780 C   0  0  0  0  0
    0.0840   30.0010   11.4470 C   0  0  0  0  0
   -0.3700   30.6990   12.3530 O   0  0  0  0  0
    2.3800   30.9940   10.8930 C   0  0  0  0  0
    3.0920   29.8320   11.2730 O   0  0  0  0  0
   -0.2100   28.6980   11.3080 N   0  0  0  0  0
   -1.0970   27.9930   12.2480 C   0  0  0  0  0
   -0.2920   27.1070   13.1870 C   0  0  0  0  0
    0.7370   26.5240   12.7760 O   0  0  0  0  0
   -2.1040   27.1150   11.5050 C   0  0  0  0  0
   -3.0030   27.7490   10.4540 C   0  0  0  0  0
   -3.9740   26.7100    9.9080 C   0  0  0  0  0
   -3.7480   28.8940   11.0590 C   0  0  0  0  0
   -0.7560   26.9820   14.4310 N   0  0  0  0  0
   -0.1160   26.0840   15.3760 C   0  0  0  0  0
   -1.1780   25.2730   16.1200 C   0  0  0  0  0
   -2.2710   25.7870   16.4020 O   0  0  0  0  0
    0.7950   26.8660   16.3150 C   0  0  0  0  0
    0.0820   27.9080   17.1140 C   0  0  0  0  0
   -0.4220   27.6100   18.3870 C   0  0  0  0  0
   -0.0850   29.2130   16.6190 C   0  0  0  0  0
   -1.0800   28.5590   19.1540 C   0  0  0  0  0
   -0.7520   30.1910   17.3900 C   0  0  0  0  0
   -1.2410   29.8420   18.6610 C   0  0  0  0  0
   -1.8980   30.7600   19.4380 O   0  0  0  0  0
   -0.8890   23.9970   16.3740 N   0  0  0  0  0
   -1.8260   23.0650   17.0050 C   0  0  0  0  0
   -1.9740   23.3270   18.5190 C   0  0  0  0  0
   -0.9870   23.5600   19.2500 O   0  0  0  0  0
   -1.1840   21.6930   16.7570 C   0  0  0  0  0
    0.2960   21.9790   16.6470 C   0  0  0  0  0
    0.3820   23.3340   15.9900 C   0  0  0  0  0
   -3.2210   23.2460   18.9720 N   0  0  0  0  0
   -3.5630   23.4540   20.3620 C   0  0  0  0  0
   -4.5860   22.3890   20.7310 C   0  0  0  0  0
   -5.3860   21.9730   19.8920 O   0  0  0  0  0
   -4.1550   24.8600   20.5620 C   0  0  0  0  0
   -4.8580   24.9560   21.8710 C   0  0  0  0  0
   -3.0620   25.9310   20.4530 C   0  0  0  0  0
   -4.5640   21.9270   21.9710 N   0  0  0  0  0
   -5.5790   20.9930   22.4200 C   0  0  0  0  0
   -6.4840   21.6780   23.4620 C   0  0  0  0  0
   -6.0250   21.9810   24.5280 O   0  0  0  0  0
   -4.9290   19.7450   23.0570 C   0  0  0  0  0
   -6.0030   18.7280   23.3870 C   0  0  0  0  0
   -3.9240   19.1170   22.0910 C   0  0  0  0  0
   -7.7600   21.8970   23.1590 N   0  0  0  0  0
   -8.6250   22.6720   24.0570 C   0  0  0  0  0
   -9.3580   21.7790   25.0360 C   0  0  0  0  0
  -10.1130   20.8880   24.6300 O   0  0  0  0  0
   -9.6260   23.4900   23.2150 C   0  0  0  0  0
   -8.8730   24.4670   22.3250 C   0  0  0  0  0
   -9.7860   25.4940   21.7010 C   0  0  0  0  0
  -10.7590   26.1390   22.7320 C   0  0  0  0  0
  -10.0670   27.3380   23.3790 N   0  3  0  0  0
   -9.1350   21.9950   26.3360 N   0  0  0  0  0
   -9.7360   21.1130   27.3290 C   0  0  0  0  0
  -10.5690   21.9490   28.2960 C   0  0  0  0  0
  -10.1210   22.9930   28.7520 O   0  0  0  0  0
   -8.6640   20.3930   28.1740 C   0  0  0  0  0
   -7.5950   19.7740   27.2800 C   0  0  0  0  0
   -9.3300   19.3260   29.0970 C   0  0  0  0  0
   -8.0350   18.4780   26.5660 C   0  0  0  0  0
  -11.7700   21.4800   28.6090 N   0  0  0  0  0
  -12.5530   22.0900   29.6920 C   0  0  0  0  0
  -11.9950   21.6290   31.0580 C   0  0  0  0  0
  -11.9500   20.4100   31.3380 O   0  0  0  0  0
  -13.9940   21.6470   29.5800 C   0  0  0  0  0
  -14.9210   22.4240   30.4850 C   0  0  0  0  0
  -16.0380   21.5290   30.9160 C   0  0  0  0  0
  -16.9420   22.1950   31.8520 N   0  0  0  0  0
  -18.1390   21.7210   32.1820 C   0  0  0  0  0
  -18.5680   20.5790   31.6400 N   0  0  0  0  0
  -18.9090   22.3890   33.0400 N   0  0  0  0  0
  -11.5300   22.5640   31.8670 N   0  0  0  0  0
  -11.1490   22.2120   33.2360 C   0  0  0  0  0
  -12.3790   21.7690   34.0570 C   0  0  0  0  0
  -13.2650   22.5770   34.3080 O   0  0  0  0  0
  -10.4220   23.3750   33.9200 C   0  0  0  0  0
   -9.9470   23.0420   35.3340 C   0  0  0  0  0
   -9.1460   24.1790   35.9730 C   0  0  0  0  0
   -7.8110   24.2770   35.3860 N   0  0  0  0  0
   -7.4230   25.2330   34.5500 C   0  0  0  0  0
   -8.2600   26.2120   34.2240 N   0  0  0  0  0
   -6.1800   25.2340   34.0720 N   0  0  0  0  0
  -12.4430   20.4920   34.4410 N   0  0  0  0  0
  -13.5040   19.9940   35.3560 C   0  0  0  0  0
  -13.2020   20.2290   36.8390 C   0  0  0  0  0
  -12.1520   20.7610   37.1870 O   0  0  0  0  0
  -13.7490   18.4960   35.1670 C   0  0  0  0  0
  -14.4100   17.9930   33.8750 C   0  0  0  0  0
  -14.5130   16.4710   33.9010 C   0  0  0  0  0
  -15.7880   18.6130   33.6480 C   0  0  0  0  0
  -14.1230   19.8090   37.7130 N   0  0  0  0  0
  -13.9240   19.9020   39.1680 C   0  0  0  0  0
  -13.4750   18.5650   39.7590 C   0  0  0  0  0
  -13.5120   17.5420   39.0720 O   0  0  0  0  0
  -15.1950   20.3760   39.8850 C   0  0  0  0  0
  -15.9920   19.2690   40.2670 O   0  0  0  0  0
  -13.0660   18.5950   41.0310 N   0  0  0  0  0
  -12.5280   17.4300   41.7540 C   0  0  0  0  0
  -11.1180   17.0320   41.3000 C   0  0  0  0  0
  -10.1698   17.8617   41.2980 O   0  0  0  0  0
  -13.4770   16.2280   41.6770 C   0  0  0  0  0
  -14.6090   16.1110   42.6980 C   0  0  0  0  0
  -15.5820   17.2860   42.6330 C   0  0  0  0  0
  -15.3400   14.8050   42.4720 C   0  0  0  0  0
  -10.9033   15.8497   40.9209 O   0  0  0  0  0
   -2.6545   38.5811    3.4405 H   0  0  0  0  0
   -3.9975   37.8794    4.1339 H   0  0  0  0  0
   -3.7957   39.5324    4.1952 H   0  0  0  0  0
   -1.8782   39.3140    5.5454 H   0  0  0  0  0
   -4.2507   37.7322    6.6051 H   0  0  0  0  0
   -4.7570   39.8607    5.7806 H   0  0  0  0  0
   -2.0942   39.3182    8.0385 H   0  0  0  0  0
   -3.4981   38.5341    8.8035 H   0  0  0  0  0
   -2.2476   37.5443    8.0114 H   0  0  0  0  0
   -0.0851   38.0658    5.6692 H   0  0  0  0  0
   -0.2299   35.2213    4.9857 H   0  0  0  0  0
    2.0263   36.8488    6.1615 H   0  0  0  0  0
    1.7113   36.5577    4.4019 H   0  0  0  0  0
    2.9842   33.2526    4.3681 H   0  0  0  0  0
    1.9509   34.4324    3.5548 H   0  0  0  0  0
   -0.6090   33.5795    6.4080 H   0  0  0  0  0
   -0.2763   34.2765    9.2850 H   0  0  0  0  0
   -2.2472   32.9006    9.8719 H   0  0  0  0  0
   -2.5127   35.3199    9.5979 H   0  0  0  0  0
   -2.8235   35.1057    7.8577 H   0  0  0  0  0
   -3.9802   34.4706    9.0535 H   0  0  0  0  0
   -2.6959   32.7090    6.8762 H   0  0  0  0  0
   -2.2831   31.3702    7.9754 H   0  0  0  0  0
   -3.8505   32.2006    8.1330 H   0  0  0  0  0
   -0.0047   32.5133   10.7734 H   0  0  0  0  0
    1.0920   29.9620    9.5434 H   0  0  0  0  0
    2.2810   31.6381   11.7667 H   0  0  0  0  0
    2.9289   31.4870   10.0907 H   0  0  0  0  0
    3.9641   30.0810   11.5877 H   0  0  0  0  0
    0.1937   28.1808   10.5270 H   0  0  0  0  0
   -1.6285   28.7548   12.8182 H   0  0  0  0  0
   -2.7850   26.7553   12.2763 H   0  0  0  0  0
   -1.4969   26.3945   10.9569 H   0  0  0  0  0
   -2.3937   28.1204    9.6300 H   0  0  0  0  0
   -3.4128   25.8921    9.4561 H   0  0  0  0  0
   -4.5878   26.3249   10.7223 H   0  0  0  0  0
   -4.6138   27.1722    9.1563 H   0  0  0  0  0
   -4.3567   28.5324   11.8877 H   0  0  0  0  0
   -3.0376   29.6354   11.4247 H   0  0  0  0  0
   -4.3913   29.3466   10.3044 H   0  0  0  0  0
   -1.5699   27.5234   14.7222 H   0  0  0  0  0
    0.5177   25.3751   14.8432 H   0  0  0  0  0
    1.5356   27.3771   15.6999 H   0  0  0  0  0
    1.2260   26.1540   17.0188 H   0  0  0  0  0
   -0.2931   26.6037   18.7854 H   0  0  0  0  0
    0.3027   29.4721   15.6338 H   0  0  0  0  0
   -1.4678   28.2965   20.1383 H   0  0  0  0  0
   -0.8856   31.2019   17.0048 H   0  0  0  0  0
   -1.9364   31.6002   18.9753 H   0  0  0  0  0
   -2.8332   23.1568   16.5985 H   0  0  0  0  0
   -1.5750   21.2166   15.8579 H   0  0  0  0  0
   -1.4045   20.9888   17.5593 H   0  0  0  0  0
    0.8139   21.2147   16.0675 H   0  0  0  0  0
    0.7834   21.9703   17.6219 H   0  0  0  0  0
    1.2573   23.8968   16.3142 H   0  0  0  0  0
    0.5023   23.2634   14.9090 H   0  0  0  0  0
   -3.9677   23.0282   18.3121 H   0  0  0  0  0
   -2.6795   23.3782   20.9958 H   0  0  0  0  0
   -4.8840   25.0364   19.7711 H   0  0  0  0  0
   -5.6666   24.2258   21.9021 H   0  0  0  0  0
   -4.1524   24.7532   22.6766 H   0  0  0  0  0
   -5.2678   25.9591   21.9892 H   0  0  0  0  0
   -2.3054   25.7553   21.2177 H   0  0  0  0  0
   -2.6019   25.8796   19.4662 H   0  0  0  0  0
   -3.5049   26.9164   20.5979 H   0  0  0  0  0
   -3.8310   22.2286   22.6130 H   0  0  0  0  0
   -6.1691   20.6826   21.5577 H   0  0  0  0  0
   -4.4094   20.0464   23.9665 H   0  0  0  0  0
   -6.7133   19.1661   24.0882 H   0  0  0  0  0
   -6.5228   18.4409   22.4730 H   0  0  0  0  0
   -5.5426   17.8481   23.8364 H   0  0  0  0  0
   -4.4371   18.8230   21.1753 H   0  0  0  0  0
   -3.1456   19.8429   21.8558 H   0  0  0  0  0
   -3.4753   18.2390   22.5556 H   0  0  0  0  0
   -8.1429   21.5216   22.2913 H   0  0  0  0  0
   -8.0009   23.3462   24.6435 H   0  0  0  0  0
  -10.2876   24.0448   23.8802 H   0  0  0  0  0
  -10.2112   22.8130   22.5927 H   0  0  0  0  0
   -8.4032   23.8996   21.5216 H   0  0  0  0  0
   -8.1438   24.9928   22.9413 H   0  0  0  0  0
  -10.3868   24.9912   20.9431 H   0  0  0  0  0
   -9.1637   26.2872   21.2866 H   0  0  0  0  0
  -11.0242   25.4088   23.4966 H   0  0  0  0  0
  -11.6684   26.4654   22.2275 H   0  0  0  0  0
  -10.6968   27.7677   24.0565 H   0  0  0  0  0
   -9.2191   27.0252   23.8519 H   0  0  0  0  0
   -9.8248   28.0186   22.6589 H   0  0  0  0  0
   -8.5467   22.7738   26.6321 H   0  0  0  0  0
  -10.3367   20.3779   26.7934 H   0  0  0  0  0
   -8.1696   21.1259   28.8116 H   0  0  0  0  0
   -6.7515   19.5164   27.9205 H   0  0  0  0  0
   -7.3636   20.5043   26.5046 H   0  0  0  0  0
  -10.0397   19.8161   29.7634 H   0  0  0  0  0
   -9.8528   18.5923   28.4835 H   0  0  0  0  0
   -8.5611   18.8268   29.6866 H   0  0  0  0  0
   -8.3025   17.7277   27.3100 H   0  0  0  0  0
   -8.8975   18.6880   25.9335 H   0  0  0  0  0
   -7.2146   18.1064   25.9521 H   0  0  0  0  0
  -12.1533   20.6883   28.0927 H   0  0  0  0  0
  -12.4891   23.1753   29.6140 H   0  0  0  0  0
  -14.0435   20.5987   29.8743 H   0  0  0  0  0
  -14.3147   21.8153   28.5519 H   0  0  0  0  0
  -15.3232   23.2843   29.9500 H   0  0  0  0  0
  -14.3732   22.7770   31.3587 H   0  0  0  0  0
  -15.6068   20.6620   31.4165 H   0  0  0  0  0
  -16.6096   21.2468   30.0319 H   0  0  0  0  0
  -16.6374   23.0717   32.2751 H   0  0  0  0  0
  -19.4891   20.2140   31.8822 H   0  0  0  0  0
  -17.9747   20.0714   30.9837 H   0  0  0  0  0
  -18.5801   23.2656   33.4447 H   0  0  0  0  0
  -11.4369   23.5256   31.5398 H   0  0  0  0  0
  -10.4596   21.3692   33.1851 H   0  0  0  0  0
  -11.1249   24.2047   33.9951 H   0  0  0  0  0
   -9.5409   23.6099   33.3229 H   0  0  0  0  0
   -9.2967   22.1695   35.2712 H   0  0  0  0  0
  -10.8290   22.8673   35.9502 H   0  0  0  0  0
   -9.0441   23.9774   37.0393 H   0  0  0  0  0
   -9.6730   25.1172   35.7995 H   0  0  0  0  0
   -7.1294   23.5606   35.6361 H   0  0  0  0  0
   -9.2015   26.2297   34.6160 H   0  0  0  0  0
   -5.8711   25.9860   33.4560 H   0  0  0  0  0
   -5.5369   24.4827   34.3219 H   0  0  0  0  0
  -11.7416   19.8369   34.0956 H   0  0  0  0  0
  -14.3877   20.5721   35.0859 H   0  0  0  0  0
  -14.4501   18.2291   35.9577 H   0  0  0  0  0
  -12.7534   18.0524   35.1584 H   0  0  0  0  0
  -13.7779   18.3030   33.0428 H   0  0  0  0  0
  -13.5145   16.0419   33.9847 H   0  0  0  0  0
  -15.1149   16.1634   34.7561 H   0  0  0  0  0
  -14.9830   16.1241   32.9807 H   0  0  0  0  0
  -16.4413   18.3589   34.4827 H   0  0  0  0  0
  -15.6905   19.6964   33.5779 H   0  0  0  0  0
  -16.2118   18.2244   32.7220 H   0  0  0  0  0
  -14.9928   19.4107   37.3591 H   0  0  0  0  0
  -13.1375   20.6399   39.3265 H   0  0  0  0  0
  -15.7688   21.0081   39.2073 H   0  0  0  0  0
  -14.9108   20.9325   40.7781 H   0  0  0  0  0
  -16.7816   19.5835   40.7134 H   0  0  0  0  0
  -13.1305   19.4807   41.5328 H   0  0  0  0  0
  -12.4473   17.7438   42.7947 H   0  0  0  0  0
  -12.8446   15.3588   41.8580 H   0  0  0  0  0
  -13.9769   16.3261   40.7134 H   0  0  0  0  0
  -14.1686   16.1305   43.6949 H   0  0  0  0  0
  -15.0443   18.2128   42.8332 H   0  0  0  0  0
  -16.0293   17.3311   41.6400 H   0  0  0  0  0
  -16.3644   17.1499   43.3796 H   0  0  0  0  0
  -15.7506   14.7899   41.4624 H   0  0  0  0  0
  -14.6445   13.9748   42.5952 H   0  0  0  0  0
  -16.1495   14.7131   43.1962 H   0  0  0  0  0
  -11.7168   15.3434   40.9794 H   0  0  0  0  0
  1  2  1  0  0  0
  2  3  1  0  0  0
  2  5  1  0  0  0
  3  4  2  0  0  0
  3  8  1  0  0  0
  5  6  1  0  0  0
  5  7  1  0  0  0
  8  9  1  0  0  0
  9 10  1  0  0  0
  9 12  1  0  0  0
 10 11  2  0  0  0
 10 16  1  0  0  0
 12 13  1  0  0  0
 13 14  2  0  0  0
 13 15  1  0  0  0
 16 17  1  0  0  0
 17 18  1  0  0  0
 17 20  1  0  0  0
 18 19  2  0  0  0
 18 23  1  0  0  0
 20 21  1  0  0  0
 20 22  1  0  0  0
 23 24  1  0  0  0
 24 25  1  0  0  0
 24 27  1  0  0  0
 25 26  2  0  0  0
 25 29  1  0  0  0
 27 28  1  0  0  0
 29 30  1  0  0  0
 30 31  1  0  0  0
 30 33  1  0  0  0
 31 32  2  0  0  0
 31 37  1  0  0  0
 33 34  1  0  0  0
 34 35  1  0  0  0
 34 36  1  0  0  0
 37 38  1  0  0  0
 38 39  1  0  0  0
 38 41  1  0  0  0
 39 40  2  0  0  0
 39 49  1  0  0  0
 41 42  1  0  0  0
 42 43  4  0  0  0
 42 44  4  0  0  0
 43 45  4  0  0  0
 44 46  4  0  0  0
 45 47  4  0  0  0
 46 47  4  0  0  0
 47 48  1  0  0  0
 49 50  1  0  0  0
 49 55  1  0  0  0
 50 51  1  0  0  0
 50 53  1  0  0  0
 51 52  2  0  0  0
 51 56  1  0  0  0
 53 54  1  0  0  0
 54 55  1  0  0  0
 56 57  1  0  0  0
 57 58  1  0  0  0
 57 60  1  0  0  0
 58 59  2  0  0  0
 58 63  1  0  0  0
 60 61  1  0  0  0
 60 62  1  0  0  0
 63 64  1  0  0  0
 64 65  1  0  0  0
 64 67  1  0  0  0
 65 66  2  0  0  0
 65 70  1  0  0  0
 67 68  1  0  0  0
 67 69  1  0  0  0
 70 71  1  0  0  0
 71 72  1  0  0  0
 71 74  1  0  0  0
 72 73  2  0  0  0
 72 79  1  0  0  0
 74 75  1  0  0  0
 75 76  1  0  0  0
 76 77  1  0  0  0
 77 78  1  0  0  0
 79 80  1  0  0  0
 80 81  1  0  0  0
 80 83  1  0  0  0
 81 82  2  0  0  0
 81 87  1  0  0  0
 83 84  1  0  0  0
 83 85  1  0  0  0
 84 86  1  0  0  0
 87 88  1  0  0  0
 88 89  1  0  0  0
 88 91  1  0  0  0
 89 90  2  0  0  0
 89 98  1  0  0  0
 91 92  1  0  0  0
 92 93  1  0  0  0
 93 94  1  0  0  0
 94 95  1  0  0  0
 95 96  1  0  0  0
 95 97  2  0  0  0
 98 99  1  0  0  0
 99100  1  0  0  0
 99102  1  0  0  0
100101  2  0  0  0
100109  1  0  0  0
102103  1  0  0  0
103104  1  0  0  0
104105  1  0  0  0
105106  1  0  0  0
106107  2  0  0  0
106108  1  0  0  0
109110  1  0  0  0
110111  1  0  0  0
110113  1  0  0  0
111112  2  0  0  0
111117  1  0  0  0
113114  1  0  0  0
114115  1  0  0  0
114116  1  0  0  0
117118  1  0  0  0
118119  1  0  0  0
118121  1  0  0  0
119120  2  0  0  0
119123  1  0  0  0
121122  1  0  0  0
123124  1  0  0  0
124125  1  0  0  0
124127  1  0  0  0
125126  2  0  0  0
127128  1  0  0  0
128129  1  0  0  0
128130  1  0  0  0
125131  1  0  0  0
  1132  1  0  0  0
  1133  1  0  0  0
  1134  1  0  0  0
  2135  1  0  0  0
  5136  1  0  0  0
  6137  1  0  0  0
  7138  1  0  0  0
  7139  1  0  0  0
  7140  1  0  0  0
  8141  1  0  0  0
  9142  1  0  0  0
 12143  1  0  0  0
 12144  1  0  0  0
 15145  1  0  0  0
 15146  1  0  0  0
 16147  1  0  0  0
 17148  1  0  0  0
 20149  1  0  0  0
 21150  1  0  0  0
 21151  1  0  0  0
 21152  1  0  0  0
 22153  1  0  0  0
 22154  1  0  0  0
 22155  1  0  0  0
 23156  1  0  0  0
 24157  1  0  0  0
 27158  1  0  0  0
 27159  1  0  0  0
 28160  1  0  0  0
 29161  1  0  0  0
 30162  1  0  0  0
 33163  1  0  0  0
 33164  1  0  0  0
 34165  1  0  0  0
 35166  1  0  0  0
 35167  1  0  0  0
 35168  1  0  0  0
 36169  1  0  0  0
 36170  1  0  0  0
 36171  1  0  0  0
 37172  1  0  0  0
 38173  1  0  0  0
 41174  1  0  0  0
 41175  1  0  0  0
 43176  1  0  0  0
 44177  1  0  0  0
 45178  1  0  0  0
 46179  1  0  0  0
 48180  1  0  0  0
 50181  1  0  0  0
 53182  1  0  0  0
 53183  1  0  0  0
 54184  1  0  0  0
 54185  1  0  0  0
 55186  1  0  0  0
 55187  1  0  0  0
 56188  1  0  0  0
 57189  1  0  0  0
 60190  1  0  0  0
 61191  1  0  0  0
 61192  1  0  0  0
 61193  1  0  0  0
 62194  1  0  0  0
 62195  1  0  0  0
 62196  1  0  0  0
 63197  1  0  0  0
 64198  1  0  0  0
 67199  1  0  0  0
 68200  1  0  0  0
 68201  1  0  0  0
 68202  1  0  0  0
 69203  1  0  0  0
 69204  1  0  0  0
 69205  1  0  0  0
 70206  1  0  0  0
 71207  1  0  0  0
 74208  1  0  0  0
 74209  1  0  0  0
 75210  1  0  0  0
 75211  1  0  0  0
 76212  1  0  0  0
 76213  1  0  0  0
 77214  1  0  0  0
 77215  1  0  0  0
 78216  1  0  0  0
 78217  1  0  0  0
 78218  1  0  0  0
 79219  1  0  0  0
 80220  1  0  0  0
 83221  1  0  0  0
 84222  1  0  0  0
 84223  1  0  0  0
 85224  1  0  0  0
 85225  1  0  0  0
 85226  1  0  0  0
 86227  1  0  0  0
 86228  1  0  0  0
 86229  1  0  0  0
 87230  1  0  0  0
 88231  1  0  0  0
 91232  1  0  0  0
 91233  1  0  0  0
 92234  1  0  0  0
 92235  1  0  0  0
 93236  1  0  0  0
 93237  1  0  0  0
 94238  1  0  0  0
 96239  1  0  0  0
 96240  1  0  0  0
 97241  1  0  0  0
 98242  1  0  0  0
 99243  1  0  0  0
102244  1  0  0  0
102245  1  0  0  0
103246  1  0  0  0
103247  1  0  0  0
104248  1  0  0  0
104249  1  0  0  0
105250  1  0  0  0
107251  1  0  0  0
108252  1  0  0  0
108253  1  0  0  0
109254  1  0  0  0
110255  1  0  0  0
113256  1  0  0  0
113257  1  0  0  0
114258  1  0  0  0
115259  1  0  0  0
115260  1  0  0  0
115261  1  0  0  0
116262  1  0  0  0
116263  1  0  0  0
116264  1  0  0  0
117265  1  0  0  0
118266  1  0  0  0
121267  1  0  0  0
121268  1  0  0  0
122269  1  0  0  0
123270  1  0  0  0
124271  1  0  0  0
127272  1  0  0  0
127273  1  0  0  0
128274  1  0  0  0
129275  1  0  0  0
129276  1  0  0  0
129277  1  0  0  0
130278  1  0  0  0
130279  1  0  0  0
130280  1  0  0  0
131281  1  0  0  0
M  END
$$$$
