1rti_ligand
  -I-interpret- 

 37 38  0  0  0  0  0  0  0  0999 V2000
   -2.8330  -34.6540   23.8230 N   0  0  0  0  0
   -2.6900  -34.8940   22.4570 C   0  0  0  0  0
   -3.3270  -34.2730   21.6050 O   0  0  0  0  0
   -1.7770  -35.8800   22.1120 N   0  0  0  0  0
   -1.0110  -36.6310   22.9960 C   0  0  0  0  0
   -0.2350  -37.4840   22.5690 O   0  0  0  0  0
   -1.2230  -36.3100   24.4010 C   0  0  0  0  0
   -2.1080  -35.3500   24.7600 C   0  0  0  0  0
   -0.4640  -37.0920   25.4750 C   0  0  0  0  0
   -3.8170  -33.6410   24.2480 C   0  0  0  0  0
   -5.1570  -34.0970   24.0420 O   0  0  0  0  0
   -6.0100  -33.7270   25.1320 C   0  0  0  0  0
   -7.4820  -33.9480   24.7960 C   0  0  0  0  0
   -7.6900  -35.1870   24.1380 O   0  0  0  0  0
   -2.3540  -34.9350   26.5170 S   0  0  0  0  0
   -0.8930  -33.9680   27.0150 C   0  0  0  0  0
   -0.7480  -33.5680   28.3380 C   0  0  0  0  0
    0.3860  -32.8690   28.7370 C   0  0  0  0  0
    1.3790  -32.5660   27.8110 C   0  0  0  0  0
    1.2360  -32.9650   26.4880 C   0  0  0  0  0
    0.0980  -33.6650   26.0900 C   0  0  0  0  0
   -1.6567  -36.0716   21.1174 H   0  0  0  0  0
    0.1261  -36.4009   26.0770 H   0  0  0  0  0
   -1.1762  -37.6150   26.1133 H   0  0  0  0  0
    0.1969  -37.8152   24.9972 H   0  0  0  0  0
   -3.6632  -32.7390   23.6557 H   0  0  0  0  0
   -3.6769  -33.4468   25.3114 H   0  0  0  0  0
   -5.8605  -32.6678   25.3412 H   0  0  0  0  0
   -5.7570  -34.3469   25.9921 H   0  0  0  0  0
   -7.8062  -33.1475   24.1310 H   0  0  0  0  0
   -8.0494  -33.9541   25.7267 H   0  0  0  0  0
   -8.6241  -35.2915   23.9428 H   0  0  0  0  0
   -1.5254  -33.8029   29.0650 H   0  0  0  0  0
    0.4969  -32.5583   29.7759 H   0  0  0  0  0
    2.2673  -32.0167   28.1228 H   0  0  0  0  0
    2.0137  -32.7307   25.7611 H   0  0  0  0  0
   -0.0143  -33.9751   25.0511 H   0  0  0  0  0
  1  2  1  0  0  0
  1  8  1  0  0  0
  1 10  1  0  0  0
  2  3  2  0  0  0
  2  4  1  0  0  0
  4  5  1  0  0  0
  5  6  2  0  0  0
  5  7  1  0  0  0
  7  8  2  0  0  0
  7  9  1  0  0  0
  8 15  1  0  0  0
 10 11  1  0  0  0
 11 12  1  0  0  0
 12 13  1  0  0  0
 13 14  1  0  0  0
 15 16  1  0  0  0
 16 17  4  0  0  0
 16 21  4  0  0  0
 17 18  4  0  0  0
 18 19  4  0  0  0
 19 20  4  0  0  0
 20 21  4  0  0  0
  4 22  1  0  0  0
  9 23  1  0  0  0
  9 24  1  0  0  0
  9 25  1  0  0  0
 10 26  1  0  0  0
 10 27  1  0  0  0
 12 28  1  0  0  0
 12 29  1  0  0  0
 13 30  1  0  0  0
 13 31  1  0  0  0
 14 32  1  0  0  0
 17 33  1  0  0  0
 18 34  1  0  0  0
 19 35  1  0  0  0
 20 36  1  0  0  0
 21 37  1  0  0  0
M  END
$$$$
