5ji8_ligand
  -I-interpret- 

 20 21  0  0  0  0  0  0  0  0999 V2000
    4.9940    8.1450    9.4500 C   0  0  0  0  0
    5.9380    7.7450    7.2730 C   0  0  0  0  0
    5.0080    7.4470    8.2730 C   0  0  0  0  0
    7.4570   10.9770   10.2100 C   0  0  0  0  0
    3.9850    6.3520    8.0940 C   0  0  0  0  0
    8.1890   12.0620   10.8370 N   0  0  0  0  0
    6.8850    9.4800    8.6350 C   0  0  0  0  0
    5.9140    9.1260    9.6130 C   0  0  0  0  0
    6.8930    8.7580    7.4460 C   0  0  0  0  0
    7.7520   10.5280    8.9860 N   0  0  0  0  0
    6.1180   10.1720   11.0040 S   0  0  0  0  0
    3.0850    6.2550    8.8560 O   0  0  0  0  0
    4.1300    5.4440    6.9660 N   0  0  0  0  0
    4.2670    7.9192   10.2302 H   0  0  0  0  0
    5.9209    7.1797    6.3412 H   0  0  0  0  0
    8.9595   12.5106   10.3416 H   0  0  0  0  0
    7.9330   12.3759   11.7731 H   0  0  0  0  0
    7.6241    8.9743    6.6670 H   0  0  0  0  0
    3.4462    4.7019    6.8175 H   0  0  0  0  0
    4.9155    5.5497    6.3239 H   0  0  0  0  0
  1  3  4  0  0  0
  8  1  4  0  0  0
  2  3  4  0  0  0
  9  2  4  0  0  0
  3  5  1  0  0  0
  4  6  1  0  0  0
 10  4  4  0  0  0
  4 11  4  0  0  0
  5 12  2  0  0  0
  5 13  1  0  0  0
  7  8  4  0  0  0
  7  9  4  0  0  0
  7 10  4  0  0  0
  8 11  4  0  0  0
  1 14  1  0  0  0
  2 15  1  0  0  0
  6 16  1  0  0  0
  6 17  1  0  0  0
  9 18  1  0  0  0
 13 19  1  0  0  0
 13 20  1  0  0  0
M  END
$$$$
