4n4t_ligand
  -I-interpret- 

 56 60  0  0  0  0  0  0  0  0999 V2000
   -7.2950   46.6320   28.4240 C   0  0  0  0  0
   -7.4840   47.2320   29.7220 C   0  0  0  0  0
   -6.6190   46.7990   30.8230 C   0  0  0  0  0
   -5.5650   45.7910   30.6860 C   0  0  0  0  0
   -5.3840   45.2010   29.3900 C   0  0  0  0  0
   -6.2560   45.6300   28.2730 C   0  0  0  0  0
   -6.1720   45.0680   26.9140 C   0  0  0  0  0
   -4.9910   45.5460   26.1540 C   0  0  0  0  0
   -4.2930   46.8490   26.4120 C   0  0  0  0  0
   -5.2800   45.4350   24.6970 C   0  0  0  0  0
   -3.9980   44.3890   26.6200 O   0  0  0  0  0
   -4.6880   43.1960   26.8960 C   0  0  0  0  0
   -4.0010   42.1940   27.0070 O   0  0  0  0  0
   -6.0190   43.5770   26.9710 N   0  0  0  0  0
   -8.3450   43.0950   26.7280 C   0  0  0  0  0
   -6.9900   42.7030   27.0710 C   0  0  0  0  0
   -6.5870   41.3870   27.5280 C   0  0  0  0  0
   -7.5430   40.3980   27.6550 C   0  0  0  0  0
   -8.9290   40.7310   27.3160 C   0  0  0  0  0
   -9.3270   42.0750   26.8590 C   0  0  0  0  0
   -9.8530   39.6090   27.4280 C   0  0  0  0  0
  -11.0320   39.7720   28.2100 C   0  0  0  0  0
  -11.9610   38.7200   28.4190 C   0  0  0  0  0
  -11.5980   37.4560   27.7780 C   0  0  0  0  0
  -10.4590   37.3110   27.0120 N   0  0  0  0  0
   -9.5630   38.3140   26.7890 C   0  0  0  0  0
  -13.4210   40.3200   29.8140 N   0  0  0  0  0
  -14.6240   40.6110   30.4240 C   0  0  0  0  0
  -15.7280   39.6590   30.4160 C   0  0  0  0  0
  -15.4830   38.3970   29.7250 C   0  0  0  0  0
  -14.2650   38.1390   29.1210 N   0  0  0  0  0
  -13.1950   39.0690   29.1340 C   0  0  0  0  0
  -12.2590   36.3120   27.8890 N   0  0  0  0  0
   -7.9169   46.9238   27.5777 H   0  0  0  0  0
   -8.2518   47.9893   29.8802 H   0  0  0  0  0
   -6.7689   47.2541   31.8020 H   0  0  0  0  0
   -4.9437   45.5009   31.5333 H   0  0  0  0  0
   -4.6139   44.4463   29.2302 H   0  0  0  0  0
   -7.0921   45.3856   26.4235 H   0  0  0  0  0
   -4.0697   46.9358   27.4754 H   0  0  0  0  0
   -3.3653   46.8821   25.8408 H   0  0  0  0  0
   -4.9387   47.6723   26.1066 H   0  0  0  0  0
   -4.3495   45.5206   24.1358 H   0  0  0  0  0
   -5.7418   44.4692   24.4920 H   0  0  0  0  0
   -5.9594   46.2342   24.4007 H   0  0  0  0  0
   -8.5927   44.1022   26.3930 H   0  0  0  0  0
   -5.5439   41.1811   27.7680 H   0  0  0  0  0
   -7.2740   39.3988   27.9975 H   0  0  0  0  0
  -10.3699   42.2859   26.6225 H   0  0  0  0  0
  -11.2284   40.7425   28.6657 H   0  0  0  0  0
   -8.6781   38.1653   26.1701 H   0  0  0  0  0
  -14.7514   41.5722   30.9220 H   0  0  0  0  0
  -16.6810   39.8770   30.8980 H   0  0  0  0  0
  -16.2718   37.6459   29.6841 H   0  0  0  0  0
  -13.1012   36.2632   28.4623 H   0  0  0  0  0
  -11.9253   35.4807   27.4011 H   0  0  0  0  0
  1  2  4  0  0  0
  6  1  4  0  0  0
  2  3  4  0  0  0
  4  3  4  0  0  0
  5  4  4  0  0  0
  6  5  4  0  0  0
  7  6  1  0  0  0
  7  8  1  0  0  0
 14  7  1  0  0  0
  8  9  1  0  0  0
  8 10  1  0  0  0
 11  8  1  0  0  0
 12 11  1  0  0  0
 12 13  2  0  0  0
 14 12  1  0  0  0
 16 14  1  0  0  0
 15 16  4  0  0  0
 20 15  4  0  0  0
 17 16  4  0  0  0
 18 17  4  0  0  0
 19 18  4  0  0  0
 19 20  4  0  0  0
 21 19  1  0  0  0
 22 21  4  0  0  0
 21 26  4  0  0  0
 23 22  4  0  0  0
 23 24  4  0  0  0
 32 23  1  0  0  0
 24 25  4  0  0  0
 24 33  1  0  0  0
 25 26  4  0  0  0
 27 28  4  0  0  0
 27 32  4  0  0  0
 28 29  4  0  0  0
 29 30  4  0  0  0
 30 31  4  0  0  0
 31 32  4  0  0  0
  1 34  1  0  0  0
  2 35  1  0  0  0
  3 36  1  0  0  0
  4 37  1  0  0  0
  5 38  1  0  0  0
  7 39  1  0  0  0
  9 40  1  0  0  0
  9 41  1  0  0  0
  9 42  1  0  0  0
 10 43  1  0  0  0
 10 44  1  0  0  0
 10 45  1  0  0  0
 15 46  1  0  0  0
 17 47  1  0  0  0
 18 48  1  0  0  0
 20 49  1  0  0  0
 22 50  1  0  0  0
 26 51  1  0  0  0
 28 52  1  0  0  0
 29 53  1  0  0  0
 30 54  1  0  0  0
 33 55  1  0  0  0
 33 56  1  0  0  0
M  END
$$$$
