6mil_ligand
  -I-interpret- 

133132  0  0  0  0  0  0  0  0999 V2000
   17.2730  -30.7970  -18.8540 N   0  3  0  0  0
   17.9560  -30.1270  -17.7440 C   0  0  0  0  0
   17.9660  -30.9530  -16.4540 C   0  0  0  0  0
   18.9450  -30.9280  -15.6990 O   0  0  0  0  0
   17.3360  -28.7630  -17.4640 C   0  0  0  0  0
   18.1860  -27.9580  -16.5110 C   0  0  0  0  0
   18.0010  -26.4680  -16.6780 C   0  0  0  0  0
   18.8020  -25.7290  -15.6190 C   0  0  0  0  0
   18.3510  -24.3250  -15.4300 N   0  3  0  0  0
   16.8840  -31.6850  -16.2030 N   0  0  0  0  0
   16.8930  -32.6610  -15.1270 C   0  0  0  0  0
   17.5540  -33.9540  -15.5800 C   0  0  0  0  0
   17.6240  -34.2600  -16.7740 O   0  0  0  0  0
   15.4690  -32.9850  -14.6630 C   0  0  0  0  0
   15.0280  -32.2900  -13.4280 C   0  0  0  0  0
   13.7040  -32.8540  -12.9450 C   0  0  0  0  0
   13.5990  -34.0470  -12.6270 O   0  0  0  0  0
   12.6770  -32.0160  -12.9360 N   0  0  0  0  0
   18.0460  -34.7150  -14.5980 N   0  0  0  0  0
   18.4360  -36.1050  -14.8130 C   0  0  0  0  0
   17.1970  -36.9500  -15.1110 C   0  0  0  0  0
   16.0500  -36.4860  -15.0410 O   0  0  0  0  0
   19.1290  -36.6710  -13.5770 C   0  0  0  0  0
   18.1380  -36.8550  -12.5420 O   0  0  0  0  0
   20.2070  -35.7150  -13.0750 C   0  0  0  0  0
   17.4320  -38.2200  -15.4110 N   0  0  0  0  0
   16.3340  -39.1660  -15.4840 C   0  0  0  0  0
   15.7140  -39.3520  -14.0980 C   0  0  0  0  0
   16.2880  -38.9850  -13.0700 O   0  0  0  0  0
   16.8030  -40.5120  -16.0390 C   0  0  0  0  0
   14.5360  -39.9530  -14.0870 N   0  0  0  0  0
   13.7720  -40.1070  -12.8540 C   0  0  0  0  0
   13.3690  -41.5540  -12.6190 C   0  0  0  0  0
   13.2250  -42.3290  -13.5560 O   0  0  0  0  0
   12.5220  -39.2130  -12.8890 C   0  0  0  0  0
   12.8290  -37.7290  -12.8980 C   0  0  0  0  0
   11.5760  -36.9120  -12.9210 C   0  0  0  0  0
   10.8180  -37.0620  -11.6740 N   0  0  0  0  0
   10.9120  -36.2350  -10.6390 C   0  0  0  0  0
   11.7310  -35.1880  -10.6860 N   0  0  0  0  0
   10.1740  -36.4470   -9.5570 N   0  0  0  0  0
   11.1750  -43.0870  -10.5390 C   0  0  0  0  0
   13.1920  -41.9120  -11.3560 N   0  0  0  0  0
   10.7020  -42.0700  -10.0100 O   0  0  0  0  0
   12.6270  -43.1940  -11.0070 C   0  0  0  0  0
   13.4060  -43.9580   -9.9190 C   0  0  0  0  0
   15.3260  -44.0670   -8.3400 C   0  0  0  0  0
   16.5570  -43.3440   -7.7850 C   0  0  0  0  0
   14.5660  -43.1870   -9.3200 C   0  0  0  0  0
   17.3990  -44.0950   -6.8860 N   0  0  0  0  0
   19.7190  -46.5140   -4.1880 C   0  0  0  0  0
   19.2020  -42.7140   -7.1980 O   0  0  0  0  0
   18.9050  -45.8430   -5.2600 C   0  0  0  0  0
   19.5640  -44.5470   -5.6810 C   0  0  0  0  0
   18.7170  -43.7170   -6.6360 C   0  0  0  0  0
   10.4360  -44.1750  -10.7550 N   0  0  0  0  0
    9.1210  -44.3500  -10.1350 C   0  0  0  0  0
    8.7840  -45.8290   -9.9920 C   0  0  0  0  0
    9.1610  -46.6440  -10.8350 O   0  0  0  0  0
    8.0270  -43.6510  -10.9370 C   0  0  0  0  0
    6.7680  -43.8660  -10.3220 O   0  0  0  0  0
    8.1290  -46.2340   -9.0310 O   0  0  0  0  0
   17.7066  -31.7052  -19.0199 H   0  0  0  0  0
   16.2893  -30.9267  -18.6177 H   0  0  0  0  0
   17.3494  -30.2238  -19.6943 H   0  0  0  0  0
   18.9907  -30.0057  -18.0645 H   0  0  0  0  0
   16.3561  -28.9141  -17.0112 H   0  0  0  0  0
   17.2588  -28.2177  -18.4047 H   0  0  0  0  0
   19.2307  -28.1901  -16.7178 H   0  0  0  0  0
   17.8885  -28.2197  -15.4956 H   0  0  0  0  0
   16.9449  -26.2212  -16.5691 H   0  0  0  0  0
   18.3491  -26.1699  -17.6670 H   0  0  0  0  0
   19.8421  -25.7044  -15.9442 H   0  0  0  0  0
   18.6671  -26.2529  -14.6727 H   0  0  0  0  0
   18.9213  -23.8798  -14.7110 H   0  0  0  0  0
   18.4507  -23.8160  -16.3083 H   0  0  0  0  0
   17.3726  -24.3193  -15.1416 H   0  0  0  0  0
   16.0443  -31.5605  -16.7685 H   0  0  0  0  0
   17.4550  -32.2239  -14.3017 H   0  0  0  0  0
   15.4486  -34.0525  -14.4435 H   0  0  0  0  0
   14.8004  -32.6584  -15.4595 H   0  0  0  0  0
   14.9034  -31.2289  -13.6439 H   0  0  0  0  0
   15.7794  -32.4357  -12.6519 H   0  0  0  0  0
   11.7523  -32.3455  -12.6591 H   0  0  0  0  0
   12.8114  -31.0416  -13.2060 H   0  0  0  0  0
   18.1525  -34.3112  -13.6674 H   0  0  0  0  0
   19.1256  -36.1368  -15.6565 H   0  0  0  0  0
   19.6015  -37.6192  -13.8335 H   0  0  0  0  0
   18.5596  -37.2112  -11.7565 H   0  0  0  0  0
   20.9506  -35.5646  -13.8577 H   0  0  0  0  0
   19.7514  -34.7591  -12.8165 H   0  0  0  0  0
   20.6865  -36.1407  -12.1935 H   0  0  0  0  0
   18.3861  -38.5326  -15.5908 H   0  0  0  0  0
   15.5811  -38.7659  -16.1631 H   0  0  0  0  0
   17.2082  -40.3692  -17.0408 H   0  0  0  0  0
   17.5752  -40.9226  -15.3885 H   0  0  0  0  0
   15.9586  -41.2000  -16.0819 H   0  0  0  0  0
   14.1534  -40.3168  -14.9597 H   0  0  0  0  0
   14.4139  -39.8007  -12.0280 H   0  0  0  0  0
   11.9496  -39.4203  -11.9849 H   0  0  0  0  0
   11.9872  -39.4392  -13.8115 H   0  0  0  0  0
   13.4073  -37.5008  -13.7933 H   0  0  0  0  0
   13.3845  -37.4851  -11.9924 H   0  0  0  0  0
   10.9540  -37.2543  -13.7481 H   0  0  0  0  0
   11.8482  -35.8630  -13.0372 H   0  0  0  0  0
   10.1776  -37.8522  -11.5969 H   0  0  0  0  0
   11.7904  -34.5509   -9.8917 H   0  0  0  0  0
   12.2997  -35.0222  -11.5164 H   0  0  0  0  0
    9.5371  -37.2430   -9.5220 H   0  0  0  0  0
   13.4611  -41.2671  -10.6129 H   0  0  0  0  0
   12.6907  -43.7537  -11.9402 H   0  0  0  0  0
   13.8231  -44.8481  -10.3901 H   0  0  0  0  0
   12.7060  -44.1627   -9.1089 H   0  0  0  0  0
   14.6645  -44.3146   -7.5098 H   0  0  0  0  0
   15.6563  -44.9647   -8.8627 H   0  0  0  0  0
   16.1756  -42.5026   -7.2066 H   0  0  0  0  0
   17.1783  -43.1035   -8.6477 H   0  0  0  0  0
   14.1817  -42.3134   -8.7934 H   0  0  0  0  0
   15.2395  -42.8755  -10.1184 H   0  0  0  0  0
   17.0211  -44.9215   -6.4228 H   0  0  0  0  0
   20.7166  -46.7280   -4.5715 H   0  0  0  0  0
   19.7944  -45.8538   -3.3240 H   0  0  0  0  0
   19.2339  -47.4449   -3.8943 H   0  0  0  0  0
   17.9099  -45.6277   -4.8708 H   0  0  0  0  0
   18.8356  -46.5052   -6.1230 H   0  0  0  0  0
   20.4876  -44.8028   -6.2002 H   0  0  0  0  0
   19.7213  -43.9521   -4.7813 H   0  0  0  0  0
   10.7963  -44.9056  -11.3689 H   0  0  0  0  0
    9.1674  -43.8951   -9.1455 H   0  0  0  0  0
    9.6560  -46.1885  -11.5199 H   0  0  0  0  0
    8.0075  -44.0562  -11.9487 H   0  0  0  0  0
    8.2332  -42.5812  -10.9710 H   0  0  0  0  0
    6.0847  -43.4239  -10.8312 H   0  0  0  0  0
  2  1  1  0  0  0
  3  2  1  0  0  0
  2  5  1  0  0  0
  3  4  2  0  0  0
 10  3  1  0  0  0
  5  6  1  0  0  0
  6  7  1  0  0  0
  7  8  1  0  0  0
  8  9  1  0  0  0
 11 10  1  0  0  0
 12 11  1  0  0  0
 11 14  1  0  0  0
 12 13  2  0  0  0
 19 12  1  0  0  0
 14 15  1  0  0  0
 15 16  1  0  0  0
 16 17  2  0  0  0
 16 18  1  0  0  0
 20 19  1  0  0  0
 21 20  1  0  0  0
 20 23  1  0  0  0
 21 22  2  0  0  0
 26 21  1  0  0  0
 23 24  1  0  0  0
 23 25  1  0  0  0
 27 26  1  0  0  0
 28 27  1  0  0  0
 27 30  1  0  0  0
 28 29  2  0  0  0
 31 28  1  0  0  0
 32 31  1  0  0  0
 33 32  1  0  0  0
 32 35  1  0  0  0
 33 34  2  0  0  0
 43 33  1  0  0  0
 35 36  1  0  0  0
 36 37  1  0  0  0
 37 38  1  0  0  0
 38 39  1  0  0  0
 39 40  1  0  0  0
 39 41  2  0  0  0
 42 44  2  0  0  0
 45 42  1  0  0  0
 42 56  1  0  0  0
 45 43  1  0  0  0
 46 45  1  0  0  0
 49 46  1  0  0  0
 48 47  1  0  0  0
 47 49  1  0  0  0
 50 48  1  0  0  0
 55 50  1  0  0  0
 53 51  1  0  0  0
 55 52  2  0  0  0
 54 53  1  0  0  0
 54 55  1  0  0  0
 56 57  1  0  0  0
 57 58  1  0  0  0
 57 60  1  0  0  0
 58 59  1  0  0  0
 58 62  2  0  0  0
 60 61  1  0  0  0
  1 63  1  0  0  0
  1 64  1  0  0  0
  1 65  1  0  0  0
  2 66  1  0  0  0
  5 67  1  0  0  0
  5 68  1  0  0  0
  6 69  1  0  0  0
  6 70  1  0  0  0
  7 71  1  0  0  0
  7 72  1  0  0  0
  8 73  1  0  0  0
  8 74  1  0  0  0
  9 75  1  0  0  0
  9 76  1  0  0  0
  9 77  1  0  0  0
 10 78  1  0  0  0
 11 79  1  0  0  0
 14 80  1  0  0  0
 14 81  1  0  0  0
 15 82  1  0  0  0
 15 83  1  0  0  0
 18 84  1  0  0  0
 18 85  1  0  0  0
 19 86  1  0  0  0
 20 87  1  0  0  0
 23 88  1  0  0  0
 24 89  1  0  0  0
 25 90  1  0  0  0
 25 91  1  0  0  0
 25 92  1  0  0  0
 26 93  1  0  0  0
 27 94  1  0  0  0
 30 95  1  0  0  0
 30 96  1  0  0  0
 30 97  1  0  0  0
 31 98  1  0  0  0
 32 99  1  0  0  0
 35100  1  0  0  0
 35101  1  0  0  0
 36102  1  0  0  0
 36103  1  0  0  0
 37104  1  0  0  0
 37105  1  0  0  0
 38106  1  0  0  0
 40107  1  0  0  0
 40108  1  0  0  0
 41109  1  0  0  0
 43110  1  0  0  0
 45111  1  0  0  0
 46112  1  0  0  0
 46113  1  0  0  0
 47114  1  0  0  0
 47115  1  0  0  0
 48116  1  0  0  0
 48117  1  0  0  0
 49118  1  0  0  0
 49119  1  0  0  0
 50120  1  0  0  0
 51121  1  0  0  0
 51122  1  0  0  0
 51123  1  0  0  0
 53124  1  0  0  0
 53125  1  0  0  0
 54126  1  0  0  0
 54127  1  0  0  0
 56128  1  0  0  0
 57129  1  0  0  0
 59130  1  0  0  0
 60131  1  0  0  0
 60132  1  0  0  0
 61133  1  0  0  0
M  END
$$$$
