### 
### Created by X-TOOL on Wed Jan  1 15:39:36 2020
### 

@<TRIPOS>MOLECULE
6mil_ligand
  133   132     1     0     0
SMALL
GAST_HUCK


@<TRIPOS>ATOM
      1 N          17.2730  -30.7970  -18.8540 N.4       1 LYS         0.2379
      2 CA         17.9560  -30.1270  -17.7440 C.3       1 LYS         0.0650
      3 C          17.9660  -30.9530  -16.4540 C.2       1 LYS         0.2267
      4 O          18.9450  -30.9280  -15.6990 O.2       1 LYS        -0.3907
      5 CB         17.3360  -28.7630  -17.4640 C.3       1 LYS         0.0080
      6 CG         18.1860  -27.9580  -16.5110 C.3       1 LYS        -0.0410
      7 CD         18.0010  -26.4680  -16.6780 C.3       1 LYS        -0.0123
      8 CE         18.8020  -25.7290  -15.6190 C.3       1 LYS        -0.0354
      9 NZ         18.3510  -24.3250  -15.4300 N.4       1 LYS         0.2185
     10 N          16.8840  -31.6850  -16.2030 N.am      1 GLN        -0.2609
     11 CA         16.8930  -32.6610  -15.1270 C.3       1 GLN         0.1331
     12 C          17.5540  -33.9540  -15.5800 C.2       1 GLN         0.2041
     13 O          17.6240  -34.2600  -16.7740 O.2       1 GLN        -0.3944
     14 CB         15.4690  -32.9850  -14.6630 C.3       1 GLN         0.0045
     15 CG         15.0280  -32.2900  -13.4280 C.3       1 GLN         0.0412
     16 CD         13.7040  -32.8540  -12.9450 C.2       1 GLN         0.1737
     17 OE1        13.5990  -34.0470  -12.6270 O.2       1 GLN        -0.3973
     18 NE2        12.6770  -32.0160  -12.9360 N.am      1 GLN        -0.3009
     19 N          18.0460  -34.7150  -14.5980 N.am      1 THR        -0.2613
     20 CA         18.4360  -36.1050  -14.8130 C.3       1 THR         0.1565
     21 C          17.1970  -36.9500  -15.1110 C.2       1 THR         0.2065
     22 O          16.0500  -36.4860  -15.0410 O.2       1 THR        -0.3943
     23 CB         19.1290  -36.6710  -13.5770 C.3       1 THR         0.0924
     24 OG1        18.1380  -36.8550  -12.5420 O.3       1 THR        -0.3874
     25 CG2        20.2070  -35.7150  -13.0750 C.3       1 THR        -0.0346
     26 N          17.4320  -38.2200  -15.4110 N.am      1 ALA        -0.2639
     27 CA         16.3340  -39.1660  -15.4840 C.3       1 ALA         0.1282
     28 C          15.7140  -39.3520  -14.0980 C.2       1 ALA         0.2036
     29 O          16.2880  -38.9850  -13.0700 O.2       1 ALA        -0.3944
     30 CB         16.8030  -40.5120  -16.0390 C.3       1 ALA        -0.0244
     31 N          14.5360  -39.9530  -14.0870 N.am      1 ARG        -0.2637
     32 CA         13.7720  -40.1070  -12.8540 C.3       1 ARG         0.1311
     33 C          13.3690  -41.5540  -12.6190 C.2       1 ARG         0.2039
     34 O          13.2250  -42.3290  -13.5560 O.2       1 ARG        -0.3944
     35 CB         12.5220  -39.2130  -12.8890 C.3       1 ARG        -0.0092
     36 CG         12.8290  -37.7290  -12.8980 C.3       1 ARG        -0.0156
     37 CD         11.5760  -36.9120  -12.9210 C.3       1 ARG         0.0627
     38 NE         10.8180  -37.0620  -11.6740 N.pl3     1 ARG        -0.2723
     39 CZ         10.9120  -36.2350  -10.6390 C.cat     1 ARG         0.2882
     40 NH1        11.7310  -35.1880  -10.6860 N.pl3     1 ARG        -0.2849
     41 NH2        10.1740  -36.4470   -9.5570 N.pl3     1 ARG        -0.2849
     42 C          11.1750  -43.0870  -10.5390 C.2       1 BTK         0.2034
     43 N          13.1920  -41.9120  -11.3560 N.am      1 BTK        -0.2637
     44 O          10.7020  -42.0700  -10.0100 O.2       1 BTK        -0.3944
     45 CA         12.6270  -43.1940  -11.0070 C.3       1 BTK         0.1309
     46 CB         13.4060  -43.9580   -9.9190 C.3       1 BTK        -0.0123
     47 CD         15.3260  -44.0670   -8.3400 C.3       1 BTK        -0.0325
     48 CE         16.5570  -43.3440   -7.7850 C.3       1 BTK         0.0309
     49 CG         14.5660  -43.1870   -9.3200 C.3       1 BTK        -0.0470
     50 NZ         17.3990  -44.0950   -6.8860 N.am      1 BTK        -0.2870
     51 CAA        19.7190  -46.5140   -4.1880 C.3       1 BTK        -0.0632
     52 OAD        19.2020  -42.7140   -7.1980 O.2       1 BTK        -0.3971
     53 CAF        18.9050  -45.8430   -5.2600 C.3       1 BTK        -0.0389
     54 CAJ        19.5640  -44.5470   -5.6810 C.3       1 BTK         0.0370
     55 CAN        18.7170  -43.7170   -6.6360 C.2       1 BTK         0.1760
     56 N          10.4360  -44.1750  -10.7550 N.am      1 SER        -0.2672
     57 CA          9.1210  -44.3500  -10.1350 C.3       1 SER         0.1173
     58 C           8.7840  -45.8290   -9.9920 C.2       1 SER         0.0623
     59 O           9.1610  -46.6440  -10.8350 O.co2     1 SER        -0.5665
     60 CB          8.0270  -43.6510  -10.9370 C.3       1 SER         0.0789
     61 OG          6.7680  -43.8660  -10.3220 O.3       1 SER        -0.3910
     62 OXT         8.1290  -46.2340   -9.0310 O.co2     1 SER        -0.5665
     63 H1         17.2998  -30.2065  -19.6705 H         1 LYS         0.2015
     64 H2         16.3141  -30.9756  -18.5998 H         1 LYS         0.2015
     65 H3         17.7354  -31.6698  -19.0553 H         1 LYS         0.2015
     66 H4         19.0014  -29.9712  -18.0487 H         1 LYS         0.1098
     67 H5         16.3395  -28.9067  -17.0209 H         1 LYS         0.0346
     68 H6         17.2402  -28.2119  -18.4112 H         1 LYS         0.0346
     69 H7         19.2433  -28.2032  -16.6900 H         1 LYS         0.0270
     70 H8         17.9153  -28.2325  -15.4808 H         1 LYS         0.0270
     71 H9         16.9352  -26.2178  -16.5707 H         1 LYS         0.0317
     72 H10        18.3497  -26.1662  -17.6766 H         1 LYS         0.0317
     73 H11        19.8598  -25.7206  -15.9208 H         1 LYS         0.0813
     74 H12        18.6976  -26.2632  -14.6631 H         1 LYS         0.0813
     75 H13        18.9139  -23.8840  -14.7196 H         1 LYS         0.1994
     76 H14        17.3842  -24.3181  -15.1449 H         1 LYS         0.1994
     77 H15        18.4491  -23.8209  -16.2973 H         1 LYS         0.1994
     78 H16        16.0608  -31.5629  -16.7574 H         1 GLN         0.1885
     79 H17        17.4594  -32.2442  -14.2812 H         1 GLN         0.0801
     80 H18        15.4092  -34.0684  -14.4824 H         1 GLN         0.0337
     81 H19        14.7773  -32.7095  -15.4727 H         1 GLN         0.0337
     82 H20        14.9090  -31.2171  -13.6392 H         1 GLN         0.0504
     83 H21        15.7875  -32.4275  -12.6443 H         1 GLN         0.0504
     84 H22        11.7787  -32.3294  -12.6281 H         1 GLN         0.1814
     85 H23        12.8006  -31.0704  -13.2371 H         1 GLN         0.1814
     86 H24        18.1505  -34.3191  -13.6857 H         1 THR         0.1884
     87 H25        19.1259  -36.1545  -15.6683 H         1 THR         0.0826
     88 H26        19.5895  -37.6383  -13.8266 H         1 THR         0.0639
     89 H27        17.4717  -37.4596  -12.8470 H         1 THR         0.2101
     90 H28        20.6916  -36.1435  -12.1853 H         1 THR         0.0257
     91 H29        19.7484  -34.7499  -12.8137 H         1 THR         0.0257
     92 H30        20.9581  -35.5624  -13.8640 H         1 THR         0.0257
     93 H31        18.3674  -38.5264  -15.5872 H         1 ALA         0.1883
     94 H32        15.5678  -38.7593  -16.1604 H         1 ALA         0.0797
     95 H33        15.9517  -41.2072  -16.0828 H         1 ALA         0.0277
     96 H34        17.5823  -40.9275  -15.3833 H         1 ALA         0.0277
     97 H35        17.2122  -40.3693  -17.0500 H         1 ALA         0.0277
     98 H36        14.1609  -40.3096  -14.9426 H         1 ARG         0.1883
     99 H37        14.4070  -39.7865  -12.0149 H         1 ARG         0.0800
    100 H38        11.9122  -39.4352  -12.0009 H         1 ARG         0.0313
    101 H39        11.9492  -39.4537  -13.7967 H         1 ARG         0.0313
    102 H40        13.4266  -37.4926  -13.7907 H         1 ARG         0.0301
    103 H41        13.4038  -37.4770  -11.9946 H         1 ARG         0.0301
    104 H42        10.9492  -37.2411  -13.7629 H         1 ARG         0.0689
    105 H43        11.8414  -35.8528  -13.0535 H         1 ARG         0.0689
    106 H44        10.1714  -37.8599  -11.5961 H         1 ARG         0.2642
    107 H45        11.7989  -34.5507   -9.8797 H         1 ARG         0.2615
    108 H46        12.2973  -35.0145  -11.5287 H         1 ARG         0.2615
    109 H47         9.5388  -37.2568   -9.5174 H         1 ARG         0.2615
    110 H48        10.2363  -35.8017   -8.7566 H         1 ARG         0.2615
    111 H49        13.4558  -41.2798  -10.6275 H         1 BTK         0.1883
    112 H50        12.6454  -43.8055  -11.9212 H         1 BTK         0.0800
    113 H51        13.8013  -44.8828  -10.3644 H         1 BTK         0.0312
    114 H52        12.7064  -44.2111   -9.1088 H         1 BTK         0.0312
    115 H53        14.6600  -44.3332   -7.5060 H         1 BTK         0.0285
    116 H54        15.6502  -44.9823   -8.8568 H         1 BTK         0.0285
    117 H55        16.2048  -42.4526   -7.2453 H         1 BTK         0.0520
    118 H56        17.1755  -43.0343   -8.6403 H         1 BTK         0.0520
    119 H57        14.1811  -42.3022   -8.7918 H         1 BTK         0.0268
    120 H58        15.2449  -42.8674  -10.1244 H         1 BTK         0.0268
    121 H59        17.0286  -44.9053   -6.4319 H         1 BTK         0.1850
    122 H60        19.2304  -47.4536   -3.8908 H         1 BTK         0.0231
    123 H61        19.7958  -45.8487   -3.3154 H         1 BTK         0.0231
    124 H62        20.7261  -46.7305   -4.5738 H         1 BTK         0.0231
    125 H63        17.8981  -45.6295   -4.8719 H         1 BTK         0.0287
    126 H64        18.8285  -46.5113   -6.1303 H         1 BTK         0.0287
    127 H65        20.5159  -44.7858   -6.1778 H         1 BTK         0.0502
    128 H66        19.7609  -43.9477   -4.7798 H         1 BTK         0.0502
    129 H67        10.7892  -44.8913  -11.3568 H         1 SER         0.1876
    130 H68         9.1541  -43.9014   -9.1312 H         1 SER         0.0749
    131 H69         8.0079  -44.0568  -11.9592 H         1 SER         0.0599
    132 H70         8.2352  -42.5716  -10.9748 H         1 SER         0.0599
    133 H71         6.5875  -44.7982  -10.2900 H         1 SER         0.2096
@<TRIPOS>BOND
     1    2    1 1  
     2    3    2 1  
     3    2    5 1  
     4    3    4 2  
     5   10    3 am 
     6    5    6 1  
     7    6    7 1  
     8    7    8 1  
     9    8    9 1  
    10   11   10 1  
    11   12   11 1  
    12   11   14 1  
    13   12   13 2  
    14   19   12 am 
    15   14   15 1  
    16   15   16 1  
    17   16   17 2  
    18   16   18 am 
    19   20   19 1  
    20   21   20 1  
    21   20   23 1  
    22   21   22 2  
    23   26   21 am 
    24   23   24 1  
    25   23   25 1  
    26   27   26 1  
    27   28   27 1  
    28   27   30 1  
    29   28   29 2  
    30   31   28 am 
    31   32   31 1  
    32   33   32 1  
    33   32   35 1  
    34   33   34 2  
    35   43   33 am 
    36   35   36 1  
    37   36   37 1  
    38   37   38 1  
    39   38   39 ar 
    40   39   40 ar 
    41   39   41 ar 
    42   42   44 2  
    43   45   42 1  
    44   42   56 am 
    45   45   43 1  
    46   46   45 1  
    47   49   46 1  
    48   48   47 1  
    49   47   49 1  
    50   50   48 1  
    51   55   50 am 
    52   53   51 1  
    53   55   52 2  
    54   54   53 1  
    55   54   55 1  
    56   56   57 1  
    57   57   58 1  
    58   57   60 1  
    59   58   59 ar 
    60   58   62 ar 
    61   60   61 1  
    62    1   63 1  
    63    1   64 1  
    64    1   65 1  
    65    2   66 1  
    66    5   67 1  
    67    5   68 1  
    68    6   69 1  
    69    6   70 1  
    70    7   71 1  
    71    7   72 1  
    72    8   73 1  
    73    8   74 1  
    74    9   75 1  
    75    9   76 1  
    76    9   77 1  
    77   10   78 1  
    78   11   79 1  
    79   14   80 1  
    80   14   81 1  
    81   15   82 1  
    82   15   83 1  
    83   18   84 1  
    84   18   85 1  
    85   19   86 1  
    86   20   87 1  
    87   23   88 1  
    88   24   89 1  
    89   25   90 1  
    90   25   91 1  
    91   25   92 1  
    92   26   93 1  
    93   27   94 1  
    94   30   95 1  
    95   30   96 1  
    96   30   97 1  
    97   31   98 1  
    98   32   99 1  
    99   35  100 1  
   100   35  101 1  
   101   36  102 1  
   102   36  103 1  
   103   37  104 1  
   104   37  105 1  
   105   38  106 1  
   106   40  107 1  
   107   40  108 1  
   108   41  109 1  
   109   41  110 1  
   110   43  111 1  
   111   45  112 1  
   112   46  113 1  
   113   46  114 1  
   114   47  115 1  
   115   47  116 1  
   116   48  117 1  
   117   48  118 1  
   118   49  119 1  
   119   49  120 1  
   120   50  121 1  
   121   51  122 1  
   122   51  123 1  
   123   51  124 1  
   124   53  125 1  
   125   53  126 1  
   126   54  127 1  
   127   54  128 1  
   128   56  129 1  
   129   57  130 1  
   130   60  131 1  
   131   60  132 1  
   132   61  133 1  
@<TRIPOS>SUBSTRUCTURE
     1 LYS         1

