3kr4_ligand
  -I-interpret- 

 47 47  0  0  0  0  0  0  0  0999 V2000
   84.8320   76.2930   30.1850 N   0  3  0  0  0
   85.7750   75.1830   30.1470 C   0  0  0  0  0
   85.5270   74.2450   31.3280 C   0  0  0  0  0
   84.2390   73.4420   31.3840 C   0  0  0  0  0
   84.1080   72.2380   30.6740 C   0  0  0  0  0
   83.2110   73.8660   32.2140 C   0  0  0  0  0
   82.9350   71.4760   30.7890 C   0  0  0  0  0
   82.0370   73.1130   32.3290 C   0  0  0  0  0
   81.8900   71.9210   31.6170 C   0  0  0  0  0
   87.2530   75.6500   30.2280 C   0  0  0  0  0
   87.7150   76.5840   29.2440 O   0  0  0  0  0
   88.0330   74.4310   29.8770 C   0  0  0  0  0
   87.7090   73.8060   28.8670 O   0  0  0  0  0
   89.0330   74.1270   30.7020 N   0  0  0  0  0
   89.7930   72.9190   30.4270 C   0  0  0  0  0
   91.1820   73.1180   31.0280 C   0  0  0  0  0
   92.1760   72.0160   30.6560 C   0  0  0  0  0
   92.6890   72.1810   29.2300 C   0  0  0  0  0
   93.3240   72.0440   31.6670 C   0  0  0  0  0
   88.9950   71.8020   31.0710 C   0  0  0  0  0
   88.9640   70.7120   30.4670 O   0  0  0  0  0
   88.3610   71.9860   32.1530 O   0  0  0  0  0
   83.8801   75.9309   30.1289 H   0  0  0  0  0
   84.9502   76.8083   31.0573 H   0  0  0  0  0
   85.0079   76.9141   29.3953 H   0  0  0  0  0
   85.6150   74.6798   29.1934 H   0  0  0  0  0
   85.4840   74.8998   32.1984 H   0  0  0  0  0
   86.3174   73.4976   31.2597 H   0  0  0  0  0
   84.9190   71.8942   30.0320 H   0  0  0  0  0
   83.3185   74.7913   32.7800 H   0  0  0  0  0
   82.8346   70.5412   30.2375 H   0  0  0  0  0
   81.2327   73.4591   32.9782 H   0  0  0  0  0
   80.9718   71.3399   31.7026 H   0  0  0  0  0
   87.3595   76.1194   31.2059 H   0  0  0  0  0
   87.2730   77.4266   29.3718 H   0  0  0  0  0
   89.2580   74.7216   31.4997 H   0  0  0  0  0
   89.9387   72.6837   29.3727 H   0  0  0  0  0
   91.0729   73.1063   32.1125 H   0  0  0  0  0
   91.5748   74.0569   30.6377 H   0  0  0  0  0
   91.6762   71.0480   30.6920 H   0  0  0  0  0
   91.8497   72.1368   28.5359 H   0  0  0  0  0
   93.1905   73.1441   29.1348 H   0  0  0  0  0
   93.3923   71.3797   29.0032 H   0  0  0  0  0
   93.8135   73.0173   31.6322 H   0  0  0  0  0
   92.9292   71.8700   32.6680 H   0  0  0  0  0
   94.0443   71.2645   31.4186 H   0  0  0  0  0
   88.5097   72.8830   32.4611 H   0  0  0  0  0
  1  2  1  0  0  0
  2  3  1  0  0  0
  2 10  1  0  0  0
  3  4  1  0  0  0
  4  5  4  0  0  0
  4  6  4  0  0  0
  5  7  4  0  0  0
  6  8  4  0  0  0
  7  9  4  0  0  0
  8  9  4  0  0  0
 10 11  1  0  0  0
 10 12  1  0  0  0
 12 13  2  0  0  0
 12 14  1  0  0  0
 14 15  1  0  0  0
 15 16  1  0  0  0
 15 20  1  0  0  0
 16 17  1  0  0  0
 17 18  1  0  0  0
 17 19  1  0  0  0
 20 21  2  0  0  0
 20 22  1  0  0  0
  1 23  1  0  0  0
  1 24  1  0  0  0
  1 25  1  0  0  0
  2 26  1  0  0  0
  3 27  1  0  0  0
  3 28  1  0  0  0
  5 29  1  0  0  0
  6 30  1  0  0  0
  7 31  1  0  0  0
  8 32  1  0  0  0
  9 33  1  0  0  0
 10 34  1  0  0  0
 11 35  1  0  0  0
 14 36  1  0  0  0
 15 37  1  0  0  0
 16 38  1  0  0  0
 16 39  1  0  0  0
 17 40  1  0  0  0
 18 41  1  0  0  0
 18 42  1  0  0  0
 18 43  1  0  0  0
 19 44  1  0  0  0
 19 45  1  0  0  0
 19 46  1  0  0  0
 22 47  1  0  0  0
M  END
$$$$
