3qpp_ligand
  -I-interpret- 

 67 72  0  0  0  0  0  0  0  0999 V2000
   13.3440   16.3370   43.1300 C   0  0  0  0  0
   12.5170   17.2500   42.4480 C   0  0  0  0  0
   11.9910   18.3470   43.0870 C   0  0  0  0  0
   13.6090   16.5220   44.4870 C   0  0  0  0  0
   13.0600   17.6450   45.1520 C   0  0  0  0  0
   12.2500   18.5890   44.4550 C   0  0  0  0  0
   11.7260   19.7290   45.1680 C   0  0  0  0  0
   12.0130   19.8130   46.4680 N   0  0  0  0  0
   12.7880   18.9180   47.0730 C   0  0  0  0  0
   13.2930   17.8720   46.4570 N   0  0  0  0  0
   10.9600   20.7050   44.5330 N   0  0  0  0  0
   10.4520   21.7460   45.4610 C   0  0  0  0  0
    9.6970   22.8710   44.7100 C   0  0  0  0  0
   10.5130   23.4610   43.5380 C   0  0  0  0  0
   11.1370   22.3210   42.6890 C   0  0  0  0  0
   11.9090   21.4080   43.6400 C   0  0  0  0  0
   11.9990   22.7890   41.5220 C   0  0  0  0  0
   12.0320   22.0340   40.3500 C   0  0  0  0  0
   12.7970   22.4470   39.2680 C   0  0  0  0  0
   13.5470   23.6150   39.3470 C   0  0  0  0  0
   13.5180   24.3780   40.5030 C   0  0  0  0  0
   12.7550   23.9670   41.5930 C   0  0  0  0  0
   13.8080   15.2720   42.4170 O   0  0  0  0  0
   12.2970   17.0210   41.1120 O   0  0  0  0  0
   15.0430   14.7340   42.9090 C   0  0  0  0  0
   10.9870   17.3770   40.6780 C   0  0  0  0  0
   11.2640   17.8040   39.2400 C   0  0  0  0  0
   10.0790   18.0490   38.3350 C   0  0  0  0  0
    9.3810   17.0310   37.9040 N   0  0  0  0  0
    8.7350   19.5860   37.0920 C   0  0  0  0  0
    9.7850   19.3510   37.9440 C   0  0  0  0  0
    7.9690   18.4810   36.6440 C   0  0  0  0  0
    8.3280   17.1780   37.0990 C   0  0  0  0  0
    7.5920   16.0560   36.6790 C   0  0  0  0  0
    6.5460   16.2320   35.8270 C   0  0  0  0  0
    6.1710   17.5100   35.3820 C   0  0  0  0  0
    6.8640   18.6290   35.7720 C   0  0  0  0  0
   11.3635   19.0422   42.5293 H   0  0  0  0  0
   14.2315   15.8102   45.0292 H   0  0  0  0  0
   13.0155   19.0581   48.1298 H   0  0  0  0  0
   11.3041   22.1906   45.9752 H   0  0  0  0  0
    9.7581   21.2743   46.1568 H   0  0  0  0  0
    9.5038   23.6750   45.4202 H   0  0  0  0  0
    8.7833   22.4424   44.2981 H   0  0  0  0  0
   11.3120   24.0847   43.9389 H   0  0  0  0  0
    9.8514   24.0540   42.9065 H   0  0  0  0  0
   10.3257   21.7827   42.1990 H   0  0  0  0  0
   12.4724   20.6758   43.0616 H   0  0  0  0  0
   12.5951   22.0064   44.2395 H   0  0  0  0  0
   11.4529   21.1130   40.2832 H   0  0  0  0  0
   12.8098   21.8538   38.3536 H   0  0  0  0  0
   14.1571   23.9300   38.5004 H   0  0  0  0  0
   14.0936   25.3019   40.5594 H   0  0  0  0  0
   12.7457   24.5638   42.5050 H   0  0  0  0  0
   15.8129   15.5049   42.8748 H   0  0  0  0  0
   14.9078   14.3991   43.9374 H   0  0  0  0  0
   15.3436   13.8906   42.2874 H   0  0  0  0  0
   10.5157   18.1500   41.2850 H   0  0  0  0  0
   10.2584   16.5711   40.7666 H   0  0  0  0  0
   11.8060   16.9724   38.7897 H   0  0  0  0  0
   11.7747   18.7640   39.3156 H   0  0  0  0  0
    8.4959   20.5987   36.7675 H   0  0  0  0  0
   10.3864   20.1818   38.3130 H   0  0  0  0  0
    7.8559   15.0588   37.0312 H   0  0  0  0  0
    5.9869   15.3621   35.4823 H   0  0  0  0  0
    5.3150   17.6153   34.7155 H   0  0  0  0  0
    6.5680   19.6157   35.4158 H   0  0  0  0  0
  1  2  4  0  0  0
  1  4  4  0  0  0
  1 23  1  0  0  0
  2  3  4  0  0  0
  2 24  1  0  0  0
  3  6  4  0  0  0
  4  5  4  0  0  0
  5  6  4  0  0  0
  5 10  4  0  0  0
  6  7  4  0  0  0
  7  8  4  0  0  0
  7 11  1  0  0  0
  8  9  4  0  0  0
  9 10  4  0  0  0
 11 12  1  0  0  0
 11 16  1  0  0  0
 12 13  1  0  0  0
 13 14  1  0  0  0
 14 15  1  0  0  0
 15 16  1  0  0  0
 15 17  1  0  0  0
 17 18  4  0  0  0
 17 22  4  0  0  0
 18 19  4  0  0  0
 19 20  4  0  0  0
 20 21  4  0  0  0
 21 22  4  0  0  0
 23 25  1  0  0  0
 24 26  1  0  0  0
 26 27  1  0  0  0
 27 28  1  0  0  0
 28 29  4  0  0  0
 28 31  4  0  0  0
 29 33  4  0  0  0
 31 30  4  0  0  0
 30 32  4  0  0  0
 32 33  4  0  0  0
 32 37  4  0  0  0
 33 34  4  0  0  0
 34 35  4  0  0  0
 35 36  4  0  0  0
 36 37  4  0  0  0
  3 38  1  0  0  0
  4 39  1  0  0  0
  9 40  1  0  0  0
 12 41  1  0  0  0
 12 42  1  0  0  0
 13 43  1  0  0  0
 13 44  1  0  0  0
 14 45  1  0  0  0
 14 46  1  0  0  0
 15 47  1  0  0  0
 16 48  1  0  0  0
 16 49  1  0  0  0
 18 50  1  0  0  0
 19 51  1  0  0  0
 20 52  1  0  0  0
 21 53  1  0  0  0
 22 54  1  0  0  0
 25 55  1  0  0  0
 25 56  1  0  0  0
 25 57  1  0  0  0
 26 58  1  0  0  0
 26 59  1  0  0  0
 27 60  1  0  0  0
 27 61  1  0  0  0
 30 62  1  0  0  0
 31 63  1  0  0  0
 34 64  1  0  0  0
 35 65  1  0  0  0
 36 66  1  0  0  0
 37 67  1  0  0  0
M  END
$$$$
