4wht_ligand
  -I-interpret- 

188190  0  0  0  0  0  0  0  0999 V2000
   33.7590   44.1770  -47.2840 N   0  3  0  0  0
   32.3270   44.2530  -47.0320 C   0  0  0  0  0
   31.5590   44.8240  -48.2360 C   0  0  0  0  0
   30.4790   44.3210  -48.5480 O   0  0  0  0  0
   32.0300   45.0380  -45.7370 C   0  0  0  0  0
   31.4290   44.1990  -44.5910 C   0  0  0  0  0
   31.0860   45.0000  -43.3310 C   0  0  0  0  0
   31.3930   46.1940  -43.1920 O   0  0  0  0  0
   30.4340   44.3570  -42.3690 N   0  0  0  0  0
   32.0890   45.8790  -48.8900 N   0  0  0  0  0
   31.4510   46.4720  -50.0580 C   0  0  0  0  0
   31.6370   45.6030  -51.3020 C   0  0  0  0  0
   30.7250   45.4860  -52.1200 O   0  0  0  0  0
   32.0270   47.8670  -50.3390 C   0  0  0  0  0
   31.6930   49.0160  -49.3750 C   0  0  0  0  0
   32.3670   50.2800  -49.8310 C   0  0  0  0  0
   30.2040   49.2550  -49.2480 C   0  0  0  0  0
   32.8560   45.0810  -51.4770 N   0  0  0  0  0
   33.2980   44.2710  -52.6060 C   0  0  0  0  0
   34.2040   43.1810  -52.0440 C   0  0  0  0  0
   34.9520   43.4290  -51.0920 O   0  0  0  0  0
   34.0790   45.1410  -53.6790 C   0  0  0  0  0
   33.1740   46.2290  -54.3220 C   0  0  0  0  0
   34.7240   44.2750  -54.7930 C   0  0  0  0  0
   33.9580   47.4630  -54.8970 C   0  0  0  0  0
   34.1650   41.9970  -52.6710 N   0  0  0  0  0
   35.0390   40.8660  -52.3530 C   0  0  0  0  0
   36.3690   41.1180  -53.1170 C   0  0  0  0  0
   36.6150   40.5940  -54.2150 O   0  0  0  0  0
   34.3690   39.5660  -52.7900 C   0  0  0  0  0
   35.0410   38.3110  -52.3880 C   0  0  0  0  0
   35.6480   38.2090  -51.3430 O   0  0  0  0  0
   34.8720   37.3010  -53.1830 N   0  0  0  0  0
   37.1740   42.0010  -52.5390 N   0  0  0  0  0
   38.4520   42.4570  -53.0890 C   0  0  0  0  0
   39.4390   41.2890  -53.2350 C   0  0  0  0  0
   40.3010   41.3100  -54.1300 O   0  0  0  0  0
   38.9890   43.6110  -52.2440 C   0  0  0  0  0
   39.2060   43.1230  -50.9100 O   0  0  0  0  0
   37.9920   44.7800  -52.1820 C   0  0  0  0  0
   39.2580   40.2440  -52.4020 N   0  0  0  0  0
   40.0900   39.0610  -52.4290 C   0  0  0  0  0
   39.4590   37.8960  -53.2070 C   0  0  0  0  0
   39.9830   36.7850  -53.1860 O   0  0  0  0  0
   40.4900   38.6580  -50.9940 C   0  0  0  0  0
   41.7300   37.7890  -50.9170 C   0  0  0  0  0
   42.7700   38.1020  -51.5050 O   0  0  0  0  0
   41.6400   36.6660  -50.2000 N   0  0  0  0  0
   38.3650   38.1580  -53.9040 N   0  0  0  0  0
   37.6730   37.1450  -54.6930 C   0  0  0  0  0
   38.5630   36.3570  -55.6290 C   0  0  0  0  0
   39.4570   36.9210  -56.2660 O   0  0  0  0  0
   38.3210   35.0430  -55.7140 N   0  0  0  0  0
   39.0960   34.1480  -56.5670 C   0  0  0  0  0
   38.8680   34.3260  -58.0700 C   0  0  0  0  0
   39.5110   33.6450  -58.8650 O   0  0  0  0  0
   38.9030   32.7120  -56.1190 C   0  0  0  0  0
   39.5990   32.5470  -54.8960 O   0  0  0  0  0
   37.9350   35.2150  -58.4620 N   0  0  0  0  0
   37.6200   35.5210  -59.8580 C   0  0  0  0  0
   38.6350   36.4850  -60.4970 C   0  0  0  0  0
   38.6580   36.6150  -61.7160 O   0  0  0  0  0
   36.1640   36.0180  -60.0110 C   0  0  0  0  0
   35.6820   36.9170  -58.9070 C   0  0  0  0  0
   35.1150   36.5350  -57.7300 C   0  0  0  0  0
   35.7960   38.3470  -58.8490 C   0  0  0  0  0
   34.7800   37.6470  -56.9810 N   0  0  0  0  0
   35.2040   38.7690  -57.6330 C   0  0  0  0  0
   36.3030   39.3220  -59.7260 C   0  0  0  0  0
   35.1440   40.1150  -57.2510 C   0  0  0  0  0
   36.1810   40.6640  -59.3690 C   0  0  0  0  0
   35.6150   41.0470  -58.1430 C   0  0  0  0  0
   39.5020   37.1190  -59.6750 N   0  0  0  0  0
   40.5580   38.0290  -60.1350 C   0  0  0  0  0
   41.6970   37.3120  -60.8540 C   0  0  0  0  0
   42.0750   36.1870  -60.4860 O   0  0  0  0  0
   41.1600   38.8190  -58.9770 C   0  0  0  0  0
   40.2370   39.8380  -58.3850 C   0  0  0  0  0
   39.5220   39.5780  -57.2320 N   0  0  0  0  0
   39.9890   41.1090  -58.7750 C   0  0  0  0  0
   38.8830   40.7000  -56.9550 C   0  0  0  0  0
   39.1430   41.6470  -57.8540 N   0  0  0  0  0
   42.2800   38.0140  -61.8450 N   0  0  0  0  0
   43.4290   37.5750  -62.6520 C   0  0  0  0  0
   44.6270   38.4610  -62.2700 C   0  0  0  0  0
   44.4640   39.4400  -61.5250 O   0  0  0  0  0
   43.1750   37.6060  -64.1920 C   0  0  0  0  0
   43.3340   36.2350  -64.8370 C   0  0  0  0  0
   41.8480   38.2550  -64.5490 C   0  0  0  0  0
   45.8210   38.1350  -62.7930 N   0  0  0  0  0
   47.0560   38.8790  -62.4990 C   0  0  0  0  0
   47.9830   39.0940  -63.7060 C   0  0  0  0  0
   47.7830   38.5230  -64.7790 O   0  0  0  0  0
   47.8140   38.2140  -61.3540 C   0  0  0  0  0
   47.8900   36.7110  -61.4710 C   0  0  0  0  0
   46.8700   36.0050  -61.4170 O   0  0  0  0  0
   49.1050   36.1930  -61.6150 N   0  0  0  0  0
   48.9687   39.8710  -63.5955 O   0  0  0  0  0
   33.9244   43.6540  -48.1439 H   0  0  0  0  0
   34.1366   45.1197  -47.3800 H   0  0  0  0  0
   34.2157   43.7043  -46.5040 H   0  0  0  0  0
   31.9679   43.2340  -46.8883 H   0  0  0  0  0
   31.2916   45.7982  -45.9917 H   0  0  0  0  0
   32.9834   45.4252  -45.3776 H   0  0  0  0  0
   32.1803   43.4623  -44.3065 H   0  0  0  0  0
   30.4969   43.7727  -44.9621 H   0  0  0  0  0
   30.1825   44.8448  -41.5092 H   0  0  0  0  0
   30.1847   43.3754  -42.4900 H   0  0  0  0  0
   32.9671   46.2751  -48.5548 H   0  0  0  0  0
   30.3866   46.5480  -49.8358 H   0  0  0  0  0
   31.5921   48.1644  -51.2932 H   0  0  0  0  0
   33.1078   47.7450  -50.2682 H   0  0  0  0  0
   32.0624   48.7246  -48.3918 H   0  0  0  0  0
   33.4462   50.1283  -49.8498 H   0  0  0  0  0
   32.0173   50.5363  -50.8311 H   0  0  0  0  0
   32.1244   51.0887  -49.1416 H   0  0  0  0  0
   29.7931   49.5074  -50.2256 H   0  0  0  0  0
   29.7231   48.3518  -48.8725 H   0  0  0  0  0
   30.0271   50.0774  -48.5548 H   0  0  0  0  0
   33.5448   45.2681  -50.7483 H   0  0  0  0  0
   32.4367   43.8434  -53.1192 H   0  0  0  0  0
   34.8784   45.6344  -53.1261 H   0  0  0  0  0
   32.5157   46.6036  -53.5381 H   0  0  0  0  0
   32.6537   45.7612  -55.1578 H   0  0  0  0  0
   35.4330   43.5786  -54.3453 H   0  0  0  0  0
   33.9458   43.7180  -55.3148 H   0  0  0  0  0
   35.2447   44.9221  -55.4988 H   0  0  0  0  0
   34.5153   47.9443  -54.0934 H   0  0  0  0  0
   34.6496   47.1250  -55.6687 H   0  0  0  0  0
   33.2511   48.1729  -55.3265 H   0  0  0  0  0
   33.4818   41.8759  -53.4186 H   0  0  0  0  0
   35.2326   40.7770  -51.2840 H   0  0  0  0  0
   34.3731   39.5754  -53.8800 H   0  0  0  0  0
   33.3913   39.5531  -52.3083 H   0  0  0  0  0
   35.2545   36.3882  -52.9363 H   0  0  0  0  0
   34.3565   37.4192  -54.0552 H   0  0  0  0  0
   36.8800   42.3915  -51.6438 H   0  0  0  0  0
   38.3053   42.8403  -54.0988 H   0  0  0  0  0
   39.9118   43.9749  -52.6958 H   0  0  0  0  0
   39.5443   43.8344  -50.3613 H   0  0  0  0  0
   37.8043   45.1496  -53.1901 H   0  0  0  0  0
   37.0571   44.4355  -51.7400 H   0  0  0  0  0
   38.4104   45.5807  -51.5721 H   0  0  0  0  0
   38.4995   40.2899  -51.7216 H   0  0  0  0  0
   40.9961   39.3123  -52.9803 H   0  0  0  0  0
   39.6645   38.0789  -50.5801 H   0  0  0  0  0
   40.7065   39.5772  -50.4497 H   0  0  0  0  0
   42.4432   36.0414  -50.1275 H   0  0  0  0  0
   40.7681   36.4328  -49.7248 H   0  0  0  0  0
   37.9906   39.1067  -53.8889 H   0  0  0  0  0
   36.9445   37.6680  -55.3126 H   0  0  0  0  0
   37.2432   36.4327  -53.9887 H   0  0  0  0  0
   37.5614   34.6502  -55.1580 H   0  0  0  0  0
   40.1408   34.4291  -56.4350 H   0  0  0  0  0
   39.2886   32.0241  -56.8715 H   0  0  0  0  0
   37.8432   32.4948  -55.9854 H   0  0  0  0  0
   39.4934   31.6438  -54.5884 H   0  0  0  0  0
   37.4131   35.7079  -57.7373 H   0  0  0  0  0
   37.7045   34.5871  -60.4138 H   0  0  0  0  0
   35.5263   35.1341  -59.9989 H   0  0  0  0  0
   36.1248   36.6004  -60.9316 H   0  0  0  0  0
   34.9493   35.5024  -57.4229 H   0  0  0  0  0
   36.7803   39.0353  -60.6631 H   0  0  0  0  0
   34.7392   40.4114  -56.2833 H   0  0  0  0  0
   36.5329   41.4327  -60.0570 H   0  0  0  0  0
   35.5479   42.1060  -57.8937 H   0  0  0  0  0
   39.4167   36.9544  -58.6720 H   0  0  0  0  0
   40.0642   38.6988  -60.8390 H   0  0  0  0  0
   42.0239   39.3561  -59.3685 H   0  0  0  0  0
   41.3983   38.1043  -58.1892 H   0  0  0  0  0
   40.3898   41.6073  -59.6577 H   0  0  0  0  0
   38.2244   40.8341  -56.0969 H   0  0  0  0  0
   41.8896   38.9327  -62.0547 H   0  0  0  0  0
   43.6225   36.5256  -62.4295 H   0  0  0  0  0
   43.9548   38.2399  -64.6142 H   0  0  0  0  0
   44.3483   35.8721  -64.6707 H   0  0  0  0  0
   42.6209   35.5408  -64.3924 H   0  0  0  0  0
   43.1463   36.3147  -65.9078 H   0  0  0  0  0
   41.0352   37.6962  -64.0850 H   0  0  0  0  0
   41.8381   39.2825  -64.1855 H   0  0  0  0  0
   41.7222   38.2501  -65.6317 H   0  0  0  0  0
   45.8737   37.3346  -63.4231 H   0  0  0  0  0
   46.7313   39.8776  -62.2067 H   0  0  0  0  0
   47.2796   38.4432  -60.4320 H   0  0  0  0  0
   48.8350   38.5951  -61.3735 H   0  0  0  0  0
   49.2235   35.1823  -61.6853 H   0  0  0  0  0
   49.9193   36.8060  -61.6552 H   0  0  0  0  0
   48.9893   40.2357  -62.7077 H   0  0  0  0  0
  1  2  1  0  0  0
  2  3  1  0  0  0
  2  5  1  0  0  0
  3  4  2  0  0  0
  3 10  1  0  0  0
  5  6  1  0  0  0
  6  7  1  0  0  0
  7  8  2  0  0  0
  7  9  1  0  0  0
 10 11  1  0  0  0
 11 12  1  0  0  0
 11 14  1  0  0  0
 12 13  2  0  0  0
 12 18  1  0  0  0
 14 15  1  0  0  0
 15 16  1  0  0  0
 15 17  1  0  0  0
 18 19  1  0  0  0
 19 20  1  0  0  0
 19 22  1  0  0  0
 20 21  2  0  0  0
 20 26  1  0  0  0
 22 23  1  0  0  0
 22 24  1  0  0  0
 23 25  1  0  0  0
 26 27  1  0  0  0
 27 28  1  0  0  0
 27 30  1  0  0  0
 28 29  2  0  0  0
 28 34  1  0  0  0
 30 31  1  0  0  0
 31 32  2  0  0  0
 31 33  1  0  0  0
 34 35  1  0  0  0
 35 36  1  0  0  0
 35 38  1  0  0  0
 36 37  2  0  0  0
 36 41  1  0  0  0
 38 39  1  0  0  0
 38 40  1  0  0  0
 41 42  1  0  0  0
 42 43  1  0  0  0
 42 45  1  0  0  0
 43 44  2  0  0  0
 43 49  1  0  0  0
 45 46  1  0  0  0
 46 47  2  0  0  0
 46 48  1  0  0  0
 49 50  1  0  0  0
 50 51  1  0  0  0
 51 52  2  0  0  0
 51 53  1  0  0  0
 53 54  1  0  0  0
 54 55  1  0  0  0
 54 57  1  0  0  0
 55 56  2  0  0  0
 55 59  1  0  0  0
 57 58  1  0  0  0
 59 60  1  0  0  0
 60 61  1  0  0  0
 60 63  1  0  0  0
 61 62  2  0  0  0
 61 73  1  0  0  0
 63 64  1  0  0  0
 64 65  4  0  0  0
 64 66  4  0  0  0
 65 67  4  0  0  0
 66 68  4  0  0  0
 66 69  4  0  0  0
 67 68  4  0  0  0
 68 70  4  0  0  0
 69 71  4  0  0  0
 70 72  4  0  0  0
 71 72  4  0  0  0
 73 74  1  0  0  0
 74 75  1  0  0  0
 74 77  1  0  0  0
 75 76  2  0  0  0
 75 83  1  0  0  0
 77 78  1  0  0  0
 78 79  4  0  0  0
 78 80  4  0  0  0
 79 81  4  0  0  0
 80 82  4  0  0  0
 81 82  4  0  0  0
 83 84  1  0  0  0
 84 85  1  0  0  0
 84 87  1  0  0  0
 85 86  2  0  0  0
 85 90  1  0  0  0
 87 88  1  0  0  0
 87 89  1  0  0  0
 90 91  1  0  0  0
 91 92  1  0  0  0
 91 94  1  0  0  0
 92 93  2  0  0  0
 94 95  1  0  0  0
 95 96  2  0  0  0
 95 97  1  0  0  0
 92 98  1  0  0  0
  1 99  1  0  0  0
  1100  1  0  0  0
  1101  1  0  0  0
  2102  1  0  0  0
  5103  1  0  0  0
  5104  1  0  0  0
  6105  1  0  0  0
  6106  1  0  0  0
  9107  1  0  0  0
  9108  1  0  0  0
 10109  1  0  0  0
 11110  1  0  0  0
 14111  1  0  0  0
 14112  1  0  0  0
 15113  1  0  0  0
 16114  1  0  0  0
 16115  1  0  0  0
 16116  1  0  0  0
 17117  1  0  0  0
 17118  1  0  0  0
 17119  1  0  0  0
 18120  1  0  0  0
 19121  1  0  0  0
 22122  1  0  0  0
 23123  1  0  0  0
 23124  1  0  0  0
 24125  1  0  0  0
 24126  1  0  0  0
 24127  1  0  0  0
 25128  1  0  0  0
 25129  1  0  0  0
 25130  1  0  0  0
 26131  1  0  0  0
 27132  1  0  0  0
 30133  1  0  0  0
 30134  1  0  0  0
 33135  1  0  0  0
 33136  1  0  0  0
 34137  1  0  0  0
 35138  1  0  0  0
 38139  1  0  0  0
 39140  1  0  0  0
 40141  1  0  0  0
 40142  1  0  0  0
 40143  1  0  0  0
 41144  1  0  0  0
 42145  1  0  0  0
 45146  1  0  0  0
 45147  1  0  0  0
 48148  1  0  0  0
 48149  1  0  0  0
 49150  1  0  0  0
 50151  1  0  0  0
 50152  1  0  0  0
 53153  1  0  0  0
 54154  1  0  0  0
 57155  1  0  0  0
 57156  1  0  0  0
 58157  1  0  0  0
 59158  1  0  0  0
 60159  1  0  0  0
 63160  1  0  0  0
 63161  1  0  0  0
 65162  1  0  0  0
 69163  1  0  0  0
 70164  1  0  0  0
 71165  1  0  0  0
 72166  1  0  0  0
 73167  1  0  0  0
 74168  1  0  0  0
 77169  1  0  0  0
 77170  1  0  0  0
 80171  1  0  0  0
 81172  1  0  0  0
 83173  1  0  0  0
 84174  1  0  0  0
 87175  1  0  0  0
 88176  1  0  0  0
 88177  1  0  0  0
 88178  1  0  0  0
 89179  1  0  0  0
 89180  1  0  0  0
 89181  1  0  0  0
 90182  1  0  0  0
 91183  1  0  0  0
 94184  1  0  0  0
 94185  1  0  0  0
 97186  1  0  0  0
 97187  1  0  0  0
 98188  1  0  0  0
M  END
$$$$
