### 
### Created by X-TOOL on Mon Sep 10 21:13:19 2018
### 

@<TRIPOS>MOLECULE
4wht_ligand
  189   191     1     0     0
SMALL
GAST_HUCK


@<TRIPOS>ATOM
      1 N          33.7590   44.1770  -47.2840 N.4       1 GLN         0.2380
      2 CA         32.3270   44.2530  -47.0320 C.3       1 GLN         0.0671
      3 C          31.5590   44.8240  -48.2360 C.2       1 GLN         0.2269
      4 O          30.4790   44.3210  -48.5480 O.2       1 GLN        -0.3907
      5 CB         32.0300   45.0380  -45.7370 C.3       1 GLN         0.0247
      6 CG         31.4290   44.1990  -44.5910 C.3       1 GLN         0.0443
      7 CD         31.0860   45.0000  -43.3310 C.2       1 GLN         0.1738
      8 OE1        31.3930   46.1940  -43.1920 O.2       1 GLN        -0.3973
      9 NE2        30.4340   44.3570  -42.3690 N.am      1 GLN        -0.3009
     10 N          32.0890   45.8790  -48.8900 N.am      1 LEU        -0.2610
     11 CA         31.4510   46.4720  -50.0580 C.3       1 LEU         0.1313
     12 C          31.6370   45.6030  -51.3020 C.2       1 LEU         0.2039
     13 O          30.7250   45.4860  -52.1200 O.2       1 LEU        -0.3944
     14 CB         32.0270   47.8670  -50.3390 C.3       1 LEU        -0.0101
     15 CG         31.6930   49.0160  -49.3750 C.3       1 LEU        -0.0425
     16 CD1        32.3670   50.2800  -49.8310 C.3       1 LEU        -0.0625
     17 CD2        30.2040   49.2550  -49.2480 C.3       1 LEU        -0.0625
     18 N          32.8560   45.0810  -51.4770 N.am      1 ILE        -0.2635
     19 CA         33.2980   44.2710  -52.6060 C.3       1 ILE         0.1335
     20 C          34.2040   43.1810  -52.0440 C.2       1 ILE         0.2043
     21 O          34.9520   43.4290  -51.0920 O.2       1 ILE        -0.3944
     22 CB         34.0790   45.1410  -53.6790 C.3       1 ILE        -0.0037
     23 CG1        33.1740   46.2290  -54.3220 C.3       1 ILE        -0.0491
     24 CG2        34.7240   44.2750  -54.7930 C.3       1 ILE        -0.0582
     25 CD1        33.9580   47.4630  -54.8970 C.3       1 ILE        -0.0648
     26 N          34.1650   41.9970  -52.6710 N.am      1 ASN        -0.2616
     27 CA         35.0390   40.8660  -52.3530 C.3       1 ASN         0.1476
     28 C          36.3690   41.1180  -53.1170 C.2       1 ASN         0.2063
     29 O          36.6150   40.5940  -54.2150 O.2       1 ASN        -0.3942
     30 CB         34.3690   39.5660  -52.7900 C.3       1 ASN         0.0773
     31 CG         35.0410   38.3110  -52.3880 C.2       1 ASN         0.1780
     32 OD1        35.6480   38.2090  -51.3430 O.2       1 ASN        -0.3970
     33 ND2        34.8720   37.3010  -53.1830 N.am      1 ASN        -0.3007
     34 N          37.1740   42.0010  -52.5390 N.am      1 THR        -0.2612
     35 CA         38.4520   42.4570  -53.0890 C.3       1 THR         0.1565
     36 C          39.4390   41.2890  -53.2350 C.2       1 THR         0.2066
     37 O          40.3010   41.3100  -54.1300 O.2       1 THR        -0.3943
     38 CB         38.9890   43.6110  -52.2440 C.3       1 THR         0.0924
     39 OG1        39.2060   43.1230  -50.9100 O.3       1 THR        -0.3874
     40 CG2        37.9920   44.7800  -52.1820 C.3       1 THR        -0.0346
     41 N          39.2580   40.2440  -52.4020 N.am      1 ASN        -0.2615
     42 CA         40.0900   39.0610  -52.4290 C.3       1 ASN         0.1476
     43 C          39.4590   37.8960  -53.2070 C.2       1 ASN         0.2061
     44 O          39.9830   36.7850  -53.1860 O.2       1 ASN        -0.3942
     45 CB         40.4900   38.6580  -50.9940 C.3       1 ASN         0.0773
     46 CG         41.7300   37.7890  -50.9170 C.2       1 ASN         0.1780
     47 OD1        42.7700   38.1020  -51.5050 O.2       1 ASN        -0.3970
     48 ND2        41.6400   36.6660  -50.2000 N.am      1 ASN        -0.3007
     49 N          38.3650   38.1580  -53.9040 N.am      1 GLY        -0.2663
     50 CA         37.6730   37.1450  -54.6930 C.3       1 GLY         0.1201
     51 C          38.5630   36.3570  -55.6290 C.2       1 GLY         0.2008
     52 O          39.4570   36.9210  -56.2660 O.2       1 GLY        -0.3947
     53 N          38.3210   35.0430  -55.7140 N.am      1 SER        -0.2618
     54 CA         39.0960   34.1480  -56.5670 C.3       1 SER         0.1539
     55 C          38.8680   34.3260  -58.0700 C.2       1 SER         0.2063
     56 O          39.5110   33.6450  -58.8650 O.2       1 SER        -0.3943
     57 CB         38.9030   32.7120  -56.1190 C.3       1 SER         0.0843
     58 OG         39.5990   32.5470  -54.8960 O.3       1 SER        -0.3903
     59 N          37.9350   35.2150  -58.4620 N.am      1 TRP        -0.2626
     60 CA         37.6200   35.5210  -59.8580 C.3       1 TRP         0.1352
     61 C          38.6350   36.4850  -60.4970 C.2       1 TRP         0.2053
     62 O          38.6580   36.6150  -61.7160 O.2       1 TRP        -0.3942
     63 CB         36.1640   36.0180  -60.0110 C.3       1 TRP         0.0042
     64 CG         35.6820   36.9170  -58.9070 C.2       1 TRP        -0.0418
     65 CD1        35.1150   36.5350  -57.7300 C.2       1 TRP         0.0167
     66 CD2        35.7960   38.3470  -58.8490 C.ar      1 TRP        -0.0214
     67 NE1        34.7800   37.6470  -56.9810 N.pl3     1 TRP        -0.2890
     68 CE2        35.2040   38.7690  -57.6330 C.ar      1 TRP         0.0603
     69 CE3        36.3030   39.3220  -59.7260 C.ar      1 TRP        -0.0747
     70 CZ2        35.1440   40.1150  -57.2510 C.ar      1 TRP        -0.0443
     71 CZ3        36.1810   40.6640  -59.3690 C.ar      1 TRP        -0.0792
     72 CH2        35.6150   41.0470  -58.1430 C.ar      1 TRP        -0.0768
     73 N          39.5020   37.1190  -59.6750 N.am      1 HIS        -0.2618
     74 CA         40.5580   38.0290  -60.1350 C.3       1 HIS         0.1421
     75 C          41.6970   37.3120  -60.8540 C.2       1 HIS         0.2060
     76 O          42.0750   36.1870  -60.4860 O.2       1 HIS        -0.3942
     77 CB         41.1600   38.8190  -58.9770 C.3       1 HIS         0.0427
     78 CG         40.2370   39.8380  -58.3850 C.2       1 HIS         0.0561
     79 ND1        39.5220   39.5780  -57.2320 N.pl3     1 HIS        -0.2623
     80 CD2        39.9890   41.1090  -58.7750 C.2       1 HIS        -0.0276
     81 CE1        38.8830   40.7000  -56.9550 C.2       1 HIS         0.0875
     82 NE2        39.1430   41.6470  -57.8540 N.2       1 HIS        -0.3437
     83 N          42.2800   38.0140  -61.8450 N.am      1 VAL        -0.2633
     84 CA         43.4290   37.5750  -62.6520 C.3       1 VAL         0.1332
     85 C          44.6270   38.4610  -62.2700 C.2       1 VAL         0.2038
     86 O          44.4640   39.4400  -61.5250 O.2       1 VAL        -0.3944
     87 CB         43.1750   37.6060  -64.1920 C.3       1 VAL        -0.0063
     88 CG1        43.3340   36.2350  -64.8370 C.3       1 VAL        -0.0584
     89 CG2        41.8480   38.2550  -64.5490 C.3       1 VAL        -0.0584
     90 N          45.8210   38.1350  -62.7930 N.am      1 ASN        -0.2649
     91 CA         47.0560   38.8790  -62.4990 C.3       1 ASN         0.1392
     92 C          47.9830   39.0940  -63.7060 C.2       1 ASN         0.2173
     93 O          47.7830   38.5230  -64.7790 O.co2     1 ASN        -0.4118
     94 CB         47.8140   38.2140  -61.3540 C.3       1 ASN         0.0742
     95 CG         47.8900   36.7110  -61.4710 C.2       1 ASN         0.1775
     96 OD1        46.8700   36.0050  -61.4170 O.2       1 ASN        -0.3971
     97 ND2        49.1050   36.1930  -61.6150 N.am      1 ASN        -0.3007
     98 H          34.2232   43.7989  -46.4731 H         1 GLN         0.2015
     99 H          34.1159   45.1000  -47.4756 H         1 GLN         0.2015
    100 H          33.9293   43.5794  -48.0777 H         1 GLN         0.2015
    101 H          31.9687   43.2243  -46.8789 H         1 GLN         0.1100
    102 H          31.3198   45.8420  -45.9803 H         1 GLN         0.0370
    103 H          32.9731   45.4774  -45.3801 H         1 GLN         0.0370
    104 H          32.1566   43.4211  -44.3163 H         1 GLN         0.0506
    105 H          30.5069   43.7253  -44.9588 H         1 GLN         0.0506
    106 H          30.1868   44.8355  -41.5264 H         1 GLN         0.1814
    107 H          30.1903   43.3944  -42.4873 H         1 GLN         0.1814
    108 H          32.9499   46.2674  -48.5613 H         1 LEU         0.1884
    109 H          30.3745   46.5668  -49.8527 H         1 LEU         0.0800
    110 H          31.6719   48.1682  -51.3356 H         1 LEU         0.0315
    111 H          33.1223   47.7669  -50.3547 H         1 LEU         0.0315
    112 H          32.0819   48.7496  -48.3811 H         1 LEU         0.0298
    113 H          32.1229   51.0969  -49.1360 H         1 LEU         0.0232
    114 H          32.0149   50.5398  -50.8402 H         1 LEU         0.0232
    115 H          33.4563   50.1283  -49.8504 H         1 LEU         0.0232
    116 H          29.7113   48.3298  -48.9143 H         1 LEU         0.0232
    117 H          29.7963   49.5559  -50.2243 H         1 LEU         0.0232
    118 H          30.0221   50.0529  -48.5130 H         1 LEU         0.0232
    119 H          33.5313   45.2645  -50.7626 H         1 ILE         0.1883
    120 H          32.4240   43.8122  -53.0914 H         1 ILE         0.0803
    121 H          34.8923   45.6559  -53.1466 H         1 ILE         0.0345
    122 H          32.4738   46.5923  -53.5553 H         1 ILE         0.0267
    123 H          32.6092   45.7657  -55.1444 H         1 ILE         0.0267
    124 H          35.3638   43.5060  -54.3354 H         1 ILE         0.0235
    125 H          35.3322   44.9150  -55.4491 H         1 ILE         0.0235
    126 H          33.9334   43.7899  -55.3843 H         1 ILE         0.0235
    127 H          33.2456   48.1802  -55.3307 H         1 ILE         0.0230
    128 H          34.6563   47.1232  -55.6760 H         1 ILE         0.0230
    129 H          34.5209   47.9497  -54.0869 H         1 ILE         0.0230
    130 H          33.4952   41.8782  -53.4040 H         1 ASN         0.1885
    131 H          35.2327   40.8260  -51.2709 H         1 ASN         0.0826
    132 H          34.3062   39.5748  -53.8882 H         1 ASN         0.0551
    133 H          33.3546   39.5532  -52.3648 H         1 ASN         0.0551
    134 H          35.2983   36.4215  -52.9716 H         1 ASN         0.1814
    135 H          34.3153   37.4014  -54.0076 H         1 ASN         0.1814
    136 H          36.8857   42.3838  -51.6613 H         1 THR         0.1884
    137 H          38.2643   42.8494  -54.0993 H         1 THR         0.0826
    138 H          39.9376   43.9661  -52.6729 H         1 THR         0.0639
    139 H          39.5408   43.8270  -50.3670 H         1 THR         0.2101
    140 H          38.4131   45.5888  -51.5667 H         1 THR         0.0257
    141 H          37.0480   44.4336  -51.7360 H         1 THR         0.0257
    142 H          37.8017   45.1540  -53.1988 H         1 THR         0.0257
    143 H          38.5144   40.2890  -51.7349 H         1 ASN         0.1885
    144 H          41.0146   39.3299  -52.9607 H         1 ASN         0.0826
    145 H          39.6523   38.1047  -50.5445 H         1 ASN         0.0551
    146 H          40.6752   39.5757  -50.4166 H         1 ASN         0.0551
    147 H          42.4311   36.0596  -50.1192 H         1 ASN         0.1814
    148 H          40.7815   36.4314  -49.7439 H         1 ASN         0.1814
    149 H          37.9979   39.0881  -53.8892 H         1 GLY         0.1881
    150 H          36.9017   37.6473  -55.2953 H         1 GLY         0.0763
    151 H          37.1941   36.4383  -53.9994 H         1 GLY         0.0763
    152 H          37.5763   34.6579  -55.1689 H         1 SER         0.1884
    153 H          40.1536   34.3957  -56.3933 H         1 SER         0.0823
    154 H          39.3082   32.0251  -56.8766 H         1 SER         0.0606
    155 H          37.8326   32.5057  -55.9720 H         1 SER         0.0606
    156 H          39.4945   31.6532  -54.5916 H         1 SER         0.2097
    157 H          37.4234   35.6982  -57.7516 H         1 TRP         0.1884
    158 H          37.6933   34.5747  -60.4140 H         1 TRP         0.0815
    159 H          35.5048   35.1382  -60.0473 H         1 TRP         0.0397
    160 H          36.0897   36.5712  -60.9589 H         1 TRP         0.0397
    161 H          34.9495   35.5033  -57.4232 H         1 TRP         0.0795
    162 H          34.2890   37.6317  -56.0757 H         1 TRP         0.2216
    163 H          36.7776   39.0368  -60.6579 H         1 TRP         0.0540
    164 H          34.7414   40.4098  -56.2887 H         1 TRP         0.0541
    165 H          36.5309   41.4285  -60.0532 H         1 TRP         0.0510
    166 H          35.5483   42.1002  -57.8951 H         1 TRP         0.0530
    167 H          39.4184   36.9576  -58.6917 H         1 HIS         0.1885
    168 H          40.0991   38.7377  -60.8401 H         1 HIS         0.0824
    169 H          42.0579   39.3382  -59.3433 H         1 HIS         0.0491
    170 H          41.4438   38.1095  -58.1858 H         1 HIS         0.0491
    171 H          39.4933   38.6959  -56.7009 H         1 HIS         0.2386
    172 H          40.3894   41.6068  -59.6569 H         1 HIS         0.0324
    173 H          38.2250   40.8340  -56.0976 H         1 HIS         0.1149
    174 H          41.8972   38.9147  -62.0506 H         1 VAL         0.1883
    175 H          43.6597   36.5348  -62.3788 H         1 VAL         0.0802
    176 H          43.9598   38.2453  -64.6225 H         1 VAL         0.0343
    177 H          43.1448   36.3141  -65.9177 H         1 VAL         0.0234
    178 H          42.6148   35.5335  -64.3892 H         1 VAL         0.0234
    179 H          44.3573   35.8676  -64.6699 H         1 VAL         0.0234
    180 H          41.7785   39.2391  -64.0624 H         1 VAL         0.0234
    181 H          41.0224   37.6158  -64.2030 H         1 VAL         0.0234
    182 H          41.7827   38.3800  -65.6399 H         1 VAL         0.0234
    183 H          45.8727   37.3503  -63.4107 H         1 ASN         0.1878
    184 H          46.7486   39.8781  -62.1565 H         1 ASN         0.0777
    185 O1         48.9687   39.8710  -63.5955 O.co2     1 ASN        -0.4118
    186 H          47.3073   38.4640  -60.4102 H         1 ASN         0.0545
    187 H          48.8387   38.6135  -61.3371 H         1 ASN         0.0545
    188 H          49.2199   35.2031  -61.6977 H         1 ASN         0.1814
    189 H          49.9046   36.7931  -61.6407 H         1 ASN         0.1814
@<TRIPOS>BOND
     1    1    2 1  
     2    2    3 1  
     3    2    5 1  
     4    3    4 2  
     5    3   10 am 
     6    5    6 1  
     7    6    7 1  
     8    7    8 2  
     9    7    9 am 
    10   10   11 1  
    11   11   12 1  
    12   11   14 1  
    13   12   13 2  
    14   12   18 am 
    15   14   15 1  
    16   15   16 1  
    17   15   17 1  
    18   18   19 1  
    19   19   20 1  
    20   19   22 1  
    21   20   21 2  
    22   20   26 am 
    23   22   23 1  
    24   22   24 1  
    25   23   25 1  
    26   26   27 1  
    27   27   28 1  
    28   27   30 1  
    29   28   29 2  
    30   28   34 am 
    31   30   31 1  
    32   31   32 2  
    33   31   33 am 
    34   34   35 1  
    35   35   36 1  
    36   35   38 1  
    37   36   37 2  
    38   36   41 am 
    39   38   39 1  
    40   38   40 1  
    41   41   42 1  
    42   42   43 1  
    43   42   45 1  
    44   43   44 2  
    45   43   49 am 
    46   45   46 1  
    47   46   47 2  
    48   46   48 am 
    49   49   50 1  
    50   50   51 1  
    51   51   52 2  
    52   51   53 am 
    53   53   54 1  
    54   54   55 1  
    55   54   57 1  
    56   55   56 2  
    57   55   59 am 
    58   57   58 1  
    59   59   60 1  
    60   60   61 1  
    61   60   63 1  
    62   61   62 2  
    63   61   73 am 
    64   63   64 1  
    65   64   65 2  
    66   64   66 1  
    67   65   67 1  
    68   66   68 ar 
    69   66   69 ar 
    70   67   68 1  
    71   68   70 ar 
    72   69   71 ar 
    73   70   72 ar 
    74   71   72 ar 
    75   73   74 1  
    76   74   75 1  
    77   74   77 1  
    78   75   76 2  
    79   75   83 am 
    80   77   78 1  
    81   78   79 1  
    82   78   80 2  
    83   79   81 1  
    84   80   82 1  
    85   81   82 2  
    86   83   84 1  
    87   84   85 1  
    88   84   87 1  
    89   85   86 2  
    90   85   90 am 
    91   87   88 1  
    92   87   89 1  
    93   90   91 1  
    94   91   92 1  
    95   91   94 1  
    96   92   93 ar 
    97   94   95 1  
    98   95   96 2  
    99   95   97 am 
   100    1   98 1  
   101    1   99 1  
   102    1  100 1  
   103    2  101 1  
   104    5  102 1  
   105    5  103 1  
   106    6  104 1  
   107    6  105 1  
   108    9  106 1  
   109    9  107 1  
   110   10  108 1  
   111   11  109 1  
   112   14  110 1  
   113   14  111 1  
   114   15  112 1  
   115   16  113 1  
   116   16  114 1  
   117   16  115 1  
   118   17  116 1  
   119   17  117 1  
   120   17  118 1  
   121   18  119 1  
   122   19  120 1  
   123   22  121 1  
   124   23  122 1  
   125   23  123 1  
   126   24  124 1  
   127   24  125 1  
   128   24  126 1  
   129   25  127 1  
   130   25  128 1  
   131   25  129 1  
   132   26  130 1  
   133   27  131 1  
   134   30  132 1  
   135   30  133 1  
   136   33  134 1  
   137   33  135 1  
   138   34  136 1  
   139   35  137 1  
   140   38  138 1  
   141   39  139 1  
   142   40  140 1  
   143   40  141 1  
   144   40  142 1  
   145   41  143 1  
   146   42  144 1  
   147   45  145 1  
   148   45  146 1  
   149   48  147 1  
   150   48  148 1  
   151   49  149 1  
   152   50  150 1  
   153   50  151 1  
   154   53  152 1  
   155   54  153 1  
   156   57  154 1  
   157   57  155 1  
   158   58  156 1  
   159   59  157 1  
   160   60  158 1  
   161   63  159 1  
   162   63  160 1  
   163   65  161 1  
   164   67  162 1  
   165   69  163 1  
   166   70  164 1  
   167   71  165 1  
   168   72  166 1  
   169   73  167 1  
   170   74  168 1  
   171   77  169 1  
   172   77  170 1  
   173   79  171 1  
   174   80  172 1  
   175   81  173 1  
   176   83  174 1  
   177   84  175 1  
   178   87  176 1  
   179   88  177 1  
   180   88  178 1  
   181   88  179 1  
   182   89  180 1  
   183   89  181 1  
   184   89  182 1  
   185   90  183 1  
   186   91  184 1  
   187   92  185 ar 
   188   94  186 1  
   189   94  187 1  
   190   97  188 1  
   191   97  189 1  
@<TRIPOS>SUBSTRUCTURE
     1 GLN         1

