6gin_ligand
  -I-interpret- 

 56 61  0  0  0  0  0  0  0  0999 V2000
  -68.0320  197.4380  140.8320 C   0  0  0  0  0
  -66.6880  197.4770  140.1180 C   0  0  0  0  0
  -67.2580  199.6860  139.4860 C   0  0  0  0  0
  -68.4170  199.7760  140.4580 C   0  0  0  0  0
  -68.3810  198.9300  142.7290 C   0  0  0  0  0
  -68.6850  200.2040  143.2120 C   0  0  0  0  0
  -68.5400  200.4980  144.5600 C   0  0  0  0  0
  -68.1040  199.5160  145.4350 C   0  0  0  0  0
  -67.7360  198.2620  144.9490 C   0  0  0  0  0
  -67.8970  197.9590  143.6030 C   0  0  0  0  0
  -67.4300  201.1890  146.9770 C   0  0  0  0  0
  -67.1630  200.8390  149.3760 C   0  0  0  0  0
  -66.8140  201.3970  150.6470 C   0  0  0  0  0
  -66.8870  200.5740  151.7600 C   0  0  0  0  0
  -67.3080  199.2380  151.6260 C   0  0  0  0  0
  -67.6330  198.7290  150.3600 C   0  0  0  0  0
  -67.5700  199.5450  149.2140 C   0  0  0  0  0
  -67.9360  198.9960  147.8600 C   0  0  0  0  0
  -67.3520  198.4170  152.7640 C   0  0  0  0  0
  -68.0290  198.8760  153.8830 C   0  0  0  0  0
  -68.0920  198.0970  155.0570 C   0  0  0  0  0
  -66.7520  196.4000  153.9790 C   0  0  0  0  0
  -66.0950  195.1240  154.0610 C   0  0  0  0  0
  -65.3870  194.5900  152.9810 C   0  0  0  0  0
  -65.2680  195.3200  151.7970 C   0  0  0  0  0
  -65.9050  196.5760  151.7460 C   0  0  0  0  0
  -66.6710  197.1290  152.8280 C   0  0  0  0  0
  -68.5350  198.6660  141.3220 N   0  0  0  0  0
  -67.8640  199.8650  146.7820 N   0  3  0  0  0
  -67.0900  201.7070  148.2570 N   0  0  0  0  0
  -67.4670  196.9020  155.0670 N   0  0  0  0  0
  -66.2300  198.7870  139.8830 O   0  0  0  0  0
  -68.2890  197.8400  147.6720 O   0  0  0  0  0
  -67.8854  196.8059  141.7078 H   0  0  0  0  0
  -68.7533  197.0960  140.0898 H   0  0  0  0  0
  -66.8105  196.9889  139.1511 H   0  0  0  0  0
  -65.9579  196.9786  140.7556 H   0  0  0  0  0
  -66.8111  200.6784  139.4268 H   0  0  0  0  0
  -67.6591  199.3179  138.5417 H   0  0  0  0  0
  -69.3308  199.8210  139.8656 H   0  0  0  0  0
  -68.2457  200.6528  141.0824 H   0  0  0  0  0
  -69.0387  200.9730  142.5253 H   0  0  0  0  0
  -68.7682  201.4978  144.9295 H   0  0  0  0  0
  -67.3206  197.5170  145.6276 H   0  0  0  0  0
  -67.6456  196.9654  143.2320 H   0  0  0  0  0
  -67.3510  201.8454  146.1104 H   0  0  0  0  0
  -66.5005  202.4371  150.7370 H   0  0  0  0  0
  -66.6175  200.9629  152.7420 H   0  0  0  0  0
  -67.9386  197.6873  150.2619 H   0  0  0  0  0
  -68.5181  199.8497  153.8553 H   0  0  0  0  0
  -68.6324  198.4520  155.9345 H   0  0  0  0  0
  -66.1506  194.5577  154.9907 H   0  0  0  0  0
  -64.9282  193.6047  153.0629 H   0  0  0  0  0
  -64.7054  194.9343  150.9468 H   0  0  0  0  0
  -65.8109  197.1622  150.8319 H   0  0  0  0  0
  -66.8008  202.6789  148.3675 H   0  0  0  0  0
  1  2  1  0  0  0
 28  1  1  0  0  0
  2 32  1  0  0  0
  4  3  1  0  0  0
  3 32  1  0  0  0
 28  4  1  0  0  0
  6  5  4  0  0  0
 10  5  4  0  0  0
  5 28  1  0  0  0
  7  6  4  0  0  0
  8  7  4  0  0  0
  8  9  4  0  0  0
 29  8  1  0  0  0
  9 10  4  0  0  0
 29 11  2  0  0  0
 30 11  1  0  0  0
 13 12  4  0  0  0
 17 12  4  0  0  0
 12 30  1  0  0  0
 14 13  4  0  0  0
 15 14  4  0  0  0
 15 16  4  0  0  0
 19 15  1  0  0  0
 16 17  4  0  0  0
 17 18  1  0  0  0
 18 29  1  0  0  0
 18 33  2  0  0  0
 19 20  4  0  0  0
 27 19  4  0  0  0
 20 21  4  0  0  0
 21 31  4  0  0  0
 22 23  4  0  0  0
 22 27  4  0  0  0
 22 31  4  0  0  0
 23 24  4  0  0  0
 24 25  4  0  0  0
 25 26  4  0  0  0
 26 27  4  0  0  0
  1 34  1  0  0  0
  1 35  1  0  0  0
  2 36  1  0  0  0
  2 37  1  0  0  0
  3 38  1  0  0  0
  3 39  1  0  0  0
  4 40  1  0  0  0
  4 41  1  0  0  0
  6 42  1  0  0  0
  7 43  1  0  0  0
  9 44  1  0  0  0
 10 45  1  0  0  0
 11 46  1  0  0  0
 13 47  1  0  0  0
 14 48  1  0  0  0
 16 49  1  0  0  0
 20 50  1  0  0  0
 21 51  1  0  0  0
 23 52  1  0  0  0
 24 53  1  0  0  0
 25 54  1  0  0  0
 26 55  1  0  0  0
 30 56  1  0  0  0
M  END
$$$$
