6ajg_ligand
  -I-interpret- 

 64 66  0  0  0  0  0  0  0  0999 V2000
  106.2340   24.9300   34.6280 C   0  0  0  0  0
  104.8870   23.8040   36.5340 C   0  0  0  0  0
  100.9330   20.4680   35.0520 C   0  0  0  0  0
  104.1530   23.7120   34.1700 C   0  0  0  0  0
  102.1110   19.9670   32.9380 C   0  0  0  0  0
  102.9370   22.8970   34.5450 C   0  0  0  0  0
  100.9470   19.1230   32.4860 C   0  0  0  0  0
  101.6140   17.0910   33.5790 C   0  0  0  0  0
  100.8990   15.7500   33.5320 C   0  0  0  0  0
  103.3040   21.4180   34.5140 C   0  0  0  0  0
  101.1020   11.5410   29.7600 C   0  0  0  0  0
  100.6720   13.9840   29.5820 C   0  0  0  0  0
   98.9170   12.4790   30.4830 C   0  0  0  0  0
  102.2800   13.1210   31.2750 C   0  0  0  0  0
  100.5270   11.6180   32.1770 C   0  0  0  0  0
  101.4060   17.7430   32.2770 N   0  3  0  0  0
  100.6860   15.4080   32.1170 N   0  3  0  0  0
  105.0510   24.1260   35.0770 C   0  0  0  0  0
  102.1060   20.5890   34.1240 C   0  0  0  0  0
  101.7360   12.9260   29.8620 C   0  0  0  0  0
   99.9670   11.4100   30.7720 C   0  0  0  0  0
   99.5440   13.8630   30.6010 C   0  0  0  0  0
  101.1440   13.0070   32.2870 C   0  0  0  0  0
  100.0880   14.0670   32.0080 C   0  0  0  0  0
  106.8185   24.3474   33.9159 H   0  0  0  0  0
  105.8885   25.8476   34.1519 H   0  0  0  0  0
  106.8522   25.1775   35.4910 H   0  0  0  0  0
  103.9495   24.2269   36.8950 H   0  0  0  0  0
  104.8739   22.7222   36.6665 H   0  0  0  0  0
  105.7189   24.2300   37.0948 H   0  0  0  0  0
  100.0399   20.8516   34.5586 H   0  0  0  0  0
  100.7840   19.4201   35.3125 H   0  0  0  0  0
  101.1260   21.0447   35.9566 H   0  0  0  0  0
  104.3065   23.9735   33.1230 H   0  0  0  0  0
  102.9769   20.0736   32.2845 H   0  0  0  0  0
  102.1311   23.0912   33.8373 H   0  0  0  0  0
  102.6033   23.1726   35.5454 H   0  0  0  0  0
  100.5457   19.5210   31.5540 H   0  0  0  0  0
  100.1660   19.1384   33.2462 H   0  0  0  0  0
  102.6777   16.9515   33.7720 H   0  0  0  0  0
  101.2171   17.7088   34.3846 H   0  0  0  0  0
   99.9452   15.8094   34.0563 H   0  0  0  0  0
  101.4980   14.9826   34.0224 H   0  0  0  0  0
  103.6394   21.1139   35.5055 H   0  0  0  0  0
  104.0969   21.2635   33.7822 H   0  0  0  0  0
  101.8581   10.7844   29.9696 H   0  0  0  0  0
  100.7038   11.4023   28.7549 H   0  0  0  0  0
  100.2702   13.8352   28.5797 H   0  0  0  0  0
  101.1202   14.9748   29.6560 H   0  0  0  0  0
   98.1034   12.3892   31.2028 H   0  0  0  0  0
   98.5322   12.3425   29.4724 H   0  0  0  0  0
  102.7341   14.1088   31.3530 H   0  0  0  0  0
  103.0259   12.3539   31.4829 H   0  0  0  0  0
  101.2922   10.8673   32.3745 H   0  0  0  0  0
   99.7203   11.5236   32.9039 H   0  0  0  0  0
  102.2841   17.7523   31.7580 H   0  0  0  0  0
  100.7024   17.2278   31.7480 H   0  0  0  0  0
  101.5827   15.4162   31.6310 H   0  0  0  0  0
  100.0559   16.0917   31.6975 H   0  0  0  0  0
  102.5460   13.0185   29.1385 H   0  0  0  0  0
   99.5143   10.4211   30.6993 H   0  0  0  0  0
   98.7909   14.6262   30.4048 H   0  0  0  0  0
  101.5321   13.1608   33.2939 H   0  0  0  0  0
   99.2797   13.9795   32.7340 H   0  0  0  0  0
 18  1  1  0  0  0
 18  2  1  0  0  0
 19  3  1  0  0  0
  6  4  1  0  0  0
  4 18  2  0  0  0
  7  5  1  0  0  0
  5 19  2  0  0  0
 10  6  1  0  0  0
 16  7  1  0  0  0
  9  8  1  0  0  0
  8 16  1  0  0  0
 17  9  1  0  0  0
 19 10  1  0  0  0
 20 11  1  0  0  0
 21 11  1  0  0  0
 12 20  1  0  0  0
 22 12  1  0  0  0
 13 21  1  0  0  0
 22 13  1  0  0  0
 20 14  1  0  0  0
 14 23  1  0  0  0
 21 15  1  0  0  0
 15 23  1  0  0  0
 24 17  1  0  0  0
 22 24  1  0  0  0
 23 24  1  0  0  0
  1 25  1  0  0  0
  1 26  1  0  0  0
  1 27  1  0  0  0
  2 28  1  0  0  0
  2 29  1  0  0  0
  2 30  1  0  0  0
  3 31  1  0  0  0
  3 32  1  0  0  0
  3 33  1  0  0  0
  4 34  1  0  0  0
  5 35  1  0  0  0
  6 36  1  0  0  0
  6 37  1  0  0  0
  7 38  1  0  0  0
  7 39  1  0  0  0
  8 40  1  0  0  0
  8 41  1  0  0  0
  9 42  1  0  0  0
  9 43  1  0  0  0
 10 44  1  0  0  0
 10 45  1  0  0  0
 11 46  1  0  0  0
 11 47  1  0  0  0
 12 48  1  0  0  0
 12 49  1  0  0  0
 13 50  1  0  0  0
 13 51  1  0  0  0
 14 52  1  0  0  0
 14 53  1  0  0  0
 15 54  1  0  0  0
 15 55  1  0  0  0
 16 56  1  0  0  0
 16 57  1  0  0  0
 17 58  1  0  0  0
 17 59  1  0  0  0
 20 60  1  0  0  0
 21 61  1  0  0  0
 22 62  1  0  0  0
 23 63  1  0  0  0
 24 64  1  0  0  0
M  END
$$$$
