2b5j_ligand
  -I-interpret- 

 39 40  0  0  0  0  0  0  0  0999 V2000
  143.9380  -26.8740   74.2660 O   0  0  0  0  0
  142.9420  -26.9140   73.2820 C   0  0  0  0  0
  143.1970  -26.3650   72.0000 C   0  0  0  0  0
  144.9900  -25.5300   71.5430 I   0  0  0  0  0
  142.2060  -26.4060   71.0180 C   0  0  0  0  0
  142.4540  -25.8640   69.7600 O   0  0  0  0  0
  141.0010  -26.9680   71.2860 N   0  0  0  0  0
  140.6990  -27.5170   72.5000 C   0  0  0  0  0
  139.3210  -28.1240   72.6840 C   0  0  0  0  0
  141.6590  -27.5070   73.5590 C   0  0  0  0  0
  141.3260  -28.1240   74.9490 C   0  0  0  0  0
  142.1940  -29.3710   75.2500 C   0  0  0  0  0
  143.9300  -25.9070   75.3140 C   0  0  0  0  0
  142.9310  -24.8830   75.4700 C   0  0  0  0  0
  143.0000  -23.9680   76.5600 C   0  0  0  0  0
  144.0660  -24.0720   77.5080 C   0  0  0  0  0
  145.0610  -25.0890   77.3550 C   0  0  0  0  0
  144.9820  -25.9880   76.2660 C   0  0  0  0  0
  146.2160  -25.2190   78.3500 C   0  0  0  0  0
  145.8820  -26.1070   79.5040 C   0  0  0  0  0
  147.1000  -25.7440   81.7860 N   0  0  0  0  0
  146.5620  -25.9040   80.7650 C   0  0  0  0  0
  141.6769  -25.9729   69.2070 H   0  0  0  0  0
  138.5632  -27.3573   72.5226 H   0  0  0  0  0
  139.1820  -28.9312   71.9648 H   0  0  0  0  0
  139.2312  -28.5181   73.6963 H   0  0  0  0  0
  140.2794  -28.4286   74.9460 H   0  0  0  0  0
  141.5286  -27.3738   75.7134 H   0  0  0  0  0
  142.0153  -30.1292   74.4875 H   0  0  0  0  0
  143.2469  -29.0892   75.2442 H   0  0  0  0  0
  141.9285  -29.7691   76.2293 H   0  0  0  0  0
  142.1164  -24.8069   74.7498 H   0  0  0  0  0
  142.2431  -23.1915   76.6710 H   0  0  0  0  0
  144.1204  -23.3773   78.3462 H   0  0  0  0  0
  145.7441  -26.7593   76.1546 H   0  0  0  0  0
  146.4341  -24.2259   78.7428 H   0  0  0  0  0
  147.0644  -25.6568   77.8241 H   0  0  0  0  0
  146.1766  -27.1064   79.1838 H   0  0  0  0  0
  144.8315  -25.9084   79.7163 H   0  0  0  0  0
  1  2  1  0  0  0
  1 13  1  0  0  0
  2  3  4  0  0  0
  2 10  4  0  0  0
  3  4  1  0  0  0
  3  5  4  0  0  0
  5  6  1  0  0  0
  5  7  4  0  0  0
  7  8  4  0  0  0
  8  9  1  0  0  0
  8 10  4  0  0  0
 10 11  1  0  0  0
 11 12  1  0  0  0
 13 14  4  0  0  0
 13 18  4  0  0  0
 14 15  4  0  0  0
 15 16  4  0  0  0
 16 17  4  0  0  0
 17 18  4  0  0  0
 17 19  1  0  0  0
 19 20  1  0  0  0
 20 22  1  0  0  0
 22 21  3  0  0  0
  6 23  1  0  0  0
  9 24  1  0  0  0
  9 25  1  0  0  0
  9 26  1  0  0  0
 11 27  1  0  0  0
 11 28  1  0  0  0
 12 29  1  0  0  0
 12 30  1  0  0  0
 12 31  1  0  0  0
 14 32  1  0  0  0
 15 33  1  0  0  0
 16 34  1  0  0  0
 18 35  1  0  0  0
 19 36  1  0  0  0
 19 37  1  0  0  0
 20 38  1  0  0  0
 20 39  1  0  0  0
M  END
$$$$
