3pka_ligand
  -I-interpret- 

 67 67  0  0  0  0  0  0  0  0999 V2000
  -39.0750  -18.3020    3.0920 N   0  0  0  0  0
  -43.5630  -12.7910    2.4480 O   0  0  0  0  0
  -41.8820  -16.4960    1.8670 O   0  0  0  0  0
  -41.4110  -13.9150    1.4100 O   0  0  0  0  0
  -40.0680  -17.4710    4.9850 O   0  0  0  0  0
  -39.3350  -14.9680    3.9930 O   0  0  0  0  0
  -39.8790  -21.7280    3.9970 O   0  0  0  0  0
  -44.6040  -15.2820    6.4780 C   0  0  0  0  0
  -44.3210  -15.0860    4.9900 C   0  0  0  0  0
  -43.6080  -14.1090    4.4770 C   0  0  0  0  0
  -43.2240  -14.0920    3.0360 C   0  0  0  0  0
  -41.7400  -14.2610    2.7640 C   0  0  0  0  0
  -41.3860  -15.7230    3.0080 C   0  0  0  0  0
  -39.8790  -16.0130    3.1530 C   0  0  0  0  0
  -46.1230  -15.3620    6.6690 C   0  0  0  0  0
  -43.9700  -16.6250    6.8650 C   0  0  0  0  0
  -44.0910  -14.1760    7.3870 C   0  0  0  0  0
  -39.6900  -17.3190    3.7900 C   0  0  0  0  0
  -38.8800  -19.6570    3.6050 C   0  0  0  0  0
  -40.0860  -20.5370    3.2650 C   0  0  0  0  0
  -37.9320  -14.8470    3.9070 C   0  0  0  0  0
  -40.7820  -22.7880    3.6420 C   0  0  0  0  0
  -42.0280  -22.8220    4.1890 C   0  0  0  0  0
  -42.8470  -23.8510    3.8600 C   0  0  0  0  0
  -42.4720  -24.8330    3.0000 C   0  0  0  0  0
  -41.2250  -24.7930    2.4350 C   0  0  0  0  0
  -40.3310  -23.7530    2.7430 C   0  0  0  0  0
  -42.4610  -21.7450    5.1730 C   0  0  0  0  0
  -43.3880  -25.9940    2.6550 C   0  0  0  0  0
  -38.9080  -23.6480    2.1840 C   0  0  0  0  0
  -38.7288  -18.0857    2.1573 H   0  0  0  0  0
  -43.3139  -12.7854    1.5209 H   0  0  0  0  0
  -41.6718  -17.4239    1.9949 H   0  0  0  0  0
  -40.4684  -14.0323    1.2709 H   0  0  0  0  0
  -44.7443  -15.8147    4.2986 H   0  0  0  0  0
  -43.2889  -13.2897    5.1212 H   0  0  0  0  0
  -43.7647  -14.9366    2.6088 H   0  0  0  0  0
  -41.1773  -13.5991    3.4223 H   0  0  0  0  0
  -41.8435  -15.9969    3.9586 H   0  0  0  0  0
  -39.3815  -16.0331    2.1834 H   0  0  0  0  0
  -46.5812  -14.4373    6.3181 H   0  0  0  0  0
  -46.5159  -16.2032    6.0979 H   0  0  0  0  0
  -46.3481  -15.5022    7.7263 H   0  0  0  0  0
  -44.4199  -17.4218    6.2727 H   0  0  0  0  0
  -42.8978  -16.5882    6.6720 H   0  0  0  0  0
  -44.1435  -16.8155    7.9241 H   0  0  0  0  0
  -43.0088  -14.0960    7.2846 H   0  0  0  0  0
  -44.5548  -13.2309    7.1045 H   0  0  0  0  0
  -44.3430  -14.4111    8.4211 H   0  0  0  0  0
  -38.7675  -19.6131    4.6883 H   0  0  0  0  0
  -37.9886  -20.0848    3.1462 H   0  0  0  0  0
  -41.0277  -20.0559    3.5291 H   0  0  0  0  0
  -40.1625  -20.7260    2.1942 H   0  0  0  0  0
  -37.4683  -15.7851    4.2121 H   0  0  0  0  0
  -37.6506  -14.6186    2.8790 H   0  0  0  0  0
  -37.5969  -14.0441    4.5637 H   0  0  0  0  0
  -43.8426  -23.8917    4.3017 H   0  0  0  0  0
  -40.9227  -25.5758    1.7393 H   0  0  0  0  0
  -41.7952  -21.7542    6.0360 H   0  0  0  0  0
  -42.4143  -20.7705    4.6869 H   0  0  0  0  0
  -43.4825  -21.9415    5.4985 H   0  0  0  0  0
  -43.6318  -26.5451    3.5633 H   0  0  0  0  0
  -44.3035  -25.6112    2.2040 H   0  0  0  0  0
  -42.8839  -26.6561    1.9510 H   0  0  0  0  0
  -38.7981  -22.7050    1.6484 H   0  0  0  0  0
  -38.1926  -23.6863    3.0055 H   0  0  0  0  0
  -38.7248  -24.4782    1.5019 H   0  0  0  0  0
  1 18  1  0  0  0
 19  1  1  0  0  0
 11  2  1  0  0  0
 13  3  1  0  0  0
 12  4  1  0  0  0
 18  5  2  0  0  0
 14  6  1  0  0  0
  6 21  1  0  0  0
 20  7  1  0  0  0
  7 22  1  0  0  0
  9  8  1  0  0  0
  8 15  1  0  0  0
  8 16  1  0  0  0
  8 17  1  0  0  0
 10  9  2  0  0  0
 11 10  1  0  0  0
 12 11  1  0  0  0
 13 12  1  0  0  0
 14 13  1  0  0  0
 18 14  1  0  0  0
 19 20  1  0  0  0
 22 23  4  0  0  0
 22 27  4  0  0  0
 23 24  4  0  0  0
 23 28  1  0  0  0
 24 25  4  0  0  0
 25 26  4  0  0  0
 25 29  1  0  0  0
 26 27  4  0  0  0
 27 30  1  0  0  0
  1 31  1  0  0  0
  2 32  1  0  0  0
  3 33  1  0  0  0
  4 34  1  0  0  0
  9 35  1  0  0  0
 10 36  1  0  0  0
 11 37  1  0  0  0
 12 38  1  0  0  0
 13 39  1  0  0  0
 14 40  1  0  0  0
 15 41  1  0  0  0
 15 42  1  0  0  0
 15 43  1  0  0  0
 16 44  1  0  0  0
 16 45  1  0  0  0
 16 46  1  0  0  0
 17 47  1  0  0  0
 17 48  1  0  0  0
 17 49  1  0  0  0
 19 50  1  0  0  0
 19 51  1  0  0  0
 20 52  1  0  0  0
 20 53  1  0  0  0
 21 54  1  0  0  0
 21 55  1  0  0  0
 21 56  1  0  0  0
 24 57  1  0  0  0
 26 58  1  0  0  0
 28 59  1  0  0  0
 28 60  1  0  0  0
 28 61  1  0  0  0
 29 62  1  0  0  0
 29 63  1  0  0  0
 29 64  1  0  0  0
 30 65  1  0  0  0
 30 66  1  0  0  0
 30 67  1  0  0  0
M  END
$$$$
