2v0z_ligand
  -I-interpret- 

 93 93  0  0  0  0  0  0  0  0999 V2000
   15.0150   42.2060   70.2320 C   0  0  0  0  0
   15.4670   43.5420   70.3270 O   0  0  0  0  0
   14.5690   44.3930   69.5720 C   0  0  0  0  0
   14.2460   45.6780   70.3420 C   0  0  0  0  0
   13.7670   45.3640   71.7650 C   0  0  0  0  0
   13.5730   46.5520   72.5430 O   0  0  0  0  0
   12.4480   47.3610   72.3100 C   0  0  0  0  0
   11.3440   46.9530   71.6000 C   0  0  0  0  0
   10.2990   47.8670   71.4030 C   0  0  0  0  0
   10.3860   49.1860   71.9330 C   0  0  0  0  0
   11.4920   49.5980   72.6540 C   0  0  0  0  0
   12.5320   48.6720   72.8450 C   0  0  0  0  0
   13.7160   48.9420   73.5900 O   0  0  0  0  0
   13.9310   50.2470   74.1580 C   0  0  0  0  0
    9.0560   47.4570   70.6110 C   0  0  0  0  0
    9.3830   46.9610   69.1900 C   0  0  0  0  0
   10.2440   48.0040   68.4170 C   0  0  0  0  0
   10.7340   47.4340   67.0790 C   0  0  0  0  0
    9.4810   49.3390   68.2340 C   0  0  0  0  0
    8.0620   46.6810   68.4600 C   0  0  0  0  0
    7.2830   45.4640   68.9730 C   0  0  0  0  0
    8.1090   44.2510   68.7700 N   0  3  0  0  0
    5.9490   45.3180   68.2140 C   0  0  0  0  0
    6.2230   44.8010   66.9080 O   0  0  0  0  0
    4.9930   44.3330   68.9230 C   0  0  0  0  0
    3.6730   44.0650   68.1510 C   0  0  0  0  0
    2.6600   43.2060   68.9760 C   0  0  0  0  0
    1.3860   42.9090   68.1490 C   0  0  0  0  0
    3.2960   41.8970   69.4400 C   0  0  0  0  0
    3.0420   45.3990   67.7650 C   0  0  0  0  0
    2.7040   46.2240   68.6280 O   0  0  0  0  0
    2.9320   45.6220   66.4630 N   0  0  0  0  0
    2.4060   46.8560   65.8820 C   0  0  0  0  0
    1.1490   46.6710   65.0450 C   0  0  0  0  0
    1.3890   45.6960   63.8770 C   0  0  0  0  0
    0.7810   48.0300   64.4790 C   0  0  0  0  0
    0.1120   46.2500   65.9150 C   0  0  0  0  0
   -0.3810   45.1300   65.7570 O   0  0  0  0  0
   -0.2300   47.0350   66.9330 N   0  0  0  0  0
   14.0069   42.1350   70.6403 H   0  0  0  0  0
   15.0071   41.9000   69.1859 H   0  0  0  0  0
   15.6838   41.5565   70.7968 H   0  0  0  0  0
   13.6405   43.8499   69.3959 H   0  0  0  0  0
   15.0519   44.6621   68.6326 H   0  0  0  0  0
   13.4526   46.2093   69.8164 H   0  0  0  0  0
   15.1500   46.2838   70.4042 H   0  0  0  0  0
   14.5294   44.7578   72.2544 H   0  0  0  0  0
   12.8118   44.8436   71.6951 H   0  0  0  0  0
   11.2822   45.9413   71.1990 H   0  0  0  0  0
    9.5654   49.8840   71.7673 H   0  0  0  0  0
   11.5550   50.6073   73.0606 H   0  0  0  0  0
   13.9468   50.9906   73.3612 H   0  0  0  0  0
   13.1245   50.4761   74.8545 H   0  0  0  0  0
   14.8840   50.2591   74.6869 H   0  0  0  0  0
    8.4179   48.3357   70.5169 H   0  0  0  0  0
    8.5771   46.6372   71.1464 H   0  0  0  0  0
    9.9716   46.0453   69.2456 H   0  0  0  0  0
   11.1272   48.2215   69.0176 H   0  0  0  0  0
   11.3415   46.5480   67.2636 H   0  0  0  0  0
    9.8753   47.1655   66.4636 H   0  0  0  0  0
   11.3320   48.1850   66.5628 H   0  0  0  0  0
    8.5655   49.1585   67.6706 H   0  0  0  0  0
    9.2320   49.7507   69.2121 H   0  0  0  0  0
   10.1103   50.0442   67.6910 H   0  0  0  0  0
    8.3147   46.4769   67.4195 H   0  0  0  0  0
    7.4250   47.5514   68.6174 H   0  0  0  0  0
    7.0628   45.5956   70.0324 H   0  0  0  0  0
    7.6002   43.4342   69.1081 H   0  0  0  0  0
    8.3101   44.1405   67.7761 H   0  0  0  0  0
    8.9834   44.3462   69.2865 H   0  0  0  0  0
    5.4742   46.2983   68.1721 H   0  0  0  0  0
    5.3996   44.7050   66.4238 H   0  0  0  0  0
    4.7222   44.7787   69.8801 H   0  0  0  0  0
    5.5161   43.3805   69.0081 H   0  0  0  0  0
    3.9174   43.4893   67.2583 H   0  0  0  0  0
    2.3803   43.7855   69.8558 H   0  0  0  0  0
    0.9065   43.8481   67.8728 H   0  0  0  0  0
    1.6592   42.3602   67.2477 H   0  0  0  0  0
    0.6982   42.3102   68.7461 H   0  0  0  0  0
    3.6145   41.3212   68.5710 H   0  0  0  0  0
    4.1593   42.1166   70.0682 H   0  0  0  0  0
    2.5665   41.3224   70.0107 H   0  0  0  0  0
    3.2338   44.8852   65.8255 H   0  0  0  0  0
    3.1761   47.2511   65.2194 H   0  0  0  0  0
    2.1443   47.5135   66.7110 H   0  0  0  0  0
    2.1780   46.0875   63.2349 H   0  0  0  0  0
    1.6882   44.7250   64.2716 H   0  0  0  0  0
    0.4700   45.5880   63.3009 H   0  0  0  0  0
    0.5976   48.7256   65.2979 H   0  0  0  0  0
    1.6008   48.3998   63.8632 H   0  0  0  0  0
   -0.1188   47.9373   63.8708 H   0  0  0  0  0
   -0.9199   46.7164   67.6134 H   0  0  0  0  0
    0.1977   47.9556   67.0332 H   0  0  0  0  0
  1  2  1  0  0  0
  2  3  1  0  0  0
  3  4  1  0  0  0
  4  5  1  0  0  0
  5  6  1  0  0  0
  6  7  1  0  0  0
  7  8  4  0  0  0
  7 12  4  0  0  0
  8  9  4  0  0  0
  9 10  4  0  0  0
  9 15  1  0  0  0
 10 11  4  0  0  0
 11 12  4  0  0  0
 12 13  1  0  0  0
 13 14  1  0  0  0
 15 16  1  0  0  0
 16 17  1  0  0  0
 16 20  1  0  0  0
 17 18  1  0  0  0
 17 19  1  0  0  0
 20 21  1  0  0  0
 21 22  1  0  0  0
 21 23  1  0  0  0
 23 24  1  0  0  0
 23 25  1  0  0  0
 25 26  1  0  0  0
 26 27  1  0  0  0
 26 30  1  0  0  0
 27 28  1  0  0  0
 27 29  1  0  0  0
 30 31  2  0  0  0
 30 32  1  0  0  0
 32 33  1  0  0  0
 33 34  1  0  0  0
 34 35  1  0  0  0
 34 36  1  0  0  0
 34 37  1  0  0  0
 37 38  2  0  0  0
 37 39  1  0  0  0
  1 40  1  0  0  0
  1 41  1  0  0  0
  1 42  1  0  0  0
  3 43  1  0  0  0
  3 44  1  0  0  0
  4 45  1  0  0  0
  4 46  1  0  0  0
  5 47  1  0  0  0
  5 48  1  0  0  0
  8 49  1  0  0  0
 10 50  1  0  0  0
 11 51  1  0  0  0
 14 52  1  0  0  0
 14 53  1  0  0  0
 14 54  1  0  0  0
 15 55  1  0  0  0
 15 56  1  0  0  0
 16 57  1  0  0  0
 17 58  1  0  0  0
 18 59  1  0  0  0
 18 60  1  0  0  0
 18 61  1  0  0  0
 19 62  1  0  0  0
 19 63  1  0  0  0
 19 64  1  0  0  0
 20 65  1  0  0  0
 20 66  1  0  0  0
 21 67  1  0  0  0
 22 68  1  0  0  0
 22 69  1  0  0  0
 22 70  1  0  0  0
 23 71  1  0  0  0
 24 72  1  0  0  0
 25 73  1  0  0  0
 25 74  1  0  0  0
 26 75  1  0  0  0
 27 76  1  0  0  0
 28 77  1  0  0  0
 28 78  1  0  0  0
 28 79  1  0  0  0
 29 80  1  0  0  0
 29 81  1  0  0  0
 29 82  1  0  0  0
 32 83  1  0  0  0
 33 84  1  0  0  0
 33 85  1  0  0  0
 35 86  1  0  0  0
 35 87  1  0  0  0
 35 88  1  0  0  0
 36 89  1  0  0  0
 36 90  1  0  0  0
 36 91  1  0  0  0
 39 92  1  0  0  0
 39 93  1  0  0  0
M  END
$$$$
