5vp0_ligand
  -I-interpret- 

 50 52  0  0  0  0  0  0  0  0999 V2000
   26.9630    5.3670   25.6190 N   0  0  0  0  0
   25.3650    3.8930   26.6650 N   0  0  0  0  0
   28.1310    5.8860   28.0410 C   0  0  0  0  0
   28.0080    6.1980   25.7060 C   0  0  0  0  0
   24.4010    4.3870   22.1970 C   0  0  0  0  0
   27.0510    5.0350   27.9460 C   0  0  0  0  0
   23.5090    6.3590   20.4840 C   0  0  0  0  0
   24.2510    6.6910   21.5910 C   0  0  0  0  0
   24.6950    3.5600   25.4950 C   0  0  0  0  0
   30.5890    7.2090   27.9540 C   0  0  0  0  0
   25.9470    2.4670   22.4070 C   0  0  0  0  0
   23.6560    4.0620   21.0760 C   0  0  0  0  0
   23.2100    5.0400   20.2150 C   0  0  0  0  0
   24.6930    5.7130   22.4570 C   0  0  0  0  0
   28.6290    6.4890   26.8990 C   0  0  0  0  0
   26.4690    4.7820   26.7220 C   0  0  0  0  0
   25.4040    3.7500   29.2270 C   0  0  0  0  0
   24.7020    3.5690   27.9170 C   0  0  0  0  0
   28.1080    2.5260   21.5390 C   0  0  0  0  0
   24.8600    3.2790   23.0820 C   0  0  0  0  0
   21.8570    7.9280   19.9450 C   0  0  0  0  0
   26.5880    4.4320   29.1180 N   0  0  0  0  0
   25.3790    3.7510   24.3280 N   0  0  0  0  0
   24.9410    3.3170   30.2770 O   0  0  0  0  0
   23.5580    3.1210   25.4810 O   0  0  0  0  0
   29.7000    7.3750   26.8550 O   0  0  0  0  0
   23.1000    7.3440   19.6070 O   0  0  0  0  0
   27.0610    3.3030   22.1130 O   0  0  0  0  0
   24.5480    7.9740   21.8300 F   0  0  0  0  0
   21.7810    8.3880   21.2140 F   0  0  0  0  0
   20.8900    7.0130   19.7250 F   0  0  0  0  0
   21.7230    9.0150   19.1480 F   0  0  0  0  0
   28.5902    6.0830   29.0097 H   0  0  0  0  0
   28.3828    6.6636   24.7945 H   0  0  0  0  0
   30.0491    7.3796   28.8854 H   0  0  0  0  0
   30.9900    6.1955   27.9454 H   0  0  0  0  0
   31.4063    7.9252   27.8699 H   0  0  0  0  0
   25.5586    2.0449   21.4801 H   0  0  0  0  0
   26.2642    1.6649   23.0735 H   0  0  0  0  0
   23.4193    3.0177   20.8722 H   0  0  0  0  0
   22.6281    4.7748   19.3323 H   0  0  0  0  0
   25.2694    5.9840   23.3416 H   0  0  0  0  0
   24.5283    2.4947   27.8551 H   0  0  0  0  0
   23.8674    4.2685   27.9642 H   0  0  0  0  0
   28.4128    1.7523   22.2437 H   0  0  0  0  0
   27.7519    2.0617   20.6194 H   0  0  0  0  0
   28.9576    3.1715   21.3163 H   0  0  0  0  0
   23.9793    2.6659   23.2734 H   0  0  0  0  0
   27.1720    4.5043   29.9511 H   0  0  0  0  0
   26.2748    4.2384   24.3458 H   0  0  0  0  0
  1  4  4  0  0  0
 16  1  4  0  0  0
  9  2  1  0  0  0
  2 16  1  0  0  0
  2 18  1  0  0  0
  6  3  4  0  0  0
  3 15  4  0  0  0
  4 15  4  0  0  0
  5 12  4  0  0  0
  5 14  4  0  0  0
 20  5  1  0  0  0
 16  6  4  0  0  0
  6 22  1  0  0  0
  8  7  4  0  0  0
 13  7  4  0  0  0
  7 27  1  0  0  0
 14  8  4  0  0  0
  8 29  1  0  0  0
 23  9  1  0  0  0
  9 25  2  0  0  0
 26 10  1  0  0  0
 20 11  1  0  0  0
 11 28  1  0  0  0
 12 13  4  0  0  0
 15 26  1  0  0  0
 18 17  1  0  0  0
 17 22  1  0  0  0
 17 24  2  0  0  0
 28 19  1  0  0  0
 20 23  1  0  0  0
 27 21  1  0  0  0
 21 30  1  0  0  0
 21 31  1  0  0  0
 21 32  1  0  0  0
  3 33  1  0  0  0
  4 34  1  0  0  0
 10 35  1  0  0  0
 10 36  1  0  0  0
 10 37  1  0  0  0
 11 38  1  0  0  0
 11 39  1  0  0  0
 12 40  1  0  0  0
 13 41  1  0  0  0
 14 42  1  0  0  0
 18 43  1  0  0  0
 18 44  1  0  0  0
 19 45  1  0  0  0
 19 46  1  0  0  0
 19 47  1  0  0  0
 20 48  1  0  0  0
 22 49  1  0  0  0
 23 50  1  0  0  0
M  END
$$$$
