5d47_ligand
  -I-interpret- 

 55 59  0  0  0  0  0  0  0  0999 V2000
    6.5610    5.8800   14.3270 O   0  0  0  0  0
    6.6970    5.8990   15.5130 C   0  0  0  0  0
    6.0880    4.8870   16.0920 O   0  0  0  0  0
    7.4820    6.9880   16.2690 C   0  0  0  0  0
    6.7240    8.3060   16.4860 C   0  0  0  0  0
    5.5630    7.9490   17.3160 N   0  0  0  0  0
    4.2690    7.7320   16.8280 C   0  0  0  0  0
    3.7990    7.9560   15.4140 C   0  0  0  0  0
    4.0770    9.2280   14.8930 C   0  0  0  0  0
    3.7170    9.5420   13.5770 C   0  0  0  0  0
    3.0250    8.5460   12.8200 C   0  0  0  0  0
    2.7350    7.2250   13.3260 C   0  0  0  0  0
    3.1430    6.9450   14.6190 C   0  0  0  0  0
    3.3830    7.3040   17.9230 C   0  0  0  0  0
    4.3030    7.2250   19.1020 C   0  0  0  0  0
    4.0480    6.8750   20.4400 C   0  0  0  0  0
    5.1430    6.9690   21.3100 C   0  0  0  0  0
    4.9960    6.5460   22.7170 C   0  0  0  0  0
    5.3580    7.7570   23.5350 C   0  0  0  0  0
    3.9020    7.2220   23.5310 C   0  0  0  0  0
    6.4440    7.3580   20.8760 C   0  0  0  0  0
    6.7390    7.7020   19.5540 C   0  0  0  0  0
    5.6760    7.6460   18.6320 C   0  0  0  0  0
    1.9330    6.9540   17.8540 C   0  0  0  0  0
    0.9230    7.7910   17.3410 C   0  0  0  0  0
   -0.4230    7.3190   17.2980 C   0  0  0  0  0
   -0.6860    6.0890   17.8000 N   0  0  0  0  0
    0.2140    5.2260   18.3360 C   0  0  0  0  0
    1.5730    5.6110   18.3750 C   0  0  0  0  0
    2.5730    4.8030   18.9020 O   0  0  0  0  0
    2.0640    3.7620   19.7280 C   0  0  0  0  0
    6.2197    4.9366   17.0416 H   0  0  0  0  0
    8.3550    7.2247   15.6608 H   0  0  0  0  0
    7.7023    6.5863   17.2581 H   0  0  0  0  0
    6.4203    8.7563   15.5410 H   0  0  0  0  0
    7.3499    9.0556   16.9701 H   0  0  0  0  0
    4.5742    9.9734   15.5137 H   0  0  0  0  0
    3.9563   10.5133   13.1441 H   0  0  0  0  0
    2.7000    8.7964   11.8102 H   0  0  0  0  0
    2.2186    6.4824   12.7178 H   0  0  0  0  0
    2.9678    5.9548   15.0396 H   0  0  0  0  0
    3.0635    6.5518   20.7783 H   0  0  0  0  0
    5.2563    5.4911   22.6309 H   0  0  0  0  0
    5.8842    8.7034   23.4102 H   0  0  0  0  0
    6.1170    8.0633   24.2548 H   0  0  0  0  0
    3.1133    6.9611   24.2367 H   0  0  0  0  0
    2.8841    7.5911   23.4055 H   0  0  0  0  0
    7.2481    7.3886   21.6113 H   0  0  0  0  0
    7.7430    7.9992   19.2512 H   0  0  0  0  0
    1.1673    8.7901   16.9802 H   0  0  0  0  0
   -1.2178    7.9318   16.8727 H   0  0  0  0  0
   -0.1038    4.2594   18.7269 H   0  0  0  0  0
    1.5137    4.1978   20.5619 H   0  0  0  0  0
    1.3976    3.1285   19.1427 H   0  0  0  0  0
    2.8923    3.1652   20.1099 H   0  0  0  0  0
  1  2  2  0  0  0
  2  3  1  0  0  0
  2  4  1  0  0  0
  4  5  1  0  0  0
  5  6  1  0  0  0
  6  7  4  0  0  0
  6 23  4  0  0  0
  7  8  1  0  0  0
  7 14  4  0  0  0
  8  9  4  0  0  0
  8 13  4  0  0  0
  9 10  4  0  0  0
 10 11  4  0  0  0
 11 12  4  0  0  0
 12 13  4  0  0  0
 14 15  4  0  0  0
 14 24  1  0  0  0
 15 16  4  0  0  0
 15 23  4  0  0  0
 16 17  4  0  0  0
 17 18  1  0  0  0
 17 21  4  0  0  0
 18 19  1  0  0  0
 18 20  1  0  0  0
 19 20  1  0  0  0
 21 22  4  0  0  0
 22 23  4  0  0  0
 24 25  4  0  0  0
 24 29  4  0  0  0
 25 26  4  0  0  0
 26 27  4  0  0  0
 27 28  4  0  0  0
 28 29  4  0  0  0
 29 30  1  0  0  0
 30 31  1  0  0  0
  3 32  1  0  0  0
  4 33  1  0  0  0
  4 34  1  0  0  0
  5 35  1  0  0  0
  5 36  1  0  0  0
  9 37  1  0  0  0
 10 38  1  0  0  0
 11 39  1  0  0  0
 12 40  1  0  0  0
 13 41  1  0  0  0
 16 42  1  0  0  0
 18 43  1  0  0  0
 19 44  1  0  0  0
 19 45  1  0  0  0
 20 46  1  0  0  0
 20 47  1  0  0  0
 21 48  1  0  0  0
 22 49  1  0  0  0
 25 50  1  0  0  0
 26 51  1  0  0  0
 28 52  1  0  0  0
 31 53  1  0  0  0
 31 54  1  0  0  0
 31 55  1  0  0  0
M  END
$$$$
