3ejs_ligand
  -I-interpret- 

 56 58  0  0  0  0  0  0  0  0999 V2000
   31.7270   68.3070    5.5800 O   0  0  0  0  0
   31.3450   67.1010    6.2580 C   0  0  0  0  0
   31.6100   67.2370    7.7550 C   0  0  0  0  0
   31.0420   66.0860    8.4860 N   0  3  0  0  0
   31.5260   66.2780    9.8770 C   0  0  0  0  0
   32.9780   66.8100    9.6640 C   0  0  0  0  0
   33.8820   65.7420    9.8920 O   0  0  0  0  0
   33.0670   67.2960    8.2000 C   0  0  0  0  0
   33.9480   66.5200    7.3370 O   0  0  0  0  0
   29.8470   66.8210    5.9950 C   0  0  0  0  0
   29.2860   65.6580    6.8280 C   0  0  0  0  0
   29.5610   65.9080    8.3120 C   0  0  0  0  0
   28.6910   67.0580    8.8870 C   0  0  0  0  0
   28.3100   66.9230   10.3790 C   0  0  0  0  0
   27.3150   67.9850   10.8550 C   0  0  0  0  0
   27.7100   68.8050   11.9080 C   0  0  0  0  0
   26.8310   69.7870   12.4160 C   0  0  0  0  0
   25.5610   69.9880   11.8470 C   0  0  0  0  0
   24.6220   71.0490   12.4040 C   0  0  0  0  0
   24.0110   71.8660   11.2700 C   0  0  0  0  0
   25.3140   71.9660   13.3990 C   0  0  0  0  0
   23.5070   70.3000   13.1220 C   0  0  0  0  0
   25.0740   69.1100   10.7100 C   0  0  0  0  0
   26.0560   68.1010   10.2600 C   0  0  0  0  0
   32.6568   68.4830    5.7418 H   0  0  0  0  0
   31.9352   66.2660    5.8805 H   0  0  0  0  0
   31.1491   68.1988    7.9799 H   0  0  0  0  0
   31.3553   65.1886    8.1159 H   0  0  0  0  0
   31.4905   65.3640   10.4698 H   0  0  0  0  0
   30.9028   66.9614   10.4538 H   0  0  0  0  0
   33.2237   67.6255   10.3442 H   0  0  0  0  0
   33.8120   65.4545   10.8052 H   0  0  0  0  0
   33.5226   68.2837    8.1294 H   0  0  0  0  0
   33.9389   66.8941    6.4529 H   0  0  0  0  0
   29.7435   66.5513    4.9440 H   0  0  0  0  0
   29.2926   67.7184    6.2698 H   0  0  0  0  0
   29.7676   64.7291    6.5225 H   0  0  0  0  0
   28.2105   65.5838    6.6671 H   0  0  0  0  0
   29.2572   65.0485    8.9095 H   0  0  0  0  0
   27.7563   67.0499    8.3263 H   0  0  0  0  0
   29.2835   67.9687    8.7994 H   0  0  0  0  0
   29.2228   67.0451   10.9621 H   0  0  0  0  0
   27.8369   65.9497   10.5091 H   0  0  0  0  0
   28.7027   68.6888   12.3428 H   0  0  0  0  0
   27.1422   70.3988   13.2627 H   0  0  0  0  0
   24.8060   72.3548   10.7068 H   0  0  0  0  0
   23.4494   71.2053   10.6095 H   0  0  0  0  0
   23.3425   72.6197   11.6862 H   0  0  0  0  0
   25.6908   71.3755   14.2341 H   0  0  0  0  0
   26.1441   72.4732   12.9073 H   0  0  0  0  0
   24.6017   72.7046   13.7667 H   0  0  0  0  0
   22.9903   69.6533   12.4129 H   0  0  0  0  0
   23.9338   69.6958   13.9225 H   0  0  0  0  0
   22.8018   71.0168   13.5426 H   0  0  0  0  0
   24.0852   69.2141   10.2633 H   0  0  0  0  0
   25.7912   67.4300    9.4428 H   0  0  0  0  0
  1  2  1  0  0  0
  2  3  1  0  0  0
  2 10  1  0  0  0
  3  4  1  0  0  0
  3  8  1  0  0  0
  4  5  1  0  0  0
  4 12  1  0  0  0
  5  6  1  0  0  0
  6  7  1  0  0  0
  6  8  1  0  0  0
  8  9  1  0  0  0
 10 11  1  0  0  0
 11 12  1  0  0  0
 12 13  1  0  0  0
 13 14  1  0  0  0
 14 15  1  0  0  0
 15 16  4  0  0  0
 15 24  4  0  0  0
 16 17  4  0  0  0
 17 18  4  0  0  0
 18 19  1  0  0  0
 18 23  4  0  0  0
 19 20  1  0  0  0
 19 21  1  0  0  0
 19 22  1  0  0  0
 23 24  4  0  0  0
  1 25  1  0  0  0
  2 26  1  0  0  0
  3 27  1  0  0  0
  4 28  1  0  0  0
  5 29  1  0  0  0
  5 30  1  0  0  0
  6 31  1  0  0  0
  7 32  1  0  0  0
  8 33  1  0  0  0
  9 34  1  0  0  0
 10 35  1  0  0  0
 10 36  1  0  0  0
 11 37  1  0  0  0
 11 38  1  0  0  0
 12 39  1  0  0  0
 13 40  1  0  0  0
 13 41  1  0  0  0
 14 42  1  0  0  0
 14 43  1  0  0  0
 16 44  1  0  0  0
 17 45  1  0  0  0
 20 46  1  0  0  0
 20 47  1  0  0  0
 20 48  1  0  0  0
 21 49  1  0  0  0
 21 50  1  0  0  0
 21 51  1  0  0  0
 22 52  1  0  0  0
 22 53  1  0  0  0
 22 54  1  0  0  0
 23 55  1  0  0  0
 24 56  1  0  0  0
M  END
$$$$
