4mul_ligand
  -I-interpret- 

 49 52  0  0  0  0  0  0  0  0999 V2000
   19.8300   10.6140   -0.9910 O   0  0  0  0  0
   18.6650   11.1260   -1.0250 C   0  0  0  0  0
   18.3440   12.2850   -0.7580 O   0  0  0  0  0
   17.6120   10.1980   -1.4820 C   0  0  0  0  0
   16.1470   10.4550   -1.3650 N   0  0  0  0  0
   15.3570   10.3510   -2.4500 C   0  0  0  0  0
   15.6770   10.1110   -3.7670 C   0  0  0  0  0
   14.6610   10.0320   -4.7290 C   0  0  0  0  0
   13.3330   10.2140   -4.3430 C   0  0  0  0  0
   12.4370   10.0710   -5.3770 O   0  0  0  0  0
   11.0740    9.6930   -4.9910 C   0  0  0  0  0
   13.0660   10.4950   -2.9680 C   0  0  0  0  0
   14.0800   10.5490   -2.0440 C   0  0  0  0  0
   14.1220   10.7660   -0.6760 C   0  0  0  0  0
   15.4220   10.7110   -0.2590 C   0  0  0  0  0
   15.9780   10.8790    0.9990 C   0  0  0  0  0
   17.1280   10.5230    1.2980 O   0  0  0  0  0
   15.2700   11.5890    1.8670 N   0  0  0  0  0
   15.7590   11.9630    3.4140 S   0  0  0  0  0
   15.1380   13.2640    3.7810 O   0  0  0  0  0
   17.2220   12.3080    3.6280 O   0  0  0  0  0
   15.2780   10.8530    4.4050 C   0  0  0  0  0
   16.2060   10.2050    5.2170 C   0  0  0  0  0
   15.7180    9.2610    6.1350 C   0  0  0  0  0
   16.6260    8.5820    6.9660 C   0  0  0  0  0
   16.1090    7.6580    7.8520 C   0  0  0  0  0
   14.7290    7.3840    7.9320 C   0  0  0  0  0
   13.8310    8.0390    7.1110 C   0  0  0  0  0
   14.3350    8.9870    6.2170 C   0  0  0  0  0
   13.4480    9.6280    5.3630 C   0  0  0  0  0
   13.9340   10.5770    4.4550 C   0  0  0  0  0
   19.7802    9.6907   -1.2491 H   0  0  0  0  0
   17.7536    9.3394   -0.8256 H   0  0  0  0  0
   17.7631   10.1835   -2.5614 H   0  0  0  0  0
   16.7187    9.9826   -4.0612 H   0  0  0  0  0
   14.9068    9.8298   -5.7715 H   0  0  0  0  0
   11.0973    8.7348   -4.4719 H   0  0  0  0  0
   10.6601   10.4553   -4.3310 H   0  0  0  0  0
   10.4549    9.6088   -5.8842 H   0  0  0  0  0
   12.0391   10.6696   -2.6468 H   0  0  0  0  0
   13.2586   10.9505   -0.0368 H   0  0  0  0  0
   14.3581   11.9314    1.5644 H   0  0  0  0  0
   17.2715   10.4226    5.1426 H   0  0  0  0  0
   17.6970    8.7775    6.9129 H   0  0  0  0  0
   16.7913    7.1223    8.5120 H   0  0  0  0  0
   14.3661    6.6476    8.6491 H   0  0  0  0  0
   12.7637    7.8230    7.1593 H   0  0  0  0  0
   12.3838    9.3950    5.3988 H   0  0  0  0  0
   13.2456   11.0963    3.7883 H   0  0  0  0  0
  1  2  1  0  0  0
  2  3  2  0  0  0
  2  4  1  0  0  0
  4  5  1  0  0  0
  5  6  4  0  0  0
  5 15  4  0  0  0
  6  7  4  0  0  0
  6 13  4  0  0  0
  7  8  4  0  0  0
  8  9  4  0  0  0
  9 10  1  0  0  0
  9 12  4  0  0  0
 10 11  1  0  0  0
 12 13  4  0  0  0
 13 14  4  0  0  0
 14 15  4  0  0  0
 15 16  1  0  0  0
 16 17  2  0  0  0
 16 18  1  0  0  0
 18 19  1  0  0  0
 19 20  2  0  0  0
 19 21  2  0  0  0
 19 22  1  0  0  0
 22 23  4  0  0  0
 22 31  4  0  0  0
 23 24  4  0  0  0
 24 25  4  0  0  0
 24 29  4  0  0  0
 25 26  4  0  0  0
 26 27  4  0  0  0
 27 28  4  0  0  0
 28 29  4  0  0  0
 29 30  4  0  0  0
 30 31  4  0  0  0
  1 32  1  0  0  0
  4 33  1  0  0  0
  4 34  1  0  0  0
  7 35  1  0  0  0
  8 36  1  0  0  0
 11 37  1  0  0  0
 11 38  1  0  0  0
 11 39  1  0  0  0
 12 40  1  0  0  0
 14 41  1  0  0  0
 18 42  1  0  0  0
 23 43  1  0  0  0
 25 44  1  0  0  0
 26 45  1  0  0  0
 27 46  1  0  0  0
 28 47  1  0  0  0
 30 48  1  0  0  0
 31 49  1  0  0  0
M  END
$$$$
