### 
### Created by X-TOOL on Mon Sep 10 21:13:08 2018
### 

@<TRIPOS>MOLECULE
3arg_ligand
  137   137     1     0     0
SMALL
GAST_HUCK


@<TRIPOS>ATOM
      1 C1         -9.8350  -43.4600  -62.9790 C.3       1 DB6         0.0762
      2 C2        -10.1220  -44.5460  -64.0240 C.3       1 DB6         0.0936
      3 N2        -11.5820  -44.6560  -64.0760 N.am      1 DB6        -0.2791
      4 C3         -9.5060  -45.8990  -63.6410 C.3       1 DB6         0.1059
      5 O3         -8.0790  -45.7880  -63.7390 O.3       1 DB6        -0.3869
      6 C4         -9.9620  -47.0820  -64.4970 C.3       1 DB6         0.0833
      7 O4         -9.4180  -48.2800  -63.9250 O.3       1 DB6        -0.3892
      8 C5         -9.5330  -46.9640  -65.9610 C.3       1 DB6        -0.0243
      9 C6         -9.6030  -48.2990  -66.6930 C.3       1 DB6        -0.0506
     10 C7        -10.8850  -48.4190  -67.5030 C.3       1 DB6        -0.0530
     11 C8        -11.1140  -49.8670  -67.9010 C.3       1 DB6        -0.0531
     12 C9        -10.9770  -50.0590  -69.4050 C.3       1 DB6        -0.0531
     13 C10       -11.1550  -51.5270  -69.7700 C.3       1 DB6        -0.0531
     14 C11        -9.8510  -52.1250  -70.2790 C.3       1 DB6        -0.0531
     15 C12       -10.0030  -53.6240  -70.4920 C.3       1 DB6        -0.0531
     16 C13        -8.8720  -54.3800  -69.8120 C.3       1 DB6        -0.0531
     17 C14        -8.9210  -55.8600  -70.1720 C.3       1 DB6        -0.0531
     18 C15        -7.8050  -56.2320  -71.1450 C.3       1 DB6        -0.0531
     19 C16        -6.6390  -56.8910  -70.4130 C.3       1 DB6        -0.0533
     20 C17        -5.3040  -56.5280  -71.0510 C.3       1 DB6        -0.0559
     21 C18        -4.5450  -55.5420  -70.1940 C.3       1 DB6        -0.0653
     22 C1A       -10.4520  -43.5980  -60.5580 C.3       1 DB6         0.1880
     23 O1A        -9.5930  -43.9840  -61.6680 O.3       1 DB6        -0.3463
     24 C2A       -10.8010  -44.5430  -59.4540 C.3       1 DB6         0.1341
     25 O2A       -10.1960  -45.8220  -59.6680 O.3       1 DB6        -0.3841
     26 C3A       -12.3200  -44.6930  -59.4190 C.3       1 DB6         0.1141
     27 O3A       -12.6990  -45.0530  -58.0860 O.3       1 DB6        -0.3864
     28 C4A       -13.1360  -43.4520  -59.8170 C.3       1 DB6         0.1119
     29 O4A       -14.2890  -43.9080  -60.5370 O.3       1 DB6        -0.3865
     30 O5A       -14.0730  -40.7470  -61.4120 O.3       1 DB6        -0.3924
     31 C5M       -12.4560  -42.3670  -60.6760 C.3       1 DB6         0.1130
     32 C6A       -13.0800  -41.0000  -60.4100 C.3       1 DB6         0.0730
     33 O6A       -11.0420  -42.2790  -60.4860 O.3       1 DB6        -0.3405
     34 CAA       -12.3050  -43.9960  -64.9880 C.2       1 DB6         0.1764
     35 OAA       -11.8100  -43.2600  -65.8330 O.2       1 DB6        -0.3971
     36 CAB       -13.8050  -44.1960  -64.9230 C.3       1 DB6         0.0372
     37 CAC       -14.4700  -43.9850  -66.2840 C.3       1 DB6        -0.0361
     38 CAD       -14.3300  -45.2160  -67.1840 C.3       1 DB6        -0.0510
     39 CAE       -15.2150  -45.1040  -68.4230 C.3       1 DB6        -0.0529
     40 CAF       -14.6750  -45.9170  -69.5980 C.3       1 DB6        -0.0530
     41 CAG       -14.6440  -45.0660  -70.8690 C.3       1 DB6        -0.0529
     42 CAH       -14.6980  -45.9040  -72.1450 C.3       1 DB6        -0.0515
     43 CAI       -15.1780  -45.0600  -73.3250 C.3       1 DB6        -0.0463
     44 CAJ       -14.3780  -45.3450  -74.5940 C.3       1 DB6        -0.0360
     45 CAK       -14.6540  -44.2720  -75.6240 C.2       1 DB6        -0.0967
     46 CAL       -13.8580  -43.2070  -75.7200 C.2       1 DB6        -0.0910
     47 CAM       -14.1440  -42.1340  -76.7450 C.3       1 DB6        -0.0204
     48 CAN       -14.8480  -40.9720  -76.0800 C.2       1 DB6        -0.0910
     49 CAO       -16.0450  -40.5740  -76.5080 C.2       1 DB6        -0.0967
     50 CAP       -16.7470  -39.4120  -75.8370 C.3       1 DB6        -0.0360
     51 CAQ       -18.1560  -39.2090  -76.3970 C.3       1 DB6        -0.0463
     52 CAR       -19.1670  -40.1240  -75.7100 C.3       1 DB6        -0.0517
     53 CAS       -20.4450  -39.3870  -75.3250 C.3       1 DB6        -0.0558
     54 CAT       -21.2300  -40.1540  -74.2790 C.3       1 DB6        -0.0653
     55 H         -10.7148  -42.8192  -62.9201 H         1 DB6         0.0585
     56 H          -8.9355  -42.9305  -63.2931 H         1 DB6         0.0585
     57 H          -9.6835  -44.2790  -64.9855 H         1 DB6         0.0605
     58 H         -12.0597  -45.2512  -63.3993 H         1 DB6         0.1856
     59 H          -9.8470  -46.1130  -62.6281 H         1 DB6         0.0643
     60 H          -7.6769  -46.6270  -63.5024 H         1 DB6         0.2100
     61 H         -11.0519  -47.0995  -64.4987 H         1 DB6         0.0620
     62 H          -8.4596  -48.2242  -63.9198 H         1 DB6         0.2099
     63 H          -8.4992  -46.6193  -65.9840 H         1 DB6         0.0291
     64 H         -10.2111  -46.2699  -66.4574 H         1 DB6         0.0291
     65 H          -9.5827  -49.1008  -65.9549 H         1 DB6         0.0266
     66 H          -8.7547  -48.3660  -67.3742 H         1 DB6         0.0266
     67 H         -10.7996  -47.8090  -68.4023 H         1 DB6         0.0265
     68 H         -11.7247  -48.0760  -66.8985 H         1 DB6         0.0265
     69 H         -12.1244  -50.1509  -67.6068 H         1 DB6         0.0265
     70 H         -10.3660  -50.4847  -67.4040 H         1 DB6         0.0265
     71 H          -9.9844  -49.7332  -69.7160 H         1 DB6         0.0265
     72 H         -11.7441  -49.4717  -69.9097 H         1 DB6         0.0265
     73 H         -11.9051  -51.6030  -70.5572 H         1 DB6         0.0265
     74 H         -11.4660  -52.0733  -68.8796 H         1 DB6         0.0265
     75 H          -9.0677  -51.9486  -69.5418 H         1 DB6         0.0265
     76 H          -9.5917  -51.6559  -71.2281 H         1 DB6         0.0265
     77 H          -9.9741  -53.8330  -71.5614 H         1 DB6         0.0265
     78 H         -10.9514  -53.9469  -70.0625 H         1 DB6         0.0265
     79 H          -8.9779  -54.2762  -68.7321 H         1 DB6         0.0265
     80 H          -7.9205  -53.9670  -70.1470 H         1 DB6         0.0265
     81 H          -9.8794  -56.0698  -70.6469 H         1 DB6         0.0265
     82 H          -8.7945  -56.4431  -69.2598 H         1 DB6         0.0265
     83 H          -7.4458  -55.3239  -71.6292 H         1 DB6         0.0265
     84 H          -8.2001  -56.9351  -71.8783 H         1 DB6         0.0265
     85 H          -6.7646  -57.9725  -70.4657 H         1 DB6         0.0265
     86 H          -6.6358  -56.5399  -69.3811 H         1 DB6         0.0265
     87 H          -5.4932  -56.0732  -72.0234 H         1 DB6         0.0263
     88 H          -4.7073  -57.4344  -71.1534 H         1 DB6         0.0263
     89 H          -5.1360  -54.6336  -70.0774 H         1 DB6         0.0230
     90 H          -4.3570  -55.9828  -69.2150 H         1 DB6         0.0230
     91 H          -3.5963  -55.3007  -70.6735 H         1 DB6         0.0230
     92 H          -9.5080  -43.8603  -61.0357 H         1 DB6         0.0937
     93 H         -10.4306  -44.1495  -58.5074 H         1 DB6         0.0671
     94 H         -10.5085  -46.1876  -60.4989 H         1 DB6         0.2101
     95 H         -12.5507  -45.4490  -60.1696 H         1 DB6         0.0648
     96 H         -13.6528  -45.1527  -58.0416 H         1 DB6         0.2100
     97 H         -13.3345  -42.9527  -58.8687 H         1 DB6         0.0647
     98 H         -14.8089  -44.4857  -59.9735 H         1 DB6         0.2100
     99 H         -14.4731  -39.8886  -61.2549 H         1 DB6         0.2095
    100 H         -12.6226  -42.6704  -61.7096 H         1 DB6         0.0647
    101 H         -13.5392  -40.9880  -59.4215 H         1 DB6         0.0584
    102 H         -12.3113  -40.2280  -60.4464 H         1 DB6         0.0584
    103 H         -14.2165  -43.4664  -64.2256 H         1 DB6         0.0502
    104 H         -13.9990  -45.2200  -64.6037 H         1 DB6         0.0502
    105 H         -13.9820  -43.1439  -66.7765 H         1 DB6         0.0290
    106 H         -15.5316  -43.7995  -66.1209 H         1 DB6         0.0290
    107 H         -14.6369  -46.0954  -66.6178 H         1 DB6         0.0267
    108 H         -13.2916  -45.2928  -67.5062 H         1 DB6         0.0267
    109 H         -15.2454  -44.0565  -68.7227 H         1 DB6         0.0265
    110 H         -16.2017  -45.4914  -68.1694 H         1 DB6         0.0265
    111 H         -15.3253  -46.7761  -69.7628 H         1 DB6         0.0265
    112 H         -13.6615  -46.2443  -69.3661 H         1 DB6         0.0265
    113 H         -13.7068  -44.5095  -70.8749 H         1 DB6         0.0265
    114 H         -15.5206  -44.4182  -70.8581 H         1 DB6         0.0265
    115 H         -15.3942  -46.7293  -71.9956 H         1 DB6         0.0267
    116 H         -13.6980  -46.2787  -72.3633 H         1 DB6         0.0267
    117 H         -15.0471  -44.0088  -73.0681 H         1 DB6         0.0285
    118 H         -16.2223  -45.3057  -73.5177 H         1 DB6         0.0285
    119 H         -14.6718  -46.3148  -74.9956 H         1 DB6         0.0390
    120 H         -13.3143  -45.3518  -74.3561 H         1 DB6         0.0390
    121 H         -15.5095  -44.3703  -76.2922 H         1 DB6         0.0458
    122 H         -12.9982  -43.1098  -75.0571 H         1 DB6         0.0463
    123 H         -14.7812  -42.5428  -77.5292 H         1 DB6         0.0511
    124 H         -13.2058  -41.7886  -77.1793 H         1 DB6         0.0511
    125 H         -14.3727  -40.4570  -75.2451 H         1 DB6         0.0463
    126 H         -16.5208  -41.0865  -77.3441 H         1 DB6         0.0458
    127 H         -16.1687  -38.5066  -76.0209 H         1 DB6         0.0390
    128 H         -16.8266  -39.6257  -74.7711 H         1 DB6         0.0390
    129 H         -18.1426  -39.4457  -77.4609 H         1 DB6         0.0285
    130 H         -18.4516  -38.1745  -76.2226 H         1 DB6         0.0285
    131 H         -18.7103  -40.5087  -74.7981 H         1 DB6         0.0267
    132 H         -19.4318  -40.9194  -76.4067 H         1 DB6         0.0267
    133 H         -21.0653  -39.2803  -76.2149 H         1 DB6         0.0263
    134 H         -20.1740  -38.4154  -74.9119 H         1 DB6         0.0263
    135 H         -21.4997  -41.1332  -74.6746 H         1 DB6         0.0230
    136 H         -20.6180  -40.2777  -73.3856 H         1 DB6         0.0230
    137 H         -22.1348  -39.6006  -74.0274 H         1 DB6         0.0230
@<TRIPOS>BOND
     1    1    2 1  
     2   23    1 1  
     3    2    3 1  
     4    2    4 1  
     5    3   34 am 
     6    4    5 1  
     7    4    6 1  
     8    6    7 1  
     9    6    8 1  
    10    8    9 1  
    11    9   10 1  
    12   10   11 1  
    13   11   12 1  
    14   12   13 1  
    15   13   14 1  
    16   14   15 1  
    17   15   16 1  
    18   16   17 1  
    19   17   18 1  
    20   18   19 1  
    21   19   20 1  
    22   20   21 1  
    23   22   23 1  
    24   24   22 1  
    25   22   33 1  
    26   24   25 1  
    27   26   24 1  
    28   26   27 1  
    29   28   26 1  
    30   28   29 1  
    31   31   28 1  
    32   32   30 1  
    33   31   32 1  
    34   31   33 1  
    35   34   35 2  
    36   34   36 1  
    37   36   37 1  
    38   37   38 1  
    39   38   39 1  
    40   39   40 1  
    41   40   41 1  
    42   41   42 1  
    43   42   43 1  
    44   43   44 1  
    45   44   45 1  
    46   45   46 2  
    47   46   47 1  
    48   47   48 1  
    49   48   49 2  
    50   49   50 1  
    51   50   51 1  
    52   51   52 1  
    53   52   53 1  
    54   53   54 1  
    55    1   55 1  
    56    1   56 1  
    57    2   57 1  
    58    3   58 1  
    59    4   59 1  
    60    5   60 1  
    61    6   61 1  
    62    7   62 1  
    63    8   63 1  
    64    8   64 1  
    65    9   65 1  
    66    9   66 1  
    67   10   67 1  
    68   10   68 1  
    69   11   69 1  
    70   11   70 1  
    71   12   71 1  
    72   12   72 1  
    73   13   73 1  
    74   13   74 1  
    75   14   75 1  
    76   14   76 1  
    77   15   77 1  
    78   15   78 1  
    79   16   79 1  
    80   16   80 1  
    81   17   81 1  
    82   17   82 1  
    83   18   83 1  
    84   18   84 1  
    85   19   85 1  
    86   19   86 1  
    87   20   87 1  
    88   20   88 1  
    89   21   89 1  
    90   21   90 1  
    91   21   91 1  
    92   22   92 1  
    93   24   93 1  
    94   25   94 1  
    95   26   95 1  
    96   27   96 1  
    97   28   97 1  
    98   29   98 1  
    99   30   99 1  
   100   31  100 1  
   101   32  101 1  
   102   32  102 1  
   103   36  103 1  
   104   36  104 1  
   105   37  105 1  
   106   37  106 1  
   107   38  107 1  
   108   38  108 1  
   109   39  109 1  
   110   39  110 1  
   111   40  111 1  
   112   40  112 1  
   113   41  113 1  
   114   41  114 1  
   115   42  115 1  
   116   42  116 1  
   117   43  117 1  
   118   43  118 1  
   119   44  119 1  
   120   44  120 1  
   121   45  121 1  
   122   46  122 1  
   123   47  123 1  
   124   47  124 1  
   125   48  125 1  
   126   49  126 1  
   127   50  127 1  
   128   50  128 1  
   129   51  129 1  
   130   51  130 1  
   131   52  131 1  
   132   52  132 1  
   133   53  133 1  
   134   53  134 1  
   135   54  135 1  
   136   54  136 1  
   137   54  137 1  
@<TRIPOS>SUBSTRUCTURE
     1 DB6         1

