3arg_ligand
  -I-interpret- 

137137  0  0  0  0  0  0  0  0999 V2000
   -9.8350  -43.4600  -62.9790 C   0  0  0  0  0
  -10.1220  -44.5460  -64.0240 C   0  0  0  0  0
  -11.5820  -44.6560  -64.0760 N   0  0  0  0  0
   -9.5060  -45.8990  -63.6410 C   0  0  0  0  0
   -8.0790  -45.7880  -63.7390 O   0  0  0  0  0
   -9.9620  -47.0820  -64.4970 C   0  0  0  0  0
   -9.4180  -48.2800  -63.9250 O   0  0  0  0  0
   -9.5330  -46.9640  -65.9610 C   0  0  0  0  0
   -9.6030  -48.2990  -66.6930 C   0  0  0  0  0
  -10.8850  -48.4190  -67.5030 C   0  0  0  0  0
  -11.1140  -49.8670  -67.9010 C   0  0  0  0  0
  -10.9770  -50.0590  -69.4050 C   0  0  0  0  0
  -11.1550  -51.5270  -69.7700 C   0  0  0  0  0
   -9.8510  -52.1250  -70.2790 C   0  0  0  0  0
  -10.0030  -53.6240  -70.4920 C   0  0  0  0  0
   -8.8720  -54.3800  -69.8120 C   0  0  0  0  0
   -8.9210  -55.8600  -70.1720 C   0  0  0  0  0
   -7.8050  -56.2320  -71.1450 C   0  0  0  0  0
   -6.6390  -56.8910  -70.4130 C   0  0  0  0  0
   -5.3040  -56.5280  -71.0510 C   0  0  0  0  0
   -4.5450  -55.5420  -70.1940 C   0  0  0  0  0
  -10.4520  -43.5980  -60.5580 C   0  0  0  0  0
   -9.5930  -43.9840  -61.6680 O   0  0  0  0  0
  -10.8010  -44.5430  -59.4540 C   0  0  0  0  0
  -10.1960  -45.8220  -59.6680 O   0  0  0  0  0
  -12.3200  -44.6930  -59.4190 C   0  0  0  0  0
  -12.6990  -45.0530  -58.0860 O   0  0  0  0  0
  -13.1360  -43.4520  -59.8170 C   0  0  0  0  0
  -14.2890  -43.9080  -60.5370 O   0  0  0  0  0
  -14.0730  -40.7470  -61.4120 O   0  0  0  0  0
  -12.4560  -42.3670  -60.6760 C   0  0  0  0  0
  -13.0800  -41.0000  -60.4100 C   0  0  0  0  0
  -11.0420  -42.2790  -60.4860 O   0  0  0  0  0
  -12.3050  -43.9960  -64.9880 C   0  0  0  0  0
  -11.8100  -43.2600  -65.8330 O   0  0  0  0  0
  -13.8050  -44.1960  -64.9230 C   0  0  0  0  0
  -14.4700  -43.9850  -66.2840 C   0  0  0  0  0
  -14.3300  -45.2160  -67.1840 C   0  0  0  0  0
  -15.2150  -45.1040  -68.4230 C   0  0  0  0  0
  -14.6750  -45.9170  -69.5980 C   0  0  0  0  0
  -14.6440  -45.0660  -70.8690 C   0  0  0  0  0
  -14.6980  -45.9040  -72.1450 C   0  0  0  0  0
  -15.1780  -45.0600  -73.3250 C   0  0  0  0  0
  -14.3780  -45.3450  -74.5940 C   0  0  0  0  0
  -14.6540  -44.2720  -75.6240 C   0  0  0  0  0
  -13.8580  -43.2070  -75.7200 C   0  0  0  0  0
  -14.1440  -42.1340  -76.7450 C   0  0  0  0  0
  -14.8480  -40.9720  -76.0800 C   0  0  0  0  0
  -16.0450  -40.5740  -76.5080 C   0  0  0  0  0
  -16.7470  -39.4120  -75.8370 C   0  0  0  0  0
  -18.1560  -39.2090  -76.3970 C   0  0  0  0  0
  -19.1670  -40.1240  -75.7100 C   0  0  0  0  0
  -20.4450  -39.3870  -75.3250 C   0  0  0  0  0
  -21.2300  -40.1540  -74.2790 C   0  0  0  0  0
  -10.7148  -42.8192  -62.9201 H   0  0  0  0  0
   -8.9355  -42.9305  -63.2931 H   0  0  0  0  0
   -9.6835  -44.2790  -64.9855 H   0  0  0  0  0
  -12.0597  -45.2512  -63.3993 H   0  0  0  0  0
   -9.8470  -46.1130  -62.6281 H   0  0  0  0  0
   -7.7793  -45.0482  -63.2056 H   0  0  0  0  0
  -11.0519  -47.0995  -64.4987 H   0  0  0  0  0
   -9.6909  -48.3476  -63.0071 H   0  0  0  0  0
   -8.4992  -46.6193  -65.9840 H   0  0  0  0  0
  -10.2111  -46.2699  -66.4574 H   0  0  0  0  0
   -9.5827  -49.1008  -65.9549 H   0  0  0  0  0
   -8.7547  -48.3660  -67.3742 H   0  0  0  0  0
  -10.7996  -47.8090  -68.4023 H   0  0  0  0  0
  -11.7247  -48.0760  -66.8985 H   0  0  0  0  0
  -12.1244  -50.1509  -67.6068 H   0  0  0  0  0
  -10.3660  -50.4847  -67.4040 H   0  0  0  0  0
   -9.9844  -49.7332  -69.7160 H   0  0  0  0  0
  -11.7441  -49.4717  -69.9097 H   0  0  0  0  0
  -11.9051  -51.6030  -70.5572 H   0  0  0  0  0
  -11.4660  -52.0733  -68.8796 H   0  0  0  0  0
   -9.0677  -51.9486  -69.5418 H   0  0  0  0  0
   -9.5917  -51.6559  -71.2281 H   0  0  0  0  0
   -9.9741  -53.8330  -71.5614 H   0  0  0  0  0
  -10.9514  -53.9469  -70.0625 H   0  0  0  0  0
   -8.9779  -54.2762  -68.7321 H   0  0  0  0  0
   -7.9205  -53.9670  -70.1470 H   0  0  0  0  0
   -9.8794  -56.0698  -70.6469 H   0  0  0  0  0
   -8.7945  -56.4431  -69.2598 H   0  0  0  0  0
   -7.4458  -55.3239  -71.6292 H   0  0  0  0  0
   -8.2001  -56.9351  -71.8783 H   0  0  0  0  0
   -6.7646  -57.9725  -70.4657 H   0  0  0  0  0
   -6.6358  -56.5399  -69.3811 H   0  0  0  0  0
   -5.4932  -56.0732  -72.0234 H   0  0  0  0  0
   -4.7073  -57.4344  -71.1534 H   0  0  0  0  0
   -5.1360  -54.6336  -70.0774 H   0  0  0  0  0
   -4.3570  -55.9828  -69.2150 H   0  0  0  0  0
   -3.5963  -55.3007  -70.6735 H   0  0  0  0  0
   -9.5080  -43.8603  -61.0357 H   0  0  0  0  0
  -10.4306  -44.1495  -58.5074 H   0  0  0  0  0
  -10.4333  -46.4114  -58.9483 H   0  0  0  0  0
  -12.5507  -45.4490  -60.1696 H   0  0  0  0  0
  -13.6528  -45.1527  -58.0416 H   0  0  0  0  0
  -13.3345  -42.9527  -58.8687 H   0  0  0  0  0
  -14.8201  -43.1527  -60.7998 H   0  0  0  0  0
  -14.4731  -39.8886  -61.2549 H   0  0  0  0  0
  -12.6226  -42.6704  -61.7096 H   0  0  0  0  0
  -13.5392  -40.9880  -59.4215 H   0  0  0  0  0
  -12.3113  -40.2280  -60.4464 H   0  0  0  0  0
  -14.2165  -43.4664  -64.2256 H   0  0  0  0  0
  -13.9990  -45.2200  -64.6037 H   0  0  0  0  0
  -13.9820  -43.1439  -66.7765 H   0  0  0  0  0
  -15.5316  -43.7995  -66.1209 H   0  0  0  0  0
  -14.6369  -46.0954  -66.6178 H   0  0  0  0  0
  -13.2916  -45.2928  -67.5062 H   0  0  0  0  0
  -15.2454  -44.0565  -68.7227 H   0  0  0  0  0
  -16.2017  -45.4914  -68.1694 H   0  0  0  0  0
  -15.3253  -46.7761  -69.7628 H   0  0  0  0  0
  -13.6615  -46.2443  -69.3661 H   0  0  0  0  0
  -13.7068  -44.5095  -70.8749 H   0  0  0  0  0
  -15.5206  -44.4182  -70.8581 H   0  0  0  0  0
  -15.3942  -46.7293  -71.9956 H   0  0  0  0  0
  -13.6980  -46.2787  -72.3633 H   0  0  0  0  0
  -15.0471  -44.0088  -73.0681 H   0  0  0  0  0
  -16.2223  -45.3057  -73.5177 H   0  0  0  0  0
  -14.6718  -46.3148  -74.9956 H   0  0  0  0  0
  -13.3143  -45.3518  -74.3561 H   0  0  0  0  0
  -15.5095  -44.3703  -76.2922 H   0  0  0  0  0
  -12.9982  -43.1098  -75.0571 H   0  0  0  0  0
  -14.7812  -42.5428  -77.5292 H   0  0  0  0  0
  -13.2058  -41.7886  -77.1793 H   0  0  0  0  0
  -14.3727  -40.4570  -75.2451 H   0  0  0  0  0
  -16.5208  -41.0865  -77.3441 H   0  0  0  0  0
  -16.1687  -38.5066  -76.0209 H   0  0  0  0  0
  -16.8266  -39.6257  -74.7711 H   0  0  0  0  0
  -18.1426  -39.4457  -77.4609 H   0  0  0  0  0
  -18.4516  -38.1745  -76.2226 H   0  0  0  0  0
  -18.7103  -40.5087  -74.7981 H   0  0  0  0  0
  -19.4318  -40.9194  -76.4067 H   0  0  0  0  0
  -21.0653  -39.2803  -76.2149 H   0  0  0  0  0
  -20.1740  -38.4154  -74.9119 H   0  0  0  0  0
  -21.4997  -41.1332  -74.6746 H   0  0  0  0  0
  -20.6180  -40.2777  -73.3856 H   0  0  0  0  0
  -22.1348  -39.6006  -74.0274 H   0  0  0  0  0
  1  2  1  0  0  0
 23  1  1  0  0  0
  2  3  1  0  0  0
  2  4  1  0  0  0
  3 34  1  0  0  0
  4  5  1  0  0  0
  4  6  1  0  0  0
  6  7  1  0  0  0
  6  8  1  0  0  0
  8  9  1  0  0  0
  9 10  1  0  0  0
 10 11  1  0  0  0
 11 12  1  0  0  0
 12 13  1  0  0  0
 13 14  1  0  0  0
 14 15  1  0  0  0
 15 16  1  0  0  0
 16 17  1  0  0  0
 17 18  1  0  0  0
 18 19  1  0  0  0
 19 20  1  0  0  0
 20 21  1  0  0  0
 22 23  1  0  0  0
 24 22  1  0  0  0
 22 33  1  0  0  0
 24 25  1  0  0  0
 26 24  1  0  0  0
 26 27  1  0  0  0
 28 26  1  0  0  0
 28 29  1  0  0  0
 31 28  1  0  0  0
 32 30  1  0  0  0
 31 32  1  0  0  0
 31 33  1  0  0  0
 34 35  2  0  0  0
 34 36  1  0  0  0
 36 37  1  0  0  0
 37 38  1  0  0  0
 38 39  1  0  0  0
 39 40  1  0  0  0
 40 41  1  0  0  0
 41 42  1  0  0  0
 42 43  1  0  0  0
 43 44  1  0  0  0
 44 45  1  0  0  0
 45 46  2  0  0  0
 46 47  1  0  0  0
 47 48  1  0  0  0
 48 49  2  0  0  0
 49 50  1  0  0  0
 50 51  1  0  0  0
 51 52  1  0  0  0
 52 53  1  0  0  0
 53 54  1  0  0  0
  1 55  1  0  0  0
  1 56  1  0  0  0
  2 57  1  0  0  0
  3 58  1  0  0  0
  4 59  1  0  0  0
  5 60  1  0  0  0
  6 61  1  0  0  0
  7 62  1  0  0  0
  8 63  1  0  0  0
  8 64  1  0  0  0
  9 65  1  0  0  0
  9 66  1  0  0  0
 10 67  1  0  0  0
 10 68  1  0  0  0
 11 69  1  0  0  0
 11 70  1  0  0  0
 12 71  1  0  0  0
 12 72  1  0  0  0
 13 73  1  0  0  0
 13 74  1  0  0  0
 14 75  1  0  0  0
 14 76  1  0  0  0
 15 77  1  0  0  0
 15 78  1  0  0  0
 16 79  1  0  0  0
 16 80  1  0  0  0
 17 81  1  0  0  0
 17 82  1  0  0  0
 18 83  1  0  0  0
 18 84  1  0  0  0
 19 85  1  0  0  0
 19 86  1  0  0  0
 20 87  1  0  0  0
 20 88  1  0  0  0
 21 89  1  0  0  0
 21 90  1  0  0  0
 21 91  1  0  0  0
 22 92  1  0  0  0
 24 93  1  0  0  0
 25 94  1  0  0  0
 26 95  1  0  0  0
 27 96  1  0  0  0
 28 97  1  0  0  0
 29 98  1  0  0  0
 30 99  1  0  0  0
 31100  1  0  0  0
 32101  1  0  0  0
 32102  1  0  0  0
 36103  1  0  0  0
 36104  1  0  0  0
 37105  1  0  0  0
 37106  1  0  0  0
 38107  1  0  0  0
 38108  1  0  0  0
 39109  1  0  0  0
 39110  1  0  0  0
 40111  1  0  0  0
 40112  1  0  0  0
 41113  1  0  0  0
 41114  1  0  0  0
 42115  1  0  0  0
 42116  1  0  0  0
 43117  1  0  0  0
 43118  1  0  0  0
 44119  1  0  0  0
 44120  1  0  0  0
 45121  1  0  0  0
 46122  1  0  0  0
 47123  1  0  0  0
 47124  1  0  0  0
 48125  1  0  0  0
 49126  1  0  0  0
 50127  1  0  0  0
 50128  1  0  0  0
 51129  1  0  0  0
 51130  1  0  0  0
 52131  1  0  0  0
 52132  1  0  0  0
 53133  1  0  0  0
 53134  1  0  0  0
 54135  1  0  0  0
 54136  1  0  0  0
 54137  1  0  0  0
M  END
$$$$
