4p5d_ligand
  -I-interpret- 

 51 55  0  0  0  0  0  0  0  0999 V2000
   13.3030   77.0120   -5.0830 C   0  0  0  0  0
   14.1900   78.0600   -5.3350 C   0  0  0  0  0
   15.2870   78.2730   -4.4860 C   0  0  0  0  0
   16.1710   79.3190   -4.7300 C   0  0  0  0  0
   15.9570   80.1590   -5.8230 C   0  0  0  0  0
   14.8610   79.9540   -6.6640 C   0  0  0  0  0
   13.9820   78.9040   -6.4180 C   0  0  0  0  0
   12.8900   78.7000   -7.2630 C   0  0  0  0  0
   12.0140   77.6550   -7.0170 C   0  0  0  0  0
   12.2420   76.7790   -5.9430 C   0  0  0  0  0
   11.2640   75.6680   -5.6110 C   0  0  0  0  0
   11.4900   74.8880   -4.5270 N   0  0  0  0  0
   10.6380   73.9440   -4.1450 C   0  0  0  0  0
    9.4940   73.6880   -4.8140 N   0  0  0  0  0
    9.1700   74.4340   -5.9110 C   0  0  0  0  0
   10.0480   75.4590   -6.3440 C   0  0  0  0  0
    9.4820   76.0240   -7.4460 N   0  0  0  0  0
    8.3060   75.3940   -7.6880 C   0  0  0  0  0
    8.1060   74.4390   -6.7840 N   0  0  0  0  0
    7.0080   73.6060   -6.6740 C   0  0  0  0  0
    5.9820   74.0750   -7.8200 O   0  0  0  0  0
    6.4000   73.8970   -5.5030 C   0  0  0  0  0
    6.0390   72.7020   -4.6960 O   0  0  0  0  0
    5.1130   74.7230   -5.7790 C   0  0  0  0  0
    3.9880   74.1300   -5.3440 O   0  0  0  0  0
    5.0320   74.8540   -7.3250 C   0  0  0  0  0
    5.2130   76.3020   -7.7460 C   0  0  0  0  0
    5.2640   76.2970   -9.1890 O   0  0  0  0  0
    5.6900   77.6180   -9.9740 P   0  0  0  0  0
    7.0560   78.0130   -9.5710 O   0  0  0  0  0
    5.6200   77.2900  -11.4670 O   0  0  0  0  0
    4.7260   78.7280   -9.6480 O   0  0  0  0  0
   13.4452   76.3765   -4.2089 H   0  0  0  0  0
   15.4471   77.6157   -3.6314 H   0  0  0  0  0
   17.0247   79.4811   -4.0719 H   0  0  0  0  0
   16.6478   80.9785   -6.0214 H   0  0  0  0  0
   14.6943   80.6167   -7.5132 H   0  0  0  0  0
   12.7267   79.3610   -8.1142 H   0  0  0  0  0
   11.1449   77.5123   -7.6592 H   0  0  0  0  0
   10.8710   73.3541   -3.2585 H   0  0  0  0  0
    7.6244   75.6348   -8.5038 H   0  0  0  0  0
    7.2865   72.5545   -6.7446 H   0  0  0  0  0
    7.1237   74.4653   -4.9188 H   0  0  0  0  0
    5.6134   72.9831   -3.8827 H   0  0  0  0  0
    5.1782   75.6740   -5.2504 H   0  0  0  0  0
    3.2344   74.6898   -5.5447 H   0  0  0  0  0
    4.0571   74.5457   -7.7026 H   0  0  0  0  0
    6.1238   76.7243   -7.3215 H   0  0  0  0  0
    4.3936   76.9226   -7.3833 H   0  0  0  0  0
    4.7225   77.0379  -11.6964 H   0  0  0  0  0
    3.8400   78.4683   -9.9109 H   0  0  0  0  0
  1  2  4  0  0  0
  1 10  4  0  0  0
  2  3  4  0  0  0
  2  7  4  0  0  0
  3  4  4  0  0  0
  4  5  4  0  0  0
  5  6  4  0  0  0
  6  7  4  0  0  0
  7  8  4  0  0  0
  8  9  4  0  0  0
  9 10  4  0  0  0
 10 11  1  0  0  0
 11 12  4  0  0  0
 11 16  4  0  0  0
 12 13  4  0  0  0
 13 14  4  0  0  0
 14 15  4  0  0  0
 15 16  4  0  0  0
 15 19  4  0  0  0
 16 17  4  0  0  0
 17 18  4  0  0  0
 18 19  4  0  0  0
 19 20  1  0  0  0
 20 21  1  0  0  0
 20 22  1  0  0  0
 21 26  1  0  0  0
 22 23  1  0  0  0
 22 24  1  0  0  0
 24 25  1  0  0  0
 24 26  1  0  0  0
 26 27  1  0  0  0
 27 28  1  0  0  0
 28 29  1  0  0  0
 29 30  2  0  0  0
 29 31  1  0  0  0
 29 32  1  0  0  0
  1 33  1  0  0  0
  3 34  1  0  0  0
  4 35  1  0  0  0
  5 36  1  0  0  0
  6 37  1  0  0  0
  8 38  1  0  0  0
  9 39  1  0  0  0
 13 40  1  0  0  0
 18 41  1  0  0  0
 20 42  1  0  0  0
 22 43  1  0  0  0
 23 44  1  0  0  0
 24 45  1  0  0  0
 25 46  1  0  0  0
 26 47  1  0  0  0
 27 48  1  0  0  0
 27 49  1  0  0  0
 31 50  1  0  0  0
 32 51  1  0  0  0
M  END
$$$$
