4x3e_ligand
  -I-interpret- 

143143  0  0  0  0  0  0  0  0999 V2000
   14.3940  -23.7770   -8.2020 N   0  3  0  0  0
   15.7280  -23.2200   -8.3960 C   0  0  0  0  0
   15.7810  -21.7380   -8.0460 C   0  0  0  0  0
   16.8640  -21.1740   -7.9100 O   0  0  0  0  0
   16.2080  -23.4440   -9.8300 C   0  0  0  0  0
   14.6170  -21.1060   -7.9050 N   0  0  0  0  0
   14.5750  -19.6890   -7.5410 C   0  0  0  0  0
   13.2540  -19.2860   -6.8620 C   0  0  0  0  0
   12.1720  -19.5380   -7.3850 O   0  0  0  0  0
   14.8730  -18.8260   -8.7760 C   0  0  0  0  0
   14.7400  -17.3360   -8.5550 C   0  0  0  0  0
   15.6570  -16.8050   -7.4610 C   0  0  0  0  0
   16.8650  -17.0650   -7.4670 O   0  0  0  0  0
   15.0840  -16.0520   -6.5130 N   0  0  0  0  0
   13.3610  -18.6570   -5.6960 N   0  0  0  0  0
   12.2070  -18.3070   -4.8690 C   0  0  0  0  0
   11.4820  -17.0470   -5.3300 C   0  0  0  0  0
   12.1080  -16.1010   -5.8110 O   0  0  0  0  0
   12.6170  -18.1390   -3.3950 C   0  0  0  0  0
   13.7700  -17.1470   -3.1460 C   0  0  0  0  0
   13.8720  -16.7700   -1.6600 C   0  0  0  0  0
   14.7980  -15.6610   -1.4340 N   0  0  0  0  0
   15.0180  -15.0770   -0.2570 C   0  0  0  0  0
   14.3740  -15.4930    0.8280 N   0  0  0  0  0
   15.8790  -14.0610   -0.1680 N   0  0  0  0  0
   10.1600  -17.0500   -5.1740 N   0  0  0  0  0
    9.3170  -15.9170   -5.5070 C   0  0  0  0  0
    8.0350  -16.3990   -6.1330 C   0  0  0  0  0
    7.1040  -15.3100   -6.7740 C   0  0  0  0  0
    5.8560  -15.7620   -7.5040 C   0  0  0  0  0
    4.8690  -14.6830   -8.0020 C   0  0  0  0  0
    3.6080  -15.0910   -8.6470 N   0  3  0  0  0
    8.9890  -15.0830   -4.2820 C   0  0  0  0  0
    8.6260  -13.8810   -4.4200 O   0  0  0  0  0
    2.8420  -13.9240   -8.9770 C   0  0  0  0  0
    2.8030  -15.9420   -7.7340 C   0  0  0  0  0
    3.8990  -15.8670   -9.8670 C   0  0  0  0  0
    9.0880  -15.6840   -3.0940 N   0  0  0  0  0
    8.7610  -14.9850   -1.8510 C   0  0  0  0  0
    9.9220  -14.9400   -0.8560 C   0  0  0  0  0
   10.7390  -15.8600   -0.7900 O   0  0  0  0  0
    7.5360  -15.6210   -1.1890 C   0  0  0  0  0
    6.3700  -15.7590   -2.1040 C   0  0  0  0  0
    5.4460  -14.7340   -2.2240 C   0  0  0  0  0
    6.2010  -16.9060   -2.8660 C   0  0  0  0  0
    4.3710  -14.8520   -3.0720 C   0  0  0  0  0
    5.1230  -17.0270   -3.7230 C   0  0  0  0  0
    4.2070  -16.0000   -3.8250 C   0  0  0  0  0
    9.9790  -13.8750   -0.0660 N   0  0  0  0  0
   11.0040  -13.7650    0.9690 C   0  0  0  0  0
   10.3870  -13.8710    2.3630 C   0  0  0  0  0
   11.1060  -13.8980    3.3650 O   0  0  0  0  0
   11.7800  -12.4610    0.8210 C   0  0  0  0  0
    9.0550  -13.9420    2.4000 N   0  0  0  0  0
    8.2750  -13.9780    3.6350 C   0  0  0  0  0
    7.4800  -15.2630    3.7520 C   0  0  0  0  0
    7.2720  -15.9630    2.7620 O   0  0  0  0  0
    7.2760  -12.8260    3.6640 C   0  0  0  0  0
    7.8100  -11.5200    4.2110 C   0  0  0  0  0
    6.7000  -10.5150    4.4310 C   0  0  0  0  0
    5.5280  -10.7940    4.1420 O   0  0  0  0  0
    7.0550   -9.3400    4.9520 N   0  0  0  0  0
    7.0200  -15.5620    4.9660 N   0  0  0  0  0
    6.1560  -16.7180    5.2030 C   0  0  0  0  0
    4.7580  -16.4760    4.6400 C   0  0  0  0  0
    4.1770  -15.4040    4.8410 O   0  0  0  0  0
    6.0700  -17.0100    6.7040 C   0  0  0  0  0
    6.5470  -15.8880    7.4500 O   0  0  0  0  0
    4.1890  -17.3490    3.9760 O   0  0  0  0  0
   14.0961  -23.6156   -7.2399 H   0  0  0  0  0
   13.7414  -23.3241   -8.8418 H   0  0  0  0  0
   14.4149  -24.7795   -8.3890 H   0  0  0  0  0
   16.3975  -23.7457   -7.7152 H   0  0  0  0  0
   15.5662  -22.8923  -10.5170 H   0  0  0  0  0
   17.2347  -23.0912   -9.9274 H   0  0  0  0  0
   16.1641  -24.5076  -10.0645 H   0  0  0  0  0
   13.7455  -21.6151   -8.0523 H   0  0  0  0  0
   15.3501  -19.5129   -6.7952 H   0  0  0  0  0
   14.1424  -19.0996   -9.5372 H   0  0  0  0  0
   15.9110  -19.0139   -9.0506 H   0  0  0  0  0
   13.7128  -17.1389   -8.2483 H   0  0  0  0  0
   15.0151  -16.8391   -9.4854 H   0  0  0  0  0
   15.6494  -15.6675   -5.7561 H   0  0  0  0  0
   14.0823  -15.8630   -6.5480 H   0  0  0  0  0
   14.2918  -18.4067   -5.3624 H   0  0  0  0  0
   11.5125  -19.1402   -4.9765 H   0  0  0  0  0
   12.9627  -19.1143   -3.0523 H   0  0  0  0  0
   11.7463  -17.7463   -2.8699 H   0  0  0  0  0
   13.5783  -16.2411   -3.7211 H   0  0  0  0  0
   14.7048  -17.6187   -3.4490 H   0  0  0  0  0
   14.2426  -17.6379   -1.1145 H   0  0  0  0  0
   12.8836  -16.4613   -1.3197 H   0  0  0  0  0
   15.3150  -15.3076   -2.2391 H   0  0  0  0  0
   13.7078  -16.2626    0.7620 H   0  0  0  0  0
   16.0407  -13.6068    0.7308 H   0  0  0  0  0
   16.3753  -13.7388   -0.9988 H   0  0  0  0  0
    9.7177  -17.8905   -4.8019 H   0  0  0  0  0
    9.8679  -15.2924   -6.2102 H   0  0  0  0  0
    7.4576  -16.8462   -5.3238 H   0  0  0  0  0
    8.3310  -17.0569   -6.9501 H   0  0  0  0  0
    7.7166  -14.8233   -7.5329 H   0  0  0  0  0
    6.7428  -14.7152   -5.9350 H   0  0  0  0  0
    5.2956  -16.3502   -6.7773 H   0  0  0  0  0
    6.2148  -16.2604   -8.4045 H   0  0  0  0  0
    5.4150  -14.1474   -8.7786 H   0  0  0  0  0
    4.5590  -14.1556   -7.0999 H   0  0  0  0  0
    2.6220  -13.3660   -8.0669 H   0  0  0  0  0
    3.4144  -13.2964   -9.6601 H   0  0  0  0  0
    1.9095  -14.2259   -9.4540 H   0  0  0  0  0
    3.3722  -16.8349   -7.4754 H   0  0  0  0  0
    2.5710  -15.3823   -6.8279 H   0  0  0  0  0
    1.8770  -16.2312   -8.2310 H   0  0  0  0  0
    4.4756  -15.2523  -10.5582 H   0  0  0  0  0
    4.4732  -16.7551   -9.6029 H   0  0  0  0  0
    2.9625  -16.1652  -10.3384 H   0  0  0  0  0
    9.3993  -16.6544   -3.0519 H   0  0  0  0  0
    8.5435  -13.9539   -2.1295 H   0  0  0  0  0
    7.2329  -14.9707   -0.3684 H   0  0  0  0  0
    7.8207  -16.6231   -0.8682 H   0  0  0  0  0
    5.5730  -13.8231   -1.6390 H   0  0  0  0  0
    6.9239  -17.7181   -2.7884 H   0  0  0  0  0
    3.6476  -14.0405   -3.1510 H   0  0  0  0  0
    4.9968  -17.9321   -4.3171 H   0  0  0  0  0
    3.3551  -16.0937   -4.4985 H   0  0  0  0  0
    9.2987  -13.1241   -0.1830 H   0  0  0  0  0
   11.7002  -14.5944    0.8445 H   0  0  0  0  0
   12.2610  -12.4349   -0.1568 H   0  0  0  0  0
   11.0939  -11.6190    0.9124 H   0  0  0  0  0
   12.5380  -12.4001    1.6020 H   0  0  0  0  0
    8.5514  -13.9730    1.5135 H   0  0  0  0  0
    8.9851  -13.9034    4.4586 H   0  0  0  0  0
    6.4652  -13.1327    4.3248 H   0  0  0  0  0
    6.9881  -12.6366    2.6299 H   0  0  0  0  0
    8.5130  -11.1051    3.4887 H   0  0  0  0  0
    8.2911  -11.7180    5.1688 H   0  0  0  0  0
    6.3483   -8.6260    5.1284 H   0  0  0  0  0
    8.0332   -9.1553    5.1741 H   0  0  0  0  0
    7.2780  -14.9672    5.7534 H   0  0  0  0  0
    6.5888  -17.5787    4.6932 H   0  0  0  0  0
    4.7389  -14.8306    5.3674 H   0  0  0  0  0
    6.6838  -17.8806    6.9351 H   0  0  0  0  0
    5.0313  -17.2028    6.9723 H   0  0  0  0  0
    6.4889  -16.0811    8.3886 H   0  0  0  0  0
  1  2  1  0  0  0
  2  3  1  0  0  0
  2  5  1  0  0  0
  3  4  2  0  0  0
  3  6  1  0  0  0
  6  7  1  0  0  0
  7  8  1  0  0  0
  7 10  1  0  0  0
  8  9  2  0  0  0
  8 15  1  0  0  0
 10 11  1  0  0  0
 11 12  1  0  0  0
 12 13  2  0  0  0
 12 14  1  0  0  0
 15 16  1  0  0  0
 16 17  1  0  0  0
 16 19  1  0  0  0
 17 18  2  0  0  0
 17 26  1  0  0  0
 19 20  1  0  0  0
 20 21  1  0  0  0
 21 22  1  0  0  0
 22 23  1  0  0  0
 23 24  2  0  0  0
 23 25  1  0  0  0
 26 27  1  0  0  0
 27 28  1  0  0  0
 27 33  1  0  0  0
 28 29  1  0  0  0
 29 30  1  0  0  0
 30 31  1  0  0  0
 31 32  1  0  0  0
 32 35  1  0  0  0
 32 36  1  0  0  0
 32 37  1  0  0  0
 33 34  2  0  0  0
 33 38  1  0  0  0
 38 39  1  0  0  0
 39 40  1  0  0  0
 39 42  1  0  0  0
 40 41  2  0  0  0
 40 49  1  0  0  0
 42 43  1  0  0  0
 43 44  4  0  0  0
 43 45  4  0  0  0
 44 46  4  0  0  0
 45 47  4  0  0  0
 46 48  4  0  0  0
 47 48  4  0  0  0
 49 50  1  0  0  0
 50 51  1  0  0  0
 50 53  1  0  0  0
 51 52  2  0  0  0
 51 54  1  0  0  0
 54 55  1  0  0  0
 55 56  1  0  0  0
 55 58  1  0  0  0
 56 57  2  0  0  0
 56 63  1  0  0  0
 58 59  1  0  0  0
 59 60  1  0  0  0
 60 61  2  0  0  0
 60 62  1  0  0  0
 63 64  1  0  0  0
 64 65  1  0  0  0
 64 67  1  0  0  0
 65 66  1  0  0  0
 65 69  2  0  0  0
 67 68  1  0  0  0
  1 70  1  0  0  0
  1 71  1  0  0  0
  1 72  1  0  0  0
  2 73  1  0  0  0
  5 74  1  0  0  0
  5 75  1  0  0  0
  5 76  1  0  0  0
  6 77  1  0  0  0
  7 78  1  0  0  0
 10 79  1  0  0  0
 10 80  1  0  0  0
 11 81  1  0  0  0
 11 82  1  0  0  0
 14 83  1  0  0  0
 14 84  1  0  0  0
 15 85  1  0  0  0
 16 86  1  0  0  0
 19 87  1  0  0  0
 19 88  1  0  0  0
 20 89  1  0  0  0
 20 90  1  0  0  0
 21 91  1  0  0  0
 21 92  1  0  0  0
 22 93  1  0  0  0
 24 94  1  0  0  0
 25 95  1  0  0  0
 25 96  1  0  0  0
 26 97  1  0  0  0
 27 98  1  0  0  0
 28 99  1  0  0  0
 28100  1  0  0  0
 29101  1  0  0  0
 29102  1  0  0  0
 30103  1  0  0  0
 30104  1  0  0  0
 31105  1  0  0  0
 31106  1  0  0  0
 35107  1  0  0  0
 35108  1  0  0  0
 35109  1  0  0  0
 36110  1  0  0  0
 36111  1  0  0  0
 36112  1  0  0  0
 37113  1  0  0  0
 37114  1  0  0  0
 37115  1  0  0  0
 38116  1  0  0  0
 39117  1  0  0  0
 42118  1  0  0  0
 42119  1  0  0  0
 44120  1  0  0  0
 45121  1  0  0  0
 46122  1  0  0  0
 47123  1  0  0  0
 48124  1  0  0  0
 49125  1  0  0  0
 50126  1  0  0  0
 53127  1  0  0  0
 53128  1  0  0  0
 53129  1  0  0  0
 54130  1  0  0  0
 55131  1  0  0  0
 58132  1  0  0  0
 58133  1  0  0  0
 59134  1  0  0  0
 59135  1  0  0  0
 62136  1  0  0  0
 62137  1  0  0  0
 63138  1  0  0  0
 64139  1  0  0  0
 66140  1  0  0  0
 67141  1  0  0  0
 67142  1  0  0  0
 68143  1  0  0  0
M  END
$$$$
