### 
### Created by X-TOOL on Mon Sep 10 21:13:23 2018
### 

@<TRIPOS>MOLECULE
4x3e_ligand
  143   143     1     0     0
SMALL
GAST_HUCK


@<TRIPOS>ATOM
      1 N          14.3940  -23.7770   -8.2020 N.4       1 ALA         0.2377
      2 CA         15.7280  -23.2200   -8.3960 C.3       1 ALA         0.0621
      3 C          15.7810  -21.7380   -8.0460 C.2       1 ALA         0.2264
      4 O          16.8640  -21.1740   -7.9100 O.2       1 ALA        -0.3907
      5 CB         16.2080  -23.4440   -9.8300 C.3       1 ALA        -0.0040
      6 N          14.6170  -21.1060   -7.9050 N.am      1 GLN        -0.2609
      7 CA         14.5750  -19.6890   -7.5410 C.3       1 GLN         0.1331
      8 C          13.2540  -19.2860   -6.8620 C.2       1 GLN         0.2040
      9 O          12.1720  -19.5380   -7.3850 O.2       1 GLN        -0.3944
     10 CB         14.8730  -18.8260   -8.7760 C.3       1 GLN         0.0045
     11 CG         14.7400  -17.3360   -8.5550 C.3       1 GLN         0.0412
     12 CD         15.6570  -16.8050   -7.4610 C.2       1 GLN         0.1737
     13 OE1        16.8650  -17.0650   -7.4670 O.2       1 GLN        -0.3973
     14 NE2        15.0840  -16.0520   -6.5130 N.am      1 GLN        -0.3009
     15 N          13.3610  -18.6570   -5.6960 N.am      1 ARG        -0.2637
     16 CA         12.2070  -18.3070   -4.8690 C.3       1 ARG         0.1311
     17 C          11.4820  -17.0470   -5.3300 C.2       1 ARG         0.2039
     18 O          12.1080  -16.1010   -5.8110 O.2       1 ARG        -0.3944
     19 CB         12.6170  -18.1390   -3.3950 C.3       1 ARG        -0.0092
     20 CG         13.7700  -17.1470   -3.1460 C.3       1 ARG        -0.0156
     21 CD         13.8720  -16.7700   -1.6600 C.3       1 ARG         0.0627
     22 NE         14.7980  -15.6610   -1.4340 N.pl3     1 ARG        -0.2723
     23 CZ         15.0180  -15.0770   -0.2570 C.cat     1 ARG         0.2882
     24 NH1        14.3740  -15.4930    0.8280 N.pl3     1 ARG        -0.2849
     25 NH2        15.8790  -14.0610   -0.1680 N.pl3     1 ARG        -0.2849
     26 N          10.1600  -17.0500   -5.1740 N.am      1 M3L        -0.2637
     27 CA          9.3170  -15.9170   -5.5070 C.3       1 M3L         0.1310
     28 CB          8.0350  -16.3990   -6.1330 C.3       1 M3L        -0.0122
     29 CG          7.1040  -15.3100   -6.7740 C.3       1 M3L        -0.0440
     30 CD          5.8560  -15.7620   -7.5040 C.3       1 M3L        -0.0123
     31 CE          4.8690  -14.6830   -8.0020 C.3       1 M3L        -0.0309
     32 NZ          3.6080  -15.0910   -8.6470 N.4       1 M3L         0.2369
     33 C           8.9890  -15.0830   -4.2820 C.2       1 M3L         0.2040
     34 O           8.6260  -13.8810   -4.4200 O.2       1 M3L        -0.3944
     35 CM1         2.8420  -13.9240   -8.9770 C.3       1 M3L        -0.0418
     36 CM2         2.8030  -15.9420   -7.7340 C.3       1 M3L        -0.0418
     37 CM3         3.8990  -15.8670   -9.8670 C.3       1 M3L        -0.0418
     38 N           9.0880  -15.6840   -3.0940 N.am      1 PHE        -0.2619
     39 CA          8.7610  -14.9850   -1.8510 C.3       1 PHE         0.1404
     40 C           9.9220  -14.9400   -0.8560 C.2       1 PHE         0.2059
     41 O          10.7390  -15.8600   -0.7900 O.2       1 PHE        -0.3942
     42 CB          7.5360  -15.6210   -1.1890 C.3       1 PHE         0.0214
     43 CG          6.3700  -15.7590   -2.1040 C.ar      1 PHE        -0.0386
     44 CD1         5.4460  -14.7340   -2.2240 C.ar      1 PHE        -0.0601
     45 CD2         6.2010  -16.9060   -2.8660 C.ar      1 PHE        -0.0601
     46 CE1         4.3710  -14.8520   -3.0720 C.ar      1 PHE        -0.0686
     47 CE2         5.1230  -17.0270   -3.7230 C.ar      1 PHE        -0.0686
     48 CZ          4.2070  -16.0000   -3.8250 C.ar      1 PHE        -0.0687
     49 N           9.9790  -13.8750   -0.0660 N.am      1 ALA        -0.2639
     50 CA         11.0040  -13.7650    0.9690 C.3       1 ALA         0.1282
     51 C          10.3870  -13.8710    2.3630 C.2       1 ALA         0.2036
     52 O          11.1060  -13.8980    3.3650 O.2       1 ALA        -0.3944
     53 CB         11.7800  -12.4610    0.8210 C.3       1 ALA        -0.0244
     54 N           9.0550  -13.9420    2.4000 N.am      1 GLN        -0.2636
     55 CA          8.2750  -13.9780    3.6350 C.3       1 GLN         0.1330
     56 C           7.4800  -15.2630    3.7520 C.2       1 GLN         0.2036
     57 O           7.2720  -15.9630    2.7620 O.2       1 GLN        -0.3944
     58 CB          7.2760  -12.8260    3.6640 C.3       1 GLN         0.0045
     59 CG          7.8100  -11.5200    4.2110 C.3       1 GLN         0.0412
     60 CD          6.7000  -10.5150    4.4310 C.2       1 GLN         0.1737
     61 OE1         5.5280  -10.7940    4.1420 O.2       1 GLN        -0.3973
     62 NE2         7.0550   -9.3400    4.9520 N.am      1 GLN        -0.3009
     63 N           7.0200  -15.5620    4.9660 N.am      1 SER        -0.2672
     64 CA          6.1560  -16.7180    5.2030 C.3       1 SER         0.1173
     65 C           4.7580  -16.4760    4.6400 C.2       1 SER         0.0623
     66 O           4.1770  -15.4040    4.8410 O.co2     1 SER        -0.5665
     67 CB          6.0700  -17.0100    6.7040 C.3       1 SER         0.0789
     68 OG          6.5470  -15.8880    7.4500 O.3       1 SER        -0.3910
     69 OXT         4.1890  -17.3490    3.9760 O.co2     1 SER        -0.5665
     70 H1         14.4002  -24.7557   -8.4433 H         1 ALA         0.2015
     71 H2         13.7374  -23.2898   -8.7915 H         1 ALA         0.2015
     72 H3         14.1225  -23.6706   -7.2371 H         1 ALA         0.2015
     73 H4         16.4145  -23.7508   -7.7200 H         1 ALA         0.1095
     74 H5         17.2141  -23.0160   -9.9509 H         1 ALA         0.0310
     75 H6         15.5147  -22.9541  -10.5295 H         1 ALA         0.0310
     76 H7         16.2407  -24.5230  -10.0414 H         1 ALA         0.0310
     77 H8         13.7626  -21.6051   -8.0494 H         1 GLN         0.1885
     78 H9         15.3785  -19.5127   -6.8108 H         1 GLN         0.0801
     79 H10        14.1741  -19.1173   -9.5739 H         1 GLN         0.0337
     80 H11        15.9042  -19.0335   -9.0979 H         1 GLN         0.0337
     81 H12        13.6992  -17.1160   -8.2753 H         1 GLN         0.0504
     82 H13        14.9838  -16.8204   -9.4956 H         1 GLN         0.0504
     83 H14        15.6380  -15.6766   -5.7699 H         1 GLN         0.1814
     84 H15        14.1022  -15.8652   -6.5483 H         1 GLN         0.1814
     85 H16        14.2736  -18.4116   -5.3690 H         1 ARG         0.1883
     86 H17        11.4948  -19.1428   -4.9333 H         1 ARG         0.0800
     87 H18        12.9258  -19.1232   -3.0129 H         1 ARG         0.0313
     88 H19        11.7381  -17.7874   -2.8348 H         1 ARG         0.0313
     89 H20        13.5918  -16.2354   -3.7353 H         1 ARG         0.0301
     90 H21        14.7158  -17.6101   -3.4637 H         1 ARG         0.0301
     91 H22        14.2240  -17.6461   -1.0956 H         1 ARG         0.0689
     92 H23        12.8747  -16.4779   -1.2993 H         1 ARG         0.0689
     93 H24        15.3201  -15.3041   -2.2470 H         1 ARG         0.2642
     94 H25        14.5474  -15.0384    1.7358 H         1 ARG         0.2615
     95 H26        13.7013  -16.2701    0.7614 H         1 ARG         0.2615
     96 H27        16.3802  -13.7357   -1.0070 H         1 ARG         0.2615
     97 H28        16.0423  -13.6023    0.7397 H         1 ARG         0.2615
     98 H29         9.7264  -17.8740   -4.8092 H         1 M3L         0.1883
     99 H30         9.8527  -15.2842   -6.2299 H         1 M3L         0.0800
    100 H31         7.4561  -16.9126   -5.3513 H         1 M3L         0.0312
    101 H32         8.3004  -17.1162   -6.9236 H         1 M3L         0.0312
    102 H33         7.7140  -14.7448   -7.4940 H         1 M3L         0.0269
    103 H34         6.7808  -14.6413   -5.9626 H         1 M3L         0.0269
    104 H35         5.3003  -16.4219   -6.8216 H         1 M3L         0.0317
    105 H36         6.1828  -16.3357   -8.3838 H         1 M3L         0.0317
    106 H37         5.4137  -14.0632   -8.7294 H         1 M3L         0.0815
    107 H38         4.5977  -14.0710   -7.1291 H         1 M3L         0.0815
    108 H39         1.9006  -14.2274   -9.4585 H         1 M3L         0.0778
    109 H40         3.4186  -13.2898   -9.6664 H         1 M3L         0.0778
    110 H41         2.6193  -13.3600   -8.0593 H         1 M3L         0.0778
    111 H42         3.3771  -16.8427   -7.4709 H         1 M3L         0.0778
    112 H43         1.8689  -16.2360   -8.2351 H         1 M3L         0.0778
    113 H44         2.5668  -15.3777   -6.8198 H         1 M3L         0.0778
    114 H45         4.4957  -15.2536  -10.5581 H         1 M3L         0.0778
    115 H46         2.9548  -16.1537  -10.3532 H         1 M3L         0.0778
    116 H47         4.4635  -16.7725   -9.5997 H         1 M3L         0.0778
    117 H48         9.3932  -16.6354   -3.0527 H         1 PHE         0.1885
    118 H49         8.5086  -13.9470   -2.1132 H         1 PHE         0.0823
    119 H50         7.2367  -14.9942   -0.3360 H         1 PHE         0.0474
    120 H51         7.8156  -16.6219   -0.8284 H         1 PHE         0.0474
    121 H52         5.5723  -13.8281   -1.6422 H         1 PHE         0.0557
    122 H53         6.9199  -17.7137   -2.7888 H         1 PHE         0.0557
    123 H54         3.6516  -14.0450   -3.1506 H         1 PHE         0.0599
    124 H55         4.9975  -17.9271   -4.3139 H         1 PHE         0.0599
    125 H56         3.3598  -16.0932   -4.4948 H         1 PHE         0.0559
    126 H57         9.3120  -13.1388   -0.1807 H         1 ALA         0.1883
    127 H58        11.7089  -14.5999    0.8426 H         1 ALA         0.0797
    128 H59        12.5453  -12.3984    1.6086 H         1 ALA         0.0277
    129 H60        11.0887  -11.6104    0.9131 H         1 ALA         0.0277
    130 H61        12.2660  -12.4334   -0.1654 H         1 ALA         0.0277
    131 H62         8.5613  -13.9724    1.5309 H         1 GLN         0.1883
    132 H63         8.9615  -13.8937    4.4903 H         1 GLN         0.0801
    133 H64         6.4228  -13.1318    4.2873 H         1 GLN         0.0337
    134 H65         6.9327  -12.6479    2.6342 H         1 GLN         0.0337
    135 H66         8.5337  -11.1022    3.4956 H         1 GLN         0.0504
    136 H67         8.3124  -11.7131    5.1703 H         1 GLN         0.0504
    137 H68         6.3631   -8.6376    5.1191 H         1 GLN         0.1814
    138 H69         8.0131   -9.1612    5.1756 H         1 GLN         0.1814
    139 H70         7.2729  -14.9788    5.7380 H         1 SER         0.1876
    140 H71         6.5922  -17.5917    4.6967 H         1 SER         0.0749
    141 H72         6.6848  -17.8913    6.9392 H         1 SER         0.0599
    142 H73         5.0232  -17.2098    6.9766 H         1 SER         0.0599
    143 H74         6.4895  -16.0791    8.3788 H         1 SER         0.2096
@<TRIPOS>BOND
     1    1    2 1  
     2    2    3 1  
     3    2    5 1  
     4    3    4 2  
     5    3    6 am 
     6    6    7 1  
     7    7    8 1  
     8    7   10 1  
     9    8    9 2  
    10    8   15 am 
    11   10   11 1  
    12   11   12 1  
    13   12   13 2  
    14   12   14 am 
    15   15   16 1  
    16   16   17 1  
    17   16   19 1  
    18   17   18 2  
    19   17   26 am 
    20   19   20 1  
    21   20   21 1  
    22   21   22 1  
    23   22   23 ar 
    24   23   24 ar 
    25   23   25 ar 
    26   26   27 1  
    27   27   28 1  
    28   27   33 1  
    29   28   29 1  
    30   29   30 1  
    31   30   31 1  
    32   31   32 1  
    33   32   35 1  
    34   32   36 1  
    35   32   37 1  
    36   33   34 2  
    37   33   38 am 
    38   38   39 1  
    39   39   40 1  
    40   39   42 1  
    41   40   41 2  
    42   40   49 am 
    43   42   43 1  
    44   43   44 ar 
    45   43   45 ar 
    46   44   46 ar 
    47   45   47 ar 
    48   46   48 ar 
    49   47   48 ar 
    50   49   50 1  
    51   50   51 1  
    52   50   53 1  
    53   51   52 2  
    54   51   54 am 
    55   54   55 1  
    56   55   56 1  
    57   55   58 1  
    58   56   57 2  
    59   56   63 am 
    60   58   59 1  
    61   59   60 1  
    62   60   61 2  
    63   60   62 am 
    64   63   64 1  
    65   64   65 1  
    66   64   67 1  
    67   65   66 ar 
    68   65   69 ar 
    69   67   68 1  
    70    1   70 1  
    71    1   71 1  
    72    1   72 1  
    73    2   73 1  
    74    5   74 1  
    75    5   75 1  
    76    5   76 1  
    77    6   77 1  
    78    7   78 1  
    79   10   79 1  
    80   10   80 1  
    81   11   81 1  
    82   11   82 1  
    83   14   83 1  
    84   14   84 1  
    85   15   85 1  
    86   16   86 1  
    87   19   87 1  
    88   19   88 1  
    89   20   89 1  
    90   20   90 1  
    91   21   91 1  
    92   21   92 1  
    93   22   93 1  
    94   24   94 1  
    95   24   95 1  
    96   25   96 1  
    97   25   97 1  
    98   26   98 1  
    99   27   99 1  
   100   28  100 1  
   101   28  101 1  
   102   29  102 1  
   103   29  103 1  
   104   30  104 1  
   105   30  105 1  
   106   31  106 1  
   107   31  107 1  
   108   35  108 1  
   109   35  109 1  
   110   35  110 1  
   111   36  111 1  
   112   36  112 1  
   113   36  113 1  
   114   37  114 1  
   115   37  115 1  
   116   37  116 1  
   117   38  117 1  
   118   39  118 1  
   119   42  119 1  
   120   42  120 1  
   121   44  121 1  
   122   45  122 1  
   123   46  123 1  
   124   47  124 1  
   125   48  125 1  
   126   49  126 1  
   127   50  127 1  
   128   53  128 1  
   129   53  129 1  
   130   53  130 1  
   131   54  131 1  
   132   55  132 1  
   133   58  133 1  
   134   58  134 1  
   135   59  135 1  
   136   59  136 1  
   137   62  137 1  
   138   62  138 1  
   139   63  139 1  
   140   64  140 1  
   141   67  141 1  
   142   67  142 1  
   143   68  143 1  
@<TRIPOS>SUBSTRUCTURE
     1 ALA         1

