4e1n_ligand
  -I-interpret- 

 60 63  0  0  0  0  0  0  0  0999 V2000
   -8.5250   50.1080  -16.6170 C   0  0  0  0  0
   -9.3210   49.0140  -16.2390 C   0  0  0  0  0
   -8.7280   47.7440  -16.0610 C   0  0  0  0  0
   -7.3300   47.6190  -16.2840 C   0  0  0  0  0
   -6.5440   48.7200  -16.6590 C   0  0  0  0  0
   -7.1490   49.9690  -16.8240 C   0  0  0  0  0
  -10.6360   49.2210  -16.0570 N   0  0  0  0  0
  -11.4500   48.2000  -15.6880 C   0  0  0  0  0
  -10.9700   46.8880  -15.4940 C   0  0  0  0  0
   -9.5830   46.6660  -15.6750 C   0  0  0  0  0
  -12.8940   48.6110  -15.5220 C   0  0  0  0  0
   -9.0530   45.2890  -15.4710 C   0  0  0  0  0
  -11.8590   45.7220  -15.0730 C   0  0  0  0  0
  -13.0520   45.6110  -15.8470 O   0  0  0  0  0
   -9.0260   44.3960  -16.5610 C   0  0  0  0  0
   -8.5480   43.1060  -16.3960 C   0  0  0  0  0
   -8.1010   42.6550  -15.1590 C   0  0  0  0  0
   -8.1170   43.5090  -14.0520 C   0  0  0  0  0
   -8.5990   44.8400  -14.2000 C   0  0  0  0  0
   -7.6580   41.3550  -15.1360 O   0  0  0  0  0
   -7.1870   40.7780  -13.9050 C   0  0  0  0  0
   -7.5620   41.4810  -12.6160 C   0  0  0  0  0
   -7.6150   43.0040  -12.7210 C   0  0  0  0  0
   -8.6230   45.7770  -13.0100 C   0  0  0  0  0
  -13.0760   44.9140  -17.1010 C   0  0  0  0  0
  -14.5780   44.7940  -17.4420 C   0  0  0  0  0
  -12.3760   45.7110  -18.1990 C   0  0  0  0  0
  -12.4950   43.4900  -17.0000 C   0  0  0  0  0
   -8.5320   42.2830  -17.4600 F   0  0  0  0  0
  -12.2920   45.9840  -13.6320 C   0  0  0  0  0
  -11.6800   46.6580  -12.8070 O   0  0  0  0  0
  -13.4760   45.3940  -13.3380 O   0  0  0  0  0
   -8.9893   51.0849  -16.7517 H   0  0  0  0  0
   -6.8567   46.6449  -16.1609 H   0  0  0  0  0
   -5.4724   48.6019  -16.8199 H   0  0  0  0  0
   -6.5499   50.8324  -17.1133 H   0  0  0  0  0
  -12.9654   49.3805  -14.7533 H   0  0  0  0  0
  -13.2696   49.0037  -16.4669 H   0  0  0  0  0
  -13.4854   47.7444  -15.2265 H   0  0  0  0  0
  -11.2850   44.8050  -15.2065 H   0  0  0  0  0
   -9.3827   44.7216  -17.5381 H   0  0  0  0  0
   -6.0991   40.8211  -13.9575 H   0  0  0  0  0
   -7.6483   39.7921  -13.8471 H   0  0  0  0  0
   -6.7930   41.2372  -11.8830 H   0  0  0  0  0
   -8.5629   41.1437  -12.3469 H   0  0  0  0  0
   -8.3086   43.3573  -11.9580 H   0  0  0  0  0
   -6.5967   43.3728  -12.5978 H   0  0  0  0  0
   -7.9990   46.6456  -13.2205 H   0  0  0  0  0
   -9.6473   46.1003  -12.8243 H   0  0  0  0  0
   -8.2399   45.2570  -12.1320 H   0  0  0  0  0
  -15.0846   44.2361  -16.6545 H   0  0  0  0  0
  -15.0123   45.7907  -17.5200 H   0  0  0  0  0
  -14.6931   44.2709  -18.3913 H   0  0  0  0  0
  -12.8788   46.6695  -18.3272 H   0  0  0  0  0
  -11.3365   45.8793  -17.9175 H   0  0  0  0  0
  -12.4146   45.1511  -19.1334 H   0  0  0  0  0
  -11.4586   43.5446  -16.6670 H   0  0  0  0  0
  -13.0781   42.9110  -16.2838 H   0  0  0  0  0
  -12.5389   43.0108  -17.9780 H   0  0  0  0  0
  -13.7935   44.9154  -14.1073 H   0  0  0  0  0
  1  2  4  0  0  0
  1  6  4  0  0  0
  2  3  4  0  0  0
  2  7  4  0  0  0
  3  4  4  0  0  0
  3 10  4  0  0  0
  4  5  4  0  0  0
  5  6  4  0  0  0
  7  8  4  0  0  0
  8  9  4  0  0  0
  8 11  1  0  0  0
  9 10  4  0  0  0
  9 13  1  0  0  0
 10 12  1  0  0  0
 12 15  4  0  0  0
 12 19  4  0  0  0
 13 14  1  0  0  0
 13 30  1  0  0  0
 14 25  1  0  0  0
 15 16  4  0  0  0
 16 17  4  0  0  0
 16 29  1  0  0  0
 17 18  4  0  0  0
 17 20  1  0  0  0
 18 19  4  0  0  0
 18 23  1  0  0  0
 19 24  1  0  0  0
 20 21  1  0  0  0
 21 22  1  0  0  0
 22 23  1  0  0  0
 25 26  1  0  0  0
 25 27  1  0  0  0
 25 28  1  0  0  0
 30 31  2  0  0  0
 30 32  1  0  0  0
  1 33  1  0  0  0
  4 34  1  0  0  0
  5 35  1  0  0  0
  6 36  1  0  0  0
 11 37  1  0  0  0
 11 38  1  0  0  0
 11 39  1  0  0  0
 13 40  1  0  0  0
 15 41  1  0  0  0
 21 42  1  0  0  0
 21 43  1  0  0  0
 22 44  1  0  0  0
 22 45  1  0  0  0
 23 46  1  0  0  0
 23 47  1  0  0  0
 24 48  1  0  0  0
 24 49  1  0  0  0
 24 50  1  0  0  0
 26 51  1  0  0  0
 26 52  1  0  0  0
 26 53  1  0  0  0
 27 54  1  0  0  0
 27 55  1  0  0  0
 27 56  1  0  0  0
 28 57  1  0  0  0
 28 58  1  0  0  0
 28 59  1  0  0  0
 32 60  1  0  0  0
M  END
$$$$
