2j79_ligand
  -I-interpret- 

 25 25  0  0  0  0  0  0  0  0999 V2000
   -1.0040   10.7130   10.5590 C   0  0  0  0  0
   -0.6590   10.3720   11.8000 N   0  0  0  0  0
    0.0820   11.4610    9.7580 C   0  0  0  0  0
   -2.3020   10.3820   10.0750 N   0  0  0  0  0
   -1.4930    9.5120   12.5330 O   0  0  0  0  0
    0.4940   12.6670   10.3580 O   0  0  0  0  0
   -0.4750   11.8970    8.4000 C   0  0  0  0  0
    0.6520   12.1630    7.5930 O   0  0  0  0  0
   -1.4350   10.8530    7.7670 C   0  0  0  0  0
   -0.6840    9.6660    7.6480 O   0  0  0  0  0
   -2.6640   10.6690    8.6850 C   0  0  0  0  0
   -3.6670    9.5670    8.2980 C   0  0  0  0  0
   -3.2150    8.2790    8.6280 O   0  0  0  0  0
    0.9126   10.7580    9.6956 H   0  0  0  0  0
   -2.9809    9.9442   10.6977 H   0  0  0  0  0
   -1.1121    9.3619   13.4013 H   0  0  0  0  0
    0.8610   12.4824   11.2256 H   0  0  0  0  0
   -1.1019   12.7823    8.5065 H   0  0  0  0  0
    1.2100   12.8116    8.0284 H   0  0  0  0  0
   -1.8128   11.1602    6.7918 H   0  0  0  0  0
   -1.2315    8.9799    7.2592 H   0  0  0  0  0
   -3.1431   11.6399    8.5583 H   0  0  0  0  0
   -3.8047    9.6056    7.2174 H   0  0  0  0  0
   -4.5903    9.7478    8.8484 H   0  0  0  0  0
   -3.8750    7.6327    8.3665 H   0  0  0  0  0
  1  2  2  0  0  0
  1  3  1  0  0  0
  1  4  1  0  0  0
  2  5  1  0  0  0
  3  6  1  0  0  0
  3  7  1  0  0  0
  4 11  1  0  0  0
  7  8  1  0  0  0
  7  9  1  0  0  0
  9 10  1  0  0  0
  9 11  1  0  0  0
 11 12  1  0  0  0
 12 13  1  0  0  0
  3 14  1  0  0  0
  4 15  1  0  0  0
  5 16  1  0  0  0
  6 17  1  0  0  0
  7 18  1  0  0  0
  8 19  1  0  0  0
  9 20  1  0  0  0
 10 21  1  0  0  0
 11 22  1  0  0  0
 12 23  1  0  0  0
 12 24  1  0  0  0
 13 25  1  0  0  0
M  END
$$$$
