2wzx_ligand
  -I-interpret- 

 45 46  0  0  0  0  0  0  0  0999 V2000
    1.5440   10.3330   18.3910 S   0  0  0  0  0
    1.4390   10.6630   16.9810 O   0  0  0  0  0
    0.8170   11.2230   19.2770 O   0  0  0  0  0
    1.2900    8.9240   18.6310 O   0  0  0  0  0
    3.2010   10.5340   18.7750 N   0  0  0  0  0
    3.6880   11.9020   19.0510 C   0  0  0  0  0
    3.5840   12.8210   17.8470 C   0  0  0  0  0
    4.8330   13.6880   17.9030 C   0  0  0  0  0
    5.7500   12.9350   18.7230 N   0  0  0  0  0
    5.1640   11.7600   19.2810 C   0  0  0  0  0
    5.5880   10.6090   18.4220 C   0  0  0  0  0
    5.7170   10.5370   17.2020 O   0  0  0  0  0
    7.1050   13.1330   18.8430 C   0  0  0  0  0
    7.8410   12.2520   19.2660 O   0  0  0  0  0
    7.5180   14.3820   18.4660 N   0  0  0  0  0
    8.9240   14.6670   18.3420 C   0  0  0  0  0
    9.1900   14.9820   16.8870 C   0  0  0  0  0
   10.6540   15.2690   16.6460 C   0  0  0  0  0
   10.9320   16.7590   16.7380 C   0  0  0  0  0
   10.8090   17.2620   18.1370 N   0  3  0  0  0
   10.7110   16.2300   19.2050 C   0  0  0  0  0
    9.2590   15.8100   19.2850 C   0  0  0  0  0
    1.9452   10.0298   16.4668 H   0  0  0  0  0
    3.8326    9.7339   18.8121 H   0  0  0  0  0
    3.1048   12.3151   19.8740 H   0  0  0  0  0
    2.6745   13.4212   17.8748 H   0  0  0  0  0
    3.5240   12.2595   16.9147 H   0  0  0  0  0
    4.6294   14.6764   18.3149 H   0  0  0  0  0
    5.2384   13.8898   16.9115 H   0  0  0  0  0
    5.4352   11.6200   20.3274 H   0  0  0  0  0
    5.8182    9.6915   18.9636 H   0  0  0  0  0
    6.8305   15.1104   18.2730 H   0  0  0  0  0
    9.5615   13.8286   18.6226 H   0  0  0  0  0
    8.6135   15.8653   16.6122 H   0  0  0  0  0
    8.9023   14.1187   16.2869 H   0  0  0  0  0
   10.9211   14.9220   15.6478 H   0  0  0  0  0
   11.2433   14.7534   17.4043 H   0  0  0  0  0
   10.2012   17.2819   16.1211 H   0  0  0  0  0
   11.9522   16.9381   16.3987 H   0  0  0  0  0
    9.9371   17.7901   18.1725 H   0  0  0  0  0
   11.6640   17.7851   18.3261 H   0  0  0  0  0
   11.0490   16.6313   20.1604 H   0  0  0  0  0
   11.3469   15.3753   18.9741 H   0  0  0  0  0
    9.0652   15.4709   20.3026 H   0  0  0  0  0
    8.6476   16.6667   19.0016 H   0  0  0  0  0
  1  2  1  0  0  0
  1  3  2  0  0  0
  1  4  2  0  0  0
  1  5  1  0  0  0
  5  6  1  0  0  0
  6  7  1  0  0  0
  6 10  1  0  0  0
  7  8  1  0  0  0
  8  9  1  0  0  0
  9 10  1  0  0  0
  9 13  1  0  0  0
 10 11  1  0  0  0
 11 12  2  0  0  0
 13 14  2  0  0  0
 13 15  1  0  0  0
 15 16  1  0  0  0
 16 17  1  0  0  0
 16 22  1  0  0  0
 17 18  1  0  0  0
 18 19  1  0  0  0
 19 20  1  0  0  0
 20 21  1  0  0  0
 21 22  1  0  0  0
  2 23  1  0  0  0
  5 24  1  0  0  0
  6 25  1  0  0  0
  7 26  1  0  0  0
  7 27  1  0  0  0
  8 28  1  0  0  0
  8 29  1  0  0  0
 10 30  1  0  0  0
 11 31  1  0  0  0
 15 32  1  0  0  0
 16 33  1  0  0  0
 17 34  1  0  0  0
 17 35  1  0  0  0
 18 36  1  0  0  0
 18 37  1  0  0  0
 19 38  1  0  0  0
 19 39  1  0  0  0
 20 40  1  0  0  0
 20 41  1  0  0  0
 21 42  1  0  0  0
 21 43  1  0  0  0
 22 44  1  0  0  0
 22 45  1  0  0  0
M  END
$$$$
