6c0t_ligand
  -I-interpret- 

 68 72  0  0  0  0  0  0  0  0999 V2000
  -19.1070   16.2510   16.8610 C   0  0  0  0  0
  -17.2280   18.2870   17.5400 C   0  0  0  0  0
  -18.4230   19.9950   16.1000 C   0  0  0  0  0
  -21.3110   21.6210   13.0890 C   0  0  0  0  0
  -19.9830   21.4410   13.0920 C   0  0  0  0  0
  -18.0290   22.1370   11.6940 C   0  0  0  0  0
  -17.2880   23.0890   10.8490 C   0  0  0  0  0
  -16.9120   25.3300    9.9890 C   0  0  0  0  0
  -20.1490   11.4650   22.6350 C   0  0  0  0  0
  -20.6540   11.6080   21.2110 C   0  0  0  0  0
  -19.6990   12.5980   20.3960 C   0  0  0  0  0
  -19.5200   12.5930   18.0620 C   0  0  0  0  0
  -18.3690   13.3210   17.6390 C   0  0  0  0  0
  -17.8650   14.5530   18.3730 C   0  0  0  0  0
  -18.0330   15.9810   17.7500 C   0  0  0  0  0
  -19.2320   17.5190   16.3310 C   0  0  0  0  0
  -18.2560   18.5480   16.6930 C   0  0  0  0  0
  -17.0980   16.9800   18.0850 C   0  0  0  0  0
  -19.5170   21.5180   14.5480 C   0  0  0  0  0
  -20.6520   22.2650   15.2840 C   0  0  0  0  0
  -17.6240   24.4690   10.8650 C   0  0  0  0  0
  -15.9300   24.8170    9.1190 C   0  0  0  0  0
  -16.9380   26.7490    9.7190 C   0  0  0  0  0
  -15.6140   23.4160    9.1130 C   0  0  0  0  0
  -16.3160   22.5600    9.9610 C   0  0  0  0  0
  -17.6750   12.9090   16.5420 C   0  0  0  0  0
  -18.0760   11.7930   15.8520 C   0  0  0  0  0
  -17.6990   10.0100   14.2530 C   0  0  0  0  0
  -19.2050   11.0840   16.2640 C   0  0  0  0  0
  -19.9160   11.5010   17.3820 C   0  0  0  0  0
  -16.5820   13.6190   16.1640 F   0  0  0  0  0
  -19.4120   20.2140   15.0070 N   0  0  0  0  0
  -21.7600   21.9700   14.5940 N   0  0  0  0  0
  -19.2630   22.5620   12.2950 N   0  0  0  0  0
  -15.4150   25.8520    8.4140 N   0  0  0  0  0
  -16.0220   27.0150    8.7690 N   0  0  0  0  0
  -20.2970   13.0290   19.2860 O   0  0  0  0  0
  -17.3120   14.4410   19.4460 O   0  0  0  0  0
  -17.8290   20.8970   16.5250 O   0  0  0  0  0
  -17.6820   21.0290   11.8040 O   0  0  0  0  0
  -17.3680   11.3860   14.7350 O   0  0  0  0  0
  -19.8210   15.4694   16.6015 H   0  0  0  0  0
  -16.5127   19.0677   17.7986 H   0  0  0  0  0
  -21.8155   20.7193   12.7419 H   0  0  0  0  0
  -21.5825   22.4327   12.4140 H   0  0  0  0  0
  -19.7474   20.4817   12.6311 H   0  0  0  0  0
  -19.1367   11.0610   22.6213 H   0  0  0  0  0
  -20.1451   12.4423   23.1176 H   0  0  0  0  0
  -20.8038   10.7893   23.1852 H   0  0  0  0  0
  -21.6657   12.0134   21.2259 H   0  0  0  0  0
  -20.6561   10.6304   20.7290 H   0  0  0  0  0
  -18.7916   12.0611   20.1194 H   0  0  0  0  0
  -19.4662   13.4572   21.0250 H   0  0  0  0  0
  -20.0499   17.7521   15.6492 H   0  0  0  0  0
  -16.2749   16.7512   18.7619 H   0  0  0  0  0
  -18.5610   22.0217   14.6908 H   0  0  0  0  0
  -20.5685   22.8939   16.1703 H   0  0  0  0  0
  -18.4007   24.8532   11.5262 H   0  0  0  0  0
  -17.5878   27.4790   10.2017 H   0  0  0  0  0
  -14.8367   23.0274    8.4551 H   0  0  0  0  0
  -16.1187   21.4882    9.9417 H   0  0  0  0  0
  -17.4858    9.2889   15.0421 H   0  0  0  0  0
  -18.7561    9.9625   13.9915 H   0  0  0  0  0
  -17.0955    9.7789   13.3752 H   0  0  0  0  0
  -19.5287   10.2036   15.7089 H   0  0  0  0  0
  -20.7943   10.9441   17.7085 H   0  0  0  0  0
  -19.9743   19.4550   14.6222 H   0  0  0  0  0
  -19.6307   23.5093   12.2065 H   0  0  0  0  0
  1 15  4  0  0  0
 16  1  4  0  0  0
 17  2  4  0  0  0
  2 18  4  0  0  0
  3 17  1  0  0  0
 32  3  1  0  0  0
  3 39  2  0  0  0
  5  4  1  0  0  0
  4 33  1  0  0  0
 19  5  1  0  0  0
  5 34  1  0  0  0
  6  7  1  0  0  0
 34  6  1  0  0  0
  6 40  2  0  0  0
  7 21  4  0  0  0
  7 25  4  0  0  0
 21  8  4  0  0  0
  8 22  4  0  0  0
  8 23  4  0  0  0
 10  9  1  0  0  0
 11 10  1  0  0  0
 37 11  1  0  0  0
 13 12  4  0  0  0
 12 30  4  0  0  0
 12 37  1  0  0  0
 14 13  1  0  0  0
 13 26  4  0  0  0
 15 14  1  0  0  0
 14 38  2  0  0  0
 18 15  4  0  0  0
 17 16  4  0  0  0
 19 20  1  0  0  0
 19 32  1  0  0  0
 20 33  2  0  0  0
 22 24  4  0  0  0
 22 35  4  0  0  0
 23 36  4  0  0  0
 24 25  4  0  0  0
 26 27  4  0  0  0
 26 31  1  0  0  0
 27 29  4  0  0  0
 27 41  1  0  0  0
 41 28  1  0  0  0
 29 30  4  0  0  0
 35 36  4  0  0  0
  1 42  1  0  0  0
  2 43  1  0  0  0
  4 44  1  0  0  0
  4 45  1  0  0  0
  5 46  1  0  0  0
  9 47  1  0  0  0
  9 48  1  0  0  0
  9 49  1  0  0  0
 10 50  1  0  0  0
 10 51  1  0  0  0
 11 52  1  0  0  0
 11 53  1  0  0  0
 16 54  1  0  0  0
 18 55  1  0  0  0
 19 56  1  0  0  0
 20 57  1  0  0  0
 21 58  1  0  0  0
 23 59  1  0  0  0
 24 60  1  0  0  0
 25 61  1  0  0  0
 28 62  1  0  0  0
 28 63  1  0  0  0
 28 64  1  0  0  0
 29 65  1  0  0  0
 30 66  1  0  0  0
 32 67  1  0  0  0
 34 68  1  0  0  0
M  END
$$$$
