3wzp_ligand
  -I-interpret- 

 52 53  0  0  0  0  0  0  0  0999 V2000
   34.9460   -5.0490   33.2030 O   0  0  0  0  0
   34.6840   -3.9670   32.5880 C   0  0  0  0  0
   35.4650   -3.3650   31.7630 O   0  0  0  0  0
   33.3790   -3.2680   33.0790 C   0  0  0  0  0
   32.1570   -3.8540   32.3500 C   0  0  0  0  0
   30.8470   -3.2820   32.8680 C   0  0  0  0  0
   29.6940   -3.8380   32.0630 C   0  0  0  0  0
   28.3890   -3.3380   32.7000 C   0  0  0  0  0
   27.2370   -3.8930   32.0030 N   0  0  0  0  0
   26.7510   -5.1070   32.3150 C   0  0  0  0  0
   27.3160   -5.8340   33.1270 O   0  0  0  0  0
   25.4190   -5.5650   31.6760 C   0  0  0  0  0
   25.4130   -6.9760   31.0750 C   0  0  0  0  0
   26.4080   -7.0290   29.9100 C   0  0  0  0  0
   26.4540   -8.4060   29.2550 C   0  0  0  0  0
   27.4670   -8.3660   28.1030 C   0  0  0  0  0
   26.8600   -7.5690   26.5960 S   0  0  0  0  0
   28.3760   -8.0830   25.7280 C   0  0  0  0  0
   28.6640   -9.4850   26.1960 C   0  0  0  0  0
   27.9800   -9.7610   27.5840 C   0  0  0  0  0
   26.9300  -10.7160   27.2120 N   0  0  0  0  0
   26.9790  -10.9750   25.8890 C   0  0  0  0  0
   26.1650  -11.8320   25.2870 N   0  0  0  0  0
   28.0060  -10.3950   25.2660 N   0  0  0  0  0
   35.0338   -2.5718   31.4367 H   0  0  0  0  0
   33.4438   -2.2009   32.8666 H   0  0  0  0  0
   33.2678   -3.4316   34.1509 H   0  0  0  0  0
   32.1464   -4.9307   32.5195 H   0  0  0  0  0
   32.2412   -3.6025   31.2928 H   0  0  0  0  0
   30.8640   -2.1963   32.7723 H   0  0  0  0  0
   30.7220   -3.5568   33.9154 H   0  0  0  0  0
   29.7223   -4.9276   32.0661 H   0  0  0  0  0
   29.7608   -3.5040   31.0276 H   0  0  0  0  0
   28.3549   -2.2507   32.6313 H   0  0  0  0  0
   28.3592   -3.6551   33.7424 H   0  0  0  0  0
   26.7903   -3.3502   31.2639 H   0  0  0  0  0
   25.2232   -4.8798   30.8512 H   0  0  0  0  0
   24.6804   -5.5702   32.4776 H   0  0  0  0  0
   24.4129   -7.2168   30.7144 H   0  0  0  0  0
   25.7013   -7.7003   31.8368 H   0  0  0  0  0
   27.4007   -6.8057   30.3009 H   0  0  0  0  0
   26.0899   -6.3061   29.1587 H   0  0  0  0  0
   25.4675   -8.6686   28.8730 H   0  0  0  0  0
   26.7538   -9.1557   29.9873 H   0  0  0  0  0
   28.2632   -7.8052   28.5925 H   0  0  0  0  0
   29.2063   -7.4129   25.9511 H   0  0  0  0  0
   28.2447   -8.0459   24.6466 H   0  0  0  0  0
   29.7440   -9.6166   26.2617 H   0  0  0  0  0
   28.5864  -10.1719   28.3911 H   0  0  0  0  0
   26.2586  -11.1258   27.8614 H   0  0  0  0  0
   25.4596  -12.3317   25.8284 H   0  0  0  0  0
   28.2849  -10.5607   24.2990 H   0  0  0  0  0
  1  2  2  0  0  0
  2  3  1  0  0  0
  2  4  1  0  0  0
  4  5  1  0  0  0
  5  6  1  0  0  0
  6  7  1  0  0  0
  7  8  1  0  0  0
  8  9  1  0  0  0
  9 10  1  0  0  0
 10 11  2  0  0  0
 10 12  1  0  0  0
 12 13  1  0  0  0
 13 14  1  0  0  0
 14 15  1  0  0  0
 15 16  1  0  0  0
 16 17  1  0  0  0
 16 20  1  0  0  0
 17 18  1  0  0  0
 18 19  1  0  0  0
 19 20  1  0  0  0
 19 24  1  0  0  0
 20 21  1  0  0  0
 21 22  1  0  0  0
 22 23  2  0  0  0
 22 24  1  0  0  0
  3 25  1  0  0  0
  4 26  1  0  0  0
  4 27  1  0  0  0
  5 28  1  0  0  0
  5 29  1  0  0  0
  6 30  1  0  0  0
  6 31  1  0  0  0
  7 32  1  0  0  0
  7 33  1  0  0  0
  8 34  1  0  0  0
  8 35  1  0  0  0
  9 36  1  0  0  0
 12 37  1  0  0  0
 12 38  1  0  0  0
 13 39  1  0  0  0
 13 40  1  0  0  0
 14 41  1  0  0  0
 14 42  1  0  0  0
 15 43  1  0  0  0
 15 44  1  0  0  0
 16 45  1  0  0  0
 18 46  1  0  0  0
 18 47  1  0  0  0
 19 48  1  0  0  0
 20 49  1  0  0  0
 21 50  1  0  0  0
 23 51  1  0  0  0
 24 52  1  0  0  0
M  END
$$$$
