2bed_ligand
  -I-interpret- 

 62 66  0  0  0  0  0  0  0  0999 V2000
  185.9370  127.8630   31.8270 C   0  0  0  0  0
  186.8300  128.8640   31.6440 N   0  0  0  0  0
  188.1260  128.7740   32.0570 C   0  0  0  0  0
  188.6020  127.5960   32.7160 C   0  0  0  0  0
  187.6780  126.5400   32.9080 C   0  0  0  0  0
  186.3340  126.6630   32.4680 C   0  0  0  0  0
  189.0210  129.9510   31.7940 C   0  0  0  0  0
  190.2490  129.6520   30.9710 C   0  0  0  0  0
  191.2500  128.6940   31.3930 C   0  0  0  0  0
  191.1640  127.9720   32.7110 C   0  0  0  0  0
  190.0000  127.4620   33.2390 C   0  0  0  0  0
  190.4210  130.3520   29.7390 C   0  0  0  0  0
  191.5670  130.1200   28.9280 C   0  0  0  0  0
  192.5560  129.1840   29.3450 C   0  0  0  0  0
  192.3910  128.4680   30.5630 C   0  0  0  0  0
  189.3540  130.7120   33.1190 C   0  0  0  0  0
  190.2730  131.9090   32.8760 C   0  0  0  0  0
  190.4450  132.7760   34.1040 C   0  0  0  0  0
  189.1180  133.1940   34.5830 N   0  0  0  0  0
  188.3360  132.0350   35.0310 C   0  0  0  0  0
  188.0760  131.1290   33.8480 C   0  0  0  0  0
  193.9760  128.9400   28.3890 Cl  0  0  0  0  0
  188.9180  134.7300   35.3610 S   0  0  0  0  0
  192.4340  127.7980   33.4510 N   0  0  0  0  0
  192.9810  129.0700   33.9340 C   0  0  0  0  0
  192.4000  126.8280   34.5540 C   0  0  0  0  0
  194.4120  128.8420   34.3890 C   0  0  0  0  0
  193.8200  126.5750   35.0230 C   0  0  0  0  0
  194.4340  127.8390   35.4650 N   0  3  0  0  0
  187.5460  134.7480   35.7770 O   0  0  0  0  0
  189.1910  136.0080   34.1470 C   0  0  0  0  0
  189.9580  134.7710   36.3450 O   0  0  0  0  0
  184.9102  127.9803   31.4805 H   0  0  0  0  0
  188.0025  125.6226   33.3991 H   0  0  0  0  0
  185.6223  125.8515   32.6200 H   0  0  0  0  0
  188.4418  130.6163   31.1537 H   0  0  0  0  0
  190.1091  126.8853   34.1575 H   0  0  0  0  0
  189.6677  131.0708   29.4165 H   0  0  0  0  0
  191.6878  130.6585   27.9880 H   0  0  0  0  0
  193.1428  127.7394   30.8664 H   0  0  0  0  0
  189.8977  130.0203   33.7625 H   0  0  0  0  0
  189.8227  132.5221   32.0953 H   0  0  0  0  0
  191.2547  131.5249   32.5988 H   0  0  0  0  0
  191.0397  133.6546   33.8540 H   0  0  0  0  0
  190.9572  132.2124   34.8838 H   0  0  0  0  0
  187.3883  132.3715   35.4515 H   0  0  0  0  0
  188.8905  131.4910   35.7956 H   0  0  0  0  0
  187.5983  130.2238   34.2229 H   0  0  0  0  0
  187.4554  131.6785   33.1402 H   0  0  0  0  0
  192.3817  129.4390   34.7664 H   0  0  0  0  0
  192.9599  129.8101   33.1341 H   0  0  0  0  0
  191.9509  125.8952   34.2130 H   0  0  0  0  0
  191.8033  127.2230   35.3762 H   0  0  0  0  0
  194.8280  129.7791   34.7589 H   0  0  0  0  0
  195.0066  128.4844   33.5484 H   0  0  0  0  0
  194.4023  126.1607   34.2000 H   0  0  0  0  0
  193.8039  125.8722   35.8560 H   0  0  0  0  0
  193.9044  128.1995   36.2587 H   0  0  0  0  0
  195.4040  127.6582   35.7234 H   0  0  0  0  0
  188.5478  135.8317   33.2848 H   0  0  0  0  0
  188.9568  136.9786   34.5842 H   0  0  0  0  0
  190.2346  135.9919   33.8327 H   0  0  0  0  0
  1  2  4  0  0  0
  1  6  4  0  0  0
  2  3  4  0  0  0
  3  4  4  0  0  0
  3  7  1  0  0  0
  4  5  4  0  0  0
  4 11  1  0  0  0
  5  6  4  0  0  0
  7  8  1  0  0  0
  7 16  1  0  0  0
  8  9  4  0  0  0
  8 12  4  0  0  0
  9 10  1  0  0  0
  9 15  4  0  0  0
 10 11  2  0  0  0
 10 24  1  0  0  0
 12 13  4  0  0  0
 13 14  4  0  0  0
 14 15  4  0  0  0
 14 22  1  0  0  0
 16 17  1  0  0  0
 16 21  1  0  0  0
 17 18  1  0  0  0
 18 19  1  0  0  0
 19 20  1  0  0  0
 19 23  1  0  0  0
 20 21  1  0  0  0
 23 30  2  0  0  0
 23 31  1  0  0  0
 23 32  2  0  0  0
 24 25  1  0  0  0
 24 26  1  0  0  0
 25 27  1  0  0  0
 26 28  1  0  0  0
 27 29  1  0  0  0
 28 29  1  0  0  0
  1 33  1  0  0  0
  5 34  1  0  0  0
  6 35  1  0  0  0
  7 36  1  0  0  0
 11 37  1  0  0  0
 12 38  1  0  0  0
 13 39  1  0  0  0
 15 40  1  0  0  0
 16 41  1  0  0  0
 17 42  1  0  0  0
 17 43  1  0  0  0
 18 44  1  0  0  0
 18 45  1  0  0  0
 20 46  1  0  0  0
 20 47  1  0  0  0
 21 48  1  0  0  0
 21 49  1  0  0  0
 25 50  1  0  0  0
 25 51  1  0  0  0
 26 52  1  0  0  0
 26 53  1  0  0  0
 27 54  1  0  0  0
 27 55  1  0  0  0
 28 56  1  0  0  0
 28 57  1  0  0  0
 29 58  1  0  0  0
 29 59  1  0  0  0
 31 60  1  0  0  0
 31 61  1  0  0  0
 31 62  1  0  0  0
M  END
$$$$
