5lss_ligand
  -I-interpret- 

 61 63  0  0  0  0  0  0  0  0999 V2000
   -2.1660   -4.2140   18.4250 C   0  0  0  0  0
   -0.9870   -4.4080   17.7460 C   0  0  0  0  0
   -0.1940   -3.2720   17.5220 C   0  0  0  0  0
   -1.9030   -6.3340   17.8920 C   0  0  0  0  0
   -0.6340   -2.0730   17.9830 N   0  0  0  0  0
   -2.6370   -3.0390   18.8980 N   0  0  0  0  0
   -5.4690  -10.9290   23.3840 O   0  0  0  0  0
   -4.5600  -10.0720   23.3440 C   0  0  0  0  0
   -3.7600   -9.9560   22.0350 C   0  0  0  0  0
   -2.8750   -8.7520   22.0910 N   0  3  0  0  0
   -4.6530   -9.9110   20.8030 C   0  0  0  0  0
   -3.9010  -10.2020   19.5220 C   0  0  0  0  0
   -4.7610  -10.2190   18.2610 C   0  0  0  0  0
   -4.2540  -11.3390   17.3730 N   0  3  0  0  0
   -4.9700  -11.5570   16.0800 C   0  0  0  0  0
   -4.4840  -12.8040   15.3630 C   0  0  0  0  0
   -5.1520  -13.0230   14.0290 C   0  0  0  0  0
   -4.7450   -8.8750   17.5130 C   0  0  0  0  0
   -5.2010   -7.6550   18.3070 C   0  0  0  0  0
   -4.1660   -7.1960   19.2070 O   0  0  0  0  0
   -5.5170   -6.4450   17.4140 C   0  0  0  0  0
   -6.8430   -6.5350   16.9140 O   0  0  0  0  0
   -5.2580   -5.2620   18.3670 C   0  0  0  0  0
   -6.3730   -5.0330   19.2060 O   0  0  0  0  0
   -4.0290   -5.7750   19.1540 C   0  0  0  0  0
   -2.7530   -5.4500   18.5180 N   0  0  0  0  0
   -0.8290   -5.7450   17.4150 N   0  0  0  0  0
   -1.8130   -2.0320   18.6330 C   0  0  0  0  0
    0.9740   -3.3120   16.8770 N   0  0  0  0  0
   -4.2470   -9.3000   24.2800 O   0  0  0  0  0
   -2.0987   -7.4025   17.8020 H   0  0  0  0  0
   -3.1506  -10.8549   21.9415 H   0  0  0  0  0
   -2.3467   -8.6791   21.2215 H   0  0  0  0  0
   -3.4470   -7.9165   22.2138 H   0  0  0  0  0
   -2.2297   -8.8421   22.8758 H   0  0  0  0  0
   -5.0656   -8.9050   20.7265 H   0  0  0  0  0
   -5.4214  -10.6752   20.9198 H   0  0  0  0  0
   -3.4746  -11.1997   19.6264 H   0  0  0  0  0
   -3.1718   -9.4017   19.3956 H   0  0  0  0  0
   -5.8007  -10.3866   18.5423 H   0  0  0  0  0
   -4.3797  -12.1977   17.9090 H   0  0  0  0  0
   -3.2985  -11.0848   17.1226 H   0  0  0  0  0
   -4.7798  -10.6981   15.4364 H   0  0  0  0  0
   -6.0315  -11.6797   16.2950 H   0  0  0  0  0
   -4.7203  -13.6605   15.9945 H   0  0  0  0  0
   -3.4160  -12.6845   15.1811 H   0  0  0  0  0
   -6.2273  -13.1253   14.1750 H   0  0  0  0  0
   -4.9517  -12.1708   13.3796 H   0  0  0  0  0
   -4.7581  -13.9306   13.5715 H   0  0  0  0  0
   -5.4474   -8.9792   16.6861 H   0  0  0  0  0
   -3.7054   -8.6902   17.2425 H   0  0  0  0  0
   -6.0930   -7.9913   18.8356 H   0  0  0  0  0
   -4.9180   -6.3561   16.5077 H   0  0  0  0  0
   -7.0267   -5.7738   16.3586 H   0  0  0  0  0
   -5.0924   -4.3046   17.8730 H   0  0  0  0  0
   -6.1870   -4.2930   19.7886 H   0  0  0  0  0
   -4.0098   -5.2984   20.1341 H   0  0  0  0  0
   -2.1301   -1.0504   18.9852 H   0  0  0  0  0
    1.3293   -4.1989   16.5199 H   0  0  0  0  0
    1.5112   -2.4556   16.7412 H   0  0  0  0  0
   -3.5200   -8.7387   24.0008 H   0  0  0  0  0
  1  2  4  0  0  0
  1  6  4  0  0  0
 26  1  4  0  0  0
  2  3  4  0  0  0
 27  2  4  0  0  0
  3  5  4  0  0  0
  3 29  1  0  0  0
 26  4  4  0  0  0
  4 27  4  0  0  0
 28  5  4  0  0  0
  6 28  4  0  0  0
  8  7  2  0  0  0
  9  8  1  0  0  0
  8 30  1  0  0  0
  9 10  1  0  0  0
 11  9  1  0  0  0
 12 11  1  0  0  0
 13 12  1  0  0  0
 13 14  1  0  0  0
 18 13  1  0  0  0
 14 15  1  0  0  0
 15 16  1  0  0  0
 16 17  1  0  0  0
 19 18  1  0  0  0
 20 19  1  0  0  0
 21 19  1  0  0  0
 25 20  1  0  0  0
 21 22  1  0  0  0
 23 21  1  0  0  0
 23 24  1  0  0  0
 25 23  1  0  0  0
 25 26  1  0  0  0
  4 31  1  0  0  0
  9 32  1  0  0  0
 10 33  1  0  0  0
 10 34  1  0  0  0
 10 35  1  0  0  0
 11 36  1  0  0  0
 11 37  1  0  0  0
 12 38  1  0  0  0
 12 39  1  0  0  0
 13 40  1  0  0  0
 14 41  1  0  0  0
 14 42  1  0  0  0
 15 43  1  0  0  0
 15 44  1  0  0  0
 16 45  1  0  0  0
 16 46  1  0  0  0
 17 47  1  0  0  0
 17 48  1  0  0  0
 17 49  1  0  0  0
 18 50  1  0  0  0
 18 51  1  0  0  0
 19 52  1  0  0  0
 21 53  1  0  0  0
 22 54  1  0  0  0
 23 55  1  0  0  0
 24 56  1  0  0  0
 25 57  1  0  0  0
 28 58  1  0  0  0
 29 59  1  0  0  0
 29 60  1  0  0  0
 30 61  1  0  0  0
M  END
$$$$
