4oyt_ligand
  -I-interpret- 

 56 58  0  0  0  0  0  0  0  0999 V2000
   21.0110   -2.4360   20.3400 N   0  0  0  0  0
   20.6500   -1.1750   20.5970 C   0  0  0  0  0
   20.5970   -0.2980   19.5680 N   0  0  0  0  0
   20.3580   -0.7330   21.8510 N   0  0  0  0  0
   20.3920   -1.5260   22.9480 C   0  0  0  0  0
   20.0990   -1.0910   24.0960 O   0  0  0  0  0
   20.7990   -2.9230   22.6960 C   0  0  0  0  0
   20.8610   -3.9500   23.6210 N   0  0  0  0  0
   20.1670   -5.0970   23.0030 C   0  0  0  0  0
   21.2030   -5.7000   22.0540 C   0  0  0  0  0
   21.4550   -4.6390   21.0660 N   0  0  0  0  0
   21.0930   -3.3410   21.3080 C   0  0  0  0  0
   19.4870   -6.0070   24.0040 C   0  0  0  0  0
   18.4880   -5.1290   24.5680 N   0  0  0  0  0
   14.3670   -5.2490   24.3180 C   0  0  0  0  0
   15.1170   -5.2690   23.1330 C   0  0  0  0  0
   16.5130   -5.2320   23.1660 C   0  0  0  0  0
   17.1510   -5.1910   24.4110 C   0  0  0  0  0
   16.3980   -5.1620   25.5820 C   0  0  0  0  0
   15.0130   -5.1950   25.5410 C   0  0  0  0  0
   12.8680   -5.2840   24.3320 C   0  0  0  0  0
   12.2460   -5.0260   23.3080 O   0  0  0  0  0
   12.2830   -5.5790   25.5010 N   0  0  0  0  0
   10.9710   -6.1880   25.6900 C   0  0  0  0  0
   10.8880   -7.5720   25.0490 C   0  0  0  0  0
    9.5310   -7.8140   24.3880 C   0  0  0  0  0
    9.6650   -8.7970   23.2420 C   0  0  0  0  0
   10.7160   -9.4810   23.1480 O   0  0  0  0  0
    8.7120   -8.8860   22.4300 O   0  0  0  0  0
   10.6500   -6.3190   27.1540 C   0  0  0  0  0
   11.5950   -6.5010   27.9550 O   0  0  0  0  0
    9.4530   -6.2370   27.5190 O   0  0  0  0  0
   21.4710   -3.8740   24.7410 C   0  0  0  0  0
   20.9070   -3.8330   25.8290 O   0  0  0  0  0
   20.8296   -0.6052   18.6236 H   0  0  0  0  0
   21.0660   -2.2652   23.5231 H   0  0  0  0  0
   19.2856   -4.8214   22.4239 H   0  0  0  0  0
   20.8457   -6.6179   21.5872 H   0  0  0  0  0
   22.1123   -5.9979   22.5760 H   0  0  0  0  0
   21.9084   -4.8753   20.1834 H   0  0  0  0  0
   20.1687   -6.4224   24.7462 H   0  0  0  0  0
   19.0695   -6.9092   23.5569 H   0  0  0  0  0
   18.8363   -4.3714   25.1554 H   0  0  0  0  0
   14.6033   -5.3141   22.1727 H   0  0  0  0  0
   17.0925   -5.2350   22.2428 H   0  0  0  0  0
   16.9055   -5.1126   26.5454 H   0  0  0  0  0
   14.4363   -5.1785   26.4658 H   0  0  0  0  0
   12.8092   -5.3546   26.3455 H   0  0  0  0  0
   10.2492   -5.5303   25.2057 H   0  0  0  0  0
   11.0255   -8.3193   25.8305 H   0  0  0  0  0
   11.6589   -7.6398   24.2814 H   0  0  0  0  0
    9.1528   -6.8681   24.0002 H   0  0  0  0  0
    8.8453   -8.2255   25.1286 H   0  0  0  0  0
   11.3088   -9.2553   23.8686 H   0  0  0  0  0
    8.8942   -6.0977   26.7509 H   0  0  0  0  0
   22.5605   -3.8437   24.7286 H   0  0  0  0  0
  1  2  4  0  0  0
 12  1  2  0  0  0
  2  3  2  0  0  0
  4  2  4  0  0  0
  5  4  1  0  0  0
  5  6  2  0  0  0
  7  5  1  0  0  0
  8  7  1  0  0  0
  7 12  1  0  0  0
  9  8  1  0  0  0
  8 33  1  0  0  0
  9 10  1  0  0  0
 13  9  1  0  0  0
 10 11  1  0  0  0
 11 12  1  0  0  0
 14 13  1  0  0  0
 18 14  1  0  0  0
 16 15  4  0  0  0
 15 20  4  0  0  0
 15 21  1  0  0  0
 17 16  4  0  0  0
 17 18  4  0  0  0
 18 19  4  0  0  0
 19 20  4  0  0  0
 21 22  2  0  0  0
 21 23  1  0  0  0
 23 24  1  0  0  0
 24 25  1  0  0  0
 24 30  1  0  0  0
 25 26  1  0  0  0
 26 27  1  0  0  0
 27 28  1  0  0  0
 27 29  2  0  0  0
 30 31  2  0  0  0
 30 32  1  0  0  0
 33 34  2  0  0  0
  3 35  1  0  0  0
  7 36  1  0  0  0
  9 37  1  0  0  0
 10 38  1  0  0  0
 10 39  1  0  0  0
 11 40  1  0  0  0
 13 41  1  0  0  0
 13 42  1  0  0  0
 14 43  1  0  0  0
 16 44  1  0  0  0
 17 45  1  0  0  0
 19 46  1  0  0  0
 20 47  1  0  0  0
 23 48  1  0  0  0
 24 49  1  0  0  0
 25 50  1  0  0  0
 25 51  1  0  0  0
 26 52  1  0  0  0
 26 53  1  0  0  0
 28 54  1  0  0  0
 32 55  1  0  0  0
 33 56  1  0  0  0
M  END
$$$$
