2qki_ligand
  -I-interpret- 

207211  0  0  0  0  0  0  0  0999 V2000
   34.1220   18.1090  -29.1550 N   0  3  0  0  0
   33.0420   18.0390  -30.1400 C   0  0  0  0  0
   33.5150   18.1650  -31.5950 C   0  0  0  0  0
   32.7240   17.9390  -32.5220 O   0  0  0  0  0
   31.9540   19.1300  -29.8790 C   0  0  0  0  0
   32.5980   20.5080  -29.6600 C   0  0  0  0  0
   31.0580   18.7340  -28.6990 C   0  0  0  0  0
   31.7570   21.6820  -30.1370 C   0  0  0  0  0
   34.7880   18.5270  -31.7960 N   0  0  0  0  0
   35.2830   18.8720  -33.1370 C   0  0  0  0  0
   36.7780   18.6240  -33.3850 C   0  0  0  0  0
   37.5750   18.5520  -32.4520 O   0  0  0  0  0
   34.9380   20.3300  -33.4660 C   0  0  0  0  0
   35.9820   21.5680  -32.6300 S   0  0  0  0  0
   37.1300   18.5240  -34.6680 N   0  0  0  0  0
   38.5080   18.3530  -35.1290 C   0  0  0  0  0
   38.8830   19.5020  -36.0690 C   0  0  0  0  0
   38.1840   19.7650  -37.0530 O   0  0  0  0  0
   38.6920   17.0000  -35.8710 C   0  0  0  0  0
   40.0530   16.9220  -36.5540 C   0  0  0  0  0
   38.5200   15.8310  -34.9170 C   0  0  0  0  0
   39.9860   20.1830  -35.7560 N   0  0  0  0  0
   40.4810   21.2920  -36.5680 C   0  0  0  0  0
   40.9620   20.8090  -37.9310 C   0  0  0  0  0
   42.0680   20.2830  -38.0680 O   0  0  0  0  0
   41.5830   22.0560  -35.8310 C   0  0  0  0  0
   41.0650   22.9060  -34.7120 C   0  0  0  0  0
   41.1170   22.6270  -33.3780 C   0  0  0  0  0
   40.4010   24.1720  -34.8310 C   0  0  0  0  0
   40.5320   23.6410  -32.6530 N   0  0  0  0  0
   40.0830   24.6030  -33.5210 C   0  0  0  0  0
   40.0440   24.9860  -35.9170 C   0  0  0  0  0
   39.4210   25.8120  -33.2680 C   0  0  0  0  0
   39.3870   26.1890  -35.6620 C   0  0  0  0  0
   39.0840   26.5890  -34.3490 C   0  0  0  0  0
   40.0950   20.9740  -38.9270 N   0  0  0  0  0
   40.3690   20.6010  -40.3170 C   0  0  0  0  0
   39.2990   21.1970  -41.2400 C   0  0  0  0  0
   38.3140   21.7750  -40.7710 O   0  0  0  0  0
   40.4610   19.0730  -40.4810 C   0  0  0  0  0
   39.2660   18.2970  -39.9440 C   0  0  0  0  0
   39.4280   16.7880  -40.0580 C   0  0  0  0  0
   40.5360   16.2700  -40.2180 O   0  0  0  0  0
   38.3130   16.0750  -39.9680 N   0  0  0  0  0
   39.4980   21.0640  -42.5480 N   0  0  0  0  0
   38.5910   21.6690  -43.5200 C   0  0  0  0  0
   37.8220   20.6420  -44.3640 C   0  0  0  0  0
   37.5400   20.8700  -45.5410 O   0  0  0  0  0
   39.3440   22.6840  -44.3910 C   0  0  0  0  0
   39.8330   23.8970  -43.5960 C   0  0  0  0  0
   39.2830   24.1700  -42.5040 O   0  0  0  0  0
   40.7670   24.5830  -44.0700 O   0  0  0  0  0
   37.4860   19.5170  -43.7370 N   0  0  0  0  0
   36.6270   18.4880  -44.3240 C   0  0  0  0  0
   35.9660   17.7070  -43.1890 C   0  0  0  0  0
   36.3810   17.8230  -42.0330 O   0  0  0  0  0
   37.4320   17.5450  -45.2310 C   0  0  0  0  0
   38.4410   16.7040  -44.4970 C   0  0  0  0  0
   39.7150   17.0630  -44.1560 C   0  0  0  0  0
   38.2580   15.3660  -44.0150 C   0  0  0  0  0
   40.3360   16.0330  -43.4890 N   0  0  0  0  0
   39.4650   14.9810  -43.3860 C   0  0  0  0  0
   37.1920   14.4560  -44.0480 C   0  0  0  0  0
   39.6360   13.7250  -42.8000 C   0  0  0  0  0
   37.3600   13.2130  -43.4640 C   0  0  0  0  0
   38.5760   12.8570  -42.8460 C   0  0  0  0  0
   34.9350   16.9290  -43.5140 N   0  0  0  0  0
   34.2910   16.0490  -42.5360 C   0  0  0  0  0
   33.1790   16.6820  -41.7200 C   0  0  0  0  0
   33.1520   17.8950  -41.5230 O   0  0  0  0  0
   32.2740   15.8400  -41.2240 N   0  0  0  0  0
   31.0730   16.2840  -40.5040 C   0  0  0  0  0
   31.3710   17.0320  -39.2010 C   0  0  0  0  0
   30.5940   17.8980  -38.7890 O   0  0  0  0  0
   30.1450   15.0980  -40.2390 C   0  0  0  0  0
   32.4970   16.6960  -38.5690 N   0  0  0  0  0
   32.9030   17.3100  -37.3070 C   0  0  0  0  0
   34.1050   18.2530  -37.4830 C   0  0  0  0  0
   35.1800   18.0310  -36.9270 O   0  0  0  0  0
   33.1870   16.2330  -36.2470 C   0  0  0  0  0
   32.1010   15.2050  -36.1120 C   0  0  0  0  0
   31.0190   15.3660  -35.2710 N   0  0  0  0  0
   31.9320   14.0030  -36.7130 C   0  0  0  0  0
   30.2310   14.3100  -35.3610 C   0  0  0  0  0
   30.7620   13.4670  -36.2290 N   0  0  0  0  0
   33.9080   19.3020  -38.2770 N   0  0  0  0  0
   34.8520   20.4130  -38.3630 C   0  0  0  0  0
   34.6360   21.3050  -37.1500 C   0  0  0  0  0
   33.5350   21.3390  -36.5930 O   0  0  0  0  0
   34.5960   21.2510  -39.6230 C   0  0  0  0  0
   34.8370   20.5450  -40.9510 C   0  0  0  0  0
   34.1470   21.2660  -42.1040 C   0  0  0  0  0
   32.7120   21.4250  -41.8650 N   0  0  0  0  0
   31.7600   20.6220  -42.3430 C   0  0  0  0  0
   32.0680   19.5830  -43.1130 N   0  0  0  0  0
   30.4880   20.8650  -42.0510 N   0  0  0  0  0
   35.6740   22.0370  -36.7510 N   0  0  0  0  0
   35.5390   23.0300  -35.6850 C   0  0  0  0  0
   34.9060   24.3240  -36.2010 C   0  0  0  0  0
   35.2350   24.7910  -37.2950 O   0  0  0  0  0
   36.8810   23.3020  -35.0020 C   0  0  0  0  0
   37.4900   21.9280  -33.9610 S   0  0  0  0  0
   34.0000   24.8790  -35.3900 N   0  0  0  0  0
   33.1740   26.0680  -35.7120 C   0  0  0  0  0
   32.3250   25.9310  -36.9900 C   0  0  0  0  0
   32.3620   24.8680  -37.6490 O   0  0  0  0  0
   33.9760   27.4230  -35.7200 C   0  0  0  0  0
   34.5780   27.6500  -37.0070 O   0  0  0  0  0
   35.0340   27.4830  -34.6020 C   0  0  0  0  0
   31.5555   26.9388  -37.3914 O   0  0  0  0  0
   33.7315   18.0183  -28.2171 H   0  0  0  0  0
   34.7840   17.3516  -29.3237 H   0  0  0  0  0
   34.6006   19.0057  -29.2401 H   0  0  0  0  0
   32.6207   17.0421  -30.0103 H   0  0  0  0  0
   31.3226   19.2009  -30.7647 H   0  0  0  0  0
   33.5223   20.5229  -30.2376 H   0  0  0  0  0
   32.7332   20.6291  -28.5852 H   0  0  0  0  0
   31.6552   18.6954  -27.7880 H   0  0  0  0  0
   30.2641   19.4719  -28.5836 H   0  0  0  0  0
   30.6201   17.7542  -28.8897 H   0  0  0  0  0
   31.5730   21.5845  -31.2069 H   0  0  0  0  0
   30.8070   21.6876  -29.6027 H   0  0  0  0  0
   32.2904   22.6124  -29.9421 H   0  0  0  0  0
   35.4279   18.5643  -31.0025 H   0  0  0  0  0
   34.7693   18.1808  -33.8052 H   0  0  0  0  0
   33.9153   20.4977  -33.1282 H   0  0  0  0  0
   35.0911   20.4579  -34.5376 H   0  0  0  0  0
   35.5933   22.7883  -32.9887 H   0  0  0  0  0
   36.3926   18.5696  -35.3712 H   0  0  0  0  0
   39.1593   18.3568  -34.2550 H   0  0  0  0  0
   37.9205   16.9420  -36.6388 H   0  0  0  0  0
   40.1407   17.7305  -37.2798 H   0  0  0  0  0
   40.8397   17.0170  -35.8055 H   0  0  0  0  0
   40.1481   15.9630  -37.0632 H   0  0  0  0  0
   39.2632   15.8996  -34.1226 H   0  0  0  0  0
   37.5200   15.8609  -34.4843 H   0  0  0  0  0
   38.6538   14.8964  -35.4617 H   0  0  0  0  0
   40.5038   19.9195  -34.9176 H   0  0  0  0  0
   39.6515   21.9784  -36.7383 H   0  0  0  0  0
   42.0653   22.7166  -36.5515 H   0  0  0  0  0
   42.2627   21.3210  -35.3999 H   0  0  0  0  0
   41.5590   21.7287  -32.9469 H   0  0  0  0  0
   40.2755   24.6841  -36.9384 H   0  0  0  0  0
   39.1825   26.1240  -32.2512 H   0  0  0  0  0
   39.1032   26.8310  -36.4959 H   0  0  0  0  0
   38.5704   27.5364  -34.1853 H   0  0  0  0  0
   39.1866   21.3841  -38.7100 H   0  0  0  0  0
   41.3384   21.0115  -40.5995 H   0  0  0  0  0
   41.3309   18.7465  -39.9112 H   0  0  0  0  0
   40.5116   18.8732  -41.5513 H   0  0  0  0  0
   38.3959   18.5807  -40.5360 H   0  0  0  0  0
   39.1647   18.5386  -38.8859 H   0  0  0  0  0
   38.3517   15.0577  -40.0311 H   0  0  0  0  0
   37.4170   16.5441  -39.8357 H   0  0  0  0  0
   40.3004   20.5285  -42.8793 H   0  0  0  0  0
   37.8247   22.1980  -42.9534 H   0  0  0  0  0
   38.6570   23.0415  -45.1580 H   0  0  0  0  0
   40.2175   22.1835  -44.8087 H   0  0  0  0  0
   38.5954   23.5249  -42.3232 H   0  0  0  0  0
   37.8472   19.3637  -42.7955 H   0  0  0  0  0
   35.8661   18.9610  -44.9447 H   0  0  0  0  0
   37.9818   18.1669  -45.9374 H   0  0  0  0  0
   36.7224   16.8632  -45.6998 H   0  0  0  0  0
   40.1727   18.0265  -44.3803 H   0  0  0  0  0
   36.2487   14.7227  -44.5247 H   0  0  0  0  0
   40.5761   13.4456  -42.3244 H   0  0  0  0  0
   36.5383   12.4970  -43.4821 H   0  0  0  0  0
   38.6756   11.8698  -42.3948 H   0  0  0  0  0
   34.5838   16.9465  -44.4715 H   0  0  0  0  0
   35.0651   15.7525  -41.8282 H   0  0  0  0  0
   33.8363   15.2360  -43.1021 H   0  0  0  0  0
   32.4220   14.8387  -41.3502 H   0  0  0  0  0
   30.5782   17.0039  -41.1559 H   0  0  0  0  0
   29.8474   14.6520  -41.1880 H   0  0  0  0  0
   30.6686   14.3563  -39.6359 H   0  0  0  0  0
   29.2598   15.4432  -39.7049 H   0  0  0  0  0
   33.0975   15.9829  -38.9829 H   0  0  0  0  0
   32.0718   17.9228  -36.9582 H   0  0  0  0  0
   33.2721   16.7405  -35.2861 H   0  0  0  0  0
   34.0916   15.7083  -36.5544 H   0  0  0  0  0
   32.5990   13.5459  -37.4439 H   0  0  0  0  0
   29.3011   14.1595  -34.8127 H   0  0  0  0  0
   33.0638   19.3316  -38.8487 H   0  0  0  0  0
   35.8672   20.0179  -38.4006 H   0  0  0  0  0
   35.2982   22.0838  -39.5860 H   0  0  0  0  0
   33.5395   21.5185  -39.6046 H   0  0  0  0  0
   34.4301   19.5361  -40.8832 H   0  0  0  0  0
   35.9095   20.5334  -41.1449 H   0  0  0  0  0
   34.2799   20.6718  -43.0081 H   0  0  0  0  0
   34.5898   22.2572  -42.2021 H   0  0  0  0  0
   32.4164   22.2119  -41.2873 H   0  0  0  0  0
   31.3295   18.9795  -43.4747 H   0  0  0  0  0
   33.0429   19.3893  -43.3421 H   0  0  0  0  0
   30.2428   21.6623  -41.4640 H   0  0  0  0  0
   36.5813   21.9029  -37.1973 H   0  0  0  0  0
   34.8666   22.6128  -34.9354 H   0  0  0  0  0
   36.7383   24.1612  -34.3466 H   0  0  0  0  0
   37.6166   23.4558  -35.7915 H   0  0  0  0  0
   38.6557   22.2680  -33.4184 H   0  0  0  0  0
   33.8657   24.4496  -34.4746 H   0  0  0  0  0
   32.4763   26.1087  -34.8755 H   0  0  0  0  0
   33.2598   28.2208  -35.5234 H   0  0  0  0  0
   35.0613   28.4793  -36.9912 H   0  0  0  0  0
   34.5432   27.3863  -33.6335 H   0  0  0  0  0
   35.7458   26.6680  -34.7330 H   0  0  0  0  0
   35.5589   28.4370  -34.6511 H   0  0  0  0  0
   31.6441   27.6717  -36.7777 H   0  0  0  0  0
  2  1  1  0  0  0
  2  5  1  0  0  0
  3  2  1  0  0  0
  3  4  2  0  0  0
  5  7  1  0  0  0
  5  6  1  0  0  0
  6  8  1  0  0  0
 10  9  1  0  0  0
 10 13  1  0  0  0
 11 10  1  0  0  0
 11 12  2  0  0  0
 13 14  1  0  0  0
  9  3  1  0  0  0
 16 15  1  0  0  0
 16 19  1  0  0  0
 17 16  1  0  0  0
 17 18  2  0  0  0
 19 21  1  0  0  0
 19 20  1  0  0  0
 15 11  1  0  0  0
 23 22  1  0  0  0
 23 26  1  0  0  0
 24 23  1  0  0  0
 24 25  2  0  0  0
 26 27  1  0  0  0
 27 28  4  0  0  0
 27 29  4  0  0  0
 29 32  4  0  0  0
 29 31  4  0  0  0
 31 33  4  0  0  0
 31 30  4  0  0  0
 28 30  4  0  0  0
 33 35  4  0  0  0
 34 35  4  0  0  0
 32 34  4  0  0  0
 22 17  1  0  0  0
 37 36  1  0  0  0
 37 40  1  0  0  0
 38 37  1  0  0  0
 38 39  2  0  0  0
 40 41  1  0  0  0
 41 42  1  0  0  0
 42 44  1  0  0  0
 42 43  2  0  0  0
 36 24  1  0  0  0
 46 45  1  0  0  0
 46 49  1  0  0  0
 47 46  1  0  0  0
 47 48  2  0  0  0
 49 50  1  0  0  0
 50 51  1  0  0  0
 50 52  2  0  0  0
 45 38  1  0  0  0
 54 53  1  0  0  0
 54 57  1  0  0  0
 55 54  1  0  0  0
 55 56  2  0  0  0
 57 58  1  0  0  0
 58 59  4  0  0  0
 58 60  4  0  0  0
 60 63  4  0  0  0
 60 62  4  0  0  0
 62 64  4  0  0  0
 62 61  4  0  0  0
 59 61  4  0  0  0
 64 66  4  0  0  0
 65 66  4  0  0  0
 63 65  4  0  0  0
 53 47  1  0  0  0
 68 67  1  0  0  0
 69 68  1  0  0  0
 69 70  2  0  0  0
 67 55  1  0  0  0
 72 71  1  0  0  0
 72 75  1  0  0  0
 73 72  1  0  0  0
 73 74  2  0  0  0
 71 69  1  0  0  0
 77 76  1  0  0  0
 77 80  1  0  0  0
 78 77  1  0  0  0
 78 79  2  0  0  0
 80 81  1  0  0  0
 81 82  4  0  0  0
 81 83  4  0  0  0
 83 85  4  0  0  0
 85 84  4  0  0  0
 82 84  4  0  0  0
 76 73  1  0  0  0
 87 86  1  0  0  0
 87 90  1  0  0  0
 88 87  1  0  0  0
 88 89  2  0  0  0
 90 91  1  0  0  0
 91 92  1  0  0  0
 92 93  1  0  0  0
 93 94  1  0  0  0
 94 96  2  0  0  0
 94 95  1  0  0  0
 86 78  1  0  0  0
 98 97  1  0  0  0
 98101  1  0  0  0
 99 98  1  0  0  0
 99100  2  0  0  0
101102  1  0  0  0
 97 88  1  0  0  0
103104  1  0  0  0
104107  1  0  0  0
104105  1  0  0  0
105106  2  0  0  0
107109  1  0  0  0
107108  1  0  0  0
 99103  1  0  0  0
105110  1  0  0  0
  1111  1  0  0  0
  1112  1  0  0  0
  1113  1  0  0  0
  2114  1  0  0  0
  5115  1  0  0  0
  6116  1  0  0  0
  6117  1  0  0  0
  7118  1  0  0  0
  7119  1  0  0  0
  7120  1  0  0  0
  8121  1  0  0  0
  8122  1  0  0  0
  8123  1  0  0  0
  9124  1  0  0  0
 10125  1  0  0  0
 13126  1  0  0  0
 13127  1  0  0  0
 14128  1  0  0  0
 15129  1  0  0  0
 16130  1  0  0  0
 19131  1  0  0  0
 20132  1  0  0  0
 20133  1  0  0  0
 20134  1  0  0  0
 21135  1  0  0  0
 21136  1  0  0  0
 21137  1  0  0  0
 22138  1  0  0  0
 23139  1  0  0  0
 26140  1  0  0  0
 26141  1  0  0  0
 28142  1  0  0  0
 32143  1  0  0  0
 33144  1  0  0  0
 34145  1  0  0  0
 35146  1  0  0  0
 36147  1  0  0  0
 37148  1  0  0  0
 40149  1  0  0  0
 40150  1  0  0  0
 41151  1  0  0  0
 41152  1  0  0  0
 44153  1  0  0  0
 44154  1  0  0  0
 45155  1  0  0  0
 46156  1  0  0  0
 49157  1  0  0  0
 49158  1  0  0  0
 51159  1  0  0  0
 53160  1  0  0  0
 54161  1  0  0  0
 57162  1  0  0  0
 57163  1  0  0  0
 59164  1  0  0  0
 63165  1  0  0  0
 64166  1  0  0  0
 65167  1  0  0  0
 66168  1  0  0  0
 67169  1  0  0  0
 68170  1  0  0  0
 68171  1  0  0  0
 71172  1  0  0  0
 72173  1  0  0  0
 75174  1  0  0  0
 75175  1  0  0  0
 75176  1  0  0  0
 76177  1  0  0  0
 77178  1  0  0  0
 80179  1  0  0  0
 80180  1  0  0  0
 83181  1  0  0  0
 84182  1  0  0  0
 86183  1  0  0  0
 87184  1  0  0  0
 90185  1  0  0  0
 90186  1  0  0  0
 91187  1  0  0  0
 91188  1  0  0  0
 92189  1  0  0  0
 92190  1  0  0  0
 93191  1  0  0  0
 95192  1  0  0  0
 95193  1  0  0  0
 96194  1  0  0  0
 97195  1  0  0  0
 98196  1  0  0  0
101197  1  0  0  0
101198  1  0  0  0
102199  1  0  0  0
103200  1  0  0  0
104201  1  0  0  0
107202  1  0  0  0
108203  1  0  0  0
109204  1  0  0  0
109205  1  0  0  0
109206  1  0  0  0
110207  1  0  0  0
M  END
$$$$
