### 
### Created by X-TOOL on Mon Sep 10 21:12:56 2018
### 

@<TRIPOS>MOLECULE
2qki_ligand
  210   214     1     0     0
SMALL
GAST_HUCK


@<TRIPOS>ATOM
      1 N          34.1220   18.1090  -29.1550 N.4       1 ILE         0.2381
      2 CA         33.0420   18.0390  -30.1400 C.3       1 ILE         0.0676
      3 C          33.5150   18.1650  -31.5950 C.2       1 ILE         0.2270
      4 O          32.7240   17.9390  -32.5220 O.2       1 ILE        -0.3907
      5 CB         31.9540   19.1300  -29.8790 C.3       1 ILE         0.0164
      6 CG1        32.5980   20.5080  -29.6600 C.3       1 ILE        -0.0460
      7 CG2        31.0580   18.7340  -28.6990 C.3       1 ILE        -0.0551
      8 CD1        31.7570   21.6820  -30.1370 C.3       1 ILE        -0.0647
      9 N          34.7880   18.5270  -31.7960 N.am      1 CYS        -0.2602
     10 CA         35.2830   18.8720  -33.1370 C.3       1 CYS         0.1397
     11 C          36.7780   18.6240  -33.3850 C.2       1 CYS         0.2047
     12 O          37.5750   18.5520  -32.4520 O.2       1 CYS        -0.3944
     13 CB         34.9380   20.3300  -33.4660 C.3       1 CYS         0.0311
     14 SG         35.9820   21.5680  -32.6300 S.3       1 CYS        -0.1735
     15 N          37.1300   18.5240  -34.6680 N.am      1 VAL        -0.2634
     16 CA         38.5080   18.3530  -35.1290 C.3       1 VAL         0.1333
     17 C          38.8830   19.5020  -36.0690 C.2       1 VAL         0.2042
     18 O          38.1840   19.7650  -37.0530 O.2       1 VAL        -0.3944
     19 CB         38.6920   17.0000  -35.8710 C.3       1 VAL        -0.0063
     20 CG1        40.0530   16.9220  -36.5540 C.3       1 VAL        -0.0584
     21 CG2        38.5200   15.8310  -34.9170 C.3       1 VAL        -0.0584
     22 N          39.9860   20.1830  -35.7560 N.am      1 TRP        -0.2627
     23 CA         40.4810   21.2920  -36.5680 C.3       1 TRP         0.1352
     24 C          40.9620   20.8090  -37.9310 C.2       1 TRP         0.2052
     25 O          42.0680   20.2830  -38.0680 O.2       1 TRP        -0.3942
     26 CB         41.5830   22.0560  -35.8310 C.3       1 TRP         0.0042
     27 CG         41.0650   22.9060  -34.7120 C.2       1 TRP        -0.0418
     28 CD1        41.1170   22.6270  -33.3780 C.2       1 TRP         0.0167
     29 CD2        40.4010   24.1720  -34.8310 C.ar      1 TRP        -0.0214
     30 NE1        40.5320   23.6410  -32.6530 N.pl3     1 TRP        -0.2890
     31 CE2        40.0830   24.6030  -33.5210 C.ar      1 TRP         0.0603
     32 CE3        40.0440   24.9860  -35.9170 C.ar      1 TRP        -0.0747
     33 CZ2        39.4210   25.8120  -33.2680 C.ar      1 TRP        -0.0443
     34 CZ3        39.3870   26.1890  -35.6620 C.ar      1 TRP        -0.0792
     35 CH2        39.0840   26.5890  -34.3490 C.ar      1 TRP        -0.0768
     36 N          40.0950   20.9740  -38.9270 N.am      1 GLN        -0.2635
     37 CA         40.3690   20.6010  -40.3170 C.3       1 GLN         0.1330
     38 C          39.2990   21.1970  -41.2400 C.2       1 GLN         0.2041
     39 O          38.3140   21.7750  -40.7710 O.2       1 GLN        -0.3944
     40 CB         40.4610   19.0730  -40.4810 C.3       1 GLN         0.0045
     41 CG         39.2660   18.2970  -39.9440 C.3       1 GLN         0.0412
     42 CD         39.4280   16.7880  -40.0580 C.2       1 GLN         0.1737
     43 OE1        40.5360   16.2700  -40.2180 O.2       1 GLN        -0.3973
     44 NE2        38.3130   16.0750  -39.9680 N.am      1 GLN        -0.3009
     45 N          39.4980   21.0640  -42.5480 N.am      1 ASP        -0.2622
     46 CA         38.5910   21.6690  -43.5200 C.3       1 ASP         0.1423
     47 C          37.8220   20.6420  -44.3640 C.2       1 ASP         0.2057
     48 O          37.5400   20.8700  -45.5410 O.2       1 ASP        -0.3943
     49 CB         39.3440   22.6840  -44.3910 C.3       1 ASP         0.0406
     50 CG         39.8330   23.8970  -43.5960 C.2       1 ASP         0.0393
     51 OD1        39.2830   24.1700  -42.5040 O.co2     1 ASP        -0.5688
     52 OD2        40.7670   24.5830  -44.0700 O.co2     1 ASP        -0.5688
     53 N          37.4860   19.5170  -43.7370 N.am      1 TRP        -0.2626
     54 CA         36.6270   18.4880  -44.3240 C.3       1 TRP         0.1352
     55 C          35.9660   17.7070  -43.1890 C.2       1 TRP         0.2050
     56 O          36.3810   17.8230  -42.0330 O.2       1 TRP        -0.3943
     57 CB         37.4320   17.5450  -45.2310 C.3       1 TRP         0.0042
     58 CG         38.4410   16.7040  -44.4970 C.2       1 TRP        -0.0418
     59 CD1        39.7150   17.0630  -44.1560 C.2       1 TRP         0.0167
     60 CD2        38.2580   15.3660  -44.0150 C.ar      1 TRP        -0.0214
     61 NE1        40.3360   16.0330  -43.4890 N.pl3     1 TRP        -0.2890
     62 CE2        39.4650   14.9810  -43.3860 C.ar      1 TRP         0.0603
     63 CE3        37.1920   14.4560  -44.0480 C.ar      1 TRP        -0.0747
     64 CZ2        39.6360   13.7250  -42.8000 C.ar      1 TRP        -0.0443
     65 CZ3        37.3600   13.2130  -43.4640 C.ar      1 TRP        -0.0792
     66 CH2        38.5760   12.8570  -42.8460 C.ar      1 TRP        -0.0768
     67 N          34.9350   16.9290  -43.5140 N.am      1 GLY        -0.2663
     68 CA         34.2910   16.0490  -42.5360 C.3       1 GLY         0.1201
     69 C          33.1790   16.6820  -41.7200 C.2       1 GLY         0.2007
     70 O          33.1520   17.8950  -41.5230 O.2       1 GLY        -0.3947
     71 N          32.2740   15.8400  -41.2240 N.am      1 ALA        -0.2642
     72 CA         31.0730   16.2840  -40.5040 C.3       1 ALA         0.1282
     73 C          31.3710   17.0320  -39.2010 C.2       1 ALA         0.2037
     74 O          30.5940   17.8980  -38.7890 O.2       1 ALA        -0.3944
     75 CB         30.1450   15.0980  -40.2390 C.3       1 ALA        -0.0244
     76 N          32.4970   16.6960  -38.5690 N.am      1 HIS        -0.2619
     77 CA         32.9030   17.3100  -37.3070 C.3       1 HIS         0.1421
     78 C          34.1050   18.2530  -37.4830 C.2       1 HIS         0.2060
     79 O          35.1800   18.0310  -36.9270 O.2       1 HIS        -0.3942
     80 CB         33.1870   16.2330  -36.2470 C.3       1 HIS         0.0427
     81 CG         32.1010   15.2050  -36.1120 C.2       1 HIS         0.0561
     82 ND1        31.0190   15.3660  -35.2710 N.pl3     1 HIS        -0.2623
     83 CD2        31.9320   14.0030  -36.7130 C.2       1 HIS        -0.0276
     84 CE1        30.2310   14.3100  -35.3610 C.2       1 HIS         0.0875
     85 NE2        30.7620   13.4670  -36.2290 N.2       1 HIS        -0.3437
     86 N          33.9080   19.3020  -38.2770 N.am      1 ARG        -0.2636
     87 CA         34.8520   20.4130  -38.3630 C.3       1 ARG         0.1311
     88 C          34.6360   21.3050  -37.1500 C.2       1 ARG         0.2039
     89 O          33.5350   21.3390  -36.5930 O.2       1 ARG        -0.3944
     90 CB         34.5960   21.2510  -39.6230 C.3       1 ARG        -0.0092
     91 CG         34.8370   20.5450  -40.9510 C.3       1 ARG        -0.0156
     92 CD         34.1470   21.2660  -42.1040 C.3       1 ARG         0.0627
     93 NE         32.7120   21.4250  -41.8650 N.pl3     1 ARG        -0.2723
     94 CZ         31.7600   20.6220  -42.3430 C.cat     1 ARG         0.2882
     95 NH1        32.0680   19.5830  -43.1130 N.pl3     1 ARG        -0.2849
     96 NH2        30.4880   20.8650  -42.0510 N.pl3     1 ARG        -0.2849
     97 N          35.6740   22.0370  -36.7510 N.am      1 CYS        -0.2629
     98 CA         35.5390   23.0300  -35.6850 C.3       1 CYS         0.1396
     99 C          34.9060   24.3240  -36.2010 C.2       1 CYS         0.2049
    100 O          35.2350   24.7910  -37.2950 O.2       1 CYS        -0.3943
    101 CB         36.8810   23.3020  -35.0020 C.3       1 CYS         0.0311
    102 SG         37.4900   21.9280  -33.9610 S.3       1 CYS        -0.1735
    103 N          34.0000   24.8790  -35.3900 N.am      1 THR        -0.2601
    104 CA         33.1740   26.0680  -35.7120 C.3       1 THR         0.1677
    105 C          32.3250   25.9310  -36.9900 C.2       1 THR         0.2597
    106 O          32.3620   24.8680  -37.6490 O.2       1 THR        -0.3679
    107 CB         33.9760   27.4230  -35.7200 C.3       1 THR         0.0937
    108 OG1        34.5780   27.6500  -37.0070 O.3       1 THR        -0.3873
    109 CG2        35.0340   27.4830  -34.6020 C.3       1 THR        -0.0344
    110 O1         31.5555   26.9388  -37.3914 O.3       1 THR        -0.2909
    111 H1         33.7372   18.0195  -28.2276 H         1 ILE         0.2015
    112 H2         34.5957   18.9949  -29.2381 H         1 ILE         0.2015
    113 H3         34.7769   17.3609  -29.3207 H         1 ILE         0.2015
    114 H4         32.5692   17.0521  -30.0285 H         1 ILE         0.1101
    115 H5         31.3195   19.1954  -30.7752 H         1 ILE         0.0378
    116 H6         33.5554   20.5294  -30.2012 H         1 ILE         0.0269
    117 H7         32.7827   20.6333  -28.5829 H         1 ILE         0.0269
    118 H8         30.6155   17.7453  -28.8903 H         1 ILE         0.0236
    119 H9         30.2563   19.4780  -28.5815 H         1 ILE         0.0236
    120 H10        31.6595   18.6946  -27.7789 H         1 ILE         0.0236
    121 H11        32.2943   22.6216  -29.9408 H         1 ILE         0.0230
    122 H12        30.7979   21.6888  -29.5985 H         1 ILE         0.0230
    123 H13        31.5706   21.5848  -31.2167 H         1 ILE         0.0230
    124 H14        35.4153   18.5636  -31.0181 H         1 CYS         0.1885
    125 H15        34.7376   18.2311  -33.8454 H         1 CYS         0.0808
    126 H16        33.8930   20.5092  -33.1729 H         1 CYS         0.0422
    127 H17        35.0435   20.4703  -34.5519 H         1 CYS         0.0422
    128 H18        36.9443   21.4289  -32.8958 H         1 CYS         0.1019
    129 H19        36.4070   18.5687  -35.3574 H         1 VAL         0.1883
    130 H20        39.1763   18.3707  -34.2555 H         1 VAL         0.0802
    131 H21        37.9149   16.9292  -36.6463 H         1 VAL         0.0343
    132 H22        40.1502   15.9545  -37.0683 H         1 VAL         0.0234
    133 H23        40.8479   17.0177  -35.7997 H         1 VAL         0.0234
    134 H24        40.1428   17.7374  -37.2868 H         1 VAL         0.0234
    135 H25        37.5358   15.8969  -34.4301 H         1 VAL         0.0234
    136 H26        39.3102   15.8624  -34.1524 H         1 VAL         0.0234
    137 H27        38.5893   14.8870  -35.4775 H         1 VAL         0.0234
    138 H28        40.4937   19.9247  -34.9341 H         1 TRP         0.1884
    139 H29        39.6442   21.9861  -36.7350 H         1 TRP         0.0815
    140 H30        42.1006   22.7053  -36.5524 H         1 TRP         0.0397
    141 H31        42.2955   21.3280  -35.4159 H         1 TRP         0.0397
    142 H32        41.5586   21.7295  -32.9473 H         1 TRP         0.0795
    143 H33        40.4458   23.6719  -31.6271 H         1 TRP         0.2216
    144 H34        40.2742   24.6857  -36.9328 H         1 TRP         0.0540
    145 H35        39.1838   26.1222  -32.2568 H         1 TRP         0.0541
    146 H36        39.1047   26.8274  -36.4913 H         1 TRP         0.0510
    147 H37        38.5733   27.5312  -34.1862 H         1 TRP         0.0530
    148 H38        39.2045   21.3761  -38.7142 H         1 GLN         0.1883
    149 H39        41.3418   21.0293  -40.6002 H         1 GLN         0.0801
    150 H40        41.3600   18.7260  -39.9505 H         1 GLN         0.0337
    151 H41        40.5591   18.8498  -41.5536 H         1 GLN         0.0337
    152 H42        38.3721   18.5960  -40.5110 H         1 GLN         0.0504
    153 H43        39.1305   18.5545  -38.8832 H         1 GLN         0.0504
    154 H44        38.3503   15.0779  -40.0349 H         1 GLN         0.1814
    155 H45        37.4351   16.5346  -39.8332 H         1 GLN         0.1814
    156 H46        40.2847   20.5390  -42.8728 H         1 ASP         0.1884
    157 H47        37.8375   22.2294  -42.9471 H         1 ASP         0.0819
    158 H48        38.6698   23.0335  -45.1868 H         1 ASP         0.0478
    159 H49        40.2144   22.1842  -44.8411 H         1 ASP         0.0478
    160 H50        37.8401   19.3667  -42.8139 H         1 TRP         0.1884
    161 H51        35.8472   18.9744  -44.9284 H         1 TRP         0.0815
    162 H52        37.9654   18.1534  -45.9762 H         1 TRP         0.0397
    163 H53        36.7279   16.8725  -45.7427 H         1 TRP         0.0397
    164 H54        40.1723   18.0256  -44.3801 H         1 TRP         0.0795
    165 H55        41.2997   16.0500  -43.1258 H         1 TRP         0.2216
    166 H56        36.2539   14.7212  -44.5221 H         1 TRP         0.0540
    167 H57        40.5709   13.4471  -42.3270 H         1 TRP         0.0541
    168 H58        36.5429   12.5009  -43.4820 H         1 TRP         0.0510
    169 H59        38.6750   11.8752  -42.3973 H         1 TRP         0.0530
    170 H60        34.5906   16.9461  -44.4527 H         1 GLY         0.1881
    171 H61        35.0640   15.6949  -41.8381 H         1 GLY         0.0763
    172 H62        33.8668   15.1917  -43.0792 H         1 GLY         0.0763
    173 H63        32.4191   14.8583  -41.3477 H         1 ALA         0.1883
    174 H64        30.5414   16.9853  -41.1640 H         1 ALA         0.0797
    175 H65        29.2512   15.4451  -39.7000 H         1 ALA         0.0277
    176 H66        30.6723   14.3487  -39.6303 H         1 ALA         0.0277
    177 H67        29.8439   14.6470  -41.1960 H         1 ALA         0.0277
    178 H68        33.0858   15.9969  -38.9748 H         1 HIS         0.1885
    179 H69        32.0591   17.9173  -36.9478 H         1 HIS         0.0824
    180 H70        33.3145   16.7306  -35.2743 H         1 HIS         0.0491
    181 H71        34.1193   15.7169  -36.5199 H         1 HIS         0.0491
    182 H72        30.8518   16.1831  -34.6667 H         1 HIS         0.2386
    183 H73        32.5984   13.5463  -37.4433 H         1 HIS         0.0324
    184 H74        29.3019   14.1596  -34.8132 H         1 HIS         0.1149
    185 H75        33.0803   19.3310  -38.8375 H         1 ARG         0.1883
    186 H76        35.8820   20.0270  -38.3757 H         1 ARG         0.0800
    187 H77        35.2566   22.1296  -39.5836 H         1 ARG         0.0313
    188 H78        33.5466   21.5800  -39.6017 H         1 ARG         0.0313
    189 H79        34.4452   19.5192  -40.8861 H         1 ARG         0.0301
    190 H80        35.9189   20.5126  -41.1468 H         1 ARG         0.0301
    191 H81        34.2919   20.6836  -43.0258 H         1 ARG         0.0689
    192 H82        34.6003   22.2611  -42.2239 H         1 ARG         0.0689
    193 H83        32.4135   22.2197  -41.2816 H         1 ARG         0.2642
    194 H84        31.3225   18.9714  -43.4751 H         1 ARG         0.2615
    195 H85        33.0521   19.3896  -43.3475 H         1 ARG         0.2615
    196 H86        30.2407   21.6679  -41.4551 H         1 ARG         0.2615
    197 H87        29.7484   20.2506  -42.4203 H         1 ARG         0.2615
    198 H88        36.5635   21.9055  -37.1886 H         1 CYS         0.1884
    199 H89        34.8613   22.6102  -34.9270 H         1 CYS         0.0808
    200 H90        36.7692   24.1923  -34.3658 H         1 CYS         0.0422
    201 H91        37.6303   23.5007  -35.7824 H         1 CYS         0.0422
    202 H92        36.8208   21.7387  -33.2313 H         1 CYS         0.1019
    203 H93        33.8683   24.4580  -34.4925 H         1 THR         0.1885
    204 H94        32.4549   26.1497  -34.8837 H         1 THR         0.0843
    205 H95        33.2563   28.2346  -35.5377 H         1 THR         0.0641
    206 H96        35.2346   26.9831  -37.1703 H         1 THR         0.2101
    207 H97        35.5645   28.4454  -34.6505 H         1 THR         0.0257
    208 H98        35.7531   26.6610  -34.7331 H         1 THR         0.0257
    209 H99        34.5400   27.3855  -33.6240 H         1 THR         0.0257
    210 H100       30.6498   26.6535  -37.4170 H         1 THR         0.2540
@<TRIPOS>BOND
     1    2    1 1  
     2    2    5 1  
     3    3    2 1  
     4    3    4 2  
     5    5    7 1  
     6    5    6 1  
     7    6    8 1  
     8   10    9 1  
     9   10   13 1  
    10   11   10 1  
    11   11   12 2  
    12   13   14 1  
    13    9    3 am 
    14   16   15 1  
    15   16   19 1  
    16   17   16 1  
    17   17   18 2  
    18   19   21 1  
    19   19   20 1  
    20   15   11 am 
    21   23   22 1  
    22   23   26 1  
    23   24   23 1  
    24   24   25 2  
    25   26   27 1  
    26   27   28 2  
    27   27   29 1  
    28   29   32 ar 
    29   29   31 ar 
    30   31   33 ar 
    31   31   30 1  
    32   28   30 1  
    33   33   35 ar 
    34   34   35 ar 
    35   32   34 ar 
    36   22   17 am 
    37   37   36 1  
    38   37   40 1  
    39   38   37 1  
    40   38   39 2  
    41   40   41 1  
    42   41   42 1  
    43   42   44 am 
    44   42   43 2  
    45   36   24 am 
    46   46   45 1  
    47   46   49 1  
    48   47   46 1  
    49   47   48 2  
    50   49   50 1  
    51   50   51 ar 
    52   50   52 ar 
    53   45   38 am 
    54   54   53 1  
    55   54   57 1  
    56   55   54 1  
    57   55   56 2  
    58   57   58 1  
    59   58   59 2  
    60   58   60 1  
    61   60   63 ar 
    62   60   62 ar 
    63   62   64 ar 
    64   62   61 1  
    65   59   61 1  
    66   64   66 ar 
    67   65   66 ar 
    68   63   65 ar 
    69   53   47 am 
    70   68   67 1  
    71   69   68 1  
    72   69   70 2  
    73   67   55 am 
    74   72   71 1  
    75   72   75 1  
    76   73   72 1  
    77   73   74 2  
    78   71   69 am 
    79   77   76 1  
    80   77   80 1  
    81   78   77 1  
    82   78   79 2  
    83   80   81 1  
    84   81   82 1  
    85   81   83 2  
    86   83   85 1  
    87   85   84 2  
    88   82   84 1  
    89   76   73 am 
    90   87   86 1  
    91   87   90 1  
    92   88   87 1  
    93   88   89 2  
    94   90   91 1  
    95   91   92 1  
    96   92   93 1  
    97   93   94 ar 
    98   94   96 ar 
    99   94   95 ar 
   100   86   78 am 
   101   98   97 1  
   102   98  101 1  
   103   99   98 1  
   104   99  100 2  
   105  101  102 1  
   106   97   88 am 
   107  103  104 1  
   108  104  107 1  
   109  104  105 1  
   110  105  106 2  
   111  107  109 1  
   112  107  108 1  
   113   99  103 am 
   114  105  110 1  
   115    1  111 1  
   116    1  112 1  
   117    1  113 1  
   118    2  114 1  
   119    5  115 1  
   120    6  116 1  
   121    6  117 1  
   122    7  118 1  
   123    7  119 1  
   124    7  120 1  
   125    8  121 1  
   126    8  122 1  
   127    8  123 1  
   128    9  124 1  
   129   10  125 1  
   130   13  126 1  
   131   13  127 1  
   132   14  128 1  
   133   15  129 1  
   134   16  130 1  
   135   19  131 1  
   136   20  132 1  
   137   20  133 1  
   138   20  134 1  
   139   21  135 1  
   140   21  136 1  
   141   21  137 1  
   142   22  138 1  
   143   23  139 1  
   144   26  140 1  
   145   26  141 1  
   146   28  142 1  
   147   30  143 1  
   148   32  144 1  
   149   33  145 1  
   150   34  146 1  
   151   35  147 1  
   152   36  148 1  
   153   37  149 1  
   154   40  150 1  
   155   40  151 1  
   156   41  152 1  
   157   41  153 1  
   158   44  154 1  
   159   44  155 1  
   160   45  156 1  
   161   46  157 1  
   162   49  158 1  
   163   49  159 1  
   164   53  160 1  
   165   54  161 1  
   166   57  162 1  
   167   57  163 1  
   168   59  164 1  
   169   61  165 1  
   170   63  166 1  
   171   64  167 1  
   172   65  168 1  
   173   66  169 1  
   174   67  170 1  
   175   68  171 1  
   176   68  172 1  
   177   71  173 1  
   178   72  174 1  
   179   75  175 1  
   180   75  176 1  
   181   75  177 1  
   182   76  178 1  
   183   77  179 1  
   184   80  180 1  
   185   80  181 1  
   186   82  182 1  
   187   83  183 1  
   188   84  184 1  
   189   86  185 1  
   190   87  186 1  
   191   90  187 1  
   192   90  188 1  
   193   91  189 1  
   194   91  190 1  
   195   92  191 1  
   196   92  192 1  
   197   93  193 1  
   198   95  194 1  
   199   95  195 1  
   200   96  196 1  
   201   96  197 1  
   202   97  198 1  
   203   98  199 1  
   204  101  200 1  
   205  101  201 1  
   206  102  202 1  
   207  103  203 1  
   208  104  204 1  
   209  107  205 1  
   210  108  206 1  
   211  109  207 1  
   212  109  208 1  
   213  109  209 1  
   214  110  210 1  
@<TRIPOS>SUBSTRUCTURE
     1 ILE         1

