2vvt_ligand
  -I-interpret- 

 61 64  0  0  0  0  0  0  0  0999 V2000
    8.8640   50.2700   72.4350 N   0  0  0  0  0
    9.5070   49.6880   73.4390 C   0  0  0  0  0
    9.5360   50.1640   74.6820 N   0  0  0  0  0
    8.8780   51.2950   74.9910 C   0  0  0  0  0
    8.2110   51.4060   72.6790 C   0  0  0  0  0
    8.1920   51.9570   73.9710 C   0  0  0  0  0
    7.4490   53.1140   73.9290 N   0  0  0  0  0
    7.0390   53.2710   72.7030 C   0  0  0  0  0
    7.4760   52.2360   71.9000 N   0  0  0  0  0
    8.9280   51.7990   76.2830 N   0  0  0  0  0
   10.1660   48.5220   73.2330 O   0  0  0  0  0
   10.0020   51.3580   77.1910 C   0  0  0  0  0
    9.7180   51.7460   78.6440 C   0  0  0  0  0
    8.3270   51.4670   79.0600 N   0  3  0  0  0
    8.0110   50.0400   78.8010 C   0  0  0  0  0
    6.6180   49.7380   79.3430 C   0  0  0  0  0
    6.7190   49.8160   80.7670 O   0  0  0  0  0
    6.9920   51.1800   81.1690 C   0  0  0  0  0
    8.2830   51.7150   80.5210 C   0  0  0  0  0
    9.7660   47.9670   71.9620 C   0  0  0  0  0
    8.5050   47.1230   72.0790 C   0  0  0  0  0
    8.4830   46.1990   70.8450 C   0  0  0  0  0
    7.1490   45.4610   70.8530 C   0  0  0  0  0
    7.2220   52.0410   70.4800 C   0  0  0  0  0
    6.2470   50.9190   70.1940 C   0  0  0  0  0
    4.9100   51.1080   70.4980 C   0  0  0  0  0
    3.9810   50.1180   70.2310 C   0  0  0  0  0
    4.3920   48.9340   69.6350 C   0  0  0  0  0
    5.7380   48.7360   69.3070 C   0  0  0  0  0
    6.6510   49.7380   69.5990 C   0  0  0  0  0
    4.5710   52.2800   71.0730 F   0  0  0  0  0
    7.9660   49.5950   69.3240 F   0  0  0  0  0
    6.4320   54.1076   72.3569 H   0  0  0  0  0
    8.2277   52.4687   76.6015 H   0  0  0  0  0
   10.9290   51.8419   76.8835 H   0  0  0  0  0
   10.0715   50.2716   77.1352 H   0  0  0  0  0
    9.8817   52.8196   78.7373 H   0  0  0  0  0
   10.3776   51.1544   79.2789 H   0  0  0  0  0
    7.6583   52.0467   78.5529 H   0  0  0  0  0
    8.7452   49.4038   79.2953 H   0  0  0  0  0
    8.0404   49.8441   77.7291 H   0  0  0  0  0
    6.2783   48.7519   79.0264 H   0  0  0  0  0
    5.8850   50.4488   78.9614 H   0  0  0  0  0
    7.1158   51.2015   82.2517 H   0  0  0  0  0
    6.1602   51.8067   80.8474 H   0  0  0  0  0
    8.3192   52.7925   80.6813 H   0  0  0  0  0
    9.1279   51.1984   80.9763 H   0  0  0  0  0
   10.5715   47.3275   71.6010 H   0  0  0  0  0
    9.5616   48.7919   71.2794 H   0  0  0  0  0
    7.6153   47.7519   72.1124 H   0  0  0  0  0
    8.5071   46.5429   73.0018 H   0  0  0  0  0
    9.3115   45.4917   70.8821 H   0  0  0  0  0
    8.5927   46.7807   69.9297 H   0  0  0  0  0
    7.0636   44.8773   71.7696 H   0  0  0  0  0
    6.3349   46.1841   70.8041 H   0  0  0  0  0
    7.0981   44.7958   69.9910 H   0  0  0  0  0
    8.1699   51.7815   70.0086 H   0  0  0  0  0
    6.7860   52.9624   70.0940 H   0  0  0  0  0
    2.9321   50.2672   70.4874 H   0  0  0  0  0
    3.6619   48.1534   69.4210 H   0  0  0  0  0
    6.0628   47.8110   68.8307 H   0  0  0  0  0
  1  2  4  0  0  0
  1  5  4  0  0  0
  2  3  4  0  0  0
  2 11  1  0  0  0
  3  4  4  0  0  0
  4  6  4  0  0  0
  4 10  1  0  0  0
  5  6  4  0  0  0
  5  9  4  0  0  0
  6  7  4  0  0  0
  7  8  4  0  0  0
  8  9  4  0  0  0
  9 24  1  0  0  0
 10 12  1  0  0  0
 11 20  1  0  0  0
 12 13  1  0  0  0
 13 14  1  0  0  0
 14 15  1  0  0  0
 14 19  1  0  0  0
 15 16  1  0  0  0
 16 17  1  0  0  0
 17 18  1  0  0  0
 18 19  1  0  0  0
 20 21  1  0  0  0
 21 22  1  0  0  0
 22 23  1  0  0  0
 24 25  1  0  0  0
 25 26  4  0  0  0
 25 30  4  0  0  0
 26 27  4  0  0  0
 26 31  1  0  0  0
 27 28  4  0  0  0
 28 29  4  0  0  0
 29 30  4  0  0  0
 30 32  1  0  0  0
  8 33  1  0  0  0
 10 34  1  0  0  0
 12 35  1  0  0  0
 12 36  1  0  0  0
 13 37  1  0  0  0
 13 38  1  0  0  0
 14 39  1  0  0  0
 15 40  1  0  0  0
 15 41  1  0  0  0
 16 42  1  0  0  0
 16 43  1  0  0  0
 18 44  1  0  0  0
 18 45  1  0  0  0
 19 46  1  0  0  0
 19 47  1  0  0  0
 20 48  1  0  0  0
 20 49  1  0  0  0
 21 50  1  0  0  0
 21 51  1  0  0  0
 22 52  1  0  0  0
 22 53  1  0  0  0
 23 54  1  0  0  0
 23 55  1  0  0  0
 23 56  1  0  0  0
 24 57  1  0  0  0
 24 58  1  0  0  0
 27 59  1  0  0  0
 28 60  1  0  0  0
 29 61  1  0  0  0
M  END
$$$$
