### 
### Created by X-TOOL on Mon Sep 10 21:12:57 2018
### 

@<TRIPOS>MOLECULE
2vvt_ligand
   61    64     1     0     0
SMALL
GAST_HUCK


@<TRIPOS>ATOM
      1 N1          8.8640   50.2700   72.4350 N.ar      1 I24        -0.2516
      2 C2          9.5070   49.6880   73.4390 C.ar      1 I24         0.2105
      3 N3          9.5360   50.1640   74.6820 N.ar      1 I24        -0.2446
      4 C4          8.8780   51.2950   74.9910 C.ar      1 I24         0.1236
      5 C5          8.2110   51.4060   72.6790 C.ar      1 I24         0.1476
      6 C6          8.1920   51.9570   73.9710 C.ar      1 I24         0.0939
      7 N7          7.4490   53.1140   73.9290 N.2       1 I24        -0.3029
      8 C8          7.0390   53.2710   72.7030 C.2       1 I24         0.1072
      9 N9          7.4760   52.2360   71.9000 N.pl3     1 I24        -0.2160
     10 N10         8.9280   51.7990   76.2830 N.pl3     1 I24        -0.2978
     11 O11        10.1660   48.5220   73.2330 O.3       1 I24        -0.2862
     12 C12        10.0020   51.3580   77.1910 C.3       1 I24         0.0696
     13 C13         9.7180   51.7460   78.6440 C.3       1 I24        -0.0107
     14 N14         8.3270   51.4670   79.0600 N.4       1 I24         0.2399
     15 C15         8.0110   50.0400   78.8010 C.3       1 I24        -0.0078
     16 C16         6.6180   49.7380   79.3430 C.3       1 I24         0.0878
     17 O17         6.7190   49.8160   80.7670 O.3       1 I24        -0.3693
     18 C18         6.9920   51.1800   81.1690 C.3       1 I24         0.0878
     19 C19         8.2830   51.7150   80.5210 C.3       1 I24        -0.0078
     20 C20         9.7660   47.9670   71.9620 C.3       1 I24         0.0775
     21 C21         8.5050   47.1230   72.0790 C.3       1 I24        -0.0244
     22 C22         8.4830   46.1990   70.8450 C.3       1 I24        -0.0534
     23 C23         7.1490   45.4610   70.8530 C.3       1 I24        -0.0652
     24 C24         7.2220   52.0410   70.4800 C.3       1 I24         0.0949
     25 C25         6.2470   50.9190   70.1940 C.ar      1 I24         0.0540
     26 C26         4.9100   51.1080   70.4980 C.ar      1 I24         0.1341
     27 C27         3.9810   50.1180   70.2310 C.ar      1 I24        -0.0388
     28 C28         4.3920   48.9340   69.6350 C.ar      1 I24        -0.0723
     29 C29         5.7380   48.7360   69.3070 C.ar      1 I24        -0.0388
     30 C30         6.6510   49.7380   69.5990 C.ar      1 I24         0.1341
     31 F31         4.5710   52.2800   71.0730 F         1 I24        -0.1901
     32 F32         7.9660   49.5950   69.3240 F         1 I24        -0.1901
     33 H1          6.4326   54.1068   72.3572 H         1 I24         0.1317
     34 H2          8.2208   52.4753   76.6046 H         1 I24         0.1858
     35 H3         10.9471   51.8249   76.8768 H         1 I24         0.0579
     36 H4         10.0945   50.2638   77.1270 H         1 I24         0.0579
     37 H5          9.9089   52.8229   78.7620 H         1 I24         0.0835
     38 H6         10.3984   51.1793   79.2966 H         1 I24         0.0835
     39 H7          7.6778   52.0638   78.5718 H         1 I24         0.2036
     40 H8          8.7503   49.4004   79.3052 H         1 I24         0.0837
     41 H9          8.0362   49.8465   77.7185 H         1 I24         0.0837
     42 H10         6.3002   48.7301   79.0379 H         1 I24         0.0613
     43 H11         5.8950   50.4788   78.9708 H         1 I24         0.0613
     44 H12         7.1010   51.2146   82.2630 H         1 I24         0.0613
     45 H13         6.1490   51.8175   80.8641 H         1 I24         0.0613
     46 H14         8.3436   52.7991   80.6973 H         1 I24         0.0837
     47 H15         9.1454   51.2185   80.9897 H         1 I24         0.0837
     48 H16        10.5810   47.3360   71.5779 H         1 I24         0.0625
     49 H17         9.5775   48.7912   71.2583 H         1 I24         0.0625
     50 H18         7.6145   47.7687   72.0865 H         1 I24         0.0292
     51 H19         8.5320   46.5247   73.0017 H         1 I24         0.0292
     52 H20         9.3120   45.4781   70.9000 H         1 I24         0.0263
     53 H21         8.5769   46.7963   69.9261 H         1 I24         0.0263
     54 H22         7.0964   44.7893   69.9835 H         1 I24         0.0230
     55 H23         6.3265   46.1897   70.8036 H         1 I24         0.0230
     56 H24         7.0616   44.8715   71.7776 H         1 I24         0.0230
     57 H25         8.1758   51.8095   69.9834 H         1 I24         0.0760
     58 H26         6.8108   52.9742   70.0676 H         1 I24         0.0760
     59 H27         2.9379   50.2664   70.4859 H         1 I24         0.0551
     60 H28         3.6659   48.1577   69.4222 H         1 I24         0.0539
     61 H29         6.0610   47.8160   68.8333 H         1 I24         0.0551
@<TRIPOS>BOND
     1    1    2 ar 
     2    1    5 ar 
     3    2    3 ar 
     4    2   11 1  
     5    3    4 ar 
     6    4    6 ar 
     7    4   10 1  
     8    5    6 ar 
     9    5    9 1  
    10    6    7 1  
    11    7    8 2  
    12    8    9 1  
    13    9   24 1  
    14   10   12 1  
    15   11   20 1  
    16   12   13 1  
    17   13   14 1  
    18   14   15 1  
    19   14   19 1  
    20   15   16 1  
    21   16   17 1  
    22   17   18 1  
    23   18   19 1  
    24   20   21 1  
    25   21   22 1  
    26   22   23 1  
    27   24   25 1  
    28   25   26 ar 
    29   25   30 ar 
    30   26   27 ar 
    31   26   31 1  
    32   27   28 ar 
    33   28   29 ar 
    34   29   30 ar 
    35   30   32 1  
    36    8   33 1  
    37   10   34 1  
    38   12   35 1  
    39   12   36 1  
    40   13   37 1  
    41   13   38 1  
    42   14   39 1  
    43   15   40 1  
    44   15   41 1  
    45   16   42 1  
    46   16   43 1  
    47   18   44 1  
    48   18   45 1  
    49   19   46 1  
    50   19   47 1  
    51   20   48 1  
    52   20   49 1  
    53   21   50 1  
    54   21   51 1  
    55   22   52 1  
    56   22   53 1  
    57   23   54 1  
    58   23   55 1  
    59   23   56 1  
    60   24   57 1  
    61   24   58 1  
    62   27   59 1  
    63   28   60 1  
    64   29   61 1  
@<TRIPOS>SUBSTRUCTURE
     1 I24         1

