### 
### Created by X-TOOL on Mon Sep 10 21:13:12 2018
### 

@<TRIPOS>MOLECULE
3wdc_ligand
  159   162     1     0     0
SMALL
GAST_HUCK


@<TRIPOS>ATOM
      1 O         -27.2300   12.3770   -5.4760 O.2       1 WRP        -0.3940
      2 C         -26.1170   12.2490   -5.9890 C.2       1 WRP         0.2100
      3 CA        -25.0990   11.3760   -5.2510 C.3       1 WRP         0.1613
      4 CB        -25.7100    9.9620   -5.0890 C.3       1 WRP         0.1126
      5 CG        -25.8300    9.2660   -6.4250 C.2       1 WRP        -0.0135
      6 CD1       -26.9450    9.2040   -7.2100 C.2       1 WRP         0.0225
      7 NE1       -26.6650    8.4610   -8.3210 N.pl3     1 WRP        -0.2674
      8 C1        -27.6600    8.1320   -9.3810 C.3       1 WRP         0.0905
      9 C3        -28.9530    8.9040   -9.1300 C.3       1 WRP        -0.0310
     10 C4        -27.9330    6.6200   -9.3420 C.3       1 WRP         0.0834
     11 C5        -28.6320    6.1440   -8.0720 C.3       1 WRP        -0.0359
     12 O6        -28.7790    6.2470  -10.4190 O.3       1 WRP        -0.3889
     13 C2        -27.1530    8.5460  -10.7500 C.3       1 WRP        -0.0310
     14 CE2       -25.3590    8.0230   -8.2730 C.ar      1 WRP         0.0633
     15 CZ2       -24.6020    7.2250   -9.1400 C.ar      1 WRP        -0.0441
     16 CH2       -23.2750    6.9360   -8.7920 C.ar      1 WRP        -0.0768
     17 CZ3       -22.7260    7.3940   -7.6010 C.ar      1 WRP        -0.0792
     18 CE3       -23.4450    8.2130   -6.7210 C.ar      1 WRP        -0.0746
     19 CD2       -24.7930    8.5180   -7.0500 C.ar      1 WRP        -0.0188
     20 OB        -24.9220    9.1960   -4.1950 O.3       1 WRP        -0.3811
     21 N         -24.8350   11.9590   -3.9480 N.am      1 WRP        -0.2602
     22 N         -25.8500   12.8650   -7.1670 N.am      1 WLU        -0.2527
     23 CN        -26.9410   13.6000   -7.8120 C.3       1 WLU         0.0254
     24 CA        -24.5460   12.7490   -7.9040 C.3       1 WLU         0.1337
     25 CB        -24.7620   11.8200   -9.0870 C.3       1 WLU        -0.0076
     26 CG        -23.5060   11.5440   -9.8800 C.3       1 WLU        -0.0164
     27 CG1       -23.8420   10.6950  -11.1000 C.3       1 WLU         0.0470
     28 O4        -24.7620   11.4600  -11.8950 O.3       1 WLU        -0.3947
     29 CG2       -22.4060   10.8940   -9.0450 C.3       1 WLU        -0.0601
     30 C         -24.0990   14.1550   -8.3360 C.2       1 WLU         0.2041
     31 O         -24.1380   14.5020   -9.5140 O.2       1 WLU        -0.3944
     32 N         -23.6620   14.9170   -7.3760 N.am      1 ALA        -0.2640
     33 CA        -23.2200   16.2870   -7.6870 C.3       1 ALA         0.1282
     34 C         -21.9460   16.6750   -6.9810 C.2       1 ALA         0.2038
     35 O         -21.1940   17.4600   -7.5790 O.2       1 ALA        -0.3944
     36 CB        -24.2950   17.3210   -7.4380 C.3       1 ALA        -0.0244
     37 N         -21.7310   16.2110   -5.7370 N.am      1 WPA        -0.2597
     38 CA        -20.5970   16.6330   -4.9430 C.3       1 WPA         0.1669
     39 C         -20.0760   15.4040   -4.1910 C.2       1 WPA         0.2086
     40 CB        -20.9500   17.7420   -3.9430 C.3       1 WPA         0.1321
     41 OB        -21.7890   17.1210   -2.9740 O.3       1 WPA        -0.3626
     42 CB1       -21.7600   17.8030   -1.7190 C.3       1 WPA         0.0397
     43 CG        -21.5240   18.9470   -4.6100 C.ar      1 WPA        -0.0100
     44 CD1       -20.6640   19.9290   -5.1360 C.ar      1 WPA        -0.0576
     45 CE1       -21.1680   21.0960   -5.7160 C.ar      1 WPA        -0.0685
     46 CZ        -22.5160   21.2530   -5.8050 C.ar      1 WPA        -0.0687
     47 CE2       -23.3850   20.3220   -5.3070 C.ar      1 WPA        -0.0685
     48 CD2       -22.8680   19.1550   -4.6660 C.ar      1 WPA        -0.0576
     49 O         -20.7190   14.3640   -4.1540 O.2       1 WPA        -0.3941
     50 N         -18.9760   15.5930   -3.4870 N.am      1 VAL        -0.2632
     51 CA        -18.4460   14.5880   -2.5630 C.3       1 VAL         0.1334
     52 C         -19.1420   14.7880   -1.2060 C.2       1 VAL         0.2064
     53 O         -18.9140   15.8260   -0.6100 O.2       1 VAL        -0.3942
     54 CB        -16.9380   14.7930   -2.4490 C.3       1 VAL        -0.0062
     55 CG1       -16.3050   13.9470   -1.3610 C.3       1 VAL        -0.0584
     56 CG2       -16.2800   14.5760   -3.8000 C.3       1 VAL        -0.0584
     57 N         -19.9830   13.8860   -0.6580 N.am      1 MLE        -0.2529
     58 CN        -20.5140   14.1890    0.6750 C.3       1 MLE         0.0254
     59 CA        -20.4380   12.6180   -1.2870 C.3       1 MLE         0.1336
     60 CB        -19.9760   11.3560   -0.5540 C.3       1 MLE        -0.0099
     61 CG        -18.5060   11.0130   -0.7200 C.3       1 MLE        -0.0425
     62 CD1       -18.2050    9.8690    0.2540 C.3       1 MLE        -0.0625
     63 CD2       -18.1730   10.5970   -2.1380 C.3       1 MLE        -0.0625
     64 C         -21.9580   12.6280   -1.3160 C.2       1 MLE         0.2042
     65 O         -22.6390   11.8570   -0.6170 O.2       1 MLE        -0.3944
     66 C         -24.1770   13.1070   -3.7940 C.2       1 WVL         0.2056
     67 CA        -23.9590   13.5580   -2.3690 C.3       1 WVL         0.1365
     68 O         -23.7430   13.7340   -4.7660 O.2       1 WVL        -0.3942
     69 CB        -24.5620   14.9390   -2.1390 C.3       1 WVL         0.0026
     70 CG2       -24.3770   15.4230   -0.7130 C.3       1 WVL        -0.0549
     71 CG1       -26.0230   14.8840   -2.4490 C.2       1 WVL        -0.1020
     72 CD        -26.6600   15.4200   -3.4890 C.2       1 WVL        -0.0866
     73 CE1       -28.1580   15.2200   -3.6600 C.3       1 WVL        -0.0406
     74 CE2       -26.0060   16.2370   -4.5660 C.3       1 WVL        -0.0406
     75 N         -22.5300   13.4880   -2.1350 N.am      1 WVL        -0.2624
     76 H1        -24.1636   11.3159   -5.8267 H         1 WRP         0.0841
     77 H2        -26.7188   10.0662   -4.6630 H         1 WRP         0.0728
     78 H3        -27.9028    9.6714   -6.9864 H         1 WRP         0.0798
     79 H4        -29.6846    8.6587   -9.9140 H         1 WRP         0.0262
     80 H5        -28.7447    9.9839   -9.1479 H         1 WRP         0.0262
     81 H6        -29.3615    8.6256   -8.1473 H         1 WRP         0.0262
     82 H7        -26.9688    6.0983   -9.4324 H         1 WRP         0.0623
     83 H8        -28.7887    5.0565   -8.1253 H         1 WRP         0.0255
     84 H9        -29.6039    6.6502   -7.9767 H         1 WRP         0.0255
     85 H10       -28.0073    6.3820   -7.1984 H         1 WRP         0.0255
     86 H11       -29.6253    6.6660  -10.3153 H         1 WRP         0.2099
     87 H12       -27.9050    8.2922  -11.5116 H         1 WRP         0.0262
     88 H13       -26.2151    8.0150  -10.9697 H         1 WRP         0.0262
     89 H14       -26.9715    9.6309  -10.7612 H         1 WRP         0.0262
     90 H15       -25.0317    6.8402  -10.0578 H         1 WRP         0.0541
     91 H16       -22.6657    6.3438   -9.4652 H         1 WRP         0.0530
     92 H17       -21.7118    7.1094   -7.3452 H         1 WRP         0.0510
     93 H18       -22.9877    8.6015   -5.8182 H         1 WRP         0.0540
     94 H19       -24.8585    9.6493   -3.3625 H         1 WRP         0.2121
     95 H20       -25.1603   11.4794   -3.1330 H         1 WRP         0.1885
     96 H21       -27.8231   13.5982   -7.1548 H         1 WLU         0.0488
     97 H22       -27.1944   13.1167   -8.7671 H         1 WLU         0.0488
     98 H23       -26.6247   14.6369   -7.9983 H         1 WLU         0.0488
     99 H24       -23.7797   12.3181   -7.2429 H         1 WLU         0.0802
    100 H25       -25.5026   12.2791   -9.7584 H         1 WLU         0.0316
    101 H26       -25.1521   10.8630   -8.7103 H         1 WLU         0.0316
    102 H27       -23.1191   12.5102  -10.2359 H         1 WLU         0.0322
    103 H28       -24.3076    9.7489  -10.7868 H         1 WLU         0.0560
    104 H29       -22.9297   10.4817  -11.6763 H         1 WLU         0.0560
    105 H30       -24.9981   10.9635  -12.6697 H         1 WLU         0.2094
    106 H31       -22.1848   11.5273   -8.1732 H         1 WLU         0.0233
    107 H32       -21.4987   10.7824   -9.6568 H         1 WLU         0.0233
    108 H33       -22.7418    9.9039   -8.7031 H         1 WLU         0.0233
    109 H34       -23.6266   14.5758   -6.4367 H         1 ALA         0.1883
    110 H35       -23.0038   16.3046   -8.7654 H         1 ALA         0.0797
    111 H36       -23.9076   18.3199   -7.6871 H         1 ALA         0.0277
    112 H37       -24.5897   17.2958   -6.3785 H         1 ALA         0.0277
    113 H38       -25.1696   17.0995   -8.0673 H         1 ALA         0.0277
    114 H39       -22.3758   15.5530   -5.3480 H         1 WPA         0.1886
    115 H40       -19.8130   17.0097   -5.6163 H         1 WPA         0.0851
    116 H41       -20.0288   18.0683   -3.4382 H         1 WPA         0.0810
    117 H42       -22.4209   17.2878   -1.0064 H         1 WPA         0.0526
    118 H43       -22.1050   18.8384   -1.8563 H         1 WPA         0.0526
    119 H44       -20.7319   17.8078   -1.3279 H         1 WPA         0.0526
    120 H45       -19.5916   19.7773   -5.0904 H         1 WPA         0.0557
    121 H46       -20.4972   21.8619   -6.0881 H         1 WPA         0.0599
    122 H47       -22.9126   22.1409   -6.2840 H         1 WPA         0.0559
    123 H48       -24.4553   20.4682   -5.3978 H         1 WPA         0.0599
    124 H49       -23.5465   18.4344   -4.2238 H         1 WPA         0.0557
    125 H50       -18.4842   16.4578   -3.5886 H         1 VAL         0.1883
    126 H51       -18.6529   13.5756   -2.9400 H         1 VAL         0.0803
    127 H52       -16.7734   15.8440   -2.1694 H         1 VAL         0.0343
    128 H53       -15.2224   14.1397   -1.3299 H         1 VAL         0.0234
    129 H54       -16.4820   12.8826   -1.5746 H         1 VAL         0.0234
    130 H55       -16.7514   14.2052   -0.3894 H         1 VAL         0.0234
    131 H56       -16.7720   15.2089   -4.5533 H         1 VAL         0.0234
    132 H57       -16.3766   13.5192   -4.0894 H         1 VAL         0.0234
    133 H58       -15.2148   14.8428   -3.7361 H         1 VAL         0.0234
    134 H59       -20.1022   15.1472    1.0246 H         1 MLE         0.0488
    135 H60       -20.2273   13.3898    1.3743 H         1 MLE         0.0488
    136 H61       -21.6108   14.2574    0.6260 H         1 MLE         0.0488
    137 H62       -20.0504   12.5818   -2.3158 H         1 MLE         0.0802
    138 H63       -20.5677   10.5083   -0.9299 H         1 MLE         0.0315
    139 H64       -20.1740   11.4941    0.5192 H         1 MLE         0.0315
    140 H65       -17.8965   11.8909   -0.4596 H         1 MLE         0.0298
    141 H66       -17.1458    9.5846    0.1694 H         1 MLE         0.0232
    142 H67       -18.8378    9.0031    0.0094 H         1 MLE         0.0232
    143 H68       -18.4152   10.1981    1.2823 H         1 MLE         0.0232
    144 H69       -18.3939   11.4271   -2.8251 H         1 MLE         0.0232
    145 H70       -18.7780    9.7211   -2.4148 H         1 MLE         0.0232
    146 H71       -17.1053   10.3408   -2.2038 H         1 MLE         0.0232
    147 H72       -24.4604   12.8565   -1.6860 H         1 WVL         0.0818
    148 H73       -24.0728   15.6532   -2.8176 H         1 WVL         0.0419
    149 H74       -24.8287   16.4199   -0.6027 H         1 WVL         0.0249
    150 H75       -23.3032   15.4794   -0.4813 H         1 WVL         0.0249
    151 H76       -24.8651   14.7208   -0.0212 H         1 WVL         0.0249
    152 H77       -26.6424   14.3393   -1.7380 H         1 WVL         0.0247
    153 H78       -28.4950   15.7355   -4.5714 H         1 WVL         0.0375
    154 H79       -28.6852   15.6346   -2.7881 H         1 WVL         0.0375
    155 H80       -28.3772   14.1454   -3.7442 H         1 WVL         0.0375
    156 H81       -24.9298   16.3257   -4.3564 H         1 WVL         0.0375
    157 H82       -26.4584   17.2393   -4.5916 H         1 WVL         0.0375
    158 H83       -26.1507   15.7444   -5.5388 H         1 WVL         0.0375
    159 H84       -21.9421   14.1317   -2.6250 H         1 WVL         0.1885
@<TRIPOS>BOND
     1    1    2 2  
     2    2    3 1  
     3    2   22 am 
     4    3    4 1  
     5    3   21 1  
     6    4    5 1  
     7    4   20 1  
     8    5    6 2  
     9    5   19 1  
    10    6    7 1  
    11    7    8 1  
    12    7   14 1  
    13    8    9 1  
    14    8   10 1  
    15    8   13 1  
    16   10   11 1  
    17   10   12 1  
    18   14   15 ar 
    19   14   19 ar 
    20   15   16 ar 
    21   16   17 ar 
    22   17   18 ar 
    23   18   19 ar 
    24   21   66 am 
    25   22   23 1  
    26   22   24 1  
    27   24   25 1  
    28   24   30 1  
    29   25   26 1  
    30   26   27 1  
    31   26   29 1  
    32   27   28 1  
    33   30   31 2  
    34   30   32 am 
    35   32   33 1  
    36   33   34 1  
    37   33   36 1  
    38   34   35 2  
    39   34   37 am 
    40   37   38 1  
    41   38   39 1  
    42   38   40 1  
    43   39   49 2  
    44   39   50 am 
    45   40   41 1  
    46   40   43 1  
    47   41   42 1  
    48   43   44 ar 
    49   43   48 ar 
    50   44   45 ar 
    51   45   46 ar 
    52   46   47 ar 
    53   47   48 ar 
    54   50   51 1  
    55   51   52 1  
    56   51   54 1  
    57   52   53 2  
    58   52   57 am 
    59   54   55 1  
    60   54   56 1  
    61   57   58 1  
    62   57   59 1  
    63   59   60 1  
    64   59   64 1  
    65   60   61 1  
    66   61   62 1  
    67   61   63 1  
    68   64   65 2  
    69   64   75 am 
    70   66   67 1  
    71   66   68 2  
    72   67   69 1  
    73   67   75 1  
    74   69   70 1  
    75   69   71 1  
    76   71   72 2  
    77   72   73 1  
    78   72   74 1  
    79    3   76 1  
    80    4   77 1  
    81    6   78 1  
    82    9   79 1  
    83    9   80 1  
    84    9   81 1  
    85   10   82 1  
    86   11   83 1  
    87   11   84 1  
    88   11   85 1  
    89   12   86 1  
    90   13   87 1  
    91   13   88 1  
    92   13   89 1  
    93   15   90 1  
    94   16   91 1  
    95   17   92 1  
    96   18   93 1  
    97   20   94 1  
    98   21   95 1  
    99   23   96 1  
   100   23   97 1  
   101   23   98 1  
   102   24   99 1  
   103   25  100 1  
   104   25  101 1  
   105   26  102 1  
   106   27  103 1  
   107   27  104 1  
   108   28  105 1  
   109   29  106 1  
   110   29  107 1  
   111   29  108 1  
   112   32  109 1  
   113   33  110 1  
   114   36  111 1  
   115   36  112 1  
   116   36  113 1  
   117   37  114 1  
   118   38  115 1  
   119   40  116 1  
   120   42  117 1  
   121   42  118 1  
   122   42  119 1  
   123   44  120 1  
   124   45  121 1  
   125   46  122 1  
   126   47  123 1  
   127   48  124 1  
   128   50  125 1  
   129   51  126 1  
   130   54  127 1  
   131   55  128 1  
   132   55  129 1  
   133   55  130 1  
   134   56  131 1  
   135   56  132 1  
   136   56  133 1  
   137   58  134 1  
   138   58  135 1  
   139   58  136 1  
   140   59  137 1  
   141   60  138 1  
   142   60  139 1  
   143   61  140 1  
   144   62  141 1  
   145   62  142 1  
   146   62  143 1  
   147   63  144 1  
   148   63  145 1  
   149   63  146 1  
   150   67  147 1  
   151   69  148 1  
   152   70  149 1  
   153   70  150 1  
   154   70  151 1  
   155   71  152 1  
   156   73  153 1  
   157   73  154 1  
   158   73  155 1  
   159   74  156 1  
   160   74  157 1  
   161   74  158 1  
   162   75  159 1  
@<TRIPOS>SUBSTRUCTURE
     1 WRP         1

