3wdc_ligand
  -I-interpret- 

159162  0  0  0  0  0  0  0  0999 V2000
  -27.2300   12.3770   -5.4760 O   0  0  0  0  0
  -26.1170   12.2490   -5.9890 C   0  0  0  0  0
  -25.0990   11.3760   -5.2510 C   0  0  0  0  0
  -25.7100    9.9620   -5.0890 C   0  0  0  0  0
  -25.8300    9.2660   -6.4250 C   0  0  0  0  0
  -26.9450    9.2040   -7.2100 C   0  0  0  0  0
  -26.6650    8.4610   -8.3210 N   0  0  0  0  0
  -27.6600    8.1320   -9.3810 C   0  0  0  0  0
  -28.9530    8.9040   -9.1300 C   0  0  0  0  0
  -27.9330    6.6200   -9.3420 C   0  0  0  0  0
  -28.6320    6.1440   -8.0720 C   0  0  0  0  0
  -28.7790    6.2470  -10.4190 O   0  0  0  0  0
  -27.1530    8.5460  -10.7500 C   0  0  0  0  0
  -25.3590    8.0230   -8.2730 C   0  0  0  0  0
  -24.6020    7.2250   -9.1400 C   0  0  0  0  0
  -23.2750    6.9360   -8.7920 C   0  0  0  0  0
  -22.7260    7.3940   -7.6010 C   0  0  0  0  0
  -23.4450    8.2130   -6.7210 C   0  0  0  0  0
  -24.7930    8.5180   -7.0500 C   0  0  0  0  0
  -24.9220    9.1960   -4.1950 O   0  0  0  0  0
  -24.8350   11.9590   -3.9480 N   0  0  0  0  0
  -25.8500   12.8650   -7.1670 N   0  0  0  0  0
  -26.9410   13.6000   -7.8120 C   0  0  0  0  0
  -24.5460   12.7490   -7.9040 C   0  0  0  0  0
  -24.7620   11.8200   -9.0870 C   0  0  0  0  0
  -23.5060   11.5440   -9.8800 C   0  0  0  0  0
  -23.8420   10.6950  -11.1000 C   0  0  0  0  0
  -24.7620   11.4600  -11.8950 O   0  0  0  0  0
  -22.4060   10.8940   -9.0450 C   0  0  0  0  0
  -24.0990   14.1550   -8.3360 C   0  0  0  0  0
  -24.1380   14.5020   -9.5140 O   0  0  0  0  0
  -23.6620   14.9170   -7.3760 N   0  0  0  0  0
  -23.2200   16.2870   -7.6870 C   0  0  0  0  0
  -21.9460   16.6750   -6.9810 C   0  0  0  0  0
  -21.1940   17.4600   -7.5790 O   0  0  0  0  0
  -24.2950   17.3210   -7.4380 C   0  0  0  0  0
  -21.7310   16.2110   -5.7370 N   0  0  0  0  0
  -20.5970   16.6330   -4.9430 C   0  0  0  0  0
  -20.0760   15.4040   -4.1910 C   0  0  0  0  0
  -20.9500   17.7420   -3.9430 C   0  0  0  0  0
  -21.7890   17.1210   -2.9740 O   0  0  0  0  0
  -21.7600   17.8030   -1.7190 C   0  0  0  0  0
  -21.5240   18.9470   -4.6100 C   0  0  0  0  0
  -20.6640   19.9290   -5.1360 C   0  0  0  0  0
  -21.1680   21.0960   -5.7160 C   0  0  0  0  0
  -22.5160   21.2530   -5.8050 C   0  0  0  0  0
  -23.3850   20.3220   -5.3070 C   0  0  0  0  0
  -22.8680   19.1550   -4.6660 C   0  0  0  0  0
  -20.7190   14.3640   -4.1540 O   0  0  0  0  0
  -18.9760   15.5930   -3.4870 N   0  0  0  0  0
  -18.4460   14.5880   -2.5630 C   0  0  0  0  0
  -19.1420   14.7880   -1.2060 C   0  0  0  0  0
  -18.9140   15.8260   -0.6100 O   0  0  0  0  0
  -16.9380   14.7930   -2.4490 C   0  0  0  0  0
  -16.3050   13.9470   -1.3610 C   0  0  0  0  0
  -16.2800   14.5760   -3.8000 C   0  0  0  0  0
  -19.9830   13.8860   -0.6580 N   0  0  0  0  0
  -20.5140   14.1890    0.6750 C   0  0  0  0  0
  -20.4380   12.6180   -1.2870 C   0  0  0  0  0
  -19.9760   11.3560   -0.5540 C   0  0  0  0  0
  -18.5060   11.0130   -0.7200 C   0  0  0  0  0
  -18.2050    9.8690    0.2540 C   0  0  0  0  0
  -18.1730   10.5970   -2.1380 C   0  0  0  0  0
  -21.9580   12.6280   -1.3160 C   0  0  0  0  0
  -22.6390   11.8570   -0.6170 O   0  0  0  0  0
  -24.1770   13.1070   -3.7940 C   0  0  0  0  0
  -23.9590   13.5580   -2.3690 C   0  0  0  0  0
  -23.7430   13.7340   -4.7660 O   0  0  0  0  0
  -24.5620   14.9390   -2.1390 C   0  0  0  0  0
  -24.3770   15.4230   -0.7130 C   0  0  0  0  0
  -26.0230   14.8840   -2.4490 C   0  0  0  0  0
  -26.6600   15.4200   -3.4890 C   0  0  0  0  0
  -28.1580   15.2200   -3.6600 C   0  0  0  0  0
  -26.0060   16.2370   -4.5660 C   0  0  0  0  0
  -22.5300   13.4880   -2.1350 N   0  0  0  0  0
  -24.1628   11.3131   -5.8057 H   0  0  0  0  0
  -26.7140   10.0638   -4.6770 H   0  0  0  0  0
  -27.9037    9.6719   -6.9862 H   0  0  0  0  0
  -29.3567    8.6273   -8.1560 H   0  0  0  0  0
  -28.7452    9.9739   -9.1480 H   0  0  0  0  0
  -29.6770    8.6601   -9.9074 H   0  0  0  0  0
  -26.9465    6.1596   -9.3963 H   0  0  0  0  0
  -29.6064    6.6260   -7.9927 H   0  0  0  0  0
  -28.7625    5.0627   -8.1141 H   0  0  0  0  0
  -28.0247    6.4045   -7.2051 H   0  0  0  0  0
  -28.9420    5.3016  -10.3838 H   0  0  0  0  0
  -26.9735    9.6211  -10.7597 H   0  0  0  0  0
  -26.2236    8.0192  -10.9664 H   0  0  0  0  0
  -27.8990    8.2941  -11.5038 H   0  0  0  0  0
  -25.0341    6.8380  -10.0629 H   0  0  0  0  0
  -22.6624    6.3405   -9.4689 H   0  0  0  0  0
  -21.7062    7.1078   -7.3438 H   0  0  0  0  0
  -22.9852    8.6036   -5.8132 H   0  0  0  0  0
  -24.8578    9.6541   -3.3538 H   0  0  0  0  0
  -25.1668   11.4698   -3.1167 H   0  0  0  0  0
  -26.6263   14.6272   -7.9961 H   0  0  0  0  0
  -27.1911   13.1201   -8.7582 H   0  0  0  0  0
  -27.8144   13.5975   -7.1599 H   0  0  0  0  0
  -23.7563   12.3313   -7.2794 H   0  0  0  0  0
  -25.4706   12.3059   -9.7577 H   0  0  0  0  0
  -25.1145   10.8669   -8.6927 H   0  0  0  0  0
  -23.1083   12.5051  -10.2059 H   0  0  0  0  0
  -24.2840    9.7444  -10.8017 H   0  0  0  0  0
  -22.9423   10.4579  -11.6678 H   0  0  0  0  0
  -25.0006   10.9583  -12.6779 H   0  0  0  0  0
  -22.1396   11.5546   -8.2199 H   0  0  0  0  0
  -22.7651    9.9437   -8.6499 H   0  0  0  0  0
  -21.5306   10.7212   -9.6710 H   0  0  0  0  0
  -23.6259   14.5690   -6.4179 H   0  0  0  0  0
  -23.0100   16.2731   -8.7565 H   0  0  0  0  0
  -25.1610   17.1004   -8.0620 H   0  0  0  0  0
  -24.5861   17.2950   -6.3879 H   0  0  0  0  0
  -23.9100   18.3103   -7.6852 H   0  0  0  0  0
  -22.3886   15.5398   -5.3403 H   0  0  0  0  0
  -19.8414   17.0492   -5.6093 H   0  0  0  0  0
  -20.0715   18.1568   -3.4488 H   0  0  0  0  0
  -20.7408   17.8071   -1.3326 H   0  0  0  0  0
  -22.1020   18.8288   -1.8564 H   0  0  0  0  0
  -22.4152   17.2916   -1.0138 H   0  0  0  0  0
  -19.5857   19.7765   -5.0901 H   0  0  0  0  0
  -20.4934   21.8661   -6.0901 H   0  0  0  0  0
  -22.9148   22.1458   -6.2867 H   0  0  0  0  0
  -24.4612   20.4690   -5.3983 H   0  0  0  0  0
  -23.5502   18.4305   -4.2213 H   0  0  0  0  0
  -18.4744   16.4751   -3.5906 H   0  0  0  0  0
  -18.6317   13.5720   -2.9114 H   0  0  0  0  0
  -16.7682   15.8254   -2.1435 H   0  0  0  0  0
  -16.7482   14.2038   -0.3988 H   0  0  0  0  0
  -16.4811   12.8926   -1.5738 H   0  0  0  0  0
  -15.2324   14.1388   -1.3312 H   0  0  0  0  0
  -16.4794   13.5600   -4.1408 H   0  0  0  0  0
  -16.6857   15.2879   -4.5188 H   0  0  0  0  0
  -15.2042   14.7248   -3.7068 H   0  0  0  0  0
  -19.6885   14.2848    1.3804 H   0  0  0  0  0
  -21.0725   15.1243    0.6382 H   0  0  0  0  0
  -21.1742   13.3824    0.9937 H   0  0  0  0  0
  -19.9960   12.5785   -2.2826 H   0  0  0  0  0
  -20.5408   10.5247   -0.9760 H   0  0  0  0  0
  -20.1374   11.5349    0.5090 H   0  0  0  0  0
  -17.8965   11.8916   -0.5088 H   0  0  0  0  0
  -18.4138   10.1963    1.2725 H   0  0  0  0  0
  -18.8327    9.0117    0.0106 H   0  0  0  0  0
  -17.1552    9.5881    0.1692 H   0  0  0  0  0
  -18.7591    9.7174   -2.4044 H   0  0  0  0  0
  -18.4103   11.4135   -2.8200 H   0  0  0  0  0
  -17.1109   10.3618   -2.2064 H   0  0  0  0  0
  -24.4685   12.9190   -1.6477 H   0  0  0  0  0
  -24.0445   15.6406   -2.7932 H   0  0  0  0  0
  -24.8610   14.7263   -0.0285 H   0  0  0  0  0
  -23.3126   15.4784   -0.4847 H   0  0  0  0  0
  -24.8249   16.4108   -0.6049 H   0  0  0  0  0
  -26.6430   14.3388   -1.7373 H   0  0  0  0  0
  -28.3739   14.1548   -3.7433 H   0  0  0  0  0
  -28.6792   15.6311   -2.7955 H   0  0  0  0  0
  -28.4907   15.7312   -4.5634 H   0  0  0  0  0
  -25.5411   17.1168   -4.1211 H   0  0  0  0  0
  -25.2459   15.6360   -5.0651 H   0  0  0  0  0
  -26.7580   16.5491   -5.2907 H   0  0  0  0  0
  -21.9304   14.1445   -2.6348 H   0  0  0  0  0
  1  2  2  0  0  0
  2  3  1  0  0  0
  2 22  1  0  0  0
  3  4  1  0  0  0
  3 21  1  0  0  0
  4  5  1  0  0  0
  4 20  1  0  0  0
  5  6  4  0  0  0
  5 19  4  0  0  0
  6  7  4  0  0  0
  7  8  1  0  0  0
  7 14  4  0  0  0
  8  9  1  0  0  0
  8 10  1  0  0  0
  8 13  1  0  0  0
 10 11  1  0  0  0
 10 12  1  0  0  0
 14 15  4  0  0  0
 14 19  4  0  0  0
 15 16  4  0  0  0
 16 17  4  0  0  0
 17 18  4  0  0  0
 18 19  4  0  0  0
 21 66  1  0  0  0
 22 23  1  0  0  0
 22 24  1  0  0  0
 24 25  1  0  0  0
 24 30  1  0  0  0
 25 26  1  0  0  0
 26 27  1  0  0  0
 26 29  1  0  0  0
 27 28  1  0  0  0
 30 31  2  0  0  0
 30 32  1  0  0  0
 32 33  1  0  0  0
 33 34  1  0  0  0
 33 36  1  0  0  0
 34 35  2  0  0  0
 34 37  1  0  0  0
 37 38  1  0  0  0
 38 39  1  0  0  0
 38 40  1  0  0  0
 39 49  2  0  0  0
 39 50  1  0  0  0
 40 41  1  0  0  0
 40 43  1  0  0  0
 41 42  1  0  0  0
 43 44  4  0  0  0
 43 48  4  0  0  0
 44 45  4  0  0  0
 45 46  4  0  0  0
 46 47  4  0  0  0
 47 48  4  0  0  0
 50 51  1  0  0  0
 51 52  1  0  0  0
 51 54  1  0  0  0
 52 53  2  0  0  0
 52 57  1  0  0  0
 54 55  1  0  0  0
 54 56  1  0  0  0
 57 58  1  0  0  0
 57 59  1  0  0  0
 59 60  1  0  0  0
 59 64  1  0  0  0
 60 61  1  0  0  0
 61 62  1  0  0  0
 61 63  1  0  0  0
 64 65  2  0  0  0
 64 75  1  0  0  0
 66 67  1  0  0  0
 66 68  2  0  0  0
 67 69  1  0  0  0
 67 75  1  0  0  0
 69 70  1  0  0  0
 69 71  1  0  0  0
 71 72  2  0  0  0
 72 73  1  0  0  0
 72 74  1  0  0  0
  3 76  1  0  0  0
  4 77  1  0  0  0
  6 78  1  0  0  0
  9 79  1  0  0  0
  9 80  1  0  0  0
  9 81  1  0  0  0
 10 82  1  0  0  0
 11 83  1  0  0  0
 11 84  1  0  0  0
 11 85  1  0  0  0
 12 86  1  0  0  0
 13 87  1  0  0  0
 13 88  1  0  0  0
 13 89  1  0  0  0
 15 90  1  0  0  0
 16 91  1  0  0  0
 17 92  1  0  0  0
 18 93  1  0  0  0
 20 94  1  0  0  0
 21 95  1  0  0  0
 23 96  1  0  0  0
 23 97  1  0  0  0
 23 98  1  0  0  0
 24 99  1  0  0  0
 25100  1  0  0  0
 25101  1  0  0  0
 26102  1  0  0  0
 27103  1  0  0  0
 27104  1  0  0  0
 28105  1  0  0  0
 29106  1  0  0  0
 29107  1  0  0  0
 29108  1  0  0  0
 32109  1  0  0  0
 33110  1  0  0  0
 36111  1  0  0  0
 36112  1  0  0  0
 36113  1  0  0  0
 37114  1  0  0  0
 38115  1  0  0  0
 40116  1  0  0  0
 42117  1  0  0  0
 42118  1  0  0  0
 42119  1  0  0  0
 44120  1  0  0  0
 45121  1  0  0  0
 46122  1  0  0  0
 47123  1  0  0  0
 48124  1  0  0  0
 50125  1  0  0  0
 51126  1  0  0  0
 54127  1  0  0  0
 55128  1  0  0  0
 55129  1  0  0  0
 55130  1  0  0  0
 56131  1  0  0  0
 56132  1  0  0  0
 56133  1  0  0  0
 58134  1  0  0  0
 58135  1  0  0  0
 58136  1  0  0  0
 59137  1  0  0  0
 60138  1  0  0  0
 60139  1  0  0  0
 61140  1  0  0  0
 62141  1  0  0  0
 62142  1  0  0  0
 62143  1  0  0  0
 63144  1  0  0  0
 63145  1  0  0  0
 63146  1  0  0  0
 67147  1  0  0  0
 69148  1  0  0  0
 70149  1  0  0  0
 70150  1  0  0  0
 70151  1  0  0  0
 71152  1  0  0  0
 73153  1  0  0  0
 73154  1  0  0  0
 73155  1  0  0  0
 74156  1  0  0  0
 74157  1  0  0  0
 74158  1  0  0  0
 75159  1  0  0  0
M  END
$$$$
