6e4a_ligand
  -I-interpret- 

 74 78  0  0  0  0  0  0  0  0999 V2000
   15.9120   -5.5460   46.4400 N   0  0  0  0  0
   16.4570   -4.4210   44.4510 N   0  0  0  0  0
   14.2930    1.7750   48.8110 C   0  0  0  0  0
   14.7710    0.5750   48.3080 C   0  0  0  0  0
   14.2880   -0.6240   48.7340 C   0  0  0  0  0
   13.2290   -0.6700   49.6310 C   0  0  0  0  0
   11.6580    0.3610   51.0980 C   0  0  0  0  0
   14.7560   -1.9290   48.1490 C   0  0  0  0  0
   14.6140   -3.1210   48.9000 C   0  0  0  0  0
   15.0410   -4.3020   48.3180 C   0  0  0  0  0
   12.7090    2.7730   50.2270 O   0  0  0  0  0
   13.2610    1.7190   49.7510 C   0  0  0  0  0
   12.7410    0.4990   50.1180 N   0  0  0  0  0
   15.1870   -1.9780   46.8770 C   0  0  0  0  0
   15.6600   -3.1700   46.3190 C   0  0  0  0  0
   15.5540   -4.3360   47.0300 C   0  0  0  0  0
   16.3190   -5.5930   45.1830 C   0  0  0  0  0
   16.7680   -6.7670   44.5730 N   0  0  0  0  0
   17.1320   -6.8260   43.1450 C   0  0  0  0  0
   15.7160   -7.1620   42.5200 C   0  0  0  0  0
   15.1490   -8.4690   43.0710 N   0  3  0  0  0
   13.7300   -8.8530   42.8120 C   0  0  0  0  0
   13.4810   -9.0040   41.3410 C   0  0  0  0  0
   12.2000   -9.6070   40.9170 N   0  3  0  0  0
   10.9400   -8.9230   41.3550 C   0  0  0  0  0
   12.2740   -9.5210   39.4320 C   0  0  0  0  0
   15.2650   -8.4810   44.5560 C   0  0  0  0  0
   16.6070   -8.1110   45.1500 C   0  0  0  0  0
   16.1320   -3.2230   44.9830 C   0  0  0  0  0
   16.2570   -2.1280   44.2020 N   0  0  0  0  0
   16.5390   -2.3220   42.7830 C   0  0  0  0  0
   15.2730   -2.1730   41.9170 C   0  0  0  0  0
   14.0180   -1.9050   42.4690 C   0  0  0  0  0
   12.8480   -1.7640   41.7170 C   0  0  0  0  0
   11.2600   -1.4190   42.5540 Cl  0  0  0  0  0
   15.3540   -2.3270   40.5370 C   0  0  0  0  0
   14.1970   -2.1890   39.7600 C   0  0  0  0  0
   12.9650   -1.9090   40.3440 C   0  0  0  0  0
   14.7077    2.7287   48.4846 H   0  0  0  0  0
   15.5549    0.5921   47.5508 H   0  0  0  0  0
   12.7992   -1.6238   49.9372 H   0  0  0  0  0
   11.9780    0.7788   52.0525 H   0  0  0  0  0
   10.7776    0.8964   50.7425 H   0  0  0  0  0
   11.4165   -0.6944   51.2245 H   0  0  0  0  0
   14.1835   -3.1090   49.9013 H   0  0  0  0  0
   14.9723   -5.2293   48.8867 H   0  0  0  0  0
   15.1676   -1.0731   46.2697 H   0  0  0  0  0
   17.9142   -7.5469   42.9069 H   0  0  0  0  0
   17.5933   -5.9175   42.7578 H   0  0  0  0  0
   15.8336   -7.2671   41.4415 H   0  0  0  0  0
   15.0286   -6.3555   42.7752 H   0  0  0  0  0
   15.7160   -9.1363   42.5479 H   0  0  0  0  0
   13.0772   -8.0717   43.2012 H   0  0  0  0  0
   13.5276   -9.8049   43.3029 H   0  0  0  0  0
   14.2547   -9.6834   40.9833 H   0  0  0  0  0
   13.4711   -7.9897   40.9421 H   0  0  0  0  0
   12.1237  -10.5334   41.3370 H   0  0  0  0  0
   10.9024   -8.8961   42.4440 H   0  0  0  0  0
   10.9258   -7.9055   40.9644 H   0  0  0  0  0
   10.0788   -9.4718   40.9739 H   0  0  0  0  0
   12.3680   -8.4767   39.1341 H   0  0  0  0  0
   13.1408  -10.0802   39.0797 H   0  0  0  0  0
   11.3671   -9.9434   38.9992 H   0  0  0  0  0
   15.0827   -9.5123   44.8580 H   0  0  0  0  0
   14.5657   -7.7249   44.9129 H   0  0  0  0  0
   16.6471   -8.1458   46.2387 H   0  0  0  0  0
   17.4141   -8.8053   44.9165 H   0  0  0  0  0
   16.1571   -1.1913   44.5931 H   0  0  0  0  0
   16.9276   -3.3313   42.6477 H   0  0  0  0  0
   17.2564   -1.5629   42.4712 H   0  0  0  0  0
   13.9467   -1.7994   43.5515 H   0  0  0  0  0
   16.3098   -2.5532   40.0643 H   0  0  0  0  0
   14.2625   -2.3030   38.6780 H   0  0  0  0  0
   12.0820   -1.8026   39.7139 H   0  0  0  0  0
 16  1  4  0  0  0
  1 17  4  0  0  0
 17  2  4  0  0  0
  2 29  4  0  0  0
  4  3  2  0  0  0
  3 12  1  0  0  0
  5  4  1  0  0  0
  5  6  2  0  0  0
  8  5  1  0  0  0
  6 13  1  0  0  0
 13  7  1  0  0  0
  9  8  4  0  0  0
  8 14  4  0  0  0
 10  9  4  0  0  0
 10 16  4  0  0  0
 12 11  2  0  0  0
 12 13  1  0  0  0
 14 15  4  0  0  0
 15 16  4  0  0  0
 15 29  4  0  0  0
 17 18  1  0  0  0
 18 19  1  0  0  0
 18 28  1  0  0  0
 19 20  1  0  0  0
 20 21  1  0  0  0
 21 22  1  0  0  0
 21 27  1  0  0  0
 22 23  1  0  0  0
 23 24  1  0  0  0
 24 25  1  0  0  0
 24 26  1  0  0  0
 27 28  1  0  0  0
 29 30  1  0  0  0
 30 31  1  0  0  0
 31 32  1  0  0  0
 32 33  4  0  0  0
 32 36  4  0  0  0
 33 34  4  0  0  0
 34 35  1  0  0  0
 34 38  4  0  0  0
 36 37  4  0  0  0
 37 38  4  0  0  0
  3 39  1  0  0  0
  4 40  1  0  0  0
  6 41  1  0  0  0
  7 42  1  0  0  0
  7 43  1  0  0  0
  7 44  1  0  0  0
  9 45  1  0  0  0
 10 46  1  0  0  0
 14 47  1  0  0  0
 19 48  1  0  0  0
 19 49  1  0  0  0
 20 50  1  0  0  0
 20 51  1  0  0  0
 21 52  1  0  0  0
 22 53  1  0  0  0
 22 54  1  0  0  0
 23 55  1  0  0  0
 23 56  1  0  0  0
 24 57  1  0  0  0
 25 58  1  0  0  0
 25 59  1  0  0  0
 25 60  1  0  0  0
 26 61  1  0  0  0
 26 62  1  0  0  0
 26 63  1  0  0  0
 27 64  1  0  0  0
 27 65  1  0  0  0
 28 66  1  0  0  0
 28 67  1  0  0  0
 30 68  1  0  0  0
 31 69  1  0  0  0
 31 70  1  0  0  0
 33 71  1  0  0  0
 36 72  1  0  0  0
 37 73  1  0  0  0
 38 74  1  0  0  0
M  END
$$$$
