3pe2_ligand
  -I-interpret- 

 37 40  0  0  0  0  0  0  0  0999 V2000
   23.4420  -27.8900   10.2610 N   0  0  0  0  0
   23.4000  -26.8690   11.1510 C   0  0  0  0  0
   23.2050  -27.0940   12.4630 N   0  0  0  0  0
   23.0470  -28.3830   12.9440 C   0  0  0  0  0
   23.0880  -29.4490   12.0650 C   0  0  0  0  0
   23.2970  -29.1720   10.6780 C   0  0  0  0  0
   23.7750  -30.3870   20.4220 C   0  0  0  0  0
   22.5010  -34.7800   15.4990 O   0  0  0  0  0
   22.1120  -35.5840   13.3210 O   0  0  0  0  0
   23.3930  -29.4680   19.7470 C   0  0  0  0  0
   21.9580  -26.1610   18.6360 C   0  0  0  0  0
   22.3810  -27.1860   19.4650 C   0  0  0  0  0
   22.0540  -26.2790   17.2570 C   0  0  0  0  0
   22.7880  -33.2180   12.3020 C   0  0  0  0  0
   22.9550  -31.9420   11.7510 C   0  0  0  0  0
   23.0150  -28.4620   17.5480 C   0  0  0  0  0
   22.5580  -32.3030   14.5300 C   0  0  0  0  0
   22.6910  -29.9080   14.7930 N   0  0  0  0  0
   22.7310  -27.6880   15.3480 N   0  0  0  0  0
   22.4100  -34.7870   14.2440 C   0  0  0  0  0
   22.9200  -28.3370   18.9130 C   0  0  0  0  0
   22.5850  -27.4390   16.7270 C   0  0  0  0  0
   22.6000  -33.4110   13.6860 C   0  0  0  0  0
   22.8320  -28.6630   14.3320 C   0  0  0  0  0
   22.7260  -31.0040   13.9650 C   0  0  0  0  0
   22.9100  -30.8090   12.6130 C   0  0  0  0  0
   23.5266  -25.8458   10.7971 H   0  0  0  0  0
   23.3396  -29.9891    9.9579 H   0  0  0  0  0
   22.7761  -33.9088   15.7939 H   0  0  0  0  0
   21.5450  -25.2512   19.0716 H   0  0  0  0  0
   22.2905  -27.0880   20.5468 H   0  0  0  0  0
   21.7173  -25.4729   16.6051 H   0  0  0  0  0
   22.8037  -34.0861   11.6431 H   0  0  0  0  0
   23.1168  -31.8176   10.6803 H   0  0  0  0  0
   23.4307  -29.3707   17.1126 H   0  0  0  0  0
   22.3998  -32.4265   15.6014 H   0  0  0  0  0
   22.7878  -26.7786   14.8895 H   0  0  0  0  0
  1  2  4  0  0  0
  6  1  4  0  0  0
  3  2  4  0  0  0
  4  3  4  0  0  0
  5  4  4  0  0  0
 24  4  4  0  0  0
  5  6  4  0  0  0
 26  5  4  0  0  0
 10  7  3  0  0  0
 20  8  1  0  0  0
 20  9  2  0  0  0
 21 10  1  0  0  0
 11 12  4  0  0  0
 13 11  4  0  0  0
 21 12  4  0  0  0
 22 13  4  0  0  0
 14 15  4  0  0  0
 23 14  4  0  0  0
 15 26  4  0  0  0
 16 21  4  0  0  0
 22 16  4  0  0  0
 23 17  4  0  0  0
 17 25  4  0  0  0
 18 24  4  0  0  0
 25 18  4  0  0  0
 19 22  1  0  0  0
 24 19  1  0  0  0
 20 23  1  0  0  0
 25 26  4  0  0  0
  2 27  1  0  0  0
  6 28  1  0  0  0
  8 29  1  0  0  0
 11 30  1  0  0  0
 12 31  1  0  0  0
 13 32  1  0  0  0
 14 33  1  0  0  0
 15 34  1  0  0  0
 16 35  1  0  0  0
 17 36  1  0  0  0
 19 37  1  0  0  0
M  END
$$$$
