5orr_ligand
  -I-interpret- 

 22 23  0  0  0  0  0  0  0  0999 V2000
  -11.4080   16.2060  -18.7050 C   0  0  0  0  0
  -12.2310   14.0770  -15.7080 C   0  0  0  0  0
  -10.6670   13.9410  -17.9800 C   0  0  0  0  0
  -11.4300   15.0650  -17.7370 C   0  0  0  0  0
  -12.2120   15.1350  -16.6030 C   0  0  0  0  0
  -10.6820   12.8790  -17.0900 C   0  0  0  0  0
  -11.4710   12.9380  -15.9360 C   0  0  0  0  0
  -11.4930   11.8110  -14.9790 C   0  0  0  0  0
  -11.1830   15.8170  -19.9660 F   0  0  0  0  0
  -10.4600   17.1110  -18.4210 F   0  0  0  0  0
  -12.5660   16.8860  -18.7310 F   0  0  0  0  0
  -10.8520   10.5820  -15.0110 C   0  0  0  0  0
  -10.0380   10.1310  -15.9660 N   0  0  0  0  0
  -12.2230   11.8910  -13.8570 N   0  0  0  0  0
  -12.0690   10.7000  -13.1280 N   0  0  0  0  0
  -11.2110    9.8050  -13.7910 S   0  0  0  0  0
  -12.8507   14.1401  -14.8135 H   0  0  0  0  0
  -10.0494   13.8884  -18.8766 H   0  0  0  0  0
  -12.8150   16.0224  -16.4107 H   0  0  0  0  0
  -10.0770   11.9946  -17.2896 H   0  0  0  0  0
   -9.8335   10.7127  -16.7785 H   0  0  0  0  0
   -9.6198    9.2043  -15.8840 H   0  0  0  0  0
  4  1  1  0  0  0
  1  9  1  0  0  0
  1 10  1  0  0  0
  1 11  1  0  0  0
  5  2  4  0  0  0
  2  7  4  0  0  0
  4  3  4  0  0  0
  3  6  4  0  0  0
  4  5  4  0  0  0
  6  7  4  0  0  0
  7  8  1  0  0  0
  8 12  4  0  0  0
  8 14  4  0  0  0
 12 13  1  0  0  0
 12 16  4  0  0  0
 14 15  4  0  0  0
 15 16  4  0  0  0
  2 17  1  0  0  0
  3 18  1  0  0  0
  5 19  1  0  0  0
  6 20  1  0  0  0
 13 21  1  0  0  0
 13 22  1  0  0  0
M  END
$$$$
