5n2f_ligand
  -I-interpret- 

 62 65  0  0  0  0  0  0  0  0999 V2000
   35.2930   10.9890  136.8320 F   0  0  0  0  0
   34.5740   10.0710  136.1290 C   0  0  0  0  0
   34.4930    8.7580  136.5560 C   0  0  0  0  0
   33.7400    7.8520  135.8190 C   0  0  0  0  0
   33.6290    6.3890  136.2540 C   0  0  0  0  0
   32.3270    6.0720  136.8030 N   0  3  0  0  0
   32.0310    6.9990  137.8720 C   0  0  0  0  0
   32.5170    6.4200  139.1970 C   0  0  0  0  0
   33.6580    6.1480  139.3720 O   0  0  0  0  0
   31.4780    6.1930  140.2880 C   0  0  0  0  0
   30.0790    6.4020  139.7080 C   0  0  0  0  0
   29.4890    5.4500  139.1260 O   0  0  0  0  0
   29.5260    7.5300  139.8050 O   0  0  0  0  0
   33.9270   10.4760  134.9770 C   0  0  0  0  0
   33.1820    9.5770  134.2340 C   0  0  0  0  0
   33.0940    8.2630  134.6630 C   0  0  0  0  0
   32.3720    7.3540  133.9510 F   0  0  0  0  0
   34.0600   11.8070  134.5850 O   0  0  0  0  0
   33.1670   12.2060  133.5850 C   0  0  0  0  0
   33.5550   13.6450  133.3050 C   0  0  0  0  0
   32.7080   14.4240  132.5320 C   0  0  0  0  0
   31.4480   13.7870  131.9860 C   0  0  0  0  0
   33.0380   15.7370  132.2720 C   0  0  0  0  0
   34.2110   16.2550  132.7950 C   0  0  0  0  0
   35.0530   15.4740  133.5720 C   0  0  0  0  0
   34.7200   14.1560  133.8320 C   0  0  0  0  0
   32.1600   16.6680  131.4250 C   0  0  0  0  0
   32.7230   17.1700  130.2630 C   0  0  0  0  0
   31.9760   18.0430  129.4550 C   0  0  0  0  0
   30.7120   18.4010  129.8280 C   0  0  0  0  0
   30.1110   17.9090  131.0100 C   0  0  0  0  0
   30.8680   17.0460  131.8150 C   0  0  0  0  0
   32.5870   18.5320  128.2800 O   0  0  0  0  0
   31.7220   19.0770  127.3440 C   0  0  0  0  0
   30.7270   19.9920  128.0330 C   0  0  0  0  0
   29.9600   19.3020  129.0160 O   0  0  0  0  0
   35.0131    8.4380  137.4589 H   0  0  0  0  0
   34.3739    6.2109  137.0296 H   0  0  0  0  0
   33.7851    5.7636  135.3750 H   0  0  0  0  0
   32.3282    5.1181  137.1643 H   0  0  0  0  0
   31.6176    6.1485  136.0741 H   0  0  0  0  0
   30.9548    7.1650  137.9212 H   0  0  0  0  0
   32.5367    7.9457  137.6821 H   0  0  0  0  0
   31.6441    6.8992  141.1015 H   0  0  0  0  0
   31.5661    5.1754  140.6685 H   0  0  0  0  0
   30.0486    4.6701  139.1428 H   0  0  0  0  0
   32.6725    9.8980  133.3255 H   0  0  0  0  0
   32.1267   12.1101  133.8959 H   0  0  0  0  0
   33.2326   11.5785  132.6962 H   0  0  0  0  0
   31.7153   12.9442  131.3486 H   0  0  0  0  0
   30.8313   13.4369  132.8138 H   0  0  0  0  0
   30.8933   14.5229  131.4039 H   0  0  0  0  0
   34.4765   17.2927  132.5927 H   0  0  0  0  0
   35.9730   15.8962  133.9762 H   0  0  0  0  0
   35.3703   13.5318  134.4448 H   0  0  0  0  0
   33.7371   16.8899  129.9781 H   0  0  0  0  0
   29.0948   18.1909  131.2855 H   0  0  0  0  0
   30.4500   16.6676  132.7478 H   0  0  0  0  0
   31.1837   18.2738  126.8409 H   0  0  0  0  0
   32.2949   19.6515  126.6161 H   0  0  0  0  0
   30.0434   20.3819  127.2789 H   0  0  0  0  0
   31.2825   20.7872  128.5302 H   0  0  0  0  0
  1  2  1  0  0  0
  2  3  4  0  0  0
  2 14  4  0  0  0
  3  4  4  0  0  0
  4  5  1  0  0  0
  4 16  4  0  0  0
  5  6  1  0  0  0
  6  7  1  0  0  0
  7  8  1  0  0  0
  8  9  2  0  0  0
  8 10  1  0  0  0
 10 11  1  0  0  0
 11 12  1  0  0  0
 11 13  2  0  0  0
 14 15  4  0  0  0
 14 18  1  0  0  0
 15 16  4  0  0  0
 16 17  1  0  0  0
 18 19  1  0  0  0
 19 20  1  0  0  0
 20 21  4  0  0  0
 20 26  4  0  0  0
 21 22  1  0  0  0
 21 23  4  0  0  0
 23 24  4  0  0  0
 23 27  1  0  0  0
 24 25  4  0  0  0
 25 26  4  0  0  0
 27 28  4  0  0  0
 27 32  4  0  0  0
 28 29  4  0  0  0
 29 30  4  0  0  0
 29 33  1  0  0  0
 30 31  4  0  0  0
 30 36  1  0  0  0
 31 32  4  0  0  0
 33 34  1  0  0  0
 34 35  1  0  0  0
 35 36  1  0  0  0
  3 37  1  0  0  0
  5 38  1  0  0  0
  5 39  1  0  0  0
  6 40  1  0  0  0
  6 41  1  0  0  0
  7 42  1  0  0  0
  7 43  1  0  0  0
 10 44  1  0  0  0
 10 45  1  0  0  0
 12 46  1  0  0  0
 15 47  1  0  0  0
 19 48  1  0  0  0
 19 49  1  0  0  0
 22 50  1  0  0  0
 22 51  1  0  0  0
 22 52  1  0  0  0
 24 53  1  0  0  0
 25 54  1  0  0  0
 26 55  1  0  0  0
 28 56  1  0  0  0
 31 57  1  0  0  0
 32 58  1  0  0  0
 34 59  1  0  0  0
 34 60  1  0  0  0
 35 61  1  0  0  0
 35 62  1  0  0  0
M  END
$$$$
