4nzo_ligand
  -I-interpret- 

 70 72  0  0  0  0  0  0  0  0999 V2000
   -9.2040   14.8360   12.4590 C   0  0  0  0  0
  -10.1640   14.4470   11.5300 C   0  0  0  0  0
   -9.9700   14.7260   10.1840 C   0  0  0  0  0
   -8.8320   15.4080    9.7520 C   0  0  0  0  0
   -7.8760   15.8050   10.6850 C   0  0  0  0  0
   -8.0540   15.5050   12.0380 C   0  0  0  0  0
   -7.1110   15.9010   12.9820 C   0  0  0  0  0
   -7.6770   16.9410   13.7760 O   0  0  0  0  0
   -6.7510   17.4750   14.7360 C   0  0  0  0  0
   -7.2190   17.0680   16.1470 C   0  0  0  0  0
   -6.9760   15.6460   16.3330 O   0  0  0  0  0
   -8.1170   14.5750   16.7940 P   0  0  0  0  0
   -8.2090   13.5500   15.5500 O   0  0  0  0  0
   -9.4100   15.2710   16.9240 O   0  0  0  0  0
   -7.5930   13.8230   17.9560 O   0  0  0  0  0
   -6.4800   17.8240   17.2590 C   0  0  0  0  0
   -7.1510   17.4990   18.4920 O   0  0  0  0  0
   -6.3900   17.0270   19.8230 P   0  0  0  0  0
   -7.4670   17.0220   20.8310 O   0  0  0  0  0
   -5.3360   18.0510   19.9840 O   0  0  0  0  0
   -5.9050   15.6800   19.4330 O   0  0  0  0  0
   -6.6930   18.9900   14.5490 C   0  0  0  0  0
   -6.1080   19.3180   13.2600 O   0  0  0  0  0
   -6.8170   20.2270   12.1300 P   0  0  0  0  0
   -7.4280   19.1520   11.2890 O   0  0  0  0  0
   -7.7400   21.1430   12.8000 O   0  0  0  0  0
   -5.6520   20.9070   11.5330 O   0  0  0  0  0
   -5.8040   19.5760   15.6160 C   0  0  0  0  0
   -5.5060   20.9800   15.2500 O   0  0  0  0  0
   -4.1570   21.5090   14.4200 P   0  0  0  0  0
   -4.4970   22.9250   14.1840 O   0  0  0  0  0
   -3.1670   21.2350   15.4570 O   0  0  0  0  0
   -3.8360   20.9280   13.1170 O   0  0  0  0  0
   -6.4860   19.3410   16.9930 C   0  0  0  0  0
   -7.8630   19.7970   17.0270 O   0  0  0  0  0
   -8.2670   20.1870   18.3320 C   0  0  0  0  0
   -9.6530   19.9380   18.4110 C   0  0  0  0  0
  -10.5510   20.9690   18.1170 C   0  0  0  0  0
  -11.9270   20.7540   18.1950 C   0  0  0  0  0
  -12.4230   19.5070   18.5730 C   0  0  0  0  0
  -11.5370   18.4750   18.8760 C   0  0  0  0  0
  -10.1570   18.6870   18.7950 C   0  0  0  0  0
   -9.3504   14.6179   13.5169 H   0  0  0  0  0
  -11.0637   13.9259   11.8574 H   0  0  0  0  0
  -10.7160   14.4083    9.4555 H   0  0  0  0  0
   -8.6919   15.6284    8.6937 H   0  0  0  0  0
   -6.9896   16.3494   10.3594 H   0  0  0  0  0
   -6.2119   16.2612   12.4821 H   0  0  0  0  0
   -6.8389   15.0557   13.6141 H   0  0  0  0  0
   -5.7441   17.0811   14.5979 H   0  0  0  0  0
   -8.2786   17.3137   16.2169 H   0  0  0  0  0
   -7.3723   13.0893   15.4539 H   0  0  0  0  0
   -6.7501   13.4259   17.7250 H   0  0  0  0  0
   -5.4314   17.5300   17.3050 H   0  0  0  0  0
   -4.6929   17.9606   19.2770 H   0  0  0  0  0
   -5.2091   15.7690   18.7777 H   0  0  0  0  0
   -7.7051   19.3901   14.6093 H   0  0  0  0  0
   -6.7322   18.6158   10.9018 H   0  0  0  0  0
   -5.0857   20.2573   11.1101 H   0  0  0  0  0
   -4.8291   19.0953   15.6975 H   0  0  0  0  0
   -5.1531   22.9833   13.4856 H   0  0  0  0  0
   -4.5284   21.1491   12.4899 H   0  0  0  0  0
   -5.9346   19.9067   17.7440 H   0  0  0  0  0
   -8.0480   21.2397   18.5110 H   0  0  0  0  0
   -7.7249   19.6260   19.0932 H   0  0  0  0  0
  -10.1726   21.9485   17.8245 H   0  0  0  0  0
  -12.6172   21.5641   17.9595 H   0  0  0  0  0
  -13.4986   19.3402   18.6312 H   0  0  0  0  0
  -11.9205   17.5001   19.1769 H   0  0  0  0  0
   -9.4692   17.8752   19.0317 H   0  0  0  0  0
  1  2  4  0  0  0
  1  6  4  0  0  0
  2  3  4  0  0  0
  3  4  4  0  0  0
  4  5  4  0  0  0
  5  6  4  0  0  0
  6  7  1  0  0  0
  7  8  1  0  0  0
  8  9  1  0  0  0
  9 10  1  0  0  0
  9 22  1  0  0  0
 10 11  1  0  0  0
 10 16  1  0  0  0
 11 12  1  0  0  0
 12 13  1  0  0  0
 12 14  2  0  0  0
 12 15  1  0  0  0
 16 17  1  0  0  0
 16 34  1  0  0  0
 17 18  1  0  0  0
 18 19  2  0  0  0
 18 20  1  0  0  0
 18 21  1  0  0  0
 22 23  1  0  0  0
 22 28  1  0  0  0
 23 24  1  0  0  0
 24 25  1  0  0  0
 24 26  2  0  0  0
 24 27  1  0  0  0
 28 29  1  0  0  0
 28 34  1  0  0  0
 29 30  1  0  0  0
 30 31  1  0  0  0
 30 32  2  0  0  0
 30 33  1  0  0  0
 34 35  1  0  0  0
 35 36  1  0  0  0
 36 37  1  0  0  0
 37 38  4  0  0  0
 37 42  4  0  0  0
 38 39  4  0  0  0
 39 40  4  0  0  0
 40 41  4  0  0  0
 41 42  4  0  0  0
  1 43  1  0  0  0
  2 44  1  0  0  0
  3 45  1  0  0  0
  4 46  1  0  0  0
  5 47  1  0  0  0
  7 48  1  0  0  0
  7 49  1  0  0  0
  9 50  1  0  0  0
 10 51  1  0  0  0
 13 52  1  0  0  0
 15 53  1  0  0  0
 16 54  1  0  0  0
 20 55  1  0  0  0
 21 56  1  0  0  0
 22 57  1  0  0  0
 25 58  1  0  0  0
 27 59  1  0  0  0
 28 60  1  0  0  0
 31 61  1  0  0  0
 33 62  1  0  0  0
 34 63  1  0  0  0
 36 64  1  0  0  0
 36 65  1  0  0  0
 38 66  1  0  0  0
 39 67  1  0  0  0
 40 68  1  0  0  0
 41 69  1  0  0  0
 42 70  1  0  0  0
M  END
$$$$
