### 
### Created by X-TOOL on Mon Sep 10 21:13:17 2018
### 

@<TRIPOS>MOLECULE
4nzo_ligand
   62    64     1     0     0
SMALL
GAST_HUCK


@<TRIPOS>ATOM
      1 CD5        -9.2040   14.8360   12.4590 C.ar      1 2OV        -0.0581
      2 CE5       -10.1640   14.4470   11.5300 C.ar      1 2OV        -0.0685
      3 CZ5        -9.9700   14.7260   10.1840 C.ar      1 2OV        -0.0687
      4 CE7        -8.8320   15.4080    9.7520 C.ar      1 2OV        -0.0685
      5 CD7        -7.8760   15.8050   10.6850 C.ar      1 2OV        -0.0581
      6 CB5        -8.0540   15.5050   12.0380 C.ar      1 2OV        -0.0175
      7 CA5        -7.1110   15.9010   12.9820 C.3       1 2OV         0.0822
      8 O15        -7.6770   16.9410   13.7760 O.3       1 2OV        -0.3581
      9 C5         -6.7510   17.4750   14.7360 C.3       1 2OV         0.1278
     10 C6         -7.2190   17.0680   16.1470 C.3       1 2OV         0.1511
     11 O16        -6.9760   15.6460   16.3330 O.3       1 2OV        -0.2672
     12 PA6        -8.1170   14.5750   16.7940 P.3       1 2OV         0.2013
     13 O36        -8.2090   13.5500   15.5500 O.co2     1 2OV        -0.5537
     14 O46        -9.4100   15.2710   16.9240 O.co2     1 2OV        -0.5537
     15 O26        -7.5930   13.8230   17.9560 O.co2     1 2OV        -0.5537
     16 C1         -6.4800   17.8240   17.2590 C.3       1 2OV         0.1511
     17 O11        -7.1510   17.4990   18.4920 O.3       1 2OV        -0.2672
     18 PA1        -6.3900   17.0270   19.8230 P.3       1 2OV         0.2013
     19 O41        -7.4670   17.0220   20.8310 O.co2     1 2OV        -0.5537
     20 O31        -5.3360   18.0510   19.9840 O.co2     1 2OV        -0.5537
     21 O21        -5.9050   15.6800   19.4330 O.co2     1 2OV        -0.5537
     22 C4         -6.6930   18.9900   14.5490 C.3       1 2OV         0.1511
     23 O14        -6.1080   19.3180   13.2600 O.3       1 2OV        -0.2672
     24 PA4        -6.8170   20.2270   12.1300 P.3       1 2OV         0.2013
     25 O44        -7.4280   19.1520   11.2890 O.co2     1 2OV        -0.5537
     26 O34        -7.7400   21.1430   12.8000 O.co2     1 2OV        -0.5537
     27 O24        -5.6520   20.9070   11.5330 O.co2     1 2OV        -0.5537
     28 C3         -5.8040   19.5760   15.6160 C.3       1 2OV         0.1511
     29 O13        -5.5060   20.9800   15.2500 O.3       1 2OV        -0.2672
     30 PA3        -4.1570   21.5090   14.4200 P.3       1 2OV         0.2013
     31 O43        -4.4970   22.9250   14.1840 O.co2     1 2OV        -0.5537
     32 O33        -3.1670   21.2350   15.4570 O.co2     1 2OV        -0.5537
     33 O23        -3.8360   20.9280   13.1170 O.co2     1 2OV        -0.5537
     34 C2         -6.4860   19.3410   16.9930 C.3       1 2OV         0.1278
     35 O12        -7.8630   19.7970   17.0270 O.3       1 2OV        -0.3581
     36 CA2        -8.2670   20.1870   18.3320 C.3       1 2OV         0.0822
     37 CB2        -9.6530   19.9380   18.4110 C.ar      1 2OV        -0.0175
     38 CD2       -10.5510   20.9690   18.1170 C.ar      1 2OV        -0.0581
     39 CE2       -11.9270   20.7540   18.1950 C.ar      1 2OV        -0.0685
     40 CZ        -12.4230   19.5070   18.5730 C.ar      1 2OV        -0.0687
     41 CE1       -11.5370   18.4750   18.8760 C.ar      1 2OV        -0.0685
     42 CD1       -10.1570   18.6870   18.7950 C.ar      1 2OV        -0.0581
     43 H          -9.3496   14.6191   13.5111 H         1 2OV         0.0557
     44 H         -11.0587   13.9288   11.8556 H         1 2OV         0.0599
     45 H         -10.7119   14.4101    9.4596 H         1 2OV         0.0559
     46 H          -8.6927   15.6272    8.6996 H         1 2OV         0.0599
     47 H          -6.9945   16.3464   10.3611 H         1 2OV         0.0557
     48 H          -6.2090   16.2716   12.4730 H         1 2OV         0.0724
     49 H          -6.8458   15.0472   13.6228 H         1 2OV         0.0724
     50 H          -5.7496   17.0556   14.5594 H         1 2OV         0.0659
     51 H          -8.2963   17.2731   16.2333 H         1 2OV         0.0706
     52 H          -5.4361   17.4806   17.3079 H         1 2OV         0.0706
     53 H          -7.7059   19.4129   14.6210 H         1 2OV         0.0706
     54 H          -4.8485   19.0310   15.6266 H         1 2OV         0.0706
     55 H          -5.9146   19.8652   17.7732 H         1 2OV         0.0659
     56 H          -8.0631   21.2564   18.4897 H         1 2OV         0.0724
     57 H          -7.7306   19.5959   19.0889 H         1 2OV         0.0724
     58 H         -10.1747   21.9431   17.8262 H         1 2OV         0.0557
     59 H         -12.6134   21.5596   17.9608 H         1 2OV         0.0599
     60 H         -13.4927   19.3411   18.6309 H         1 2OV         0.0559
     61 H         -11.9184   17.5054   19.1752 H         1 2OV         0.0599
     62 H          -9.4730   17.8796   19.0304 H         1 2OV         0.0557
@<TRIPOS>BOND
     1    1    2 ar 
     2    1    6 ar 
     3    2    3 ar 
     4    3    4 ar 
     5    4    5 ar 
     6    5    6 ar 
     7    6    7 1  
     8    7    8 1  
     9    8    9 1  
    10    9   10 1  
    11    9   22 1  
    12   10   11 1  
    13   10   16 1  
    14   11   12 1  
    15   12   13 ar 
    16   12   14 ar 
    17   12   15 ar 
    18   16   17 1  
    19   16   34 1  
    20   17   18 1  
    21   18   19 ar 
    22   18   20 ar 
    23   18   21 ar 
    24   22   23 1  
    25   22   28 1  
    26   23   24 1  
    27   24   25 ar 
    28   24   26 ar 
    29   24   27 ar 
    30   28   29 1  
    31   28   34 1  
    32   29   30 1  
    33   30   31 ar 
    34   30   32 ar 
    35   30   33 ar 
    36   34   35 1  
    37   35   36 1  
    38   36   37 1  
    39   37   38 ar 
    40   37   42 ar 
    41   38   39 ar 
    42   39   40 ar 
    43   40   41 ar 
    44   41   42 ar 
    45    1   43 1  
    46    2   44 1  
    47    3   45 1  
    48    4   46 1  
    49    5   47 1  
    50    7   48 1  
    51    7   49 1  
    52    9   50 1  
    53   10   51 1  
    54   16   52 1  
    55   22   53 1  
    56   28   54 1  
    57   34   55 1  
    58   36   56 1  
    59   36   57 1  
    60   38   58 1  
    61   39   59 1  
    62   40   60 1  
    63   41   61 1  
    64   42   62 1  
@<TRIPOS>SUBSTRUCTURE
     1 2OV         1

