6byk_ligand
  -I-interpret- 

 72 72  0  0  0  0  0  0  0  0999 V2000
   -7.5740    4.3130    1.6930 N   0  3  0  0  0
   -6.5120    3.6660    0.9230 C   0  0  0  0  0
   -6.6270    4.0030   -0.5640 C   0  0  0  0  0
   -7.7420    4.1430   -1.0620 O   0  0  0  0  0
   -6.7580    2.1840    1.1920 C   0  0  0  0  0
   -8.2440    2.0900    1.3220 C   0  0  0  0  0
   -8.7360    3.4230    1.8580 C   0  0  0  0  0
   -5.4980    4.1180   -1.2570 N   0  0  0  0  0
   -5.4850    4.6430   -2.6240 C   0  0  0  0  0
   -5.5550    3.5380   -3.6790 C   0  0  0  0  0
   -5.3790    2.3600   -3.3680 O   0  0  0  0  0
   -4.2300    5.5070   -2.8970 C   0  0  0  0  0
   -4.5670    6.9820   -2.7330 C   0  0  0  0  0
   -3.0560    5.1110   -1.9980 C   0  0  0  0  0
   -5.8470    3.9200   -4.9200 N   0  0  0  0  0
   -6.0510    2.9550   -5.9920 C   0  0  0  0  0
   -5.7150    3.5380   -7.3710 C   0  0  0  0  0
   -4.9750    4.5110   -7.4600 O   0  0  0  0  0
   -7.4870    2.5090   -5.9700 C   0  0  0  0  0
   -8.2580    3.6450   -6.3730 O   0  0  0  0  0
   -6.2790    2.9860   -8.4460 N   0  0  0  0  0
   -5.7790    3.3150   -9.7770 C   0  0  0  0  0
   -6.8080    3.0770  -10.8640 C   0  0  0  0  0
   -7.3680    1.9850  -10.9770 O   0  0  0  0  0
   -4.5000    2.5040  -10.0320 C   0  0  0  0  0
   -4.3000    1.8560  -11.4080 C   0  0  0  0  0
   -3.9620    2.8450  -12.5010 C   0  0  0  0  0
   -3.2970    3.8520  -12.2590 O   0  0  0  0  0
   -4.3990    2.5500  -13.7220 N   0  0  0  0  0
   -7.0680    4.1140  -11.6550 N   0  0  0  0  0
   -7.8530    3.9460  -12.8680 C   0  0  0  0  0
   -7.0500    4.4370  -14.0630 C   0  0  0  0  0
   -7.4090    5.4210  -14.7070 O   0  0  0  0  0
   -9.1870    4.6830  -12.7730 C   0  0  0  0  0
   -6.0220    3.8620  -14.4150 O   0  0  0  0  0
   -7.8746    5.1489    1.1917 H   0  0  0  0  0
   -7.2093    4.5446    2.6170 H   0  0  0  0  0
   -5.5091    3.9873    1.2041 H   0  0  0  0  0
   -6.2393    1.8313    2.0834 H   0  0  0  0  0
   -6.3687    1.5468    0.3979 H   0  0  0  0  0
   -8.5187    1.2805    1.9983 H   0  0  0  0  0
   -8.6999    1.8741    0.3557 H   0  0  0  0  0
   -9.6171    3.7855    1.3286 H   0  0  0  0  0
   -9.0679    3.3587    2.8942 H   0  0  0  0  0
   -4.6187    3.8333   -0.8255 H   0  0  0  0  0
   -6.3791    5.2613   -2.7036 H   0  0  0  0  0
   -3.9169    5.3272   -3.9255 H   0  0  0  0  0
   -5.3513    7.2549   -3.4391 H   0  0  0  0  0
   -4.9133    7.1633   -1.7155 H   0  0  0  0  0
   -3.6770    7.5805   -2.9274 H   0  0  0  0  0
   -3.3397    5.2413   -0.9537 H   0  0  0  0  0
   -2.7979    4.0674   -2.1782 H   0  0  0  0  0
   -2.1974    5.7433   -2.2242 H   0  0  0  0  0
   -5.9302    4.9155   -5.1261 H   0  0  0  0  0
   -5.3787    2.1135   -5.8248 H   0  0  0  0  0
   -7.7788    2.1653   -4.9776 H   0  0  0  0  0
   -7.6487    1.6641   -6.6394 H   0  0  0  0  0
   -9.1896    3.4133   -6.3761 H   0  0  0  0  0
   -7.0575    2.3358   -8.3383 H   0  0  0  0  0
   -5.5579    4.3818   -9.8107 H   0  0  0  0  0
   -4.5487    1.6707   -9.3311 H   0  0  0  0  0
   -3.6856    3.2221   -9.9362 H   0  0  0  0  0
   -5.2391    1.3752  -11.6819 H   0  0  0  0  0
   -3.4624    1.1635  -11.3240 H   0  0  0  0  0
   -4.1857    3.1697  -14.5036 H   0  0  0  0  0
   -4.9474    1.7040  -13.8768 H   0  0  0  0  0
   -6.7129    5.0378  -11.4082 H   0  0  0  0  0
   -8.0761    2.8867  -12.9952 H   0  0  0  0  0
   -8.2190    5.7713  -14.3291 H   0  0  0  0  0
   -9.7587    4.2899  -11.9323 H   0  0  0  0  0
   -9.0030    5.7469  -12.6232 H   0  0  0  0  0
   -9.7481    4.5364  -13.6959 H   0  0  0  0  0
  1  2  1  0  0  0
  1  7  1  0  0  0
  2  3  1  0  0  0
  2  5  1  0  0  0
  3  4  2  0  0  0
  3  8  1  0  0  0
  5  6  1  0  0  0
  6  7  1  0  0  0
  8  9  1  0  0  0
  9 10  1  0  0  0
  9 12  1  0  0  0
 10 11  2  0  0  0
 10 15  1  0  0  0
 12 13  1  0  0  0
 12 14  1  0  0  0
 15 16  1  0  0  0
 16 17  1  0  0  0
 16 19  1  0  0  0
 17 18  2  0  0  0
 17 21  1  0  0  0
 19 20  1  0  0  0
 21 22  1  0  0  0
 22 23  1  0  0  0
 22 25  1  0  0  0
 23 24  2  0  0  0
 23 30  1  0  0  0
 25 26  1  0  0  0
 26 27  1  0  0  0
 27 28  2  0  0  0
 27 29  1  0  0  0
 30 31  1  0  0  0
 31 32  1  0  0  0
 31 34  1  0  0  0
 32 33  1  0  0  0
 32 35  2  0  0  0
  1 36  1  0  0  0
  1 37  1  0  0  0
  2 38  1  0  0  0
  5 39  1  0  0  0
  5 40  1  0  0  0
  6 41  1  0  0  0
  6 42  1  0  0  0
  7 43  1  0  0  0
  7 44  1  0  0  0
  8 45  1  0  0  0
  9 46  1  0  0  0
 12 47  1  0  0  0
 13 48  1  0  0  0
 13 49  1  0  0  0
 13 50  1  0  0  0
 14 51  1  0  0  0
 14 52  1  0  0  0
 14 53  1  0  0  0
 15 54  1  0  0  0
 16 55  1  0  0  0
 19 56  1  0  0  0
 19 57  1  0  0  0
 20 58  1  0  0  0
 21 59  1  0  0  0
 22 60  1  0  0  0
 25 61  1  0  0  0
 25 62  1  0  0  0
 26 63  1  0  0  0
 26 64  1  0  0  0
 29 65  1  0  0  0
 29 66  1  0  0  0
 30 67  1  0  0  0
 31 68  1  0  0  0
 33 69  1  0  0  0
 34 70  1  0  0  0
 34 71  1  0  0  0
 34 72  1  0  0  0
M  END
$$$$
