2jqi_ligand
  -I-interpret- 

160160  0  0  0  0  0  0  0  0999 V2000
  -13.8570  -27.5140    4.1750 N   0  3  0  0  0
  -13.7290  -28.4110    5.3540 C   0  0  0  0  0
  -12.2980  -28.4270    5.8820 C   0  0  0  0  0
  -11.4380  -29.1170    5.3380 O   0  0  0  0  0
  -14.1580  -29.8210    4.9420 C   0  0  0  0  0
  -15.0160  -30.4960    5.9950 C   0  0  0  0  0
  -14.6060  -31.4830    6.6050 O   0  0  0  0  0
  -16.2130  -29.9660    6.2110 N   0  0  0  0  0
  -12.0610  -27.6570    6.9440 N   0  0  0  0  0
  -10.7410  -27.5620    7.5680 C   0  0  0  0  0
   -9.6520  -27.2230    6.5470 C   0  0  0  0  0
   -9.8400  -27.3840    5.3420 O   0  0  0  0  0
  -10.3700  -28.8590    8.3290 C   0  0  0  0  0
   -9.1910  -28.6050    9.2710 C   0  0  0  0  0
  -10.0480  -29.9990    7.3690 C   0  0  0  0  0
   -9.2000  -29.4850   10.5000 C   0  0  0  0  0
   -8.5130  -26.7460    7.0400 N   0  0  0  0  0
   -7.4000  -26.3820    6.1730 C   0  0  0  0  0
   -6.8130  -25.0080    6.5590 C   0  0  0  0  0
   -5.6310  -24.6440    5.6700 C   0  0  0  0  0
   -7.8010  -24.0190    6.4490 O   0  0  0  0  0
   -8.3250  -23.3540    7.7590 P   0  0  0  0  0
   -8.3730  -24.5070    8.7970 O   0  0  0  0  0
   -7.2120  -22.3550    8.1650 O   0  0  0  0  0
   -9.6580  -22.6890    7.5770 O   0  0  0  0  0
   -6.2970  -27.4340    6.2290 C   0  0  0  0  0
   -5.8500  -27.8220    7.3080 O   0  0  0  0  0
   -5.8620  -27.8900    5.0590 N   0  0  0  0  0
   -4.8110  -28.8970    4.9750 C   0  0  0  0  0
   -3.4570  -28.2460    4.6940 C   0  0  0  0  0
   -3.3240  -27.4560    3.7600 O   0  0  0  0  0
   -5.1370  -29.9120    3.8770 C   0  0  0  0  0
   -6.4960  -30.5730    4.0440 C   0  0  0  0  0
   -6.5200  -31.9970    3.5240 C   0  0  0  0  0
   -7.3450  -32.3480    2.6800 O   0  0  0  0  0
   -5.6120  -32.8250    4.0280 N   0  0  0  0  0
   -2.4290  -28.5680    5.5020 N   0  0  0  0  0
   -1.0870  -28.0040    5.3280 C   0  0  0  0  0
   -0.3580  -28.5960    4.1260 C   0  0  0  0  0
   -0.2230  -29.8140    4.0080 O   0  0  0  0  0
   -0.3750  -28.3870    6.6260 C   0  0  0  0  0
   -1.0560  -29.6330    7.0730 C   0  0  0  0  0
   -2.4920  -29.5010    6.6440 C   0  0  0  0  0
    0.1110  -27.7260    3.2370 N   0  0  0  0  0
    0.8270  -28.1640    2.0440 C   0  0  0  0  0
    2.2720  -28.5220    2.3800 C   0  0  0  0  0
    2.7180  -28.3420    3.5130 O   0  0  0  0  0
    0.7960  -27.0700    0.9750 C   0  0  0  0  0
   -0.3850  -26.2960    1.0850 O   0  0  0  0  0
    0.8610  -27.6100   -0.4370 C   0  0  0  0  0
    2.9970  -29.0290    1.3890 N   0  0  0  0  0
    4.3910  -29.4130    1.5810 C   0  0  0  0  0
    5.2600  -28.1870    1.8430 C   0  0  0  0  0
    4.7930  -27.0520    1.7580 O   0  0  0  0  0
    4.9090  -30.1660    0.3540 C   0  0  0  0  0
    3.9810  -31.2750   -0.1160 C   0  0  0  0  0
    4.5820  -32.1020   -1.2360 C   0  0  0  0  0
    5.7070  -32.5900   -1.1270 O   0  0  0  0  0
    3.8340  -32.2630   -2.3210 N   0  0  0  0  0
    6.5290  -28.4250    2.1630 N   0  0  0  0  0
    7.4630  -27.3410    2.4360 C   0  0  0  0  0
    8.9060  -27.8270    2.3330 C   0  0  0  0  0
    9.2690  -28.8530    2.9100 O   0  0  0  0  0
    7.2090  -26.7570    3.8270 C   0  0  0  0  0
    7.7290  -25.3400    3.9970 C   0  0  0  0  0
    8.2100  -25.0600    5.4070 C   0  0  0  0  0
    7.5120  -25.3430    6.3810 O   0  0  0  0  0
    9.4080  -24.5000    5.5240 N   0  0  0  0  0
    9.7230  -27.0860    1.5930 N   0  0  0  0  0
   11.1250  -27.4410    1.4140 C   0  0  0  0  0
   11.9920  -26.8130    2.5020 C   0  0  0  0  0
   12.1940  -25.5990    2.5240 O   0  0  0  0  0
   11.6140  -26.9940    0.0350 C   0  0  0  0  0
   10.9760  -27.7300   -0.9940 O   0  0  0  0  0
   12.4990  -27.6490    3.4020 N   0  0  0  0  0
   13.3420  -27.1760    4.4930 C   0  0  0  0  0
   14.7750  -26.9590    4.0190 C   0  0  0  0  0
   15.2480  -27.7570    3.1830 O   0  0  0  0  0
   13.3220  -28.1750    5.6500 C   0  0  0  0  0
   11.9910  -28.4990    6.0100 O   0  0  0  0  0
   14.0230  -27.6680    6.8930 C   0  0  0  0  0
   15.4120  -25.9910    4.4850 O   0  0  0  0  0
  -13.5739  -26.5694    4.4356 H   0  0  0  0  0
  -13.2575  -27.8547    3.4234 H   0  0  0  0  0
  -14.8271  -27.5048    3.8601 H   0  0  0  0  0
  -14.3692  -28.0430    6.1558 H   0  0  0  0  0
  -13.2581  -30.4207    4.8055 H   0  0  0  0  0
  -14.7469  -29.7406    4.0283 H   0  0  0  0  0
  -16.8350  -30.3777    6.9067 H   0  0  0  0  0
  -16.5112  -29.1469    5.6813 H   0  0  0  0  0
  -12.8294  -27.1131    7.3367 H   0  0  0  0  0
  -10.7994  -26.7467    8.2891 H   0  0  0  0  0
  -11.2365  -29.1576    8.9191 H   0  0  0  0  0
   -9.2584  -27.5707    9.6084 H   0  0  0  0  0
   -8.2773  -28.8238    8.7183 H   0  0  0  0  0
  -10.9174  -30.2024    6.7438 H   0  0  0  0  0
   -9.2047  -29.7150    6.7395 H   0  0  0  0  0
   -9.7925  -30.8918    7.9398 H   0  0  0  0  0
  -10.1145  -29.3073   11.0659 H   0  0  0  0  0
   -9.1564  -30.5310   10.1966 H   0  0  0  0  0
   -8.3356  -29.2490   11.1206 H   0  0  0  0  0
   -8.4161  -26.6322    8.0490 H   0  0  0  0  0
   -7.7912  -26.3254    5.1572 H   0  0  0  0  0
   -6.4639  -25.0689    7.5898 H   0  0  0  0  0
   -4.8514  -25.3982    5.7774 H   0  0  0  0  0
   -5.9583  -24.6033    4.6311 H   0  0  0  0  0
   -5.2403  -23.6709    5.9676 H   0  0  0  0  0
   -7.5007  -24.8995    8.8782 H   0  0  0  0  0
   -6.3824  -22.8268    8.2688 H   0  0  0  0  0
   -6.2733  -27.5268    4.1991 H   0  0  0  0  0
   -4.7564  -29.4123    5.9339 H   0  0  0  0  0
   -4.3831  -30.6979    3.9238 H   0  0  0  0  0
   -5.1488  -29.3752    2.9284 H   0  0  0  0  0
   -7.2224  -29.9951    3.4726 H   0  0  0  0  0
   -6.7266  -30.6010    5.1090 H   0  0  0  0  0
   -5.5789  -33.7959    3.7172 H   0  0  0  0  0
   -4.9478  -32.4899    4.7258 H   0  0  0  0  0
   -1.1165  -26.9308    5.1398 H   0  0  0  0  0
   -0.4379  -27.5969    7.3742 H   0  0  0  0  0
    0.6940  -28.5378    6.4757 H   0  0  0  0  0
   -0.9777  -29.7588    8.1529 H   0  0  0  0  0
   -0.5926  -30.5152    6.6312 H   0  0  0  0  0
   -2.9364  -30.4593    6.3752 H   0  0  0  0  0
   -3.1345  -29.1361    7.4453 H   0  0  0  0  0
   -0.0333  -26.7283    3.3928 H   0  0  0  0  0
    0.3304  -29.0539    1.6573 H   0  0  0  0  0
    1.6841  -26.4644    1.1556 H   0  0  0  0  0
   -0.3853  -25.6165    0.4068 H   0  0  0  0  0
    1.7862  -28.1712   -0.5678 H   0  0  0  0  0
    0.0086  -28.2661   -0.6133 H   0  0  0  0  0
    0.8348  -26.7804   -1.1435 H   0  0  0  0  0
    2.5685  -29.1527    0.4717 H   0  0  0  0  0
    4.4451  -30.0687    2.4500 H   0  0  0  0  0
    5.8569  -30.6280    0.6301 H   0  0  0  0  0
    4.9954  -29.4455   -0.4593 H   0  0  0  0  0
    3.0689  -30.8122   -0.4928 H   0  0  0  0  0
    3.7959  -31.9383    0.7289 H   0  0  0  0  0
    4.1865  -32.8092   -3.1070 H   0  0  0  0  0
    2.9068  -31.8405   -2.3685 H   0  0  0  0  0
    6.8559  -29.3896    2.2185 H   0  0  0  0  0
    7.3050  -26.5634    1.6887 H   0  0  0  0  0
    7.7341  -27.3859    4.5459 H   0  0  0  0  0
    6.1298  -26.7289    3.9771 H   0  0  0  0  0
    6.9101  -24.6542    3.7798 H   0  0  0  0  0
    8.5752  -25.2103    3.3223 H   0  0  0  0  0
    9.7836  -24.2876    6.4482 H   0  0  0  0  0
    9.9528  -24.2822    4.6897 H   0  0  0  0  0
    9.3602  -26.2479    1.1388 H   0  0  0  0  0
   11.2102  -28.5251    1.4892 H   0  0  0  0  0
   12.6886  -27.1658   -0.0273 H   0  0  0  0  0
   11.3786  -25.9375   -0.0936 H   0  0  0  0  0
   11.2993  -27.4313   -1.8472 H   0  0  0  0  0
   12.2934  -28.6453    3.3276 H   0  0  0  0  0
   12.9443  -26.2218    4.8384 H   0  0  0  0  0
   13.8569  -29.0510    5.2831 H   0  0  0  0  0
   12.0009  -29.1262    6.7367 H   0  0  0  0  0
   15.0665  -27.4568    6.6595 H   0  0  0  0  0
   13.5348  -26.7564    7.2377 H   0  0  0  0  0
   13.9705  -28.4272    7.6734 H   0  0  0  0  0
   14.8577  -25.5144    5.1073 H   0  0  0  0  0
  1  2  1  0  0  0
  2  3  1  0  0  0
  2  5  1  0  0  0
  3  4  2  0  0  0
  3  9  1  0  0  0
  5  6  1  0  0  0
  6  7  2  0  0  0
  6  8  1  0  0  0
  9 10  1  0  0  0
 10 11  1  0  0  0
 10 13  1  0  0  0
 11 12  2  0  0  0
 11 17  1  0  0  0
 13 14  1  0  0  0
 13 15  1  0  0  0
 14 16  1  0  0  0
 17 18  1  0  0  0
 18 19  1  0  0  0
 18 26  1  0  0  0
 19 20  1  0  0  0
 19 21  1  0  0  0
 21 22  1  0  0  0
 22 23  1  0  0  0
 22 24  1  0  0  0
 22 25  2  0  0  0
 26 27  2  0  0  0
 26 28  1  0  0  0
 28 29  1  0  0  0
 29 30  1  0  0  0
 29 32  1  0  0  0
 30 31  2  0  0  0
 30 37  1  0  0  0
 32 33  1  0  0  0
 33 34  1  0  0  0
 34 35  2  0  0  0
 34 36  1  0  0  0
 37 38  1  0  0  0
 37 43  1  0  0  0
 38 39  1  0  0  0
 38 41  1  0  0  0
 39 40  2  0  0  0
 39 44  1  0  0  0
 41 42  1  0  0  0
 42 43  1  0  0  0
 44 45  1  0  0  0
 45 46  1  0  0  0
 45 48  1  0  0  0
 46 47  2  0  0  0
 46 51  1  0  0  0
 48 49  1  0  0  0
 48 50  1  0  0  0
 51 52  1  0  0  0
 52 53  1  0  0  0
 52 55  1  0  0  0
 53 54  2  0  0  0
 53 60  1  0  0  0
 55 56  1  0  0  0
 56 57  1  0  0  0
 57 58  2  0  0  0
 57 59  1  0  0  0
 60 61  1  0  0  0
 61 62  1  0  0  0
 61 64  1  0  0  0
 62 63  2  0  0  0
 62 69  1  0  0  0
 64 65  1  0  0  0
 65 66  1  0  0  0
 66 67  2  0  0  0
 66 68  1  0  0  0
 69 70  1  0  0  0
 70 71  1  0  0  0
 70 73  1  0  0  0
 71 72  2  0  0  0
 71 75  1  0  0  0
 73 74  1  0  0  0
 75 76  1  0  0  0
 76 77  1  0  0  0
 76 79  1  0  0  0
 77 78  2  0  0  0
 77 82  1  0  0  0
 79 80  1  0  0  0
 79 81  1  0  0  0
  1 83  1  0  0  0
  1 84  1  0  0  0
  1 85  1  0  0  0
  2 86  1  0  0  0
  5 87  1  0  0  0
  5 88  1  0  0  0
  8 89  1  0  0  0
  8 90  1  0  0  0
  9 91  1  0  0  0
 10 92  1  0  0  0
 13 93  1  0  0  0
 14 94  1  0  0  0
 14 95  1  0  0  0
 15 96  1  0  0  0
 15 97  1  0  0  0
 15 98  1  0  0  0
 16 99  1  0  0  0
 16100  1  0  0  0
 16101  1  0  0  0
 17102  1  0  0  0
 18103  1  0  0  0
 19104  1  0  0  0
 20105  1  0  0  0
 20106  1  0  0  0
 20107  1  0  0  0
 23108  1  0  0  0
 24109  1  0  0  0
 28110  1  0  0  0
 29111  1  0  0  0
 32112  1  0  0  0
 32113  1  0  0  0
 33114  1  0  0  0
 33115  1  0  0  0
 36116  1  0  0  0
 36117  1  0  0  0
 38118  1  0  0  0
 41119  1  0  0  0
 41120  1  0  0  0
 42121  1  0  0  0
 42122  1  0  0  0
 43123  1  0  0  0
 43124  1  0  0  0
 44125  1  0  0  0
 45126  1  0  0  0
 48127  1  0  0  0
 49128  1  0  0  0
 50129  1  0  0  0
 50130  1  0  0  0
 50131  1  0  0  0
 51132  1  0  0  0
 52133  1  0  0  0
 55134  1  0  0  0
 55135  1  0  0  0
 56136  1  0  0  0
 56137  1  0  0  0
 59138  1  0  0  0
 59139  1  0  0  0
 60140  1  0  0  0
 61141  1  0  0  0
 64142  1  0  0  0
 64143  1  0  0  0
 65144  1  0  0  0
 65145  1  0  0  0
 68146  1  0  0  0
 68147  1  0  0  0
 69148  1  0  0  0
 70149  1  0  0  0
 73150  1  0  0  0
 73151  1  0  0  0
 74152  1  0  0  0
 75153  1  0  0  0
 76154  1  0  0  0
 79155  1  0  0  0
 80156  1  0  0  0
 81157  1  0  0  0
 81158  1  0  0  0
 81159  1  0  0  0
 82160  1  0  0  0
M  END
$$$$
