### 
### Created by X-TOOL on Mon Sep 10 21:12:59 2018
### 

@<TRIPOS>MOLECULE
2jqi_ligand
  157   157     1     0     0
SMALL
GAST_HUCK


@<TRIPOS>ATOM
      1 N         -13.8570  -27.5140    4.1750 N.4       1 ASN         0.2396
      2 CA        -13.7290  -28.4110    5.3540 C.3       1 ASN         0.0818
      3 C         -12.2980  -28.4270    5.8820 C.2       1 ASN         0.2291
      4 O         -11.4380  -29.1170    5.3380 O.2       1 ASN        -0.3905
      5 CB        -14.1580  -29.8210    4.9420 C.3       1 ASN         0.0972
      6 CG        -15.0160  -30.4960    5.9950 C.2       1 ASN         0.1813
      7 OD1       -14.6060  -31.4830    6.6050 O.2       1 ASN        -0.3969
      8 ND2       -16.2130  -29.9660    6.2110 N.am      1 ASN        -0.3006
      9 N         -12.0610  -27.6570    6.9440 N.am      1 ILE        -0.2606
     10 CA        -10.7410  -27.5620    7.5680 C.3       1 ILE         0.1336
     11 C          -9.6520  -27.2230    6.5470 C.2       1 ILE         0.2042
     12 O          -9.8400  -27.3840    5.3420 O.2       1 ILE        -0.3944
     13 CB        -10.3700  -28.8590    8.3290 C.3       1 ILE        -0.0037
     14 CG1        -9.1910  -28.6050    9.2710 C.3       1 ILE        -0.0491
     15 CG2       -10.0480  -29.9990    7.3690 C.3       1 ILE        -0.0582
     16 CD1        -9.2000  -29.4850   10.5000 C.3       1 ILE        -0.0648
     17 N          -8.5130  -26.7460    7.0400 N.am      1 TPO        -0.2611
     18 CA         -7.4000  -26.3820    6.1730 C.3       1 TPO         0.1612
     19 CB         -6.8130  -25.0080    6.5590 C.3       1 TPO         0.1262
     20 CG2        -5.6310  -24.6440    5.6700 C.3       1 TPO        -0.0298
     21 OG1        -7.8010  -24.0190    6.4490 O.3       1 TPO        -0.2685
     22 P          -8.3250  -23.3540    7.7590 P.3       1 TPO         0.2014
     23 O1P        -8.3730  -24.5070    8.7970 O.co2     1 TPO        -0.5537
     24 O2P        -7.2120  -22.3550    8.1650 O.co2     1 TPO        -0.5537
     25 O3P        -9.6580  -22.6890    7.5770 O.co2     1 TPO        -0.5537
     26 C          -6.2970  -27.4340    6.2290 C.2       1 TPO         0.2068
     27 O          -5.8500  -27.8220    7.3080 O.2       1 TPO        -0.3943
     28 N          -5.8620  -27.8900    5.0590 N.am      1 GLN        -0.2635
     29 CA         -4.8110  -28.8970    4.9750 C.3       1 GLN         0.1332
     30 C          -3.4570  -28.2460    4.6940 C.2       1 GLN         0.2065
     31 O          -3.3240  -27.4560    3.7600 O.2       1 GLN        -0.3942
     32 CB         -5.1370  -29.9120    3.8770 C.3       1 GLN         0.0045
     33 CG         -6.4960  -30.5730    4.0440 C.3       1 GLN         0.0412
     34 CD         -6.5200  -31.9970    3.5240 C.2       1 GLN         0.1737
     35 OE1        -7.3450  -32.3480    2.6800 O.2       1 GLN        -0.3973
     36 NE2        -5.6120  -32.8250    4.0280 N.am      1 GLN        -0.3009
     37 N          -2.4290  -28.5680    5.5020 N.am      1 PRO        -0.2498
     38 CA         -1.0870  -28.0040    5.3280 C.3       1 PRO         0.1338
     39 C          -0.3580  -28.5960    4.1260 C.2       1 PRO         0.2042
     40 O          -0.2230  -29.8140    4.0080 O.2       1 PRO        -0.3944
     41 CB         -0.3750  -28.3870    6.6260 C.3       1 PRO        -0.0104
     42 CG         -1.0560  -29.6330    7.0730 C.3       1 PRO        -0.0281
     43 CD         -2.4920  -29.5010    6.6440 C.3       1 PRO         0.0369
     44 N           0.1110  -27.7260    3.2370 N.am      1 THR        -0.2613
     45 CA          0.8270  -28.1640    2.0440 C.3       1 THR         0.1565
     46 C           2.2720  -28.5220    2.3800 C.2       1 THR         0.2065
     47 O           2.7180  -28.3420    3.5130 O.2       1 THR        -0.3943
     48 CB          0.7960  -27.0700    0.9750 C.3       1 THR         0.0924
     49 OG1        -0.3850  -26.2960    1.0850 O.3       1 THR        -0.3874
     50 CG2         0.8610  -27.6100   -0.4370 C.3       1 THR        -0.0346
     51 N           2.9970  -29.0290    1.3890 N.am      1 GLN        -0.2635
     52 CA          4.3910  -29.4130    1.5810 C.3       1 GLN         0.1330
     53 C           5.2600  -28.1870    1.8430 C.2       1 GLN         0.2040
     54 O           4.7930  -27.0520    1.7580 O.2       1 GLN        -0.3944
     55 CB          4.9090  -30.1660    0.3540 C.3       1 GLN         0.0045
     56 CG          3.9810  -31.2750   -0.1160 C.3       1 GLN         0.0412
     57 CD          4.5820  -32.1020   -1.2360 C.2       1 GLN         0.1737
     58 OE1         5.7070  -32.5900   -1.1270 O.2       1 GLN        -0.3973
     59 NE2         3.8340  -32.2630   -2.3210 N.am      1 GLN        -0.3009
     60 N           6.5290  -28.4250    2.1630 N.am      1 GLN        -0.2636
     61 CA          7.4630  -27.3410    2.4360 C.3       1 GLN         0.1330
     62 C           8.9060  -27.8270    2.3330 C.2       1 GLN         0.2041
     63 O           9.2690  -28.8530    2.9100 O.2       1 GLN        -0.3944
     64 CB          7.2090  -26.7570    3.8270 C.3       1 GLN         0.0045
     65 CG          7.7290  -25.3400    3.9970 C.3       1 GLN         0.0412
     66 CD          8.2100  -25.0600    5.4070 C.2       1 GLN         0.1737
     67 OE1         7.5120  -25.3430    6.3810 O.2       1 GLN        -0.3973
     68 NE2         9.4080  -24.5000    5.5240 N.am      1 GLN        -0.3009
     69 N           9.7230  -27.0860    1.5930 N.am      1 SER        -0.2616
     70 CA         11.1250  -27.4410    1.4140 C.3       1 SER         0.1539
     71 C          11.9920  -26.8130    2.5020 C.2       1 SER         0.2057
     72 O          12.1940  -25.5990    2.5240 O.2       1 SER        -0.3943
     73 CB         11.6140  -26.9940    0.0350 C.3       1 SER         0.0843
     74 OG         10.9760  -27.7300   -0.9940 O.3       1 SER        -0.3903
     75 N          12.4990  -27.6490    3.4020 N.am      1 THR        -0.2669
     76 CA         13.3420  -27.1760    4.4930 C.3       1 THR         0.1198
     77 C          14.7750  -26.9590    4.0190 C.2       1 THR         0.0626
     78 O          15.2480  -27.7570    3.1830 O.co2     1 THR        -0.5665
     79 CB         13.3220  -28.1750    5.6500 C.3       1 THR         0.0869
     80 OG1        11.9910  -28.4990    6.0100 O.3       1 THR        -0.3880
     81 CG2        14.0230  -27.6680    6.8930 C.3       1 THR        -0.0352
     82 OXT        15.4120  -25.9910    4.4850 O.co2     1 THR        -0.5665
     83 H1        -14.8104  -27.5229    3.8480 H         1 ASN         0.2017
     84 H2        -13.2467  -27.8358    3.4401 H         1 ASN         0.2017
     85 H3        -13.6007  -26.5752    4.4376 H         1 ASN         0.2017
     86 H4        -14.3942  -28.0499    6.1522 H         1 ASN         0.1125
     87 H5        -13.2571  -30.4302    4.7770 H         1 ASN         0.0585
     88 H6        -14.7331  -29.7560    4.0066 H         1 ASN         0.0585
     89 H7        -16.8224  -30.3690    6.8938 H         1 ASN         0.1814
     90 H8        -16.5058  -29.1636    5.6910 H         1 ASN         0.1814
     91 H9        -12.8143  -27.1238    7.3290 H         1 ILE         0.1885
     92 H10       -10.7811  -26.7425    8.3007 H         1 ILE         0.0803
     93 H11       -11.2376  -29.1588    8.9351 H         1 ILE         0.0345
     94 H12        -9.2244  -27.5543    9.5950 H         1 ILE         0.0267
     95 H13        -8.2579  -28.7888    8.7182 H         1 ILE         0.0267
     96 H14       -10.9047  -30.1681    6.7001 H         1 ILE         0.0235
     97 H15        -9.8445  -30.9151    7.9428 H         1 ILE         0.0235
     98 H16        -9.1626  -29.7362    6.7715 H         1 ILE         0.0235
     99 H17        -8.3280  -29.2478   11.1272 H         1 ILE         0.0230
    100 H18        -9.1560  -30.5410   10.1952 H         1 ILE         0.0230
    101 H19       -10.1225  -29.3066   11.0720 H         1 ILE         0.0230
    102 H20        -8.4180  -26.6344    8.0292 H         1 TPO         0.1884
    103 H21        -7.7752  -26.3232    5.1407 H         1 TPO         0.0830
    104 H22        -6.4683  -25.0543    7.6026 H         1 TPO         0.0695
    105 H23        -5.2358  -23.6621    5.9693 H         1 TPO         0.0260
    106 H24        -5.9601  -24.6026    4.6212 H         1 TPO         0.0260
    107 H25        -4.8435  -25.4044    5.7775 H         1 TPO         0.0260
    108 H26        -6.2652  -27.5339    4.2160 H         1 GLN         0.1883
    109 H27        -4.7541  -29.4247    5.9385 H         1 GLN         0.0801
    110 H28        -4.3653  -30.6958    3.8876 H         1 GLN         0.0337
    111 H29        -5.1194  -29.3931    2.9072 H         1 GLN         0.0337
    112 H30        -7.2442  -29.9842    3.4930 H         1 GLN         0.0504
    113 H31        -6.7532  -30.5842    5.1134 H         1 GLN         0.0504
    114 H32        -5.5793  -33.7768    3.7231 H         1 GLN         0.1814
    115 H33        -4.9610  -32.4966    4.7124 H         1 GLN         0.1814
    116 H34        -1.1392  -26.9110    5.2156 H         1 PRO         0.0802
    117 H35        -0.4854  -27.5925    7.3787 H         1 PRO         0.0313
    118 H36         0.6936  -28.5727    6.4428 H         1 PRO         0.0313
    119 H37        -0.9920  -29.7317    8.1667 H         1 PRO         0.0287
    120 H38        -0.5950  -30.5115    6.5979 H         1 PRO         0.0287
    121 H39        -2.9002  -30.4742    6.3339 H         1 PRO         0.0524
    122 H40        -3.1079  -29.0869    7.4559 H         1 PRO         0.0524
    123 H41        -0.0304  -26.7479    3.3898 H         1 THR         0.1884
    124 H42         0.3275  -29.0596    1.6461 H         1 THR         0.0826
    125 H43         1.6664  -26.4172    1.1369 H         1 THR         0.0639
    126 H44        -0.3853  -25.6236    0.4139 H         1 THR         0.2101
    127 H45         0.8347  -26.7736   -1.1510 H         1 THR         0.0257
    128 H46         0.0012  -28.2723   -0.6163 H         1 THR         0.0257
    129 H47         1.7944  -28.1766   -0.5703 H         1 THR         0.0257
    130 H48         2.5769  -29.1503    0.4897 H         1 GLN         0.1883
    131 H49         4.4522  -30.0789    2.4544 H         1 GLN         0.0801
    132 H50         5.8834  -30.6108    0.6046 H         1 GLN         0.0337
    133 H51         5.0350  -29.4462   -0.4682 H         1 GLN         0.0337
    134 H52         3.0449  -30.8226   -0.4753 H         1 GLN         0.0504
    135 H53         3.7650  -31.9380    0.7347 H         1 GLN         0.0504
    136 H54         4.1793  -32.7991   -3.0913 H         1 GLN         0.1814
    137 H55         2.9253  -31.8482   -2.3679 H         1 GLN         0.1814
    138 H56         6.8495  -29.3707    2.2175 H         1 GLN         0.1883
    139 H57         7.3061  -26.5497    1.6883 H         1 GLN         0.0801
    140 H58         7.7038  -27.4002    4.5696 H         1 GLN         0.0337
    141 H59         6.1243  -26.7534    4.0097 H         1 GLN         0.0337
    142 H60         6.9190  -24.6362    3.7550 H         1 GLN         0.0504
    143 H61         8.5677  -25.1869    3.3019 H         1 GLN         0.0504
    144 H62         9.7766  -24.2925    6.4301 H         1 GLN         0.1814
    145 H63         9.9418  -24.2857    4.7060 H         1 GLN         0.1814
    146 H64         9.3673  -26.2643    1.1477 H         1 SER         0.1884
    147 H65        11.2178  -28.5349    1.4821 H         1 SER         0.0823
    148 H66        12.7005  -27.1527   -0.0301 H         1 SER         0.0606
    149 H67        11.3911  -25.9249   -0.0964 H         1 SER         0.0606
    150 H68        11.2959  -27.4344   -1.8383 H         1 SER         0.2097
    151 H69        12.2974  -28.6258    3.3290 H         1 THR         0.1876
    152 H70        12.9427  -26.2154    4.8505 H         1 THR         0.0752
    153 H71        13.8324  -29.0892    5.3129 H         1 THR         0.0632
    154 H72        12.0008  -29.1197    6.7291 H         1 THR         0.2100
    155 H73        13.9707  -28.4333    7.6814 H         1 THR         0.0256
    156 H74        13.5312  -26.7480    7.2419 H         1 THR         0.0256
    157 H75        15.0763  -27.4545    6.6587 H         1 THR         0.0256
@<TRIPOS>BOND
     1    1    2 1  
     2    2    3 1  
     3    2    5 1  
     4    3    4 2  
     5    3    9 am 
     6    5    6 1  
     7    6    7 2  
     8    6    8 am 
     9    9   10 1  
    10   10   11 1  
    11   10   13 1  
    12   11   12 2  
    13   11   17 am 
    14   13   14 1  
    15   13   15 1  
    16   14   16 1  
    17   17   18 1  
    18   18   19 1  
    19   18   26 1  
    20   19   20 1  
    21   19   21 1  
    22   21   22 1  
    23   22   23 ar 
    24   22   24 ar 
    25   22   25 ar 
    26   26   27 2  
    27   26   28 am 
    28   28   29 1  
    29   29   30 1  
    30   29   32 1  
    31   30   31 2  
    32   30   37 am 
    33   32   33 1  
    34   33   34 1  
    35   34   35 2  
    36   34   36 am 
    37   37   38 1  
    38   37   43 1  
    39   38   39 1  
    40   38   41 1  
    41   39   40 2  
    42   39   44 am 
    43   41   42 1  
    44   42   43 1  
    45   44   45 1  
    46   45   46 1  
    47   45   48 1  
    48   46   47 2  
    49   46   51 am 
    50   48   49 1  
    51   48   50 1  
    52   51   52 1  
    53   52   53 1  
    54   52   55 1  
    55   53   54 2  
    56   53   60 am 
    57   55   56 1  
    58   56   57 1  
    59   57   58 2  
    60   57   59 am 
    61   60   61 1  
    62   61   62 1  
    63   61   64 1  
    64   62   63 2  
    65   62   69 am 
    66   64   65 1  
    67   65   66 1  
    68   66   67 2  
    69   66   68 am 
    70   69   70 1  
    71   70   71 1  
    72   70   73 1  
    73   71   72 2  
    74   71   75 am 
    75   73   74 1  
    76   75   76 1  
    77   76   77 1  
    78   76   79 1  
    79   77   78 ar 
    80   77   82 ar 
    81   79   80 1  
    82   79   81 1  
    83    1   83 1  
    84    1   84 1  
    85    1   85 1  
    86    2   86 1  
    87    5   87 1  
    88    5   88 1  
    89    8   89 1  
    90    8   90 1  
    91    9   91 1  
    92   10   92 1  
    93   13   93 1  
    94   14   94 1  
    95   14   95 1  
    96   15   96 1  
    97   15   97 1  
    98   15   98 1  
    99   16   99 1  
   100   16  100 1  
   101   16  101 1  
   102   17  102 1  
   103   18  103 1  
   104   19  104 1  
   105   20  105 1  
   106   20  106 1  
   107   20  107 1  
   108   28  108 1  
   109   29  109 1  
   110   32  110 1  
   111   32  111 1  
   112   33  112 1  
   113   33  113 1  
   114   36  114 1  
   115   36  115 1  
   116   38  116 1  
   117   41  117 1  
   118   41  118 1  
   119   42  119 1  
   120   42  120 1  
   121   43  121 1  
   122   43  122 1  
   123   44  123 1  
   124   45  124 1  
   125   48  125 1  
   126   49  126 1  
   127   50  127 1  
   128   50  128 1  
   129   50  129 1  
   130   51  130 1  
   131   52  131 1  
   132   55  132 1  
   133   55  133 1  
   134   56  134 1  
   135   56  135 1  
   136   59  136 1  
   137   59  137 1  
   138   60  138 1  
   139   61  139 1  
   140   64  140 1  
   141   64  141 1  
   142   65  142 1  
   143   65  143 1  
   144   68  144 1  
   145   68  145 1  
   146   69  146 1  
   147   70  147 1  
   148   73  148 1  
   149   73  149 1  
   150   74  150 1  
   151   75  151 1  
   152   76  152 1  
   153   79  153 1  
   154   80  154 1  
   155   81  155 1  
   156   81  156 1  
   157   81  157 1  
@<TRIPOS>SUBSTRUCTURE
     1 ASN         1

