5dnu_ligand
  -I-interpret- 

 19 20  0  0  0  0  0  0  0  0999 V2000
   16.2080  -14.2280    1.9920 O   0  0  0  0  0
   15.8260  -15.5860    2.1180 C   0  0  0  0  0
   15.4860  -16.0340    3.3770 C   0  0  0  0  0
   15.4200  -15.2590    4.4730 C   0  0  0  0  0
   15.7800  -13.9570    4.3540 C   0  0  0  0  0
   16.1540  -13.4500    3.1030 C   0  0  0  0  0
   15.0520  -16.0800    5.4920 C   0  0  0  0  0
   14.8710  -17.2970    4.9540 C   0  0  0  0  0
   14.5260  -18.3370    5.5190 O   0  0  0  0  0
   15.1260  -17.2540    3.6330 O   0  0  0  0  0
   14.8200  -15.7570    6.9730 C   0  0  0  0  0
   15.8017  -16.2504    1.2543 H   0  0  0  0  0
   15.7783  -13.3071    5.2291 H   0  0  0  0  0
   15.3652  -12.7337    2.8732 H   0  0  0  0  0
   17.1905  -13.1470    3.2514 H   0  0  0  0  0
   15.1330  -15.5963    6.4654 H   0  0  0  0  0
   13.7814  -15.9646    7.2305 H   0  0  0  0  0
   15.4777  -16.3738    7.5854 H   0  0  0  0  0
   15.0366  -14.7039    7.1521 H   0  0  0  0  0
  1  2  1  0  0  0
  1  6  1  0  0  0
  2  3  2  0  0  0
  3  4  1  0  0  0
  3 10  1  0  0  0
  4  5  2  0  0  0
  4  7  1  0  0  0
  5  6  1  0  0  0
  7  8  1  0  0  0
  7 11  1  0  0  0
  8  9  2  0  0  0
  8 10  1  0  0  0
  2 12  1  0  0  0
  5 13  1  0  0  0
  6 14  1  0  0  0
  6 15  1  0  0  0
  7 16  1  0  0  0
 11 17  1  0  0  0
 11 18  1  0  0  0
 11 19  1  0  0  0
M  END
$$$$
