4e1z_ligand
  -I-interpret- 

 50 54  0  0  0  0  0  0  0  0999 V2000
   31.9500  -13.6710   27.3340 C   0  0  0  0  0
   30.4020  -17.4520   28.0310 N   0  0  0  0  0
   35.4980   -7.9940   27.8920 O   0  0  0  0  0
   34.8510   -7.5930   26.6580 S   0  0  0  0  0
   30.5300   -7.2960   29.4990 Cl  0  0  0  0  0
   30.5800  -13.8630   27.0530 C   0  0  0  0  0
   31.5440  -18.1480   28.4480 N   0  0  0  0  0
   35.6770   -6.6130   26.0050 O   0  0  0  0  0
   29.9650  -15.1050   27.2710 C   0  0  0  0  0
   33.8030  -17.7590   28.8160 N   0  0  0  0  0
   35.1350  -15.9610   28.6480 O   0  0  0  0  0
   32.7150  -14.7810   27.7460 C   0  0  0  0  0
   34.6140   -8.8960   25.7370 N   0  0  0  0  0
   36.3200  -19.0940   29.1090 O   0  0  0  0  0
   32.1130  -16.0300   27.9680 C   0  0  0  0  0
   30.7370  -16.1840   27.7360 C   0  0  0  0  0
   32.5670  -17.2900   28.4030 C   0  0  0  0  0
   32.6670  -12.3910   27.0070 C   0  0  0  0  0
   32.1520  -11.5850   25.9740 C   0  0  0  0  0
   32.7900  -10.4140   25.5600 C   0  0  0  0  0
   33.9940  -10.0370   26.1590 C   0  0  0  0  0
   34.5360  -10.8550   27.1760 C   0  0  0  0  0
   33.8920  -12.0250   27.5920 C   0  0  0  0  0
   33.3810   -6.9770   26.9380 C   0  0  0  0  0
   32.8110   -6.0730   26.0300 C   0  0  0  0  0
   31.5210   -5.5730   26.2460 C   0  0  0  0  0
   30.7930   -5.9640   27.3660 C   0  0  0  0  0
   31.3470   -6.8490   28.2950 C   0  0  0  0  0
   32.6260   -7.3780   28.0580 C   0  0  0  0  0
   34.9980  -17.1330   28.9060 C   0  0  0  0  0
   36.3030  -17.8280   29.1900 C   0  0  0  0  0
   37.7150  -19.5290   29.3340 C   0  0  0  0  0
   38.4440  -18.3630   29.4770 C   0  0  0  0  0
   37.5790  -17.2970   29.3580 C   0  0  0  0  0
   29.9911  -13.0339   26.6608 H   0  0  0  0  0
   28.8991  -15.2321   27.0817 H   0  0  0  0  0
   33.8135  -18.7389   29.0991 H   0  0  0  0  0
   33.7889  -14.6682   27.8943 H   0  0  0  0  0
   34.9500   -8.8655   24.7744 H   0  0  0  0  0
   31.2265  -11.8844   25.4821 H   0  0  0  0  0
   32.3514   -9.7983   24.7747 H   0  0  0  0  0
   35.4764  -10.5680   27.6465 H   0  0  0  0  0
   34.3377  -12.6499   28.3659 H   0  0  0  0  0
   33.3748   -5.7581   25.1519 H   0  0  0  0  0
   31.0845   -4.8736   25.5330 H   0  0  0  0  0
   29.7853   -5.5779   27.5194 H   0  0  0  0  0
   33.0410   -8.1099   28.7510 H   0  0  0  0  0
   38.0893  -20.5518   29.3778 H   0  0  0  0  0
   39.5177  -18.2982   29.6534 H   0  0  0  0  0
   37.8433  -16.2400   29.3894 H   0  0  0  0  0
  1  6  4  0  0  0
 12  1  4  0  0  0
  1 18  1  0  0  0
  7  2  4  0  0  0
 16  2  4  0  0  0
  4  3  2  0  0  0
  4  8  2  0  0  0
 13  4  1  0  0  0
  4 24  1  0  0  0
 28  5  1  0  0  0
  9  6  4  0  0  0
 17  7  4  0  0  0
 16  9  4  0  0  0
 10 17  1  0  0  0
 30 10  1  0  0  0
 30 11  2  0  0  0
 15 12  4  0  0  0
 21 13  1  0  0  0
 31 14  4  0  0  0
 14 32  4  0  0  0
 15 16  4  0  0  0
 17 15  4  0  0  0
 18 19  4  0  0  0
 18 23  4  0  0  0
 19 20  4  0  0  0
 20 21  4  0  0  0
 22 21  4  0  0  0
 23 22  4  0  0  0
 24 25  4  0  0  0
 24 29  4  0  0  0
 25 26  4  0  0  0
 26 27  4  0  0  0
 28 27  4  0  0  0
 29 28  4  0  0  0
 30 31  1  0  0  0
 31 34  4  0  0  0
 32 33  4  0  0  0
 33 34  4  0  0  0
  6 35  1  0  0  0
  9 36  1  0  0  0
 10 37  1  0  0  0
 12 38  1  0  0  0
 13 39  1  0  0  0
 19 40  1  0  0  0
 20 41  1  0  0  0
 22 42  1  0  0  0
 23 43  1  0  0  0
 25 44  1  0  0  0
 26 45  1  0  0  0
 27 46  1  0  0  0
 29 47  1  0  0  0
 32 48  1  0  0  0
 33 49  1  0  0  0
 34 50  1  0  0  0
M  END
$$$$
