5akg_ligand
  -I-interpret- 

 16 17  0  0  0  0  0  0  0  0999 V2000
   12.6300   12.8390   26.9810 C   0  0  0  0  0
   13.6130   11.9680   26.5410 C   0  0  0  0  0
   13.2300   11.0520   25.6130 C   0  0  0  0  0
   11.5870   11.3320   25.2960 S   0  0  0  0  0
   11.4770   12.6030   26.3770 C   0  0  0  0  0
   13.9880   10.0200   24.9380 C   0  0  0  0  0
   13.6300    9.3840   23.8560 N   0  0  0  0  0
   14.5400    8.5110   23.4650 N   0  0  0  0  0
   15.5910    8.4530   24.2050 C   0  0  0  0  0
   15.5270    9.5380   25.5200 S   0  0  0  0  0
   16.6270    7.6380   23.9780 N   0  0  0  0  0
   12.7862   13.6175   27.7277 H   0  0  0  0  0
   14.6349   12.0146   26.9174 H   0  0  0  0  0
   10.5643   13.1694   26.5619 H   0  0  0  0  0
   16.6148    7.0092   23.1750 H   0  0  0  0  0
   17.4292    7.6453   24.6079 H   0  0  0  0  0
  1  2  4  0  0  0
  1  5  4  0  0  0
  2  3  4  0  0  0
  3  4  4  0  0  0
  3  6  1  0  0  0
  4  5  4  0  0  0
  6  7  4  0  0  0
  6 10  4  0  0  0
  7  8  4  0  0  0
  8  9  4  0  0  0
  9 10  4  0  0  0
  9 11  1  0  0  0
  1 12  1  0  0  0
  2 13  1  0  0  0
  5 14  1  0  0  0
 11 15  1  0  0  0
 11 16  1  0  0  0
M  END
$$$$
