6g9k_ligand
  -I-interpret- 

 65 69  0  0  0  0  0  0  0  0999 V2000
   -0.4890    7.0710   48.2010 C   0  0  0  0  0
    0.3710    8.2810   48.5730 C   0  0  0  0  0
    1.0620    8.7520   47.3790 N   0  0  0  0  0
    2.3340    8.4610   47.1050 C   0  0  0  0  0
    2.7690    8.7420   45.6800 C   0  0  0  0  0
    6.3680    9.5360   45.2760 C   0  0  0  0  0
    7.5570   10.2370   45.1780 C   0  0  0  0  0
    8.7240    9.5780   44.8380 C   0  0  0  0  0
    8.7330    8.2060   44.5740 C   0  0  0  0  0
    7.5270    7.4980   44.6820 C   0  0  0  0  0
    6.3480    8.1740   45.0180 C   0  0  0  0  0
    4.9620    7.6760   45.2010 C   0  0  0  0  0
    4.5400    6.5270   45.1240 O   0  0  0  0  0
   12.6530    9.6830   41.7890 C   0  0  0  0  0
   13.9490   10.3880   41.4590 C   0  0  0  0  0
   13.5810   11.6840   40.7920 C   0  0  0  0  0
   11.6210   10.8030   39.8390 C   0  0  0  0  0
   11.8370    9.4750   40.5260 C   0  0  0  0  0
   -2.1240   11.2900   50.3850 C   0  0  0  0  0
   -1.6700   10.2190   51.1280 C   0  0  0  0  0
   -0.8660    9.2530   50.5410 C   0  0  0  0  0
   -1.3710    7.3710   47.1300 O   0  0  0  0  0
    3.1140    7.9960   47.9310 O   0  0  0  0  0
    4.2070    8.7690   45.4940 N   0  0  0  0  0
    4.9840   10.0060   45.5980 C   0  0  0  0  0
   10.0240    7.5440   44.2430 C   0  0  0  0  0
   10.8620    8.2700   43.4850 N   0  0  0  0  0
   12.0540    7.7070   43.2060 C   0  0  0  0  0
   12.9170    8.4070   42.4450 N   0  0  0  0  0
   12.8620   11.4590   39.5720 O   0  0  0  0  0
   12.4820    6.4960   43.5950 N   0  0  0  0  0
   11.6350    5.8090   44.3590 C   0  0  0  0  0
   10.3830    6.2880   44.7030 C   0  0  0  0  0
    9.3560    5.3130   45.6900 Cl  0  0  0  0  0
   -0.5010    9.3530   49.2060 C   0  0  0  0  0
   -0.9690   10.4380   48.4690 C   0  0  0  0  0
   -1.7750   11.3980   49.0560 C   0  0  0  0  0
   -1.0835    6.7890   49.0700 H   0  0  0  0  0
    0.1703    6.2608   47.8895 H   0  0  0  0  0
    1.1265    8.0095   49.3103 H   0  0  0  0  0
    0.5459    9.3341   46.7193 H   0  0  0  0  0
    2.3912    9.7299   45.4165 H   0  0  0  0  0
    2.3787    7.9358   45.0589 H   0  0  0  0  0
    7.5736   11.3100   45.3691 H   0  0  0  0  0
    9.6557   10.1401   44.7746 H   0  0  0  0  0
    7.5078    6.4227   44.5045 H   0  0  0  0  0
   12.0806   10.3065   42.4757 H   0  0  0  0  0
   14.5667    9.7758   40.8020 H   0  0  0  0  0
   14.5325   10.5688   42.3617 H   0  0  0  0  0
   14.4977   12.2256   40.5586 H   0  0  0  0  0
   12.9441   12.2531   41.4692 H   0  0  0  0  0
   11.0267   11.4395   40.4945 H   0  0  0  0  0
   11.1128   10.6242   38.8915 H   0  0  0  0  0
   10.8719    9.0398   40.7855 H   0  0  0  0  0
   12.3720    8.8026   39.8553 H   0  0  0  0  0
   -2.7563   12.0477   50.8477 H   0  0  0  0  0
   -1.9441   10.1320   52.1794 H   0  0  0  0  0
   -0.5176    8.4074   51.1340 H   0  0  0  0  0
   -1.8949    6.5941   46.9212 H   0  0  0  0  0
    4.6309   10.7934   44.9321 H   0  0  0  0  0
    4.9074   10.4816   46.5758 H   0  0  0  0  0
   13.8457    8.0059   42.3146 H   0  0  0  0  0
   11.9400    4.8299   44.7283 H   0  0  0  0  0
   -0.6974   10.5323   47.4176 H   0  0  0  0  0
   -2.1345   12.2411   48.4661 H   0  0  0  0  0
  2  1  1  0  0  0
  1 22  1  0  0  0
  3  2  1  0  0  0
  2 35  1  0  0  0
  4  3  1  0  0  0
  5  4  1  0  0  0
  4 23  2  0  0  0
 24  5  1  0  0  0
  7  6  4  0  0  0
 11  6  4  0  0  0
  6 25  1  0  0  0
  8  7  4  0  0  0
  9  8  4  0  0  0
  9 10  4  0  0  0
 26  9  1  0  0  0
 10 11  4  0  0  0
 11 12  1  0  0  0
 12 13  2  0  0  0
 12 24  1  0  0  0
 14 15  1  0  0  0
 14 18  1  0  0  0
 29 14  1  0  0  0
 15 16  1  0  0  0
 16 30  1  0  0  0
 18 17  1  0  0  0
 17 30  1  0  0  0
 20 19  4  0  0  0
 19 37  4  0  0  0
 21 20  4  0  0  0
 35 21  4  0  0  0
 24 25  1  0  0  0
 27 26  4  0  0  0
 26 33  4  0  0  0
 28 27  4  0  0  0
 28 29  1  0  0  0
 28 31  4  0  0  0
 31 32  4  0  0  0
 32 33  4  0  0  0
 33 34  1  0  0  0
 35 36  4  0  0  0
 36 37  4  0  0  0
  1 38  1  0  0  0
  1 39  1  0  0  0
  2 40  1  0  0  0
  3 41  1  0  0  0
  5 42  1  0  0  0
  5 43  1  0  0  0
  7 44  1  0  0  0
  8 45  1  0  0  0
 10 46  1  0  0  0
 14 47  1  0  0  0
 15 48  1  0  0  0
 15 49  1  0  0  0
 16 50  1  0  0  0
 16 51  1  0  0  0
 17 52  1  0  0  0
 17 53  1  0  0  0
 18 54  1  0  0  0
 18 55  1  0  0  0
 19 56  1  0  0  0
 20 57  1  0  0  0
 21 58  1  0  0  0
 22 59  1  0  0  0
 25 60  1  0  0  0
 25 61  1  0  0  0
 29 62  1  0  0  0
 32 63  1  0  0  0
 36 64  1  0  0  0
 37 65  1  0  0  0
M  END
$$$$
