4b2i_ligand
  -I-interpret- 

 14 15  0  0  0  0  0  0  0  0999 V2000
   19.1670    7.7250   -2.1120 C   0  0  0  0  0
   20.2260    7.0810   -2.7330 C   0  0  0  0  0
   20.3400    5.6980   -2.6950 C   0  0  0  0  0
   19.3700    4.9630   -2.0190 C   0  0  0  0  0
   18.3080    5.6070   -1.4090 C   0  0  0  0  0
   18.1940    6.9870   -1.4490 C   0  0  0  0  0
   19.3330    9.0270   -2.3290 N   0  0  0  0  0
   20.9670    8.0410   -3.2710 C   0  0  0  0  0
   20.3640    9.1980   -2.9960 N   0  0  0  0  0
   21.1741    5.1965   -3.1857 H   0  0  0  0  0
   19.4473    3.8768   -1.9701 H   0  0  0  0  0
   17.5504    5.0201   -0.8897 H   0  0  0  0  0
   17.3534    7.4866   -0.9675 H   0  0  0  0  0
   21.8926    7.9090   -3.8312 H   0  0  0  0  0
  1  2  4  0  0  0
  1  6  4  0  0  0
  1  7  4  0  0  0
  2  3  4  0  0  0
  2  8  4  0  0  0
  3  4  4  0  0  0
  4  5  4  0  0  0
  5  6  4  0  0  0
  7  9  4  0  0  0
  8  9  4  0  0  0
  3 10  1  0  0  0
  4 11  1  0  0  0
  5 12  1  0  0  0
  6 13  1  0  0  0
  8 14  1  0  0  0
M  END
$$$$
