3f33_ligand
  -I-interpret- 

 31 31  0  0  0  0  0  0  0  0999 V2000
   33.5450    0.2120   33.8030 O   0  0  0  0  0
   33.8650    0.0430   35.0750 C   0  0  0  0  0
   32.8920   -0.0840   36.0670 C   0  0  0  0  0
   35.2210    0.0040   35.3720 C   0  0  0  0  0
   33.3130   -0.2580   37.3760 C   0  0  0  0  0
   31.3690   -0.0410   35.8070 C   0  0  0  0  0
   34.6680   -0.3090   37.6830 C   0  0  0  0  0
   35.6250   -0.1810   36.6810 C   0  0  0  0  0
   36.2680    0.1270   34.2530 C   0  0  0  0  0
   30.8180   -1.4590   35.6570 C   0  0  0  0  0
   31.0190    0.8010   34.5870 C   0  0  0  0  0
   36.9660   -1.2240   34.0840 C   0  0  0  0  0
   37.2920    1.2120   34.6000 C   0  0  0  0  0
   34.3464    0.2780   33.2786 H   0  0  0  0  0
   32.5749   -0.3558   38.1721 H   0  0  0  0  0
   30.9025    0.4343   36.6699 H   0  0  0  0  0
   34.9832   -0.4504   38.7168 H   0  0  0  0  0
   36.6860   -0.2263   36.9266 H   0  0  0  0  0
   35.7780    0.4083   33.3209 H   0  0  0  0  0
   29.7336   -1.4171   35.5550 H   0  0  0  0  0
   31.2500   -1.9234   34.7705 H   0  0  0  0  0
   31.0789   -2.0440   36.5389 H   0  0  0  0  0
   31.4518    0.3454   33.6964 H   0  0  0  0  0
   29.9354    0.8516   34.4808 H   0  0  0  0  0
   31.4203    1.8065   34.7138 H   0  0  0  0  0
   37.6993   -1.1547   33.2805 H   0  0  0  0  0
   37.4682   -1.4909   35.0139 H   0  0  0  0  0
   36.2261   -1.9855   33.8376 H   0  0  0  0  0
   37.7949    0.9507   35.5311 H   0  0  0  0  0
   38.0260    1.2869   33.7977 H   0  0  0  0  0
   36.7812    2.1677   34.7173 H   0  0  0  0  0
  1  2  1  0  0  0
  2  3  4  0  0  0
  2  4  4  0  0  0
  3  5  4  0  0  0
  3  6  1  0  0  0
  4  8  4  0  0  0
  4  9  1  0  0  0
  5  7  4  0  0  0
  6 10  1  0  0  0
  6 11  1  0  0  0
  7  8  4  0  0  0
  9 12  1  0  0  0
  9 13  1  0  0  0
  1 14  1  0  0  0
  5 15  1  0  0  0
  6 16  1  0  0  0
  7 17  1  0  0  0
  8 18  1  0  0  0
  9 19  1  0  0  0
 10 20  1  0  0  0
 10 21  1  0  0  0
 10 22  1  0  0  0
 11 23  1  0  0  0
 11 24  1  0  0  0
 11 25  1  0  0  0
 12 26  1  0  0  0
 12 27  1  0  0  0
 12 28  1  0  0  0
 13 29  1  0  0  0
 13 30  1  0  0  0
 13 31  1  0  0  0
M  END
$$$$
