1b3h_ligand
  -I-interpret- 

 74 74  0  0  0  0  0  0  0  0999 V2000
    6.9910   16.6240   15.2240 N   0  3  0  0  0
    6.6310   17.9840   14.6770 C   0  0  0  0  0
    5.3960   18.5290   15.3820 C   0  0  0  0  0
    4.6070   17.7360   15.8990 O   0  0  0  0  0
    6.4400   17.9170   13.1440 C   0  0  0  0  0
    5.3720   16.9100   12.6970 C   0  0  0  0  0
    5.3310   16.7550   11.1780 C   0  0  0  0  0
    6.6420   16.2530   10.5790 C   0  0  0  0  0
    6.7580   14.7730   10.8530 N   0  3  0  0  0
    5.2020   19.8410   15.4620 N   0  0  0  0  0
    4.0680   20.4700   16.0990 C   0  0  0  0  0
    2.7730   20.4260   15.2790 C   0  0  0  0  0
    2.6950   20.7490   14.0800 O   0  0  0  0  0
    4.3500   21.9470   16.4480 C   0  0  0  0  0
    5.1730   22.0820   17.7930 C   0  0  0  0  0
    4.9840   23.5300   18.3200 C   0  0  0  0  0
    5.8770   23.8190   19.5390 C   0  0  0  0  0
    7.3610   23.5330   19.2530 C   0  0  0  0  0
    7.5790   22.1440   18.6200 C   0  0  0  0  0
    6.6740   21.9280   17.4160 C   0  0  0  0  0
    1.6840   20.0100   15.9440 N   0  0  0  0  0
    0.3890   19.9600   15.3340 C   0  0  0  0  0
   -0.5990   20.8560   16.1180 C   0  0  0  0  0
   -1.6080   21.2620   15.5260 O   0  0  0  0  0
   -0.2140   18.5380   15.2960 C   0  0  0  0  0
   -1.2060   18.5350   14.1010 C   0  0  0  0  0
   -2.1920   17.4180   14.3230 C   0  0  0  0  0
   -2.8130   16.8010   13.0950 C   0  0  0  0  0
   -3.1180   17.6700   11.9600 N   0  3  0  0  0
   -0.3650   21.2090   17.2690 O   0  0  0  0  0
    7.1130   16.6868   16.2347 H   0  0  0  0  0
    6.2428   15.9642   15.0110 H   0  0  0  0  0
    7.8596   16.3052   14.7946 H   0  0  0  0  0
    7.4510   18.6750   14.8727 H   0  0  0  0  0
    7.3886   17.5985   12.7117 H   0  0  0  0  0
    6.1155   18.9036   12.8132 H   0  0  0  0  0
    4.3998   17.2748   13.0285 H   0  0  0  0  0
    5.6147   15.9404   13.1319 H   0  0  0  0  0
    5.1342   17.7398   10.7543 H   0  0  0  0  0
    4.5623   16.0181   10.9455 H   0  0  0  0  0
    7.4828   16.7816   11.0281 H   0  0  0  0  0
    6.6537   16.4345    9.5043 H   0  0  0  0  0
    7.6307   14.4227   10.4579 H   0  0  0  0  0
    6.7512   14.6134   11.8604 H   0  0  0  0  0
    5.9702   14.2865   10.4251 H   0  0  0  0  0
    5.9056   20.4490   15.0428 H   0  0  0  0  0
    3.9199   19.8768   17.0014 H   0  0  0  0  0
    3.3960   22.4585   16.5756 H   0  0  0  0  0
    4.9363   22.3854   15.6404 H   0  0  0  0  0
    4.8554   21.3469   18.5325 H   0  0  0  0  0
    3.9438   23.6502   18.6226 H   0  0  0  0  0
    5.2588   24.2217   17.5237 H   0  0  0  0  0
    5.5577   23.1703   20.3547 H   0  0  0  0  0
    5.7773   24.8751   19.7896 H   0  0  0  0  0
    7.8990   23.5606   20.2006 H   0  0  0  0  0
    7.7205   24.2846   18.5502 H   0  0  0  0  0
    7.3453   21.3851   19.3667 H   0  0  0  0  0
    8.6151   22.0758   18.2883 H   0  0  0  0  0
    6.9184   22.6769   16.6627 H   0  0  0  0  0
    6.8332   20.9164   17.0426 H   0  0  0  0  0
    1.7819   19.7196   16.9169 H   0  0  0  0  0
    0.5297   20.3055   14.3098 H   0  0  0  0  0
   -1.6315   20.8877   14.6423 H   0  0  0  0  0
   -0.7174   18.2942   16.2316 H   0  0  0  0  0
    0.5602   17.7807   15.1723 H   0  0  0  0  0
   -0.6692   18.3850   13.1643 H   0  0  0  0  0
   -1.7255   19.4912   14.0384 H   0  0  0  0  0
   -3.0163   17.8555   14.8862 H   0  0  0  0  0
   -1.6323   16.6182   14.8080 H   0  0  0  0  0
   -3.7766   16.4134   13.4257 H   0  0  0  0  0
   -2.0708   16.0946   12.7232 H   0  0  0  0  0
   -3.5305   17.1154   11.2099 H   0  0  0  0  0
   -3.7770   18.3913   12.2530 H   0  0  0  0  0
   -2.2586   18.1076   11.6278 H   0  0  0  0  0
  3  2  1  0  0  0
  2  5  1  0  0  0
  2  1  1  0  0  0
  5  6  1  0  0  0
  6  7  1  0  0  0
  7  8  1  0  0  0
  8  9  1  0  0  0
  3  4  2  0  0  0
 11 10  1  0  0  0
 11 14  1  0  0  0
 12 11  1  0  0  0
 12 13  2  0  0  0
 14 15  1  0  0  0
 15 20  1  0  0  0
 15 16  1  0  0  0
 16 17  1  0  0  0
 17 18  1  0  0  0
 19 18  1  0  0  0
 20 19  1  0  0  0
 22 23  1  0  0  0
 22 25  1  0  0  0
 21 22  1  0  0  0
 25 26  1  0  0  0
 26 27  1  0  0  0
 27 28  1  0  0  0
 28 29  1  0  0  0
 23 30  2  0  0  0
 23 24  1  0  0  0
 10  3  1  0  0  0
 12 21  1  0  0  0
  1 31  1  0  0  0
  1 32  1  0  0  0
  1 33  1  0  0  0
  2 34  1  0  0  0
  5 35  1  0  0  0
  5 36  1  0  0  0
  6 37  1  0  0  0
  6 38  1  0  0  0
  7 39  1  0  0  0
  7 40  1  0  0  0
  8 41  1  0  0  0
  8 42  1  0  0  0
  9 43  1  0  0  0
  9 44  1  0  0  0
  9 45  1  0  0  0
 10 46  1  0  0  0
 11 47  1  0  0  0
 14 48  1  0  0  0
 14 49  1  0  0  0
 15 50  1  0  0  0
 16 51  1  0  0  0
 16 52  1  0  0  0
 17 53  1  0  0  0
 17 54  1  0  0  0
 18 55  1  0  0  0
 18 56  1  0  0  0
 19 57  1  0  0  0
 19 58  1  0  0  0
 20 59  1  0  0  0
 20 60  1  0  0  0
 21 61  1  0  0  0
 22 62  1  0  0  0
 24 63  1  0  0  0
 25 64  1  0  0  0
 25 65  1  0  0  0
 26 66  1  0  0  0
 26 67  1  0  0  0
 27 68  1  0  0  0
 27 69  1  0  0  0
 28 70  1  0  0  0
 28 71  1  0  0  0
 29 72  1  0  0  0
 29 73  1  0  0  0
 29 74  1  0  0  0
M  END
$$$$
