4nk9_ligand
  -I-interpret- 

 56 59  0  0  0  0  0  0  0  0999 V2000
   89.8260    1.8940   19.4540 C   0  0  0  0  0
   89.5550    1.7530   18.0520 O   0  0  0  0  0
   90.0300    2.7040   17.1660 C   0  0  0  0  0
   89.3170    2.8220   15.9480 C   0  0  0  0  0
   91.1940    3.4760   17.4120 C   0  0  0  0  0
   91.6050    4.3940   16.4320 C   0  0  0  0  0
   92.7300    5.1980   16.5620 O   0  0  0  0  0
   93.2440    5.5050   17.8640 C   0  0  0  0  0
   90.9050    4.5350   15.2260 C   0  0  0  0  0
   89.7530    3.7560   14.9900 C   0  0  0  0  0
   89.0400    3.8830   13.6600 C   0  0  0  0  0
   90.0440    3.4410   12.5420 C   0  0  0  0  0
   89.4080    2.7440   11.4090 C   0  0  0  0  0
   88.6580    3.2890   10.3490 C   0  0  0  0  0
   89.5020    1.4050   11.2670 N   0  0  0  0  0
   88.7830    1.1330   10.1580 N   0  0  0  0  0
   88.2770    2.2220    9.5720 C   0  0  0  0  0
   87.4720    2.2050    8.4340 N   0  0  0  0  0
   86.4700    3.0900    8.0410 C   0  0  0  0  0
   85.4660    2.7470    7.1330 C   0  0  0  0  0
   84.5260    3.7330    6.8490 C   0  0  0  0  0
   84.5310    4.9870    7.4180 N   0  0  0  0  0
   86.4910    4.3490    8.6470 N   0  0  0  0  0
   85.5160    5.2210    8.2960 C   0  0  0  0  0
   85.5380    6.4350    8.8830 N   0  0  0  0  0
   86.4790    6.8590    9.9200 C   0  0  0  0  0
   86.1600    6.3060   11.2630 C   0  0  0  0  0
   85.4680    5.2310   11.6620 C   0  0  0  0  0
   86.6450    6.9730   12.3600 O   0  0  0  0  0
   86.2140    6.2550   13.4960 N   0  0  0  0  0
   85.5290    5.2460   13.0590 C   0  0  0  0  0
   84.9090    4.2830   14.0240 C   0  0  0  0  0
   90.9039    1.8973   19.6159 H   0  0  0  0  0
   89.4006    2.8313   19.8125 H   0  0  0  0  0
   89.3786    1.0601   19.9949 H   0  0  0  0  0
   88.4437    2.1988   15.7556 H   0  0  0  0  0
   91.7557    3.3597   18.3388 H   0  0  0  0  0
   92.4795    6.0245   18.4418 H   0  0  0  0  0
   93.5195    4.5806   18.3717 H   0  0  0  0  0
   94.1225    6.1426   17.7653 H   0  0  0  0  0
   91.2495    5.2440   14.4732 H   0  0  0  0  0
   88.7178    4.9115   13.4974 H   0  0  0  0  0
   88.1503    3.2535   13.6433 H   0  0  0  0  0
   90.7489    2.7448   12.9963 H   0  0  0  0  0
   90.5079    4.3449   12.1472 H   0  0  0  0  0
   88.4273    4.3408   10.1799 H   0  0  0  0  0
   87.6417    1.4293    7.7938 H   0  0  0  0  0
   85.4211    1.7604    6.6717 H   0  0  0  0  0
   83.7383    3.4986    6.1330 H   0  0  0  0  0
   84.8405    7.1142    8.5786 H   0  0  0  0  0
   86.4262    7.9455    9.9894 H   0  0  0  0  0
   87.4667    6.4937    9.6387 H   0  0  0  0  0
   84.9638    4.4990   11.0311 H   0  0  0  0  0
   83.8271    4.2834   13.8912 H   0  0  0  0  0
   85.2988    3.2823   13.8377 H   0  0  0  0  0
   85.1514    4.5849   15.0429 H   0  0  0  0  0
  1  2  1  0  0  0
  2  3  1  0  0  0
  3  4  4  0  0  0
  3  5  4  0  0  0
  4 10  4  0  0  0
  5  6  4  0  0  0
  6  7  1  0  0  0
  6  9  4  0  0  0
  7  8  1  0  0  0
  9 10  4  0  0  0
 10 11  1  0  0  0
 11 12  1  0  0  0
 12 13  1  0  0  0
 13 14  4  0  0  0
 13 15  4  0  0  0
 14 17  4  0  0  0
 15 16  4  0  0  0
 16 17  4  0  0  0
 17 18  1  0  0  0
 18 19  1  0  0  0
 19 20  4  0  0  0
 19 23  4  0  0  0
 20 21  4  0  0  0
 21 22  4  0  0  0
 22 24  4  0  0  0
 23 24  4  0  0  0
 24 25  1  0  0  0
 25 26  1  0  0  0
 26 27  1  0  0  0
 27 28  4  0  0  0
 27 29  4  0  0  0
 28 31  4  0  0  0
 29 30  4  0  0  0
 30 31  4  0  0  0
 31 32  1  0  0  0
  1 33  1  0  0  0
  1 34  1  0  0  0
  1 35  1  0  0  0
  4 36  1  0  0  0
  5 37  1  0  0  0
  8 38  1  0  0  0
  8 39  1  0  0  0
  8 40  1  0  0  0
  9 41  1  0  0  0
 11 42  1  0  0  0
 11 43  1  0  0  0
 12 44  1  0  0  0
 12 45  1  0  0  0
 14 46  1  0  0  0
 18 47  1  0  0  0
 20 48  1  0  0  0
 21 49  1  0  0  0
 25 50  1  0  0  0
 26 51  1  0  0  0
 26 52  1  0  0  0
 28 53  1  0  0  0
 32 54  1  0  0  0
 32 55  1  0  0  0
 32 56  1  0  0  0
M  END
$$$$
