3msj_ligand
  -I-interpret- 

 27 28  0  0  0  0  0  0  0  0999 V2000
  -15.6340  -89.6560   14.0260 C   0  0  0  0  0
  -15.8830  -90.8130   14.7710 C   0  0  0  0  0
  -16.2310  -89.4610   12.7880 C   0  0  0  0  0
  -16.7300  -91.8010   14.2700 C   0  0  0  0  0
  -17.0620  -90.4490   12.3160 C   0  0  0  0  0
  -17.3080  -91.5930   13.0300 C   0  0  0  0  0
  -17.7180  -90.4790   11.1580 N   0  0  0  0  0
  -18.3760  -91.6460   11.1740 C   0  0  0  0  0
  -18.1390  -92.3430   12.3060 N   0  0  0  0  0
  -19.2000  -92.0490   10.1220 N   0  0  0  0  0
  -18.6910  -93.6610   12.6910 C   0  0  0  0  0
  -20.1930  -93.5820   12.9780 C   0  0  0  0  0
  -20.9330  -94.8750   12.6780 C   0  0  0  0  0
  -20.4630  -95.9300   13.4960 O   0  0  0  0  0
  -14.5810  -88.4500   14.6420 Cl  0  0  0  0  0
  -15.4136  -90.9429   15.7462 H   0  0  0  0  0
  -16.0471  -88.5554   12.2100 H   0  0  0  0  0
  -16.9307  -92.7095   14.8378 H   0  0  0  0  0
  -19.3166  -91.4477    9.3064 H   0  0  0  0  0
  -19.6856  -92.9448   10.1688 H   0  0  0  0  0
  -18.1847  -93.9948   13.5968 H   0  0  0  0  0
  -18.5346  -94.3542   11.8645 H   0  0  0  0  0
  -20.6104  -92.8074   12.3346 H   0  0  0  0  0
  -20.3141  -93.3729   14.0409 H   0  0  0  0  0
  -20.7646  -95.1402   11.6343 H   0  0  0  0  0
  -21.9942  -94.7247   12.8766 H   0  0  0  0  0
  -20.9449  -96.7338   13.2879 H   0  0  0  0  0
  1  2  4  0  0  0
  1  3  4  0  0  0
  1 15  1  0  0  0
  2  4  4  0  0  0
  3  5  4  0  0  0
  4  6  4  0  0  0
  5  6  4  0  0  0
  5  7  4  0  0  0
  6  9  4  0  0  0
  7  8  4  0  0  0
  8  9  4  0  0  0
  8 10  1  0  0  0
  9 11  1  0  0  0
 11 12  1  0  0  0
 12 13  1  0  0  0
 13 14  1  0  0  0
  2 16  1  0  0  0
  3 17  1  0  0  0
  4 18  1  0  0  0
 10 19  1  0  0  0
 10 20  1  0  0  0
 11 21  1  0  0  0
 11 22  1  0  0  0
 12 23  1  0  0  0
 12 24  1  0  0  0
 13 25  1  0  0  0
 13 26  1  0  0  0
 14 27  1  0  0  0
M  END
$$$$
