4pra_ligand
  -I-interpret- 

175179  0  0  0  0  0  0  0  0999 V2000
   13.1050  -14.3760  -36.4660 N   0  3  0  0  0
   12.0790  -13.7950  -37.3510 C   0  0  0  0  0
   10.6860  -14.1240  -36.8090 C   0  0  0  0  0
   10.4140  -15.2710  -36.4640 O   0  0  0  0  0
   12.2340  -14.3880  -38.7570 C   0  0  0  0  0
   11.5050  -13.6390  -39.8350 C   0  0  0  0  0
   10.1290  -13.6260  -39.9400 N   0  0  0  0  0
   11.9720  -12.9250  -40.8880 C   0  0  0  0  0
    9.7800  -12.9130  -40.9980 C   0  0  0  0  0
   10.8790  -12.4770  -41.5890 N   0  0  0  0  0
    9.7860  -13.1250  -36.7560 N   0  0  0  0  0
    8.4600  -13.3650  -36.1760 C   0  0  0  0  0
    7.5880  -14.2160  -37.0890 C   0  0  0  0  0
    7.8790  -14.3190  -38.2830 O   0  0  0  0  0
    7.8630  -11.9500  -36.0720 C   0  0  0  0  0
    8.5480  -11.1880  -37.1530 C   0  0  0  0  0
    9.9570  -11.7260  -37.1830 C   0  0  0  0  0
    6.5330  -14.8120  -36.5380 N   0  0  0  0  0
    5.5570  -15.5100  -37.3680 C   0  0  0  0  0
    4.6930  -14.4500  -38.0460 C   0  0  0  0  0
    4.5810  -13.3280  -37.5500 O   0  0  0  0  0
    4.6800  -16.4990  -36.5480 C   0  0  0  0  0
    3.7270  -15.7530  -35.6130 C   0  0  0  0  0
    3.8850  -17.4290  -37.4760 C   0  0  0  0  0
    4.1030  -14.7930  -39.1880 N   0  0  0  0  0
    3.2620  -13.8500  -39.9010 C   0  0  0  0  0
    1.7850  -14.1890  -39.8280 C   0  0  0  0  0
    1.1340  -13.9670  -38.8110 O   0  0  0  0  0
    1.2690  -14.7390  -40.9220 N   0  0  0  0  0
   -0.1660  -14.9840  -41.1040 C   0  0  0  0  0
   -0.9140  -15.5200  -39.8770 C   0  0  0  0  0
   -2.0200  -15.0640  -39.5860 O   0  0  0  0  0
   -0.3990  -15.9210  -42.3010 C   0  0  0  0  0
    0.1590  -15.4010  -43.6150 C   0  0  0  0  0
   -0.3100  -16.2140  -44.8060 C   0  0  0  0  0
   -1.3900  -16.8040  -44.7800 O   0  0  0  0  0
    0.5030  -16.2510  -45.8570 N   0  0  0  0  0
   -0.3280  -16.4950  -39.1750 N   0  0  0  0  0
   -0.9920  -17.1210  -38.0200 C   0  0  0  0  0
   -1.4790  -16.0920  -37.0000 C   0  0  0  0  0
   -2.5610  -16.2320  -36.4250 O   0  0  0  0  0
   -0.0730  -18.1380  -37.3530 C   0  0  0  0  0
   -0.6730  -15.0530  -36.8000 N   0  0  0  0  0
   -0.9750  -13.9770  -35.8590 C   0  0  0  0  0
   -1.9810  -12.9510  -36.3870 C   0  0  0  0  0
   -2.4910  -12.1240  -35.6230 O   0  0  0  0  0
    0.3200  -13.2650  -35.4630 C   0  0  0  0  0
    1.1220  -14.0460  -34.4460 C   0  0  0  0  0
    0.7240  -15.1910  -34.1210 O   0  0  0  0  0
    2.1580  -13.5220  -33.9810 O   0  0  0  0  0
   -2.2570  -13.0060  -37.6880 N   0  0  0  0  0
   -3.1790  -12.0720  -38.3290 C   0  0  0  0  0
   -4.6220  -12.4410  -38.0410 C   0  0  0  0  0
   -5.5550  -11.8270  -38.5730 O   0  0  0  0  0
   -2.9550  -12.0530  -39.8390 C   0  0  0  0  0
   -1.5840  -11.5720  -40.2390 C   0  0  0  0  0
   -0.6800  -11.1070  -39.2810 C   0  0  0  0  0
   -1.1920  -11.5720  -41.5740 C   0  0  0  0  0
    0.5790  -10.6590  -39.6470 C   0  0  0  0  0
    0.0610  -11.1250  -41.9510 C   0  0  0  0  0
    0.9420  -10.6700  -40.9870 C   0  0  0  0  0
    2.1860  -10.2260  -41.3710 O   0  0  0  0  0
   -4.8090  -13.4540  -37.2050 N   0  0  0  0  0
   -6.1540  -13.8560  -36.8400 C   0  0  0  0  0
   -6.5810  -13.2510  -35.5100 C   0  0  0  0  0
   -6.0110  -13.5410  -34.4560 O   0  0  0  0  0
   -6.3030  -15.3800  -36.8990 C   0  0  0  0  0
   -6.1890  -15.9200  -38.2960 C   0  0  0  0  0
   -7.2750  -15.8610  -39.1620 C   0  0  0  0  0
   -4.9900  -16.4350  -38.7640 C   0  0  0  0  0
   -7.1790  -16.3340  -40.4600 C   0  0  0  0  0
   -4.8820  -16.9140  -40.0660 C   0  0  0  0  0
   -5.9800  -16.8630  -40.9160 C   0  0  0  0  0
   -7.5770  -12.3760  -35.5900 N   0  0  0  0  0
   -8.1160  -11.7120  -34.4210 C   0  0  0  0  0
   -8.4830  -12.7170  -33.3520 C   0  0  0  0  0
   -8.8780  -13.8450  -33.6460 O   0  0  0  0  0
   -9.3620  -10.9160  -34.8060 C   0  0  0  0  0
   -9.1400   -9.9560  -35.9550 C   0  0  0  0  0
  -10.3790   -9.1500  -36.2780 C   0  0  0  0  0
  -11.4140   -9.3490  -35.5990 O   0  0  0  0  0
  -10.3110   -8.3180  -37.2060 O   0  0  0  0  0
   -8.3370  -12.2990  -32.1050 N   0  0  0  0  0
   -8.8250  -13.0540  -30.9730 C   0  0  0  0  0
  -10.3540  -13.0640  -30.9980 C   0  0  0  0  0
  -10.9990  -13.8250  -30.2770 O   0  0  0  0  0
   -8.3500  -12.4070  -29.6770 C   0  0  0  0  0
   -6.8660  -12.5770  -29.3830 C   0  0  0  0  0
   -5.9010  -12.1110  -30.2620 C   0  0  0  0  0
   -6.4380  -13.1880  -28.2040 C   0  0  0  0  0
   -4.5450  -12.2560  -29.9790 C   0  0  0  0  0
   -5.0780  -13.3440  -27.9170 C   0  0  0  0  0
   -4.1460  -12.8790  -28.8090 C   0  0  0  0  0
   -2.8040  -13.0250  -28.5240 O   0  0  0  0  0
  -10.9690  -12.3020  -31.7410 O   0  0  0  0  0
   13.0057  -13.9844  -35.5294 H   0  0  0  0  0
   12.9851  -15.3882  -36.4271 H   0  0  0  0  0
   14.0316  -14.1560  -36.8314 H   0  0  0  0  0
   12.2020  -12.7127  -37.3920 H   0  0  0  0  0
   11.8124  -15.3927  -38.7268 H   0  0  0  0  0
   13.2950  -14.3484  -39.0038 H   0  0  0  0  0
   13.0181  -12.7409  -41.1326 H   0  0  0  0  0
    8.7592  -12.7180  -41.3268 H   0  0  0  0  0
    8.5180  -13.9004  -35.2283 H   0  0  0  0  0
    8.0226  -11.5060  -35.0894 H   0  0  0  0  0
    6.7794  -11.9496  -36.1899 H   0  0  0  0  0
    8.5309  -10.1150  -36.9620 H   0  0  0  0  0
    8.0483  -11.3146  -38.1134 H   0  0  0  0  0
   10.4223  -11.6377  -38.1647 H   0  0  0  0  0
   10.6364  -11.1676  -36.5390 H   0  0  0  0  0
    6.4058  -14.7804  -35.5265 H   0  0  0  0  0
    6.0791  -16.1184  -38.1064 H   0  0  0  0  0
    5.3536  -17.1037  -35.9408 H   0  0  0  0  0
    4.3048  -15.1432  -34.9184 H   0  0  0  0  0
    3.0703  -15.1122  -36.2014 H   0  0  0  0  0
    3.1291  -16.4737  -35.0551 H   0  0  0  0  0
    3.2349  -16.8325  -38.1160 H   0  0  0  0  0
    4.5768  -18.0029  -38.0926 H   0  0  0  0  0
    3.2810  -18.1094  -36.8758 H   0  0  0  0  0
    4.2435  -15.7296  -39.5666 H   0  0  0  0  0
    3.5545  -13.8759  -40.9507 H   0  0  0  0  0
    3.3988  -12.8721  -39.4394 H   0  0  0  0  0
    1.9039  -15.0048  -41.6748 H   0  0  0  0  0
   -0.5889  -13.9960  -41.2858 H   0  0  0  0  0
   -1.4771  -16.0216  -42.4262 H   0  0  0  0  0
    0.1136  -16.8575  -42.0815 H   0  0  0  0  0
    1.2460  -15.4674  -43.5690 H   0  0  0  0  0
   -0.1906  -14.3771  -43.7476 H   0  0  0  0  0
    0.2407  -16.7840  -46.6862 H   0  0  0  0  0
    1.3891  -15.7464  -45.8343 H   0  0  0  0  0
    0.6023  -16.8131  -39.4464 H   0  0  0  0  0
   -1.8722  -17.6372  -38.4033 H   0  0  0  0  0
    0.1897  -18.9145  -38.0714 H   0  0  0  0  0
    0.8324  -17.6374  -37.0098 H   0  0  0  0  0
   -0.5863  -18.5867  -36.5025 H   0  0  0  0  0
    0.1978  -15.0052  -37.3290 H   0  0  0  0  0
   -1.4434  -14.4491  -34.9954 H   0  0  0  0  0
    0.0543  -12.3063  -35.0176 H   0  0  0  0  0
    0.9304  -13.1536  -36.3592 H   0  0  0  0  0
   -0.0859  -15.3935  -34.5950 H   0  0  0  0  0
   -1.8094  -13.7248  -38.2566 H   0  0  0  0  0
   -2.9818  -11.0815  -37.9188 H   0  0  0  0  0
   -3.6817  -11.3636  -40.2687 H   0  0  0  0  0
   -3.0600  -13.0768  -40.1981 H   0  0  0  0  0
   -0.9693  -11.0964  -38.2301 H   0  0  0  0  0
   -1.8844  -11.9305  -42.3356 H   0  0  0  0  0
    1.2775  -10.3015  -38.8904 H   0  0  0  0  0
    0.3525  -11.1312  -43.0013 H   0  0  0  0  0
    2.2714  -10.3016  -42.3242 H   0  0  0  0  0
   -4.0062  -13.9506  -36.8186 H   0  0  0  0  0
   -6.8480  -13.4520  -37.5770 H   0  0  0  0  0
   -7.2935  -15.6343  -36.5217 H   0  0  0  0  0
   -5.5012  -15.8179  -36.3045 H   0  0  0  0  0
   -8.2164  -15.4359  -38.8140 H   0  0  0  0  0
   -4.1224  -16.4650  -38.1049 H   0  0  0  0  0
   -8.0437  -16.2908  -41.1222 H   0  0  0  0  0
   -3.9376  -17.3286  -40.4185 H   0  0  0  0  0
   -5.8998  -17.2370  -41.9367 H   0  0  0  0  0
   -7.9755  -12.1646  -36.5048 H   0  0  0  0  0
   -7.3516  -11.0413  -34.0285 H   0  0  0  0  0
   -9.6515  -10.3238  -33.9379 H   0  0  0  0  0
  -10.1213  -11.6316  -35.1214 H   0  0  0  0  0
   -8.8770  -10.5397  -36.8372 H   0  0  0  0  0
   -8.3505   -9.2616  -35.6676 H   0  0  0  0  0
  -11.2398  -10.0288  -34.9439 H   0  0  0  0  0
   -7.8629  -11.4118  -31.9364 H   0  0  0  0  0
   -8.4446  -14.0740  -31.0280 H   0  0  0  0  0
  -10.3950  -14.3578  -29.7546 H   0  0  0  0  0
   -8.8906  -12.8930  -28.8648 H   0  0  0  0  0
   -8.5323  -11.3367  -29.7730 H   0  0  0  0  0
   -6.2076  -11.6242  -31.1878 H   0  0  0  0  0
   -7.1788  -13.5513  -27.4918 H   0  0  0  0  0
   -3.7986  -11.8792  -30.6782 H   0  0  0  0  0
   -4.7622  -13.8301  -26.9939 H   0  0  0  0  0
   -2.7040  -13.4744  -27.6816 H   0  0  0  0  0
  1  2  1  0  0  0
  2  3  1  0  0  0
  2  5  1  0  0  0
  3  4  2  0  0  0
  3 11  1  0  0  0
  5  6  1  0  0  0
  6  7  4  0  0  0
  6  8  4  0  0  0
  7  9  4  0  0  0
  8 10  4  0  0  0
  9 10  4  0  0  0
 11 12  1  0  0  0
 11 17  1  0  0  0
 12 13  1  0  0  0
 12 15  1  0  0  0
 13 14  2  0  0  0
 13 18  1  0  0  0
 15 16  1  0  0  0
 16 17  1  0  0  0
 18 19  1  0  0  0
 19 20  1  0  0  0
 19 22  1  0  0  0
 20 21  2  0  0  0
 20 25  1  0  0  0
 22 23  1  0  0  0
 22 24  1  0  0  0
 25 26  1  0  0  0
 26 27  1  0  0  0
 27 28  2  0  0  0
 27 29  1  0  0  0
 29 30  1  0  0  0
 30 31  1  0  0  0
 30 33  1  0  0  0
 31 32  2  0  0  0
 31 38  1  0  0  0
 33 34  1  0  0  0
 34 35  1  0  0  0
 35 36  2  0  0  0
 35 37  1  0  0  0
 38 39  1  0  0  0
 39 40  1  0  0  0
 39 42  1  0  0  0
 40 41  2  0  0  0
 40 43  1  0  0  0
 43 44  1  0  0  0
 44 45  1  0  0  0
 44 47  1  0  0  0
 45 46  2  0  0  0
 45 51  1  0  0  0
 47 48  1  0  0  0
 48 49  1  0  0  0
 48 50  2  0  0  0
 51 52  1  0  0  0
 52 53  1  0  0  0
 52 55  1  0  0  0
 53 54  2  0  0  0
 53 63  1  0  0  0
 55 56  1  0  0  0
 56 57  4  0  0  0
 56 58  4  0  0  0
 57 59  4  0  0  0
 58 60  4  0  0  0
 59 61  4  0  0  0
 60 61  4  0  0  0
 61 62  1  0  0  0
 63 64  1  0  0  0
 64 65  1  0  0  0
 64 67  1  0  0  0
 65 66  2  0  0  0
 65 74  1  0  0  0
 67 68  1  0  0  0
 68 69  4  0  0  0
 68 70  4  0  0  0
 69 71  4  0  0  0
 70 72  4  0  0  0
 71 73  4  0  0  0
 72 73  4  0  0  0
 74 75  1  0  0  0
 75 76  1  0  0  0
 75 78  1  0  0  0
 76 77  2  0  0  0
 76 83  1  0  0  0
 78 79  1  0  0  0
 79 80  1  0  0  0
 80 81  1  0  0  0
 80 82  2  0  0  0
 83 84  1  0  0  0
 84 85  1  0  0  0
 84 87  1  0  0  0
 85 86  1  0  0  0
 85 95  2  0  0  0
 87 88  1  0  0  0
 88 89  4  0  0  0
 88 90  4  0  0  0
 89 91  4  0  0  0
 90 92  4  0  0  0
 91 93  4  0  0  0
 92 93  4  0  0  0
 93 94  1  0  0  0
  1 96  1  0  0  0
  1 97  1  0  0  0
  1 98  1  0  0  0
  2 99  1  0  0  0
  5100  1  0  0  0
  5101  1  0  0  0
  8102  1  0  0  0
  9103  1  0  0  0
 12104  1  0  0  0
 15105  1  0  0  0
 15106  1  0  0  0
 16107  1  0  0  0
 16108  1  0  0  0
 17109  1  0  0  0
 17110  1  0  0  0
 18111  1  0  0  0
 19112  1  0  0  0
 22113  1  0  0  0
 23114  1  0  0  0
 23115  1  0  0  0
 23116  1  0  0  0
 24117  1  0  0  0
 24118  1  0  0  0
 24119  1  0  0  0
 25120  1  0  0  0
 26121  1  0  0  0
 26122  1  0  0  0
 29123  1  0  0  0
 30124  1  0  0  0
 33125  1  0  0  0
 33126  1  0  0  0
 34127  1  0  0  0
 34128  1  0  0  0
 37129  1  0  0  0
 37130  1  0  0  0
 38131  1  0  0  0
 39132  1  0  0  0
 42133  1  0  0  0
 42134  1  0  0  0
 42135  1  0  0  0
 43136  1  0  0  0
 44137  1  0  0  0
 47138  1  0  0  0
 47139  1  0  0  0
 49140  1  0  0  0
 51141  1  0  0  0
 52142  1  0  0  0
 55143  1  0  0  0
 55144  1  0  0  0
 57145  1  0  0  0
 58146  1  0  0  0
 59147  1  0  0  0
 60148  1  0  0  0
 62149  1  0  0  0
 63150  1  0  0  0
 64151  1  0  0  0
 67152  1  0  0  0
 67153  1  0  0  0
 69154  1  0  0  0
 70155  1  0  0  0
 71156  1  0  0  0
 72157  1  0  0  0
 73158  1  0  0  0
 74159  1  0  0  0
 75160  1  0  0  0
 78161  1  0  0  0
 78162  1  0  0  0
 79163  1  0  0  0
 79164  1  0  0  0
 81165  1  0  0  0
 83166  1  0  0  0
 84167  1  0  0  0
 86168  1  0  0  0
 87169  1  0  0  0
 87170  1  0  0  0
 89171  1  0  0  0
 90172  1  0  0  0
 91173  1  0  0  0
 92174  1  0  0  0
 94175  1  0  0  0
M  END
$$$$
