### 
### Created by X-TOOL on Mon Sep 10 21:13:18 2018
### 

@<TRIPOS>MOLECULE
4pra_ligand
  173   177     1     0     0
SMALL
GAST_HUCK


@<TRIPOS>ATOM
      1 N          13.1050  -14.3760  -36.4660 N.4       1 HIS         0.2390
      2 CA         12.0790  -13.7950  -37.3510 C.3       1 HIS         0.0710
      3 C          10.6860  -14.1240  -36.8090 C.2       1 HIS         0.2307
      4 O          10.4140  -15.2710  -36.4640 O.2       1 HIS        -0.3904
      5 CB         12.2340  -14.3880  -38.7570 C.3       1 HIS         0.0347
      6 CG         11.5050  -13.6390  -39.8350 C.2       1 HIS         0.0005
      7 ND1        10.1290  -13.6260  -39.9400 N.2       1 HIS        -0.3251
      8 CD2        11.9720  -12.9250  -40.8880 C.2       1 HIS         0.0293
      9 CE1         9.7800  -12.9130  -40.9980 C.2       1 HIS         0.0907
     10 NE2        10.8790  -12.4770  -41.5890 N.pl3     1 HIS        -0.2752
     11 N           9.7860  -13.1250  -36.7560 N.am      1 PRO        -0.2470
     12 CA          8.4600  -13.3650  -36.1760 C.3       1 PRO         0.1339
     13 C           7.5880  -14.2160  -37.0890 C.2       1 PRO         0.2041
     14 O           7.8790  -14.3190  -38.2830 O.2       1 PRO        -0.3944
     15 CB          7.8630  -11.9500  -36.0720 C.3       1 PRO        -0.0104
     16 CG          8.5480  -11.1880  -37.1530 C.3       1 PRO        -0.0281
     17 CD          9.9570  -11.7260  -37.1830 C.3       1 PRO         0.0371
     18 N           6.5330  -14.8120  -36.5380 N.am      1 VAL        -0.2635
     19 CA          5.5570  -15.5100  -37.3680 C.3       1 VAL         0.1332
     20 C           4.6930  -14.4500  -38.0460 C.2       1 VAL         0.2039
     21 O           4.5810  -13.3280  -37.5500 O.2       1 VAL        -0.3944
     22 CB          4.6800  -16.4990  -36.5480 C.3       1 VAL        -0.0063
     23 CG1         3.7270  -15.7530  -35.6130 C.3       1 VAL        -0.0584
     24 CG2         3.8850  -17.4290  -37.4760 C.3       1 VAL        -0.0584
     25 N           4.1030  -14.7930  -39.1880 N.am      1 GLY        -0.2664
     26 CA          3.2620  -13.8500  -39.9010 C.3       1 GLY         0.1201
     27 C           1.7850  -14.1890  -39.8280 C.2       1 GLY         0.2007
     28 O           1.1340  -13.9670  -38.8110 O.2       1 GLY        -0.3947
     29 N           1.2690  -14.7390  -40.9220 N.am      1 GLN        -0.2638
     30 CA         -0.1660  -14.9840  -41.1040 C.3       1 GLN         0.1330
     31 C          -0.9140  -15.5200  -39.8770 C.2       1 GLN         0.2040
     32 O          -2.0200  -15.0640  -39.5860 O.2       1 GLN        -0.3944
     33 CB         -0.3990  -15.9210  -42.3010 C.3       1 GLN         0.0045
     34 CG          0.1590  -15.4010  -43.6150 C.3       1 GLN         0.0412
     35 CD         -0.3100  -16.2140  -44.8060 C.2       1 GLN         0.1737
     36 OE1        -1.3900  -16.8040  -44.7800 O.2       1 GLN        -0.3973
     37 NE2         0.5030  -16.2510  -45.8570 N.am      1 GLN        -0.3009
     38 N          -0.3280  -16.4950  -39.1750 N.am      1 ALA        -0.2640
     39 CA         -0.9920  -17.1210  -38.0200 C.3       1 ALA         0.1282
     40 C          -1.4790  -16.0920  -37.0000 C.2       1 ALA         0.2037
     41 O          -2.5610  -16.2320  -36.4250 O.2       1 ALA        -0.3944
     42 CB         -0.0730  -18.1380  -37.3530 C.3       1 ALA        -0.0244
     43 N          -0.6730  -15.0530  -36.8000 N.am      1 ASP        -0.2622
     44 CA         -0.9750  -13.9770  -35.8590 C.3       1 ASP         0.1423
     45 C          -1.9810  -12.9510  -36.3870 C.2       1 ASP         0.2057
     46 O          -2.4910  -12.1240  -35.6230 O.2       1 ASP        -0.3943
     47 CB          0.3200  -13.2650  -35.4630 C.3       1 ASP         0.0406
     48 CG          1.1220  -14.0460  -34.4460 C.2       1 ASP         0.0393
     49 OD1         0.7240  -15.1910  -34.1210 O.co2     1 ASP        -0.5688
     50 OD2         2.1580  -13.5220  -33.9810 O.co2     1 ASP        -0.5688
     51 N          -2.2570  -13.0060  -37.6880 N.am      1 TYR        -0.2620
     52 CA         -3.1790  -12.0720  -38.3290 C.3       1 TYR         0.1390
     53 C          -4.6220  -12.4410  -38.0410 C.2       1 TYR         0.2059
     54 O          -5.5550  -11.8270  -38.5730 O.2       1 TYR        -0.3942
     55 CB         -2.9550  -12.0530  -39.8390 C.3       1 TYR         0.0163
     56 CG         -1.5840  -11.5720  -40.2390 C.ar      1 TYR        -0.0493
     57 CD1        -0.6800  -11.1070  -39.2810 C.ar      1 TYR        -0.0685
     58 CD2        -1.1920  -11.5720  -41.5740 C.ar      1 TYR        -0.0685
     59 CE1         0.5790  -10.6590  -39.6470 C.ar      1 TYR        -0.0398
     60 CE2         0.0610  -11.1250  -41.9510 C.ar      1 TYR        -0.0398
     61 CZ          0.9420  -10.6700  -40.9870 C.ar      1 TYR         0.0805
     62 OH          2.1860  -10.2260  -41.3710 O.3       1 TYR        -0.3376
     63 N          -4.8090  -13.4540  -37.2050 N.am      1 PHE        -0.2618
     64 CA         -6.1540  -13.8560  -36.8400 C.3       1 PHE         0.1404
     65 C          -6.5810  -13.2510  -35.5100 C.2       1 PHE         0.2060
     66 O          -6.0110  -13.5410  -34.4560 O.2       1 PHE        -0.3942
     67 CB         -6.3030  -15.3800  -36.8990 C.3       1 PHE         0.0214
     68 CG         -6.1890  -15.9200  -38.2960 C.ar      1 PHE        -0.0386
     69 CD1        -7.2750  -15.8610  -39.1620 C.ar      1 PHE        -0.0601
     70 CD2        -4.9900  -16.4350  -38.7640 C.ar      1 PHE        -0.0601
     71 CE1        -7.1790  -16.3340  -40.4600 C.ar      1 PHE        -0.0686
     72 CE2        -4.8820  -16.9140  -40.0660 C.ar      1 PHE        -0.0686
     73 CZ         -5.9800  -16.8630  -40.9160 C.ar      1 PHE        -0.0687
     74 N          -7.5770  -12.3760  -35.5900 N.am      1 GLU        -0.2635
     75 CA         -8.1160  -11.7120  -34.4210 C.3       1 GLU         0.1324
     76 C          -8.4830  -12.7170  -33.3520 C.2       1 GLU         0.2036
     77 O          -8.8780  -13.8450  -33.6460 O.2       1 GLU        -0.3944
     78 CB         -9.3620  -10.9160  -34.8060 C.3       1 GLU        -0.0008
     79 CG         -9.1400   -9.9560  -35.9550 C.3       1 GLU         0.0044
     80 CD        -10.3790   -9.1500  -36.2780 C.2       1 GLU         0.0350
     81 OE1       -11.4140   -9.3490  -35.5990 O.co2     1 GLU        -0.5690
     82 OE2       -10.3110   -8.3180  -37.2060 O.co2     1 GLU        -0.5690
     83 N          -8.3370  -12.2990  -32.1050 N.am      1 TYR        -0.2679
     84 CA         -8.8250  -13.0540  -30.9730 C.3       1 TYR         0.1025
     85 C         -10.3540  -13.0640  -30.9980 C.2       1 TYR         0.0619
     86 O         -10.9990  -13.8250  -30.2770 O.co2     1 TYR        -0.5665
     87 CB         -8.3500  -12.4070  -29.6770 C.3       1 TYR         0.0108
     88 CG         -6.8660  -12.5770  -29.3830 C.ar      1 TYR        -0.0499
     89 CD1        -5.9010  -12.1110  -30.2620 C.ar      1 TYR        -0.0686
     90 CD2        -6.4380  -13.1880  -28.2040 C.ar      1 TYR        -0.0686
     91 CE1        -4.5450  -12.2560  -29.9790 C.ar      1 TYR        -0.0398
     92 CE2        -5.0780  -13.3440  -27.9170 C.ar      1 TYR        -0.0398
     93 CZ         -4.1460  -12.8790  -28.8090 C.ar      1 TYR         0.0805
     94 OH         -2.8040  -13.0250  -28.5240 O.3       1 TYR        -0.3376
     95 OXT       -10.9690  -12.3020  -31.7410 O.co2     1 TYR        -0.5665
     96 H          14.0212  -14.1578  -36.8253 H         1 HIS         0.2016
     97 H          12.9885  -15.3765  -36.4280 H         1 HIS         0.2016
     98 H          13.0069  -13.9909  -35.5397 H         1 HIS         0.2016
     99 H          12.2067  -12.7034  -37.3954 H         1 HIS         0.1116
    100 H          11.8529  -15.4197  -38.7382 H         1 HIS         0.0453
    101 H          13.3046  -14.3971  -39.0095 H         1 HIS         0.0453
    102 H          13.0172  -12.7411  -41.1324 H         1 HIS         0.0729
    103 H           8.7601  -12.7182  -41.3265 H         1 HIS         0.1199
    104 H          10.9107  -11.8951  -42.4383 H         1 HIS         0.2361
    105 H           8.5418  -13.8422  -35.1883 H         1 PRO         0.0802
    106 H           8.0752  -11.5077  -35.0875 H         1 PRO         0.0313
    107 H           6.7758  -11.9714  -36.2377 H         1 PRO         0.0313
    108 H           8.5506  -10.1120  -36.9246 H         1 PRO         0.0287
    109 H           8.0500  -11.3566  -38.1192 H         1 PRO         0.0287
    110 H          10.3798  -11.6709  -38.1970 H         1 PRO         0.0524
    111 H          10.6052  -11.1759  -36.4850 H         1 PRO         0.0524
    112 H           6.4083  -14.7811  -35.5463 H         1 VAL         0.1883
    113 H           6.0925  -16.0849  -38.1379 H         1 VAL         0.0802
    114 H           5.3502  -17.1174  -35.9328 H         1 VAL         0.0343
    115 H           3.1230  -16.4793  -35.0494 H         1 VAL         0.0234
    116 H           3.0636  -15.1060  -36.2056 H         1 VAL         0.0234
    117 H           4.3089  -15.1372  -34.9114 H         1 VAL         0.0234
    118 H           4.5786  -17.9606  -38.1441 H         1 VAL         0.0234
    119 H           3.1814  -16.8338  -38.0765 H         1 VAL         0.0234
    120 H           3.3257  -18.1588  -36.8723 H         1 VAL         0.0234
    121 H           4.2408  -15.7113  -39.5592 H         1 GLY         0.1881
    122 H           3.5662  -13.8407  -40.9580 H         1 GLY         0.0763
    123 H           3.4126  -12.8504  -39.4672 H         1 GLY         0.0763
    124 H           1.8915  -14.9996  -41.6600 H         1 GLN         0.1883
    125 H          -0.6193  -14.0119  -41.3477 H         1 GLN         0.0801
    126 H          -1.4828  -16.0665  -42.4197 H         1 GLN         0.0337
    127 H           0.0788  -16.8871  -42.0813 H         1 GLN         0.0337
    128 H           1.2575  -15.4395  -43.5719 H         1 GLN         0.0504
    129 H          -0.1664  -14.3588  -43.7489 H         1 GLN         0.0504
    130 H           0.2449  -16.7719  -46.6707 H         1 GLN         0.1814
    131 H           1.3727  -15.7580  -45.8340 H         1 GLN         0.1814
    132 H           0.5841  -16.8069  -39.4411 H         1 ALA         0.1883
    133 H          -1.8745  -17.6588  -38.3968 H         1 ALA         0.0797
    134 H          -0.5899  -18.5916  -36.4945 H         1 ALA         0.0277
    135 H           0.8412  -17.6341  -37.0061 H         1 ALA         0.0277
    136 H           0.1928  -18.9223  -38.0770 H         1 ALA         0.0277
    137 H           0.1807  -15.0061  -37.3186 H         1 ASP         0.1884
    138 H          -1.4098  -14.4356  -34.9587 H         1 ASP         0.0819
    139 H           0.0666  -12.2841  -35.0346 H         1 ASP         0.0478
    140 H           0.9348  -13.1238  -36.3641 H         1 ASP         0.0478
    141 H          -1.8182  -13.7107  -38.2455 H         1 TYR         0.1885
    142 H          -2.9871  -11.0652  -37.9297 H         1 TYR         0.0821
    143 H          -3.7035  -11.3872  -40.2934 H         1 TYR         0.0453
    144 H          -3.0912  -13.0745  -40.2238 H         1 TYR         0.0453
    145 H          -0.9677  -11.0965  -38.2359 H         1 TYR         0.0530
    146 H          -1.8806  -11.9285  -42.3315 H         1 TYR         0.0530
    147 H           1.2736  -10.3035  -38.8946 H         1 TYR         0.0525
    148 H           0.3509  -11.1312  -42.9955 H         1 TYR         0.0525
    149 H           2.6725   -9.9480  -40.6039 H         1 TYR         0.2458
    150 H          -4.0220  -13.9409  -36.8261 H         1 PHE         0.1885
    151 H          -6.8315  -13.4436  -37.6022 H         1 PHE         0.0823
    152 H          -7.2893  -15.6531  -36.4956 H         1 PHE         0.0474
    153 H          -5.5152  -15.8348  -36.2806 H         1 PHE         0.0474
    154 H          -8.2113  -15.4383  -38.8159 H         1 PHE         0.0557
    155 H          -4.1272  -16.4649  -38.1085 H         1 PHE         0.0557
    156 H          -8.0389  -16.2911  -41.1186 H         1 PHE         0.0599
    157 H          -3.9428  -17.3263  -40.4166 H         1 PHE         0.0599
    158 H          -5.9002  -17.2349  -41.9311 H         1 PHE         0.0559
    159 H          -7.9677  -12.1688  -36.4869 H         1 GLU         0.1883
    160 H          -7.3564  -11.0244  -34.0207 H         1 GLU         0.0801
    161 H          -9.6896  -10.3382  -33.9292 H         1 GLU         0.0330
    162 H         -10.1520  -11.6253  -35.0939 H         1 GLU         0.0330
    163 H          -8.8506  -10.5320  -36.8463 H         1 GLU         0.0433
    164 H          -8.3283   -9.2641  -35.6860 H         1 GLU         0.0433
    165 H          -7.8722  -11.4292  -31.9397 H         1 TYR         0.1877
    166 H          -8.4473  -14.0856  -31.0287 H         1 TYR         0.0747
    167 H          -8.9163  -12.8516  -28.8454 H         1 TYR         0.0446
    168 H          -8.5661  -11.3299  -29.7334 H         1 TYR         0.0446
    169 H          -6.2059  -11.6269  -31.1827 H         1 TYR         0.0530
    170 H          -7.1748  -13.5493  -27.4957 H         1 TYR         0.0530
    171 H          -3.8027  -11.8813  -30.6744 H         1 TYR         0.0525
    172 H          -4.7640  -13.8275  -26.9990 H         1 TYR         0.0525
    173 H          -2.6000  -13.9481  -28.4300 H         1 TYR         0.2458
@<TRIPOS>BOND
     1    1    2 1  
     2    2    3 1  
     3    2    5 1  
     4    3    4 2  
     5    3   11 am 
     6    5    6 1  
     7    6    7 1  
     8    6    8 2  
     9    7    9 2  
    10    8   10 1  
    11    9   10 1  
    12   11   12 1  
    13   11   17 1  
    14   12   13 1  
    15   12   15 1  
    16   13   14 2  
    17   13   18 am 
    18   15   16 1  
    19   16   17 1  
    20   18   19 1  
    21   19   20 1  
    22   19   22 1  
    23   20   21 2  
    24   20   25 am 
    25   22   23 1  
    26   22   24 1  
    27   25   26 1  
    28   26   27 1  
    29   27   28 2  
    30   27   29 am 
    31   29   30 1  
    32   30   31 1  
    33   30   33 1  
    34   31   32 2  
    35   31   38 am 
    36   33   34 1  
    37   34   35 1  
    38   35   36 2  
    39   35   37 am 
    40   38   39 1  
    41   39   40 1  
    42   39   42 1  
    43   40   41 2  
    44   40   43 am 
    45   43   44 1  
    46   44   45 1  
    47   44   47 1  
    48   45   46 2  
    49   45   51 am 
    50   47   48 1  
    51   48   49 ar 
    52   48   50 ar 
    53   51   52 1  
    54   52   53 1  
    55   52   55 1  
    56   53   54 2  
    57   53   63 am 
    58   55   56 1  
    59   56   57 ar 
    60   56   58 ar 
    61   57   59 ar 
    62   58   60 ar 
    63   59   61 ar 
    64   60   61 ar 
    65   61   62 1  
    66   63   64 1  
    67   64   65 1  
    68   64   67 1  
    69   65   66 2  
    70   65   74 am 
    71   67   68 1  
    72   68   69 ar 
    73   68   70 ar 
    74   69   71 ar 
    75   70   72 ar 
    76   71   73 ar 
    77   72   73 ar 
    78   74   75 1  
    79   75   76 1  
    80   75   78 1  
    81   76   77 2  
    82   76   83 am 
    83   78   79 1  
    84   79   80 1  
    85   80   81 ar 
    86   80   82 ar 
    87   83   84 1  
    88   84   85 1  
    89   84   87 1  
    90   85   86 ar 
    91   85   95 ar 
    92   87   88 1  
    93   88   89 ar 
    94   88   90 ar 
    95   89   91 ar 
    96   90   92 ar 
    97   91   93 ar 
    98   92   93 ar 
    99   93   94 1  
   100    1   96 1  
   101    1   97 1  
   102    1   98 1  
   103    2   99 1  
   104    5  100 1  
   105    5  101 1  
   106    8  102 1  
   107    9  103 1  
   108   10  104 1  
   109   12  105 1  
   110   15  106 1  
   111   15  107 1  
   112   16  108 1  
   113   16  109 1  
   114   17  110 1  
   115   17  111 1  
   116   18  112 1  
   117   19  113 1  
   118   22  114 1  
   119   23  115 1  
   120   23  116 1  
   121   23  117 1  
   122   24  118 1  
   123   24  119 1  
   124   24  120 1  
   125   25  121 1  
   126   26  122 1  
   127   26  123 1  
   128   29  124 1  
   129   30  125 1  
   130   33  126 1  
   131   33  127 1  
   132   34  128 1  
   133   34  129 1  
   134   37  130 1  
   135   37  131 1  
   136   38  132 1  
   137   39  133 1  
   138   42  134 1  
   139   42  135 1  
   140   42  136 1  
   141   43  137 1  
   142   44  138 1  
   143   47  139 1  
   144   47  140 1  
   145   51  141 1  
   146   52  142 1  
   147   55  143 1  
   148   55  144 1  
   149   57  145 1  
   150   58  146 1  
   151   59  147 1  
   152   60  148 1  
   153   62  149 1  
   154   63  150 1  
   155   64  151 1  
   156   67  152 1  
   157   67  153 1  
   158   69  154 1  
   159   70  155 1  
   160   71  156 1  
   161   72  157 1  
   162   73  158 1  
   163   74  159 1  
   164   75  160 1  
   165   78  161 1  
   166   78  162 1  
   167   79  163 1  
   168   79  164 1  
   169   83  165 1  
   170   84  166 1  
   171   87  167 1  
   172   87  168 1  
   173   89  169 1  
   174   90  170 1  
   175   91  171 1  
   176   92  172 1  
   177   94  173 1  
@<TRIPOS>SUBSTRUCTURE
     1 HIS         1

