3f19_ligand
  -I-interpret- 

 25 25  0  0  0  0  0  0  0  0999 V2000
  -12.9780   -7.5960  -20.0250 O   0  0  0  0  0
  -12.9230   -6.2390  -19.5440 S   0  0  0  0  0
  -14.1240   -5.8720  -18.8490 O   0  0  0  0  0
  -12.7500   -5.2670  -20.8100 N   0  0  0  0  0
  -13.3220   -3.9340  -20.8330 C   0  0  0  0  0
  -12.3690   -2.9560  -20.2060 C   0  0  0  0  0
  -11.2230   -2.8560  -20.6180 O   0  0  0  0  0
  -12.8300   -2.2370  -19.1900 N   0  0  0  0  0
  -11.9550   -1.3660  -18.5540 O   0  0  0  0  0
  -11.7010   -6.1350  -18.4930 C   0  0  0  0  0
  -10.5230   -6.8620  -18.7060 C   0  0  0  0  0
  -11.8020   -5.3490  -17.3350 C   0  0  0  0  0
  -10.7460   -5.2850  -16.4220 C   0  0  0  0  0
   -9.5760   -6.0130  -16.6540 C   0  0  0  0  0
   -8.5510   -5.9650  -15.7780 F   0  0  0  0  0
   -9.4640   -6.8000  -17.7970 C   0  0  0  0  0
  -12.2239   -5.5954  -21.6198 H   0  0  0  0  0
  -14.2565   -3.9347  -20.2719 H   0  0  0  0  0
  -13.5086   -3.6412  -21.8662 H   0  0  0  0  0
  -13.7996   -2.3218  -18.8849 H   0  0  0  0  0
  -12.4157   -0.9134  -17.8437 H   0  0  0  0  0
  -10.4310   -7.4860  -19.5950 H   0  0  0  0  0
  -12.7137   -4.7824  -17.1456 H   0  0  0  0  0
  -10.8350   -4.6670  -15.5286 H   0  0  0  0  0
   -8.5516   -7.3668  -17.9823 H   0  0  0  0  0
  1  2  2  0  0  0
  2  3  2  0  0  0
  2  4  1  0  0  0
  2 10  1  0  0  0
  4  5  1  0  0  0
  5  6  1  0  0  0
  6  7  2  0  0  0
  6  8  1  0  0  0
  8  9  1  0  0  0
 10 11  4  0  0  0
 10 12  4  0  0  0
 11 16  4  0  0  0
 12 13  4  0  0  0
 13 14  4  0  0  0
 14 15  1  0  0  0
 14 16  4  0  0  0
  4 17  1  0  0  0
  5 18  1  0  0  0
  5 19  1  0  0  0
  8 20  1  0  0  0
  9 21  1  0  0  0
 11 22  1  0  0  0
 12 23  1  0  0  0
 13 24  1  0  0  0
 16 25  1  0  0  0
M  END
$$$$
