4phv_ligand
  -I-interpret- 

 88 93  0  0  0  0  0  0  0  0999 V2000
   14.2740   23.8800    4.7040 C   0  0  0  0  0
   13.0630   23.3670    3.9880 C   0  0  0  0  0
   14.0950   23.7330    6.2420 C   0  0  0  0  0
   15.2770   22.9090    6.7150 C   0  0  0  0  0
   11.9110   24.2230    3.6800 C   0  0  0  0  0
   15.2590   22.8430    8.2380 C   0  0  0  0  0
   15.2450   21.4600    6.2260 C   0  0  0  0  0
   16.3550   21.9480    8.7590 C   0  0  0  0  0
   16.6070   19.6130    5.3960 C   0  0  0  0  0
   18.0260   19.1690    5.7690 C   0  0  0  0  0
   16.4960   19.1910    3.9790 C   0  0  0  0  0
   17.3700   18.1740    3.7190 C   0  0  0  0  0
   18.1920   17.8580    4.9290 C   0  0  0  0  0
   10.9560   24.3500    4.8800 C   0  0  0  0  0
   11.0920   23.5370    2.5550 C   0  0  0  0  0
    9.7220   24.1410    2.3520 C   0  0  0  0  0
   17.5020   17.5510    2.4610 C   0  0  0  0  0
   16.6360   18.0180    1.4850 C   0  0  0  0  0
   15.7560   19.0840    1.7360 C   0  0  0  0  0
   15.6460   19.6780    2.9860 C   0  0  0  0  0
    8.5790   23.5260    2.8330 C   0  0  0  0  0
    7.3220   24.1070    2.6460 C   0  0  0  0  0
    7.1770   25.3410    1.9760 C   0  0  0  0  0
    8.3370   25.9830    1.5050 C   0  0  0  0  0
    9.5510   25.3390    1.6850 C   0  0  0  0  0
   17.6910   22.2530    8.5280 C   0  0  0  0  0
   18.6940   21.3890    9.0150 C   0  0  0  0  0
   18.3210   20.2390    9.7120 C   0  0  0  0  0
   16.9610   19.8950    9.9220 C   0  0  0  0  0
   15.9950   20.7730    9.4240 C   0  0  0  0  0
    7.4160   27.0590    6.7900 C   0  0  0  0  0
    8.1740   26.6170    5.5020 C   0  0  0  0  0
    9.3080   25.7010    6.0440 C   0  0  0  0  0
    9.6460   26.4250    7.3170 C   0  0  0  0  0
    8.5840   27.1890    7.7290 C   0  0  0  0  0
   10.8630   26.3550    7.9970 C   0  0  0  0  0
   10.9630   27.1200    9.1510 C   0  0  0  0  0
    9.8670   27.8630    9.5950 C   0  0  0  0  0
    8.6560   27.9530    8.9010 C   0  0  0  0  0
   14.6740   25.1820    4.4070 O   0  0  0  0  0
   14.1690   20.8740    6.2710 O   0  0  0  0  0
   19.0830   20.0530    5.4600 O   0  0  0  0  0
   10.7720   23.3470    5.6250 O   0  0  0  0  0
    8.7470   27.7300    4.7940 O   0  0  0  0  0
   16.3800   20.9810    5.7720 N   0  0  0  0  0
   10.3560   25.4970    5.0420 N   0  0  0  0  0
   15.0804   23.2509    4.3271 H   0  0  0  0  0
   12.6535   22.6301    4.6789 H   0  0  0  0  0
   13.4465   23.0949    3.0046 H   0  0  0  0  0
   13.1494   23.2499    6.4881 H   0  0  0  0  0
   14.0656   24.7053    6.7338 H   0  0  0  0  0
   16.1646   23.3978    6.3134 H   0  0  0  0  0
   12.2905   25.2068    3.4040 H   0  0  0  0  0
   14.2986   22.4381    8.5570 H   0  0  0  0  0
   15.4143   23.8476    8.6313 H   0  0  0  0  0
   15.7760   19.1598    5.9365 H   0  0  0  0  0
   18.1033   19.0839    6.8529 H   0  0  0  0  0
   17.8687   16.9591    5.4540 H   0  0  0  0  0
   19.2295   17.6141    4.7006 H   0  0  0  0  0
   10.9511   22.4948    2.8416 H   0  0  0  0  0
   11.6458   23.6615    1.6245 H   0  0  0  0  0
   18.2297   16.7622    2.2706 H   0  0  0  0  0
   16.6377   17.5481    0.5015 H   0  0  0  0  0
   15.1375   19.4581    0.9202 H   0  0  0  0  0
   14.9347   20.4806    3.1807 H   0  0  0  0  0
    8.6604   22.5775    3.3638 H   0  0  0  0  0
    6.4361   23.5974    3.0249 H   0  0  0  0  0
    6.1925   25.7847    1.8275 H   0  0  0  0  0
    8.2827   26.9550    1.0146 H   0  0  0  0  0
   10.4392   25.8141    1.2684 H   0  0  0  0  0
   17.9616   23.1525    7.9750 H   0  0  0  0  0
   19.7470   21.6167    8.8490 H   0  0  0  0  0
   19.0985   19.5851   10.1071 H   0  0  0  0  0
   16.6811   18.9834   10.4500 H   0  0  0  0  0
   14.9393   20.5366    9.5569 H   0  0  0  0  0
    6.6388   26.3702    7.1211 H   0  0  0  0  0
    6.8167   27.9627    6.6793 H   0  0  0  0  0
    7.5066   26.1293    4.7915 H   0  0  0  0  0
    9.0711   24.6576    6.2522 H   0  0  0  0  0
   11.6869   25.7357    7.6425 H   0  0  0  0  0
   11.8978   27.1408    9.7111 H   0  0  0  0  0
    9.9607   28.4039   10.5366 H   0  0  0  0  0
    7.8285   28.5725    9.2469 H   0  0  0  0  0
   15.4546   25.4009    4.9212 H   0  0  0  0  0
   19.9153   19.6652    5.7403 H   0  0  0  0  0
    8.0438   28.2925    4.4614 H   0  0  0  0  0
   17.1611   21.6303    5.6790 H   0  0  0  0  0
   10.6271   26.2810    4.4485 H   0  0  0  0  0
  1 40  1  0  0  0
  1  3  1  0  0  0
  1  2  1  0  0  0
  2  5  1  0  0  0
  5 15  1  0  0  0
  5 14  1  0  0  0
 14 46  1  0  0  0
 14 43  2  0  0  0
 46 33  1  0  0  0
 33 34  1  0  0  0
 33 32  1  0  0  0
 32 44  1  0  0  0
 32 31  1  0  0  0
 31 35  1  0  0  0
 35 39  4  0  0  0
 35 34  4  0  0  0
 34 36  4  0  0  0
 36 37  4  0  0  0
 37 38  4  0  0  0
 38 39  4  0  0  0
 15 16  1  0  0  0
 16 25  4  0  0  0
 16 21  4  0  0  0
 21 22  4  0  0  0
 22 23  4  0  0  0
 23 24  4  0  0  0
 24 25  4  0  0  0
  3  4  1  0  0  0
  4  7  1  0  0  0
  4  6  1  0  0  0
  6  8  1  0  0  0
  8 30  4  0  0  0
  8 26  4  0  0  0
 26 27  4  0  0  0
 27 28  4  0  0  0
 28 29  4  0  0  0
 29 30  4  0  0  0
  7 45  1  0  0  0
  7 41  2  0  0  0
 45  9  1  0  0  0
  9 11  1  0  0  0
  9 10  1  0  0  0
 10 42  1  0  0  0
 10 13  1  0  0  0
 13 12  1  0  0  0
 12 17  4  0  0  0
 12 11  4  0  0  0
 11 20  4  0  0  0
 20 19  4  0  0  0
 19 18  4  0  0  0
 18 17  4  0  0  0
  1 47  1  0  0  0
  2 48  1  0  0  0
  2 49  1  0  0  0
  3 50  1  0  0  0
  3 51  1  0  0  0
  4 52  1  0  0  0
  5 53  1  0  0  0
  6 54  1  0  0  0
  6 55  1  0  0  0
  9 56  1  0  0  0
 10 57  1  0  0  0
 13 58  1  0  0  0
 13 59  1  0  0  0
 15 60  1  0  0  0
 15 61  1  0  0  0
 17 62  1  0  0  0
 18 63  1  0  0  0
 19 64  1  0  0  0
 20 65  1  0  0  0
 21 66  1  0  0  0
 22 67  1  0  0  0
 23 68  1  0  0  0
 24 69  1  0  0  0
 25 70  1  0  0  0
 26 71  1  0  0  0
 27 72  1  0  0  0
 28 73  1  0  0  0
 29 74  1  0  0  0
 30 75  1  0  0  0
 31 76  1  0  0  0
 31 77  1  0  0  0
 32 78  1  0  0  0
 33 79  1  0  0  0
 36 80  1  0  0  0
 37 81  1  0  0  0
 38 82  1  0  0  0
 39 83  1  0  0  0
 40 84  1  0  0  0
 42 85  1  0  0  0
 44 86  1  0  0  0
 45 87  1  0  0  0
 46 88  1  0  0  0
M  END
$$$$
