1ilh_ligand
  -I-interpret- 

 75 75  0  0  0  0  0  0  0  0999 V2000
    7.2600   75.3910    0.2230 C   0  0  0  0  0
    7.6440   76.7690   -0.0530 C   0  0  0  0  0
    8.9400   77.2330   -0.5420 C   0  0  0  0  0
    9.8790   76.1520   -0.7420 C   0  0  0  0  0
    9.5780   74.8060   -0.4970 C   0  0  0  0  0
    8.3010   74.4530   -0.0230 C   0  0  0  0  0
   10.5460   73.7720   -0.7420 C   0  0  0  0  0
   10.5930   73.1740   -1.9050 C   0  0  0  0  0
   12.2960   72.8200   -2.5890 P   0  0  0  0  0
    9.1700   72.8040   -2.9840 P   0  0  0  0  0
    6.7340   77.6970    0.1470 O   0  0  0  0  0
    5.8780   74.9090    0.7400 C   0  0  0  0  0
    9.4650   78.6780   -0.8700 C   0  0  0  0  0
    4.7920   75.2300   -0.3350 C   0  0  0  0  0
    5.5420   75.5990    2.0900 C   0  0  0  0  0
    5.7640   73.3440    0.9770 C   0  0  0  0  0
    9.8840   78.7470   -2.3880 C   0  0  0  0  0
    8.4450   79.8630   -0.6570 C   0  0  0  0  0
   10.7410   78.9920    0.0170 C   0  0  0  0  0
   12.4250   71.3090   -2.6570 O   0  0  0  0  0
   13.3850   73.2560   -1.5050 O   0  0  0  0  0
   14.6900   73.4530   -2.0410 C   0  0  0  0  0
   15.6620   73.8660   -0.9290 C   0  0  0  0  0
   12.5910   73.2800   -4.0510 O   0  0  0  0  0
   12.2080   74.5900   -4.3710 C   0  0  0  0  0
   12.5710   74.8790   -5.8240 C   0  0  0  0  0
    7.8380   72.9420   -2.4490 O   0  0  0  0  0
    9.3040   73.7240   -4.2940 O   0  0  0  0  0
    8.0990   74.5040   -4.4970 C   0  0  0  0  0
    8.2030   75.3670   -5.7280 C   0  0  0  0  0
    9.3960   71.3430   -3.6100 O   0  0  0  0  0
    9.3360   70.3490   -2.6500 C   0  0  0  0  0
    9.5650   69.0360   -3.3140 C   0  0  0  0  0
   10.8773   76.3982   -1.1038 H   0  0  0  0  0
    8.0974   73.3991    0.1668 H   0  0  0  0  0
   11.2440   73.4848    0.0444 H   0  0  0  0  0
    7.1028   78.5569   -0.0679 H   0  0  0  0  0
    3.8227   74.8710    0.0111 H   0  0  0  0  0
    4.7465   76.3075   -0.4932 H   0  0  0  0  0
    5.0513   74.7348   -1.2707 H   0  0  0  0  0
    5.5004   76.6784    1.9444 H   0  0  0  0  0
    4.5766   75.2420    2.4487 H   0  0  0  0  0
    6.3140   75.3592    2.8212 H   0  0  0  0  0
    4.7614   73.1034    1.3306 H   0  0  0  0  0
    5.9554   72.8210    0.0400 H   0  0  0  0  0
    6.4972   73.0364    1.7226 H   0  0  0  0  0
    8.9994   78.6276   -3.0136 H   0  0  0  0  0
   10.3474   79.7122   -2.5922 H   0  0  0  0  0
   10.5939   77.9487   -2.6043 H   0  0  0  0  0
    8.9341   80.8083   -0.8921 H   0  0  0  0  0
    7.5860   79.7238   -1.3134 H   0  0  0  0  0
    8.1128   79.8726    0.3811 H   0  0  0  0  0
   11.5163   78.2544   -0.1901 H   0  0  0  0  0
   11.1123   79.9884   -0.2228 H   0  0  0  0  0
   10.4686   78.9484    1.0715 H   0  0  0  0  0
   14.6519   74.2414   -2.7927 H   0  0  0  0  0
   15.0359   72.5218   -2.4898 H   0  0  0  0  0
   15.3182   74.7950   -0.4742 H   0  0  0  0  0
   15.7008   73.0823   -0.1725 H   0  0  0  0  0
   16.6554   74.0132   -1.3527 H   0  0  0  0  0
   12.7266   75.2921   -3.7182 H   0  0  0  0  0
   11.1322   74.6999   -4.2343 H   0  0  0  0  0
   13.6473   74.7695   -5.9570 H   0  0  0  0  0
   12.0499   74.1761   -6.4740 H   0  0  0  0  0
   12.2743   75.8972   -6.0757 H   0  0  0  0  0
    7.9560   75.1513   -3.6317 H   0  0  0  0  0
    7.2608   73.8190   -4.6245 H   0  0  0  0  0
    9.0445   76.0513   -5.6204 H   0  0  0  0  0
    8.3572   74.7341   -6.6019 H   0  0  0  0  0
    7.2822   75.9376   -5.8490 H   0  0  0  0  0
    8.3586   70.3564   -2.1675 H   0  0  0  0  0
   10.0985   70.5194   -1.8899 H   0  0  0  0  0
    8.7952   68.8725   -4.0681 H   0  0  0  0  0
   10.5462   69.0366   -3.7888 H   0  0  0  0  0
    9.5207   68.2411   -2.5695 H   0  0  0  0  0
  1  2  4  0  0  0
  1  6  4  0  0  0
  1 12  1  0  0  0
  2  3  4  0  0  0
  2 11  1  0  0  0
  3  4  4  0  0  0
  3 13  1  0  0  0
  4  5  4  0  0  0
  5  6  4  0  0  0
  5  7  1  0  0  0
  7  8  2  0  0  0
  8  9  1  0  0  0
  8 10  1  0  0  0
  9 20  2  0  0  0
  9 21  1  0  0  0
  9 24  1  0  0  0
 10 27  2  0  0  0
 10 28  1  0  0  0
 10 31  1  0  0  0
 12 14  1  0  0  0
 12 15  1  0  0  0
 12 16  1  0  0  0
 13 17  1  0  0  0
 13 18  1  0  0  0
 13 19  1  0  0  0
 21 22  1  0  0  0
 22 23  1  0  0  0
 24 25  1  0  0  0
 25 26  1  0  0  0
 28 29  1  0  0  0
 29 30  1  0  0  0
 31 32  1  0  0  0
 32 33  1  0  0  0
  4 34  1  0  0  0
  6 35  1  0  0  0
  7 36  1  0  0  0
 11 37  1  0  0  0
 14 38  1  0  0  0
 14 39  1  0  0  0
 14 40  1  0  0  0
 15 41  1  0  0  0
 15 42  1  0  0  0
 15 43  1  0  0  0
 16 44  1  0  0  0
 16 45  1  0  0  0
 16 46  1  0  0  0
 17 47  1  0  0  0
 17 48  1  0  0  0
 17 49  1  0  0  0
 18 50  1  0  0  0
 18 51  1  0  0  0
 18 52  1  0  0  0
 19 53  1  0  0  0
 19 54  1  0  0  0
 19 55  1  0  0  0
 22 56  1  0  0  0
 22 57  1  0  0  0
 23 58  1  0  0  0
 23 59  1  0  0  0
 23 60  1  0  0  0
 25 61  1  0  0  0
 25 62  1  0  0  0
 26 63  1  0  0  0
 26 64  1  0  0  0
 26 65  1  0  0  0
 29 66  1  0  0  0
 29 67  1  0  0  0
 30 68  1  0  0  0
 30 69  1  0  0  0
 30 70  1  0  0  0
 32 71  1  0  0  0
 32 72  1  0  0  0
 33 73  1  0  0  0
 33 74  1  0  0  0
 33 75  1  0  0  0
M  END
$$$$
