3udp_ligand
  -I-interpret- 

 48 52  0  0  0  0  0  0  0  0999 V2000
   26.3070   37.6460   40.0520 C   0  0  0  0  0
   26.8700   37.7740   41.3100 C   0  0  0  0  0
   25.0310   37.1400   39.9050 C   0  0  0  0  0
   26.1700   37.3990   42.4430 C   0  0  0  0  0
   17.0550   39.3990   45.0130 C   0  0  0  0  0
   16.7770   40.3370   44.0390 C   0  0  0  0  0
   17.5240   38.7800   42.3940 C   0  0  0  0  0
   24.3350   36.7850   41.0390 C   0  0  0  0  0
   17.7910   37.8370   43.3600 C   0  0  0  0  0
   24.8940   36.9250   42.2720 C   0  0  0  0  0
   17.5600   38.1490   44.6920 C   0  0  0  0  0
   17.0120   40.0110   42.7220 C   0  0  0  0  0
   22.8520   36.0300   42.6510 C   0  0  0  0  0
   19.7640   35.9780   41.0520 C   0  0  0  0  0
   18.9590   35.7260   43.9620 C   0  0  0  0  0
   21.8790   37.2890   40.8660 C   0  0  0  0  0
   22.6990   35.0290   40.3870 C   0  0  0  0  0
   17.9220   35.4870   45.0380 C   0  0  0  0  0
   18.3570   36.5430   42.8420 C   0  0  0  0  0
   20.8170   36.5110   40.1290 C   0  0  0  0  0
   22.9530   36.2800   41.1750 C   0  0  0  0  0
   24.0060   36.4810   43.2470 N   0  0  0  0  0
   21.5520   35.3660   39.5350 N   0  3  0  0  0
   21.8650   35.5650   43.1960 O   0  0  0  0  0
   19.3100   34.8470   40.9720 O   0  0  0  0  0
   19.4130   36.9230   41.9530 O   0  0  0  0  0
   17.8530   36.9970   46.0290 S   0  0  0  0  0
   16.6780   41.2460   41.3160 Br  0  0  0  0  0
   26.8749   37.9467   39.1716 H   0  0  0  0  0
   27.8784   38.1756   41.4094 H   0  0  0  0  0
   24.5859   37.0244   38.9168 H   0  0  0  0  0
   26.6158   37.4773   43.4346 H   0  0  0  0  0
   16.8731   39.6473   46.0586 H   0  0  0  0  0
   16.3795   41.3159   44.3071 H   0  0  0  0  0
   17.7228   38.5451   41.3483 H   0  0  0  0  0
   19.2961   34.7674   43.5675 H   0  0  0  0  0
   19.8030   36.2675   44.3893 H   0  0  0  0  0
   21.4866   37.7529   41.7709 H   0  0  0  0  0
   22.2611   38.1176   40.2698 H   0  0  0  0  0
   22.4960   34.1724   41.0297 H   0  0  0  0  0
   23.5691   34.7264   39.8043 H   0  0  0  0  0
   18.1893   34.6281   45.6536 H   0  0  0  0  0
   16.9494   35.2631   44.5997 H   0  0  0  0  0
   17.5798   35.9445   42.3668 H   0  0  0  0  0
   20.3051   37.1417   39.4022 H   0  0  0  0  0
   24.1841   36.4889   44.2513 H   0  0  0  0  0
   20.9301   34.5605   39.4663 H   0  0  0  0  0
   21.8819   35.6190   38.6036 H   0  0  0  0  0
  1  2  4  0  0  0
  3  1  4  0  0  0
  4  2  4  0  0  0
  8  3  4  0  0  0
 10  4  4  0  0  0
  5  6  4  0  0  0
 11  5  4  0  0  0
 12  6  4  0  0  0
  9  7  4  0  0  0
  7 12  4  0  0  0
  8 10  4  0  0  0
 21  8  1  0  0  0
  9 11  4  0  0  0
 19  9  1  0  0  0
 22 10  1  0  0  0
 11 27  1  0  0  0
 12 28  1  0  0  0
 21 13  1  0  0  0
 13 22  1  0  0  0
 13 24  2  0  0  0
 14 20  1  0  0  0
 14 25  2  0  0  0
 26 14  1  0  0  0
 15 18  1  0  0  0
 19 15  1  0  0  0
 20 16  1  0  0  0
 16 21  1  0  0  0
 21 17  1  0  0  0
 17 23  1  0  0  0
 18 27  1  0  0  0
 19 26  1  0  0  0
 20 23  1  0  0  0
  1 29  1  0  0  0
  2 30  1  0  0  0
  3 31  1  0  0  0
  4 32  1  0  0  0
  5 33  1  0  0  0
  6 34  1  0  0  0
  7 35  1  0  0  0
 15 36  1  0  0  0
 15 37  1  0  0  0
 16 38  1  0  0  0
 16 39  1  0  0  0
 17 40  1  0  0  0
 17 41  1  0  0  0
 18 42  1  0  0  0
 18 43  1  0  0  0
 19 44  1  0  0  0
 20 45  1  0  0  0
 22 46  1  0  0  0
 23 47  1  0  0  0
 23 48  1  0  0  0
M  END
$$$$
