### 
### Created by X-TOOL on Mon Sep 10 21:12:44 2018
### 

@<TRIPOS>MOLECULE
1p05_ligand
   58    58     1     0     0
SMALL
GAST_HUCK


@<TRIPOS>ATOM
      1 N          12.9440   41.7830   18.8940 N.4       1 ALA         0.2377
      2 CA         13.8150   40.5800   18.7510 C.3       1 ALA         0.0621
      3 C          13.0200   39.2630   18.8870 C.2       1 ALA         0.2264
      4 O          12.2360   39.1110   19.8630 O.2       1 ALA        -0.3907
      5 CB         15.0450   40.3610   19.6210 C.3       1 ALA        -0.0040
      6 N          13.3140   38.3960   17.9150 N.am      1 ALA        -0.2613
      7 CA         12.6170   37.0890   18.0380 C.3       1 ALA         0.1285
      8 C          13.6330   36.0040   17.7400 C.2       1 ALA         0.2061
      9 O          14.4910   36.3140   16.9110 O.2       1 ALA        -0.3942
     10 CB         11.4930   36.9950   17.0470 C.3       1 ALA        -0.0244
     11 N          13.4070   34.8540   18.3470 N.am      1 PRO        -0.2498
     12 CA         14.2080   33.6660   18.0300 C.3       1 PRO         0.1336
     13 C          13.8360   33.2160   16.5940 C.2       1 PRO         0.2010
     14 O          12.6360   33.2990   16.1740 O.2       1 PRO        -0.3946
     15 CB         13.7770   32.7010   19.1590 C.3       1 PRO        -0.0104
     16 CG         12.5430   33.1990   19.8550 C.3       1 PRO        -0.0281
     17 CD         12.2860   34.5590   19.2530 C.3       1 PRO         0.0369
     18 N          14.7770   32.7320   15.8430 N.am      1 BNO        -0.2918
     19 CA         14.5460   32.2800   14.4540 C.3       1 BNO         0.0532
     20 CB         15.5140   33.1260   13.5360 C.3       1 BNO        -0.0388
     21 CG         15.2110   34.5910   13.7810 C.3       1 BNO        -0.0524
     22 CD         14.2560   35.0990   12.7050 C.3       1 BNO        -0.0559
     23 CE         13.2090   35.9390   13.4870 C.3       1 BNO        -0.0653
     24 B          14.8100   30.7490   14.1940 B         1 BNO         0.7163
     25 O1         14.8120   30.2650   12.7610 O.3       1 BNO        -0.4967
     26 O2         13.9420   30.0090   15.1760 O.3       1 BNO        -0.4967
     27 H1         13.5034   42.6161   18.7985 H         1 ALA         0.2015
     28 H2         12.5059   41.7747   19.8018 H         1 ALA         0.2015
     29 H3         12.2343   41.7710   18.1783 H         1 ALA         0.2015
     30 H4         14.1889   40.6400   17.7183 H         1 ALA         0.1095
     31 H5         15.5290   39.4141   19.3399 H         1 ALA         0.0310
     32 H6         14.7437   40.3190   20.6781 H         1 ALA         0.0310
     33 H7         15.7510   41.1915   19.4736 H         1 ALA         0.0310
     34 H8         13.9470   38.6073   17.1703 H         1 ALA         0.1884
     35 H9         12.2209   36.9697   19.0573 H         1 ALA         0.0797
     36 H10        10.9905   36.0223   17.1537 H         1 ALA         0.0277
     37 H11        11.8943   37.0905   16.0273 H         1 ALA         0.0277
     38 H12        10.7707   37.8032   17.2340 H         1 ALA         0.0277
     39 H13        15.2885   33.8657   18.0821 H         1 PRO         0.0802
     40 H14        14.5935   32.6177   19.8914 H         1 PRO         0.0313
     41 H15        13.5703   31.7112   18.7260 H         1 PRO         0.0313
     42 H16        12.7149   33.2806   20.9384 H         1 PRO         0.0287
     43 H17        11.6937   32.5254   19.6682 H         1 PRO         0.0287
     44 H18        11.3402   34.5496   18.6914 H         1 PRO         0.0524
     45 H19        12.2335   35.3185   20.0470 H         1 PRO         0.0524
     46 H20        15.7003   32.6614   16.2206 H         1 BNO         0.1840
     47 H21        13.5004   32.4946   14.1881 H         1 BNO         0.0431
     48 H22        15.3401   32.8785   12.4784 H         1 BNO         0.0275
     49 H23        16.5610   32.9107   13.7956 H         1 BNO         0.0275
     50 H24        16.1456   35.1699   13.7448 H         1 BNO         0.0265
     51 H25        14.7448   34.7087   14.7703 H         1 BNO         0.0265
     52 H26        13.7720   34.2590   12.1853 H         1 BNO         0.0263
     53 H27        14.7896   35.7241   11.9739 H         1 BNO         0.0263
     54 H28        12.4701   36.3507   12.7838 H         1 BNO         0.0230
     55 H29        13.7165   36.7631   14.0097 H         1 BNO         0.0230
     56 H30        12.6990   35.2980   14.2211 H         1 BNO         0.0230
     57 H31        15.3944   30.8099   12.2447 H         1 BNO         0.1667
     58 H32        14.0276   30.4063   16.0347 H         1 BNO         0.1667
@<TRIPOS>BOND
     1    1    2 1  
     2    2    3 1  
     3    2    5 1  
     4    3    4 2  
     5    3    6 am 
     6    6    7 1  
     7    7    8 1  
     8    7   10 1  
     9    8    9 2  
    10    8   11 am 
    11   11   12 1  
    12   11   17 1  
    13   12   13 1  
    14   12   15 1  
    15   13   14 2  
    16   13   18 am 
    17   15   16 1  
    18   16   17 1  
    19   18   19 1  
    20   19   20 1  
    21   19   24 1  
    22   20   21 1  
    23   21   22 1  
    24   22   23 1  
    25   24   25 1  
    26   24   26 1  
    27    1   27 1  
    28    1   28 1  
    29    1   29 1  
    30    2   30 1  
    31    5   31 1  
    32    5   32 1  
    33    5   33 1  
    34    6   34 1  
    35    7   35 1  
    36   10   36 1  
    37   10   37 1  
    38   10   38 1  
    39   12   39 1  
    40   15   40 1  
    41   15   41 1  
    42   16   42 1  
    43   16   43 1  
    44   17   44 1  
    45   17   45 1  
    46   18   46 1  
    47   19   47 1  
    48   20   48 1  
    49   20   49 1  
    50   21   50 1  
    51   21   51 1  
    52   22   52 1  
    53   22   53 1  
    54   23   54 1  
    55   23   55 1  
    56   23   56 1  
    57   25   57 1  
    58   26   58 1  
@<TRIPOS>SUBSTRUCTURE
     1 ALA         1

