1p05_ligand
  -I-interpret- 

 58 58  0  0  0  0  0  0  0  0999 V2000
   12.9440   41.7830   18.8940 N   0  3  0  0  0
   13.8150   40.5800   18.7510 C   0  0  0  0  0
   13.0200   39.2630   18.8870 C   0  0  0  0  0
   12.2360   39.1110   19.8630 O   0  0  0  0  0
   15.0450   40.3610   19.6210 C   0  0  0  0  0
   13.3140   38.3960   17.9150 N   0  0  0  0  0
   12.6170   37.0890   18.0380 C   0  0  0  0  0
   13.6330   36.0040   17.7400 C   0  0  0  0  0
   14.4910   36.3140   16.9110 O   0  0  0  0  0
   11.4930   36.9950   17.0470 C   0  0  0  0  0
   13.4070   34.8540   18.3470 N   0  0  0  0  0
   14.2080   33.6660   18.0300 C   0  0  0  0  0
   13.8360   33.2160   16.5940 C   0  0  0  0  0
   12.6360   33.2990   16.1740 O   0  0  0  0  0
   13.7770   32.7010   19.1590 C   0  0  0  0  0
   12.5430   33.1990   19.8550 C   0  0  0  0  0
   12.2860   34.5590   19.2530 C   0  0  0  0  0
   14.7770   32.7320   15.8430 N   0  0  0  0  0
   14.5460   32.2800   14.4540 C   0  0  0  0  0
   15.5140   33.1260   13.5360 C   0  0  0  0  0
   15.2110   34.5910   13.7810 C   0  0  0  0  0
   14.2560   35.0990   12.7050 C   0  0  0  0  0
   13.2090   35.9390   13.4870 C   0  0  0  0  0
   14.8100   30.7490   14.1940 B   0  0  0  0  0
   14.8120   30.2650   12.7610 O   0  0  0  0  0
   13.9420   30.0090   15.1760 O   0  0  0  0  0
   12.1813   41.7313   18.2187 H   0  0  0  0  0
   12.5615   41.8139   19.8390 H   0  0  0  0  0
   13.4959   42.6233   18.7217 H   0  0  0  0  0
   14.1960   40.8296   17.7607 H   0  0  0  0  0
   14.7330   40.1738   20.6485 H   0  0  0  0  0
   15.6044   39.5032   19.2478 H   0  0  0  0  0
   15.6751   41.2498   19.5874 H   0  0  0  0  0
   13.9597   38.6115   17.1554 H   0  0  0  0  0
   12.2006   36.9813   19.0396 H   0  0  0  0  0
   11.8868   37.1273   16.0393 H   0  0  0  0  0
   11.0198   36.0164   17.1280 H   0  0  0  0  0
   10.7593   37.7733   17.2568 H   0  0  0  0  0
   15.2926   33.7727   18.0099 H   0  0  0  0  0
   14.5850   32.6339   19.8875 H   0  0  0  0  0
   13.5609   31.7265   18.7210 H   0  0  0  0  0
   12.6786   33.2515   20.9353 H   0  0  0  0  0
   11.6973   32.5258   19.7147 H   0  0  0  0  0
   11.3415   34.5652   18.7089 H   0  0  0  0  0
   12.2144   35.3164   20.0335 H   0  0  0  0  0
   15.7187   32.6600   16.2282 H   0  0  0  0  0
   13.4883   32.4277   14.2360 H   0  0  0  0  0
   15.3593   32.8754   12.4865 H   0  0  0  0  0
   16.5545   32.9070   13.7759 H   0  0  0  0  0
   16.1371   35.1647   13.7454 H   0  0  0  0  0
   14.7493   34.7077   14.7615 H   0  0  0  0  0
   13.7946   34.2838   12.1476 H   0  0  0  0  0
   14.7697   35.6877   11.9450 H   0  0  0  0  0
   12.7044   35.3027   14.2141 H   0  0  0  0  0
   13.7131   36.7552   14.0045 H   0  0  0  0  0
   12.4774   36.3464   12.7892 H   0  0  0  0  0
   14.9835   29.3206   12.7436 H   0  0  0  0  0
   14.0644   29.0638   15.0607 H   0  0  0  0  0
  1  2  1  0  0  0
  2  3  1  0  0  0
  2  5  1  0  0  0
  3  4  2  0  0  0
  3  6  1  0  0  0
  6  7  1  0  0  0
  7  8  1  0  0  0
  7 10  1  0  0  0
  8  9  2  0  0  0
  8 11  1  0  0  0
 11 12  1  0  0  0
 11 17  1  0  0  0
 12 13  1  0  0  0
 12 15  1  0  0  0
 13 14  2  0  0  0
 13 18  1  0  0  0
 15 16  1  0  0  0
 16 17  1  0  0  0
 18 19  1  0  0  0
 19 20  1  0  0  0
 19 24  1  0  0  0
 20 21  1  0  0  0
 21 22  1  0  0  0
 22 23  1  0  0  0
 24 25  1  0  0  0
 24 26  1  0  0  0
  1 27  1  0  0  0
  1 28  1  0  0  0
  1 29  1  0  0  0
  2 30  1  0  0  0
  5 31  1  0  0  0
  5 32  1  0  0  0
  5 33  1  0  0  0
  6 34  1  0  0  0
  7 35  1  0  0  0
 10 36  1  0  0  0
 10 37  1  0  0  0
 10 38  1  0  0  0
 12 39  1  0  0  0
 15 40  1  0  0  0
 15 41  1  0  0  0
 16 42  1  0  0  0
 16 43  1  0  0  0
 17 44  1  0  0  0
 17 45  1  0  0  0
 18 46  1  0  0  0
 19 47  1  0  0  0
 20 48  1  0  0  0
 20 49  1  0  0  0
 21 50  1  0  0  0
 21 51  1  0  0  0
 22 52  1  0  0  0
 22 53  1  0  0  0
 23 54  1  0  0  0
 23 55  1  0  0  0
 23 56  1  0  0  0
 25 57  1  0  0  0
 26 58  1  0  0  0
M  END
$$$$
