6d3y_ligand
  -I-interpret- 

213219  0  0  0  0  0  0  0  0999 V2000
    0.0350    8.7950   41.5520 N   0  0  0  0  0
    0.9290    9.1420   40.4650 C   0  0  0  0  0
    0.3820    8.9360   39.0630 C   0  0  0  0  0
    0.9980    9.3880   38.0950 O   0  0  0  0  0
   -0.7520    8.2490   38.9290 N   0  0  0  0  0
   -1.3560    8.0840   37.6090 C   0  0  0  0  0
   -1.8990    9.4240   37.1390 C   0  0  0  0  0
   -2.5670   10.1300   37.9010 O   0  0  0  0  0
   -2.5200    7.0870   37.6740 C   0  0  0  0  0
   -2.1310    5.6500   37.9530 C   0  0  0  0  0
   -3.1920    4.6590   37.4530 C   0  0  0  0  0
   -4.5570    4.9600   37.8960 N   0  0  0  0  0
   -5.6020    5.1240   37.0870 C   0  0  0  0  0
   -5.4520    5.0440   35.7670 N   0  0  0  0  0
   -6.8070    5.3690   37.5940 N   0  0  0  0  0
   -1.6340    9.7710   35.8780 N   0  0  0  0  0
   -2.2590   10.9270   35.2490 C   0  0  0  0  0
   -2.7930   10.5140   33.8890 C   0  0  0  0  0
   -2.0910    9.8630   33.1070 O   0  0  0  0  0
   -1.3040   12.1250   35.0680 C   0  0  0  0  0
   -0.8440   13.0240   36.5800 S   0  0  0  0  0
   -4.0360   10.8960   33.6080 N   0  0  0  0  0
   -4.5440   10.6800   32.2650 C   0  0  0  0  0
   -3.8420   11.6030   31.2790 C   0  0  0  0  0
   -3.2010   12.5920   31.6480 O   0  0  0  0  0
   -6.0450   10.9450   32.2050 C   0  0  0  0  0
   -6.2960   12.3450   32.3870 O   0  0  0  0  0
   -6.7860   10.1150   33.2510 C   0  0  0  0  0
   -3.9840   11.2750   29.9950 N   0  0  0  0  0
   -3.3180   12.0070   28.9260 C   0  0  0  0  0
   -4.2560   12.9740   28.2140 C   0  0  0  0  0
   -4.1360   13.2070   27.0080 O   0  0  0  0  0
   -2.5980   11.0370   27.9980 C   0  0  0  0  0
   -1.4040   10.4300   28.7500 C   0  0  0  0  0
   -0.6350    9.4180   27.9630 C   0  0  0  0  0
    0.4600    8.8330   28.8350 C   0  0  0  0  0
    1.2360    7.8210   28.1070 N   0  3  0  0  0
   -5.2020   13.5370   28.9550 N   0  0  0  0  0
   -6.0910   14.5710   28.4570 C   0  0  0  0  0
   -5.5040   15.9560   28.7330 C   0  0  0  0  0
   -4.5660   16.1230   29.5150 O   0  0  0  0  0
   -7.4610   14.4310   29.1300 C   0  0  0  0  0
   -7.3280   14.3340   30.5560 O   0  0  0  0  0
   -6.0800   16.9610   28.0820 N   0  0  0  0  0
   -5.7770   18.3550   28.3910 C   0  0  0  0  0
   -6.9970   18.9840   29.0480 C   0  0  0  0  0
   -8.0260   19.1670   28.3810 O   0  0  0  0  0
   -5.4070   19.1150   27.1120 C   0  0  0  0  0
   -5.0750   20.5820   27.3510 C   0  0  0  0  0
   -4.8240   21.3280   26.0500 C   0  0  0  0  0
   -6.0610   21.6000   25.3250 N   0  0  0  0  0
   -6.8940   22.5960   25.6110 C   0  0  0  0  0
   -6.6270   23.4240   26.6150 N   0  0  0  0  0
   -7.9930   22.7670   24.8920 N   0  0  0  0  0
   -6.9630   19.2930   30.3540 N   0  0  0  0  0
   -5.8530   19.0520   31.2800 C   0  0  0  0  0
   -5.8600   17.6110   31.7840 C   0  0  0  0  0
   -6.8660   16.9180   31.6190 O   0  0  0  0  0
   -6.1580   20.0210   32.4270 C   0  0  0  0  0
   -7.6460   20.0520   32.4710 C   0  0  0  0  0
   -8.1160   19.9150   31.0320 C   0  0  0  0  0
   -4.7450   17.1590   32.3550 N   0  0  0  0  0
   -4.6880   15.7910   32.8840 C   0  0  0  0  0
   -5.5210   15.6510   34.1450 C   0  0  0  0  0
   -5.6770   16.5910   34.9300 O   0  0  0  0  0
   -3.2020   15.6050   33.2100 C   0  0  0  0  0
   -2.7200   16.9830   33.4710 C   0  0  0  0  0
   -3.4580   17.8600   32.5040 C   0  0  0  0  0
   -6.0520   14.4490   34.3300 N   0  0  0  0  0
   -6.7200   14.0530   35.5630 C   0  0  0  0  0
   -5.7260   13.1960   36.3290 C   0  0  0  0  0
   -5.2530   12.1790   35.8120 O   0  0  0  0  0
   -7.9940   13.2570   35.2470 C   0  0  0  0  0
   -8.9990   14.1470   34.5090 C   0  0  0  0  0
   -8.6090   12.6770   36.5110 C   0  0  0  0  0
   -9.9860   13.3900   33.6460 C   0  0  0  0  0
   -5.3820   13.6080   37.5500 N   0  0  0  0  0
   -4.2950   12.9740   38.2820 C   0  0  0  0  0
   -4.7810   12.3800   39.5960 C   0  0  0  0  0
   -5.7800   12.8190   40.1820 O   0  0  0  0  0
   -3.1280   13.9370   38.5430 C   0  0  0  0  0
   -2.2680   14.4660   37.0270 S   0  0  0  0  0
   -4.0420   11.3840   40.0620 N   0  0  0  0  0
   -4.3850   10.6150   41.2450 C   0  0  0  0  0
   -3.2200   10.6170   42.2240 C   0  0  0  0  0
   -2.0690   10.8190   41.8300 O   0  0  0  0  0
   -4.7280    9.1730   40.8380 C   0  0  0  0  0
   -5.9440    9.0770   39.9470 C   0  0  0  0  0
   -7.2110    8.9590   40.4880 C   0  0  0  0  0
   -5.8170    9.1450   38.5720 C   0  0  0  0  0
   -8.3340    8.8860   39.6570 C   0  0  0  0  0
   -6.9230    9.0800   37.7470 C   0  0  0  0  0
   -8.1810    8.9470   38.2880 C   0  0  0  0  0
   -3.4940   10.4120   43.5120 N   0  0  0  0  0
   -2.4080   10.4660   44.5080 C   0  0  0  0  0
   -1.2940    9.4580   44.2800 C   0  0  0  0  0
   -0.1570    9.7030   44.7090 O   0  0  0  0  0
   -3.1410   10.2250   45.8370 C   0  0  0  0  0
   -4.5270   10.7090   45.5770 C   0  0  0  0  0
   -4.8230   10.3540   44.1440 C   0  0  0  0  0
   -1.5780    8.3320   43.6310 N   0  0  0  0  0
   -0.5500    7.3170   43.3840 C   0  0  0  0  0
    0.3100    7.6430   42.1690 C   0  0  0  0  0
    1.2390    6.8970   41.8560 O   0  0  0  0  0
   -1.1760    5.9250   43.2300 C   0  0  0  0  0
   -1.7590    5.6830   41.8390 C   0  0  0  0  0
   -2.1960    6.6480   41.1660 O   0  0  0  0  0
   -1.7830    4.5000   41.4290 O   0  0  0  0  0
    0.0740    8.6520   41.5020 O   0  0  0  0  0
    1.8740    9.5726   40.1338 H   0  0  0  0  0
   -1.1987    7.8380   39.7487 H   0  0  0  0  0
   -0.5969    7.7119   36.9210 H   0  0  0  0  0
   -2.9924    7.0961   36.6917 H   0  0  0  0  0
   -3.1547    7.4036   38.5017 H   0  0  0  0  0
   -2.0315    5.5272   39.0315 H   0  0  0  0  0
   -1.1974    5.4421   37.4302 H   0  0  0  0  0
   -2.9324    3.6807   37.8576 H   0  0  0  0  0
   -3.1901    4.7101   36.3642 H   0  0  0  0  0
   -4.7182    5.0506   38.8991 H   0  0  0  0  0
   -6.2572    5.1702   35.1536 H   0  0  0  0  0
   -4.5319    4.8565   35.3687 H   0  0  0  0  0
   -6.9321    5.4316   38.6044 H   0  0  0  0  0
   -0.9744    9.2103   35.3386 H   0  0  0  0  0
   -3.0563   11.2578   35.9146 H   0  0  0  0  0
   -1.8313   12.8410   34.4376 H   0  0  0  0  0
   -0.3777   11.7165   34.6640 H   0  0  0  0  0
   -4.6203   11.3318   34.3215 H   0  0  0  0  0
   -4.3505    9.6408   31.9989 H   0  0  0  0  0
   -6.4177   10.6467   31.2251 H   0  0  0  0  0
   -7.2414   12.5071   32.3485 H   0  0  0  0  0
   -6.6084    9.0558   33.0649 H   0  0  0  0  0
   -6.4224   10.3766   34.2447 H   0  0  0  0  0
   -7.8542   10.3223   33.1874 H   0  0  0  0  0
   -4.5800   10.4836   29.7523 H   0  0  0  0  0
   -2.5536   12.6498   29.3625 H   0  0  0  0  0
   -2.2474   11.5646   27.1110 H   0  0  0  0  0
   -3.2807   10.2461   27.6874 H   0  0  0  0  0
   -1.8018    9.9205   29.6276 H   0  0  0  0  0
   -0.7196   11.2467   28.9798 H   0  0  0  0  0
   -0.1906    9.8953   27.0896 H   0  0  0  0  0
   -1.3054    8.6232   27.6361 H   0  0  0  0  0
   -0.0014    8.3600   29.7018 H   0  0  0  0  0
    1.1321    9.6369   29.1350 H   0  0  0  0  0
    1.9625    7.4472   28.7177 H   0  0  0  0  0
    0.6164    7.0663   27.8122 H   0  0  0  0  0
    1.6663    8.2491   27.2872 H   0  0  0  0  0
   -5.3097   13.2283   29.9212 H   0  0  0  0  0
   -6.2057   14.4568   27.3791 H   0  0  0  0  0
   -7.9398   13.5237   28.7616 H   0  0  0  0  0
   -8.0574   15.3123   28.8942 H   0  0  0  0  0
   -8.1981   14.2474   30.9523 H   0  0  0  0  0
   -6.7535   16.7523   27.3449 H   0  0  0  0  0
   -4.9267   18.4059   29.0711 H   0  0  0  0  0
   -6.2707   19.0787   26.4481 H   0  0  0  0  0
   -4.5178   18.6417   26.6955 H   0  0  0  0  0
   -4.1681   20.6326   27.9536 H   0  0  0  0  0
   -5.9242   21.0466   27.8521 H   0  0  0  0  0
   -4.1898   20.7058   25.4185 H   0  0  0  0  0
   -4.3543   22.2818   26.2904 H   0  0  0  0  0
   -6.3025   20.9854   24.5476 H   0  0  0  0  0
   -7.2674   24.1883   26.8299 H   0  0  0  0  0
   -5.7816   23.2955   27.1710 H   0  0  0  0  0
   -8.2002   22.1346   24.1190 H   0  0  0  0  0
   -4.8740   19.2018   30.8248 H   0  0  0  0  0
   -5.7246   21.0081   32.2659 H   0  0  0  0  0
   -5.7191   19.7006   33.3719 H   0  0  0  0  0
   -8.0066   20.9796   32.9155 H   0  0  0  0  0
   -8.0376   19.2453   33.0907 H   0  0  0  0  0
   -9.0250   19.3202   30.9431 H   0  0  0  0  0
   -8.3960   20.8712   30.5900 H   0  0  0  0  0
   -5.0798   15.0539   32.1831 H   0  0  0  0  0
   -2.6571   15.1222   32.3988 H   0  0  0  0  0
   -3.0443   14.9427   34.0613 H   0  0  0  0  0
   -1.6413   17.0598   33.3344 H   0  0  0  0  0
   -2.9080   17.2816   34.5023 H   0  0  0  0  0
   -3.5688   18.8854   32.8567 H   0  0  0  0  0
   -2.9313   17.9908   31.5587 H   0  0  0  0  0
   -5.9895   13.7692   33.5722 H   0  0  0  0  0
   -7.0225   14.9206   36.1494 H   0  0  0  0  0
   -7.7257   12.4213   34.6007 H   0  0  0  0  0
   -8.4263   14.7963   33.8468 H   0  0  0  0  0
   -9.5761   14.6759   35.2674 H   0  0  0  0  0
   -7.8918   12.0101   36.9895 H   0  0  0  0  0
   -8.8653   13.4872   37.1936 H   0  0  0  0  0
   -9.5092   12.1194   36.2527 H   0  0  0  0  0
   -9.4445   12.8236   32.8884 H   0  0  0  0  0
  -10.5624   12.7065   34.2695 H   0  0  0  0  0
  -10.6593   14.0968   33.1609 H   0  0  0  0  0
   -5.8899   14.3816   37.9788 H   0  0  0  0  0
   -3.9283   12.1683   37.6461 H   0  0  0  0  0
   -2.4027   13.4115   39.1642 H   0  0  0  0  0
   -3.5394   14.8296   39.0143 H   0  0  0  0  0
   -3.1855   11.1443   39.5626 H   0  0  0  0  0
   -5.2502   11.0675   41.7296 H   0  0  0  0  0
   -4.9427    8.6155   41.7497 H   0  0  0  0  0
   -3.8790    8.7772   40.2806 H   0  0  0  0  0
   -7.3357    8.9226   41.5702 H   0  0  0  0  0
   -4.8260    9.2519   38.1309 H   0  0  0  0  0
   -9.3283    8.7811   40.0910 H   0  0  0  0  0
   -6.7989    9.1342   36.6654 H   0  0  0  0  0
   -9.0533    8.8901   37.6369 H   0  0  0  0  0
   -1.8754   11.4160   44.4644 H   0  0  0  0  0
   -2.6700   10.7478   46.6694 H   0  0  0  0  0
   -3.1186    9.1774   46.1373 H   0  0  0  0  0
   -4.6102   11.7828   45.7450 H   0  0  0  0  0
   -5.2428   10.2461   46.2563 H   0  0  0  0  0
   -5.3008    9.3800   44.0383 H   0  0  0  0  0
   -5.5431   11.0281   43.6801 H   0  0  0  0  0
   -2.5291    8.1720   43.2990 H   0  0  0  0  0
    0.1026    7.3181   44.2570 H   0  0  0  0  0
   -1.9907    5.8460   43.9498 H   0  0  0  0  0
   -0.3900    5.1877   43.3934 H   0  0  0  0  0
   -2.0819    7.4612   41.6633 H   0  0  0  0  0
  1  2  1  0  0  0
  1103  1  0  0  0
  1109  1  0  0  0
  2  3  1  0  0  0
  2109  1  0  0  0
  3  4  2  0  0  0
  3  5  1  0  0  0
  5  6  1  0  0  0
  6  7  1  0  0  0
  6  9  1  0  0  0
  7  8  2  0  0  0
  7 16  1  0  0  0
  9 10  1  0  0  0
 10 11  1  0  0  0
 11 12  1  0  0  0
 12 13  1  0  0  0
 13 14  1  0  0  0
 13 15  2  0  0  0
 16 17  1  0  0  0
 17 18  1  0  0  0
 17 20  1  0  0  0
 18 19  2  0  0  0
 18 22  1  0  0  0
 20 21  1  0  0  0
 21 82  1  0  0  0
 22 23  1  0  0  0
 23 24  1  0  0  0
 23 26  1  0  0  0
 24 25  2  0  0  0
 24 29  1  0  0  0
 26 27  1  0  0  0
 26 28  1  0  0  0
 29 30  1  0  0  0
 30 31  1  0  0  0
 30 33  1  0  0  0
 31 32  2  0  0  0
 31 38  1  0  0  0
 33 34  1  0  0  0
 34 35  1  0  0  0
 35 36  1  0  0  0
 36 37  1  0  0  0
 38 39  1  0  0  0
 39 40  1  0  0  0
 39 42  1  0  0  0
 40 41  2  0  0  0
 40 44  1  0  0  0
 42 43  1  0  0  0
 44 45  1  0  0  0
 45 46  1  0  0  0
 45 48  1  0  0  0
 46 47  2  0  0  0
 46 55  1  0  0  0
 48 49  1  0  0  0
 49 50  1  0  0  0
 50 51  1  0  0  0
 51 52  1  0  0  0
 52 53  1  0  0  0
 52 54  2  0  0  0
 55 56  1  0  0  0
 55 61  1  0  0  0
 56 57  1  0  0  0
 56 59  1  0  0  0
 57 58  2  0  0  0
 57 62  1  0  0  0
 59 60  1  0  0  0
 60 61  1  0  0  0
 62 63  1  0  0  0
 62 68  1  0  0  0
 63 64  1  0  0  0
 63 66  1  0  0  0
 64 65  2  0  0  0
 64 69  1  0  0  0
 66 67  1  0  0  0
 67 68  1  0  0  0
 69 70  1  0  0  0
 70 71  1  0  0  0
 70 73  1  0  0  0
 71 72  2  0  0  0
 71 77  1  0  0  0
 73 74  1  0  0  0
 73 75  1  0  0  0
 74 76  1  0  0  0
 77 78  1  0  0  0
 78 79  1  0  0  0
 78 81  1  0  0  0
 79 80  2  0  0  0
 79 83  1  0  0  0
 81 82  1  0  0  0
 83 84  1  0  0  0
 84 85  1  0  0  0
 84 87  1  0  0  0
 85 86  2  0  0  0
 85 94  1  0  0  0
 87 88  1  0  0  0
 88 89  4  0  0  0
 88 90  4  0  0  0
 89 91  4  0  0  0
 90 92  4  0  0  0
 91 93  4  0  0  0
 92 93  4  0  0  0
 94 95  1  0  0  0
 94100  1  0  0  0
 95 96  1  0  0  0
 95 98  1  0  0  0
 96 97  2  0  0  0
 96101  1  0  0  0
 98 99  1  0  0  0
 99100  1  0  0  0
101102  1  0  0  0
102103  1  0  0  0
102105  1  0  0  0
103104  2  0  0  0
105106  1  0  0  0
106107  1  0  0  0
106108  2  0  0  0
  2110  1  0  0  0
  5111  1  0  0  0
  6112  1  0  0  0
  9113  1  0  0  0
  9114  1  0  0  0
 10115  1  0  0  0
 10116  1  0  0  0
 11117  1  0  0  0
 11118  1  0  0  0
 12119  1  0  0  0
 14120  1  0  0  0
 14121  1  0  0  0
 15122  1  0  0  0
 16123  1  0  0  0
 17124  1  0  0  0
 20125  1  0  0  0
 20126  1  0  0  0
 22127  1  0  0  0
 23128  1  0  0  0
 26129  1  0  0  0
 27130  1  0  0  0
 28131  1  0  0  0
 28132  1  0  0  0
 28133  1  0  0  0
 29134  1  0  0  0
 30135  1  0  0  0
 33136  1  0  0  0
 33137  1  0  0  0
 34138  1  0  0  0
 34139  1  0  0  0
 35140  1  0  0  0
 35141  1  0  0  0
 36142  1  0  0  0
 36143  1  0  0  0
 37144  1  0  0  0
 37145  1  0  0  0
 37146  1  0  0  0
 38147  1  0  0  0
 39148  1  0  0  0
 42149  1  0  0  0
 42150  1  0  0  0
 43151  1  0  0  0
 44152  1  0  0  0
 45153  1  0  0  0
 48154  1  0  0  0
 48155  1  0  0  0
 49156  1  0  0  0
 49157  1  0  0  0
 50158  1  0  0  0
 50159  1  0  0  0
 51160  1  0  0  0
 53161  1  0  0  0
 53162  1  0  0  0
 54163  1  0  0  0
 56164  1  0  0  0
 59165  1  0  0  0
 59166  1  0  0  0
 60167  1  0  0  0
 60168  1  0  0  0
 61169  1  0  0  0
 61170  1  0  0  0
 63171  1  0  0  0
 66172  1  0  0  0
 66173  1  0  0  0
 67174  1  0  0  0
 67175  1  0  0  0
 68176  1  0  0  0
 68177  1  0  0  0
 69178  1  0  0  0
 70179  1  0  0  0
 73180  1  0  0  0
 74181  1  0  0  0
 74182  1  0  0  0
 75183  1  0  0  0
 75184  1  0  0  0
 75185  1  0  0  0
 76186  1  0  0  0
 76187  1  0  0  0
 76188  1  0  0  0
 77189  1  0  0  0
 78190  1  0  0  0
 81191  1  0  0  0
 81192  1  0  0  0
 83193  1  0  0  0
 84194  1  0  0  0
 87195  1  0  0  0
 87196  1  0  0  0
 89197  1  0  0  0
 90198  1  0  0  0
 91199  1  0  0  0
 92200  1  0  0  0
 93201  1  0  0  0
 95202  1  0  0  0
 98203  1  0  0  0
 98204  1  0  0  0
 99205  1  0  0  0
 99206  1  0  0  0
100207  1  0  0  0
100208  1  0  0  0
101209  1  0  0  0
102210  1  0  0  0
105211  1  0  0  0
105212  1  0  0  0
107213  1  0  0  0
M  END
$$$$
