### 
### Created by X-TOOL on Mon Aug  2 16:12:54 2021
### 

@<TRIPOS>MOLECULE
6d3y_ligand
  214   220     1     0     0
SMALL
GAST_HUCK


@<TRIPOS>ATOM
      1 N           0.0350    8.7950   41.5520 N.am      1 GLY        -0.0891
      2 CA          0.9290    9.1420   40.4650 C.3       1 GLY         0.2896
      3 C           0.3820    8.9360   39.0630 C.2       1 GLY         0.2370
      4 O           0.9980    9.3880   38.0950 O.2       1 GLY        -0.3915
      5 N          -0.7520    8.2490   38.9290 N.am      1 GLY        -0.2615
      6 CA         -1.3560    8.0840   37.6090 C.3       1 GLY         0.1312
      7 C          -1.8990    9.4240   37.1390 C.2       1 GLY         0.2039
      8 O          -2.5670   10.1300   37.9010 O.2       1 GLY        -0.3944
      9 CB         -2.5200    7.0870   37.6740 C.3       1 GLY        -0.0092
     10 CG         -2.1310    5.6500   37.9530 C.3       1 GLY        -0.0156
     11 CD         -3.1920    4.6590   37.4530 C.3       1 GLY         0.0627
     12 NE         -4.5570    4.9600   37.8960 N.pl3     1 GLY        -0.2723
     13 CZ         -5.6020    5.1240   37.0870 C.cat     1 GLY         0.2882
     14 NH1        -5.4520    5.0440   35.7670 N.pl3     1 GLY        -0.2849
     15 NH2        -6.8070    5.3690   37.5940 N.pl3     1 GLY        -0.2849
     16 N          -1.6340    9.7710   35.8780 N.am      1 GLY        -0.2629
     17 CA         -2.2590   10.9270   35.2490 C.3       1 GLY         0.1406
     18 C          -2.7930   10.5140   33.8890 C.2       1 GLY         0.2048
     19 O          -2.0910    9.8630   33.1070 O.2       1 GLY        -0.3944
     20 CB         -1.3040   12.1250   35.0680 C.3       1 GLY         0.0443
     21 SG         -0.8440   13.0240   36.5800 S.3       1 GLY        -0.0882
     22 N          -4.0360   10.8960   33.6080 N.am      1 GLY        -0.2613
     23 CA         -4.5440   10.6800   32.2650 C.3       1 GLY         0.1565
     24 C          -3.8420   11.6030   31.2790 C.2       1 GLY         0.2065
     25 O          -3.2010   12.5920   31.6480 O.2       1 GLY        -0.3943
     26 CB         -6.0450   10.9450   32.2050 C.3       1 GLY         0.0924
     27 OG1        -6.2960   12.3450   32.3870 O.3       1 GLY        -0.3874
     28 CG2        -6.7860   10.1150   33.2510 C.3       1 GLY        -0.0346
     29 N          -3.9840   11.2750   29.9950 N.am      1 GLY        -0.2637
     30 CA         -3.3180   12.0070   28.9260 C.3       1 GLY         0.1310
     31 C          -4.2560   12.9740   28.2140 C.2       1 GLY         0.2040
     32 O          -4.1360   13.2070   27.0080 O.2       1 GLY        -0.3944
     33 CB         -2.5980   11.0370   27.9980 C.3       1 GLY        -0.0122
     34 CG         -1.4040   10.4300   28.7500 C.3       1 GLY        -0.0440
     35 CD         -0.6350    9.4180   27.9630 C.3       1 GLY        -0.0124
     36 CE          0.4600    8.8330   28.8350 C.3       1 GLY        -0.0354
     37 NZ          1.2360    7.8210   28.1070 N.4       1 GLY         0.2185
     38 N          -5.2020   13.5370   28.9550 N.am      1 GLY        -0.2616
     39 CA         -6.0910   14.5710   28.4570 C.3       1 GLY         0.1539
     40 C          -5.5040   15.9560   28.7330 C.2       1 GLY         0.2062
     41 O          -4.5660   16.1230   29.5150 O.2       1 GLY        -0.3943
     42 CB         -7.4610   14.4310   29.1300 C.3       1 GLY         0.0843
     43 OG         -7.3280   14.3340   30.5560 O.3       1 GLY        -0.3903
     44 N          -6.0800   16.9610   28.0820 N.am      1 GLY        -0.2637
     45 CA         -5.7770   18.3550   28.3910 C.3       1 GLY         0.1313
     46 C          -6.9970   18.9840   29.0480 C.2       1 GLY         0.2064
     47 O          -8.0260   19.1670   28.3810 O.2       1 GLY        -0.3942
     48 CB         -5.4070   19.1150   27.1120 C.3       1 GLY        -0.0092
     49 CG         -5.0750   20.5820   27.3510 C.3       1 GLY        -0.0156
     50 CD         -4.8240   21.3280   26.0500 C.3       1 GLY         0.0627
     51 NE         -6.0610   21.6000   25.3250 N.pl3     1 GLY        -0.2723
     52 CZ         -6.8940   22.5960   25.6110 C.cat     1 GLY         0.2882
     53 NH1        -6.6270   23.4240   26.6150 N.pl3     1 GLY        -0.2849
     54 NH2        -7.9930   22.7670   24.8920 N.pl3     1 GLY        -0.2849
     55 N          -6.9630   19.2930   30.3540 N.am      1 GLY        -0.2498
     56 CA         -5.8530   19.0520   31.2800 C.3       1 GLY         0.1340
     57 C          -5.8600   17.6110   31.7840 C.2       1 GLY         0.2066
     58 O          -6.8660   16.9180   31.6190 O.2       1 GLY        -0.3942
     59 CB         -6.1580   20.0210   32.4270 C.3       1 GLY        -0.0104
     60 CG         -7.6460   20.0520   32.4710 C.3       1 GLY        -0.0281
     61 CD         -8.1160   19.9150   31.0320 C.3       1 GLY         0.0369
     62 N          -4.7450   17.1590   32.3550 N.am      1 GLY        -0.2498
     63 CA         -4.6880   15.7910   32.8840 C.3       1 GLY         0.1338
     64 C          -5.5210   15.6510   34.1450 C.2       1 GLY         0.2041
     65 O          -5.6770   16.5910   34.9300 O.2       1 GLY        -0.3944
     66 CB         -3.2020   15.6050   33.2100 C.3       1 GLY        -0.0104
     67 CG         -2.7200   16.9830   33.4710 C.3       1 GLY        -0.0281
     68 CD         -3.4580   17.8600   32.5040 C.3       1 GLY         0.0369
     69 N          -6.0520   14.4490   34.3300 N.am      1 GLY        -0.2635
     70 CA         -6.7200   14.0530   35.5630 C.3       1 GLY         0.1335
     71 C          -5.7260   13.1960   36.3290 C.2       1 GLY         0.2042
     72 O          -5.2530   12.1790   35.8120 O.2       1 GLY        -0.3944
     73 CB         -7.9940   13.2570   35.2470 C.3       1 GLY        -0.0037
     74 CG1        -8.9990   14.1470   34.5090 C.3       1 GLY        -0.0491
     75 CG2        -8.6090   12.6770   36.5110 C.3       1 GLY        -0.0582
     76 CD1        -9.9860   13.3900   33.6460 C.3       1 GLY        -0.0648
     77 N          -5.3820   13.6080   37.5500 N.am      1 GLY        -0.2629
     78 CA         -4.2950   12.9740   38.2820 C.3       1 GLY         0.1406
     79 C          -4.7810   12.3800   39.5960 C.2       1 GLY         0.2049
     80 O          -5.7800   12.8190   40.1820 O.2       1 GLY        -0.3943
     81 CB         -3.1280   13.9370   38.5430 C.3       1 GLY         0.0443
     82 SG         -2.2680   14.4660   37.0270 S.3       1 GLY        -0.0882
     83 N          -4.0420   11.3840   40.0620 N.am      1 GLY        -0.2619
     84 CA         -4.3850   10.6150   41.2450 C.3       1 GLY         0.1406
     85 C          -3.2200   10.6170   42.2240 C.2       1 GLY         0.2085
     86 O          -2.0690   10.8190   41.8300 O.2       1 GLY        -0.3940
     87 CB         -4.7280    9.1730   40.8380 C.3       1 GLY         0.0214
     88 CG         -5.9440    9.0770   39.9470 C.ar      1 GLY        -0.0386
     89 CD1        -7.2110    8.9590   40.4880 C.ar      1 GLY        -0.0601
     90 CD2        -5.8170    9.1450   38.5720 C.ar      1 GLY        -0.0601
     91 CE1        -8.3340    8.8860   39.6570 C.ar      1 GLY        -0.0686
     92 CE2        -6.9230    9.0800   37.7470 C.ar      1 GLY        -0.0686
     93 CZ         -8.1810    8.9470   38.2880 C.ar      1 GLY        -0.0687
     94 N          -3.4940   10.4120   43.5120 N.am      1 GLY        -0.2497
     95 CA         -2.4080   10.4660   44.5080 C.3       1 GLY         0.1338
     96 C          -1.2940    9.4580   44.2800 C.2       1 GLY         0.2042
     97 O          -0.1570    9.7030   44.7090 O.2       1 GLY        -0.3944
     98 CB         -3.1410   10.2250   45.8370 C.3       1 GLY        -0.0104
     99 CG         -4.5270   10.7090   45.5770 C.3       1 GLY        -0.0281
    100 CD         -4.8230   10.3540   44.1440 C.3       1 GLY         0.0369
    101 N          -1.5780    8.3320   43.6310 N.am      1 GLY        -0.2622
    102 CA         -0.5500    7.3170   43.3840 C.3       1 GLY         0.1443
    103 C           0.3100    7.6430   42.1690 C.2       1 GLY         0.2343
    104 O           1.2390    6.8970   41.8560 O.2       1 GLY        -0.3938
    105 CB         -1.1760    5.9250   43.2300 C.3       1 GLY         0.0406
    106 CG         -1.7590    5.6830   41.8390 C.2       1 GLY         0.0393
    107 OD1        -2.1960    6.6480   41.1660 O.co2     1 GLY        -0.5688
    108 OD2        -1.7830    4.5000   41.4290 O.co2     1 GLY        -0.5688
    109 OXT         0.0740    8.6520   41.5020 O.3       1 GLY        -0.1970
    110 H1          1.9536    9.5399   40.5091 H         1 GLY         0.1177
    111 H2         -1.1899    7.8461   39.7327 H         1 GLY         0.1884
    112 H3         -0.5967    7.7193   36.9016 H         1 GLY         0.0800
    113 H4         -3.0448    7.1148   36.7077 H         1 GLY         0.0313
    114 H5         -3.2029    7.4145   38.4717 H         1 GLY         0.0313
    115 H6         -2.0072    5.5200   39.0382 H         1 GLY         0.0301
    116 H7         -1.1782    5.4354   37.4469 H         1 GLY         0.0301
    117 H8         -2.9252    3.6560   37.8174 H         1 GLY         0.0689
    118 H9         -3.1778    4.6653   36.3531 H         1 GLY         0.0689
    119 H10        -4.7198    5.0515   38.9089 H         1 GLY         0.2642
    120 H11        -6.2649    5.1720   35.1476 H         1 GLY         0.2615
    121 H12        -4.5230    4.8541   35.3648 H         1 GLY         0.2615
    122 H13        -6.9332    5.4328   38.6142 H         1 GLY         0.2615
    123 H14        -7.6139    5.4950   36.9664 H         1 GLY         0.2615
    124 H15        -0.9873    9.2213   35.3491 H         1 GLY         0.1884
    125 H16        -3.0980   11.2505   35.8826 H         1 GLY         0.0808
    126 H17        -1.7888   12.8402   34.3873 H         1 GLY         0.0432
    127 H18        -0.3787   11.7493   34.6069 H         1 GLY         0.0432
    128 H19        -4.6088   11.3232   34.3075 H         1 GLY         0.1884
    129 H20        -4.3528    9.6352   31.9790 H         1 GLY         0.0826
    130 H21        -6.4117   10.6518   31.2102 H         1 GLY         0.0639
    131 H22        -5.8612   12.8355   31.6994 H         1 GLY         0.2101
    132 H23        -7.8642   10.3234   33.1878 H         1 GLY         0.0257
    133 H24        -6.4200   10.3781   34.2544 H         1 GLY         0.0257
    134 H25        -6.6076    9.0458   33.0643 H         1 GLY         0.0257
    135 H26        -4.5683   10.4991   29.7571 H         1 GLY         0.1883
    136 H27        -2.5405   12.6262   29.3972 H         1 GLY         0.0800
    137 H28        -2.2401   11.5738   27.1071 H         1 GLY         0.0312
    138 H29        -3.2878   10.2369   27.6916 H         1 GLY         0.0312
    139 H30        -1.7814    9.9439   29.6617 H         1 GLY         0.0269
    140 H31        -0.7192   11.2455   29.0259 H         1 GLY         0.0269
    141 H32        -0.1854    9.9009   27.0829 H         1 GLY         0.0317
    142 H33        -1.3120    8.6154   27.6351 H         1 GLY         0.0317
    143 H34         0.0028    8.3662   29.7199 H         1 GLY         0.0813
    144 H35         1.1346    9.6411   29.1540 H         1 GLY         0.0813
    145 H36         1.9543    7.4508   28.7096 H         1 GLY         0.1994
    146 H37         1.6618    8.2429   27.2966 H         1 GLY         0.1994
    147 H38         0.6247    7.0746   27.8152 H         1 GLY         0.1994
    148 H39        -5.3076   13.2344   29.9022 H         1 GLY         0.1884
    149 H40        -6.2113   14.4469   27.3707 H         1 GLY         0.0823
    150 H41        -7.9558   13.5239   28.7527 H         1 GLY         0.0606
    151 H42        -8.0733   15.3114   28.8853 H         1 GLY         0.0606
    152 H43        -6.9044   15.1171   30.8874 H         1 GLY         0.2097
    153 H44        -6.7403   16.7564   27.3594 H         1 GLY         0.1883
    154 H45        -4.9276   18.3960   29.0887 H         1 GLY         0.0800
    155 H46        -6.2569   19.0594   26.4159 H         1 GLY         0.0313
    156 H47        -4.5300   18.6289   26.6596 H         1 GLY         0.0313
    157 H48        -4.1721   20.6446   27.9762 H         1 GLY         0.0301
    158 H49        -5.9178   21.0561   27.8754 H         1 GLY         0.0301
    159 H50        -4.1664   20.7184   25.4129 H         1 GLY         0.0689
    160 H51        -4.3298   22.2837   26.2789 H         1 GLY         0.0689
    161 H52        -6.3048   20.9794   24.5399 H         1 GLY         0.2642
    162 H53        -7.2748   24.1944   26.8334 H         1 GLY         0.2615
    163 H54        -5.7721   23.2956   27.1750 H         1 GLY         0.2615
    164 H55        -8.2034   22.1271   24.1128 H         1 GLY         0.2615
    165 H56        -8.6373   23.5399   25.1120 H         1 GLY         0.2615
    166 H57        -4.8843   19.2771   30.8100 H         1 GLY         0.0802
    167 H58        -5.7502   21.0206   32.2159 H         1 GLY         0.0313
    168 H59        -5.7445   19.6492   33.3761 H         1 GLY         0.0313
    169 H60        -7.9951   21.0041   32.8971 H         1 GLY         0.0287
    170 H61        -8.0270   19.2172   33.0776 H         1 GLY         0.0287
    171 H62        -9.0051   19.2705   30.9680 H         1 GLY         0.0524
    172 H63        -8.3445   20.8992   30.5971 H         1 GLY         0.0524
    173 H64        -5.0270   15.0622   32.1331 H         1 GLY         0.0802
    174 H65        -2.6674   15.1579   32.3590 H         1 GLY         0.0313
    175 H66        -3.0726   14.9701   34.0989 H         1 GLY         0.0313
    176 H67        -1.6356   17.0493   33.2985 H         1 GLY         0.0287
    177 H68        -2.9454   17.2787   34.5062 H         1 GLY         0.0287
    178 H69        -3.6011   18.8708   32.9137 H         1 GLY         0.0524
    179 H70        -2.9276   17.9257   31.5426 H         1 GLY         0.0524
    180 H71        -5.9907   13.7825   33.5870 H         1 GLY         0.1883
    181 H72        -6.9850   14.9426   36.1532 H         1 GLY         0.0803
    182 H73        -7.7223   12.4211   34.5856 H         1 GLY         0.0345
    183 H74        -8.4376   14.8390   33.8640 H         1 GLY         0.0267
    184 H75        -9.5653   14.7209   35.2573 H         1 GLY         0.0267
    185 H76        -7.8688   12.0432   37.0214 H         1 GLY         0.0235
    186 H77        -9.4891   12.0725   36.2465 H         1 GLY         0.0235
    187 H78        -8.9139   13.4957   37.1795 H         1 GLY         0.0235
    188 H79       -10.6661   14.1022   33.1559 H         1 GLY         0.0230
    189 H80       -10.5684   12.6999   34.2741 H         1 GLY         0.0230
    190 H81        -9.4407   12.8180   32.8809 H         1 GLY         0.0230
    191 H82        -5.8800   14.3665   37.9704 H         1 GLY         0.1884
    192 H83        -3.9157   12.1504   37.6593 H         1 GLY         0.0808
    193 H84        -2.4013   13.4338   39.1977 H         1 GLY         0.0432
    194 H85        -3.5209   14.8306   39.0500 H         1 GLY         0.0432
    195 H86        -3.2023   11.1490   39.5724 H         1 GLY         0.1885
    196 H87        -5.2611   11.0707   41.7295 H         1 GLY         0.0823
    197 H88        -4.9166    8.5881   41.7503 H         1 GLY         0.0474
    198 H89        -3.8673    8.7476   40.3011 H         1 GLY         0.0474
    199 H90        -7.3350    8.9228   41.5643 H         1 GLY         0.0557
    200 H91        -4.8315    9.2513   38.1333 H         1 GLY         0.0557
    201 H92        -9.3229    8.7816   40.0886 H         1 GLY         0.0599
    202 H93        -6.7996    9.1339   36.6714 H         1 GLY         0.0599
    203 H94        -9.0485    8.8904   37.6405 H         1 GLY         0.0559
    204 H95        -1.9575   11.4695   44.5045 H         1 GLY         0.0802
    205 H96        -2.6731   10.7978   46.6512 H         1 GLY         0.0313
    206 H97        -3.1422    9.1556   46.0946 H         1 GLY         0.0313
    207 H98        -4.5861   11.7978   45.7220 H         1 GLY         0.0287
    208 H99        -5.2396   10.2102   46.2503 H         1 GLY         0.0287
    209 H100       -5.2547    9.3452   44.0669 H         1 GLY         0.0524
    210 H101       -5.5101   11.0827   43.6892 H         1 GLY         0.0524
    211 H102       -2.5105    8.1752   43.3055 H         1 GLY         0.1884
    212 H103        0.1104    7.2954   44.2634 H         1 GLY         0.0818
    213 H104       -1.9820    5.8192   43.9710 H         1 GLY         0.0478
    214 H105       -0.4004    5.1688   43.4213 H         1 GLY         0.0478
@<TRIPOS>BOND
     1    1    2 1  
     2    1  103 am 
     3    1  109 1  
     4    2    3 1  
     5    2  109 1  
     6    3    4 2  
     7    3    5 am 
     8    5    6 1  
     9    6    7 1  
    10    6    9 1  
    11    7    8 2  
    12    7   16 am 
    13    9   10 1  
    14   10   11 1  
    15   11   12 1  
    16   12   13 ar 
    17   13   14 ar 
    18   13   15 ar 
    19   16   17 1  
    20   17   18 1  
    21   17   20 1  
    22   18   19 2  
    23   18   22 am 
    24   20   21 1  
    25   21   82 1  
    26   22   23 1  
    27   23   24 1  
    28   23   26 1  
    29   24   25 2  
    30   24   29 am 
    31   26   27 1  
    32   26   28 1  
    33   29   30 1  
    34   30   31 1  
    35   30   33 1  
    36   31   32 2  
    37   31   38 am 
    38   33   34 1  
    39   34   35 1  
    40   35   36 1  
    41   36   37 1  
    42   38   39 1  
    43   39   40 1  
    44   39   42 1  
    45   40   41 2  
    46   40   44 am 
    47   42   43 1  
    48   44   45 1  
    49   45   46 1  
    50   45   48 1  
    51   46   47 2  
    52   46   55 am 
    53   48   49 1  
    54   49   50 1  
    55   50   51 1  
    56   51   52 ar 
    57   52   53 ar 
    58   52   54 ar 
    59   55   56 1  
    60   55   61 1  
    61   56   57 1  
    62   56   59 1  
    63   57   58 2  
    64   57   62 am 
    65   59   60 1  
    66   60   61 1  
    67   62   63 1  
    68   62   68 1  
    69   63   64 1  
    70   63   66 1  
    71   64   65 2  
    72   64   69 am 
    73   66   67 1  
    74   67   68 1  
    75   69   70 1  
    76   70   71 1  
    77   70   73 1  
    78   71   72 2  
    79   71   77 am 
    80   73   74 1  
    81   73   75 1  
    82   74   76 1  
    83   77   78 1  
    84   78   79 1  
    85   78   81 1  
    86   79   80 2  
    87   79   83 am 
    88   81   82 1  
    89   83   84 1  
    90   84   85 1  
    91   84   87 1  
    92   85   86 2  
    93   85   94 am 
    94   87   88 1  
    95   88   89 ar 
    96   88   90 ar 
    97   89   91 ar 
    98   90   92 ar 
    99   91   93 ar 
   100   92   93 ar 
   101   94   95 1  
   102   94  100 1  
   103   95   96 1  
   104   95   98 1  
   105   96   97 2  
   106   96  101 am 
   107   98   99 1  
   108   99  100 1  
   109  101  102 1  
   110  102  103 1  
   111  102  105 1  
   112  103  104 2  
   113  105  106 1  
   114  106  107 ar 
   115  106  108 ar 
   116    2  110 1  
   117    5  111 1  
   118    6  112 1  
   119    9  113 1  
   120    9  114 1  
   121   10  115 1  
   122   10  116 1  
   123   11  117 1  
   124   11  118 1  
   125   12  119 1  
   126   14  120 1  
   127   14  121 1  
   128   15  122 1  
   129   15  123 1  
   130   16  124 1  
   131   17  125 1  
   132   20  126 1  
   133   20  127 1  
   134   22  128 1  
   135   23  129 1  
   136   26  130 1  
   137   27  131 1  
   138   28  132 1  
   139   28  133 1  
   140   28  134 1  
   141   29  135 1  
   142   30  136 1  
   143   33  137 1  
   144   33  138 1  
   145   34  139 1  
   146   34  140 1  
   147   35  141 1  
   148   35  142 1  
   149   36  143 1  
   150   36  144 1  
   151   37  145 1  
   152   37  146 1  
   153   37  147 1  
   154   38  148 1  
   155   39  149 1  
   156   42  150 1  
   157   42  151 1  
   158   43  152 1  
   159   44  153 1  
   160   45  154 1  
   161   48  155 1  
   162   48  156 1  
   163   49  157 1  
   164   49  158 1  
   165   50  159 1  
   166   50  160 1  
   167   51  161 1  
   168   53  162 1  
   169   53  163 1  
   170   54  164 1  
   171   54  165 1  
   172   56  166 1  
   173   59  167 1  
   174   59  168 1  
   175   60  169 1  
   176   60  170 1  
   177   61  171 1  
   178   61  172 1  
   179   63  173 1  
   180   66  174 1  
   181   66  175 1  
   182   67  176 1  
   183   67  177 1  
   184   68  178 1  
   185   68  179 1  
   186   69  180 1  
   187   70  181 1  
   188   73  182 1  
   189   74  183 1  
   190   74  184 1  
   191   75  185 1  
   192   75  186 1  
   193   75  187 1  
   194   76  188 1  
   195   76  189 1  
   196   76  190 1  
   197   77  191 1  
   198   78  192 1  
   199   81  193 1  
   200   81  194 1  
   201   83  195 1  
   202   84  196 1  
   203   87  197 1  
   204   87  198 1  
   205   89  199 1  
   206   90  200 1  
   207   91  201 1  
   208   92  202 1  
   209   93  203 1  
   210   95  204 1  
   211   98  205 1  
   212   98  206 1  
   213   99  207 1  
   214   99  208 1  
   215  100  209 1  
   216  100  210 1  
   217  101  211 1  
   218  102  212 1  
   219  105  213 1  
   220  105  214 1  
@<TRIPOS>SUBSTRUCTURE
     1 GLY         1

