5v2q_ligand
  -I-interpret- 

304309  0  0  0  0  0  0  0  0999 V2000
    9.0130   -8.1950  110.3330 N   0  3  0  0  0
    8.0330   -7.6430  111.3130 C   0  0  0  0  0
    8.3860   -6.1920  111.6230 C   0  0  0  0  0
    9.5660   -5.8050  111.5240 O   0  0  0  0  0
    8.0670   -8.4900  112.5870 C   0  0  0  0  0
    7.3690   -5.4130  111.9990 N   0  0  0  0  0
    7.5400   -4.0220  112.4790 C   0  0  0  0  0
    8.3470   -3.9960  113.8030 C   0  0  0  0  0
    8.2960   -4.9960  114.5560 O   0  0  0  0  0
    6.1690   -3.4090  112.7570 C   0  0  0  0  0
    5.6370   -3.8830  113.9780 O   0  0  0  0  0
    9.0780   -2.8830  114.0900 N   0  0  0  0  0
    9.8130   -2.7290  115.3680 C   0  0  0  0  0
    8.9780   -3.0760  116.5950 C   0  0  0  0  0
    9.4800   -3.7700  117.4860 O   0  0  0  0  0
   10.2110   -1.2580  115.3880 C   0  0  0  0  0
   10.3240   -0.9120  113.9010 C   0  0  0  0  0
    9.2150   -1.6810  113.2370 C   0  0  0  0  0
    7.7190   -2.6440  116.6360 N   0  0  0  0  0
    6.8710   -3.0060  117.7650 C   0  0  0  0  0
    6.5370   -4.5190  117.8580 C   0  0  0  0  0
    6.5090   -5.1040  118.9550 O   0  0  0  0  0
    5.6340   -2.0870  117.8560 C   0  0  0  0  0
    5.9650   -0.6000  118.2510 C   0  0  0  0  0
    4.8360   -0.0580  119.1040 C   0  0  0  0  0
    7.2790   -0.3290  119.0200 C   0  0  0  0  0
    6.3500   -5.1870  116.7170 N   0  0  0  0  0
    6.1480   -6.6230  116.7000 C   0  0  0  0  0
    7.4220   -7.3580  117.0670 C   0  0  0  0  0
    7.3460   -8.3930  117.7510 O   0  0  0  0  0
    5.6940   -7.0820  115.3200 C   0  0  0  0  0
    4.2960   -6.5560  115.0280 C   0  0  0  0  0
    3.8150   -6.8420  113.6100 C   0  0  0  0  0
    4.6530   -6.8380  112.6340 O   0  0  0  0  0
    2.5860   -7.1070  113.5180 O   0  0  0  0  0
    8.5770   -6.8390  116.6140 N   0  0  0  0  0
    9.8880   -7.4230  116.9830 C   0  0  0  0  0
   10.0970   -7.2630  118.4990 C   0  0  0  0  0
   10.6190   -8.1770  119.1240 O   0  0  0  0  0
   11.0800   -6.8060  116.2210 C   0  0  0  0  0
   11.2730   -7.4180  114.8290 C   0  0  0  0  0
   12.4640   -6.8540  114.0200 C   0  0  0  0  0
   13.1990   -5.9990  114.5450 O   0  0  0  0  0
   12.6500   -7.3060  112.8530 O   0  0  0  0  0
    9.7280   -6.0950  119.0640 N   0  0  0  0  0
    9.8760   -5.8270  120.5260 C   0  0  0  0  0
    9.0650   -6.8350  121.2590 C   0  0  0  0  0
    9.5210   -7.5420  122.1240 O   0  0  0  0  0
    9.3630   -4.4600  120.9210 C   0  0  0  0  0
   10.3430   -3.3540  120.6600 C   0  0  0  0  0
   11.5340   -3.6250  120.3600 O   0  0  0  0  0
    9.9140   -2.1820  120.7740 O   0  0  0  0  0
    7.8230   -6.9000  120.8760 N   0  0  0  0  0
    6.9190   -7.8250  121.4860 C   0  0  0  0  0
    7.3540   -9.2860  121.4440 C   0  0  0  0  0
    7.3710   -9.9710  122.4800 O   0  0  0  0  0
    5.5020   -7.5510  120.9690 C   0  0  0  0  0
    4.3910   -8.3630  121.5590 C   0  0  0  0  0
    4.2450   -8.1650  123.0680 C   0  0  0  0  0
    3.1380   -7.9310  120.8340 C   0  0  0  0  0
    7.7600   -9.7830  120.2800 N   0  0  0  0  0
    8.2860  -11.1310  120.2090 C   0  0  0  0  0
    9.5120  -11.3640  121.1600 C   0  0  0  0  0
    9.5950  -12.4210  121.8220 O   0  0  0  0  0
    8.6100  -11.4130  118.7650 C   0  0  0  0  0
    9.3330  -12.9970  118.5270 S   0  0  0  0  0
   10.4730  -10.4340  121.1270 N   0  0  0  0  0
   11.7130  -10.5300  121.9780 C   0  0  0  0  0
   11.3010  -10.6410  123.4750 C   0  0  0  0  0
   11.7920  -11.4990  124.1970 O   0  0  0  0  0
   10.3770   -9.7970  123.9220 N   0  0  0  0  0
    9.9150   -9.8050  125.3190 C   0  0  0  0  0
    9.1240  -11.0430  125.6920 C   0  0  0  0  0
    9.2890  -11.6010  126.7930 O   0  0  0  0  0
    9.1800   -8.5310  125.6640 C   0  0  0  0  0
   10.0840   -7.3310  125.6990 C   0  0  0  0  0
   11.1580   -7.2650  126.5940 C   0  0  0  0  0
    9.8260   -6.2290  124.9620 C   0  0  0  0  0
   11.9560   -6.1500  126.6420 C   0  0  0  0  0
   10.5960   -5.0870  125.0150 C   0  0  0  0  0
   11.6900   -5.0390  125.8630 C   0  0  0  0  0
   12.4340   -3.8890  125.9690 O   0  0  0  0  0
    8.2810  -11.5500  124.7520 N   0  0  0  0  0
    7.5360  -12.7660  125.0080 C   0  0  0  0  0
    8.5370  -13.9470  125.1240 C   0  0  0  0  0
    8.3750  -14.8410  125.9690 O   0  0  0  0  0
    6.5160  -13.0600  123.9140 C   0  0  0  0  0
    5.2890  -12.1190  123.9190 C   0  0  0  0  0
    4.4650  -12.2960  122.6260 C   0  0  0  0  0
    4.4220  -12.3970  125.0900 C   0  0  0  0  0
    9.5710  -13.9080  124.3040 N   0  0  0  0  0
   10.5840  -14.9910  124.3590 C   0  0  0  0  0
   11.3590  -14.9360  125.7170 C   0  0  0  0  0
   11.5650  -15.9840  126.3430 O   0  0  0  0  0
   11.5780  -14.9110  123.2070 C   0  0  0  0  0
   12.3490  -16.5470  123.0780 S   0  0  0  0  0
   11.7280  -13.7310  126.1000 N   0  0  0  0  0
   12.3640  -13.4340  127.4230 C   0  0  0  0  0
   11.5060  -14.0430  128.5790 C   0  0  0  0  0
   12.0450  -14.8430  129.4200 O   0  0  0  0  0
   12.5390  -11.9850  127.5160 C   0  0  0  0  0
   13.1890  -11.3490  128.7210 C   0  0  0  0  0
   13.1880  -11.8090  130.0310 C   0  0  0  0  0
   13.8780  -10.1240  128.7160 C   0  0  0  0  0
   13.8160  -10.8640  130.8480 N   0  0  0  0  0
   14.2480   -9.8280  130.0760 C   0  0  0  0  0
   14.2120   -9.1890  127.7100 C   0  0  0  0  0
   14.9200   -8.6730  130.4140 C   0  0  0  0  0
   14.8800   -8.0280  128.0680 C   0  0  0  0  0
   15.2150   -7.7560  129.4090 C   0  0  0  0  0
   10.2130  -13.7310  128.5820 N   0  0  0  0  0
    9.2900  -14.3130  129.5700 C   0  0  0  0  0
    9.2540  -15.8640  129.5960 C   0  0  0  0  0
    9.2560  -16.4870  130.6970 O   0  0  0  0  0
    7.8600  -13.6840  129.4230 C   0  0  0  0  0
    7.9470  -12.2400  129.8510 C   0  0  0  0  0
    6.7880  -14.4430  130.2150 C   0  0  0  0  0
    6.6840  -11.4270  129.5220 C   0  0  0  0  0
    9.3130  -16.5150  128.4220 N   0  0  0  0  0
    9.3080  -17.9630  128.3630 C   0  0  0  0  0
   10.5690  -18.5460  129.0200 C   0  0  0  0  0
   10.5070  -19.5850  129.6510 O   0  0  0  0  0
    9.1780  -18.5840  126.9570 C   0  0  0  0  0
   10.3580  -18.3550  126.1770 O   0  0  0  0  0
    7.9260  -18.0470  126.1830 C   0  0  0  0  0
   11.6580  -17.8100  128.9580 N   0  0  0  0  0
   12.9690  -18.2570  129.5210 C   0  0  0  0  0
   12.9790  -18.1830  130.9720 C   0  0  0  0  0
   13.8310  -18.7710  131.6030 O   0  0  0  0  0
   14.0810  -17.4050  128.9140 C   0  0  0  0  0
   13.9390  -17.3790  127.4250 C   0  0  0  0  0
   14.9990  -18.0850  126.7680 C   0  0  0  0  0
   15.0140  -19.3100  126.8120 O   0  0  0  0  0
   15.9950  -17.3270  126.2290 N   0  0  0  0  0
   12.0120  -17.4800  131.5740 N   0  0  0  0  0
   11.9170  -17.5040  132.9960 C   0  0  0  0  0
   11.2820  -18.7720  133.5710 C   0  0  0  0  0
   11.4560  -19.0460  134.7490 O   0  0  0  0  0
   11.1680  -16.2610  133.4770 C   0  0  0  0  0
   10.5630  -19.5660  132.7850 N   0  0  0  0  0
    9.7280  -20.6820  133.3390 C   0  0  0  0  0
   10.5290  -21.9090  133.6840 C   0  0  0  0  0
   11.6270  -22.0570  133.1610 O   0  0  0  0  0
    8.6310  -21.0460  132.3520 C   0  0  0  0  0
    7.6450  -19.8770  132.1820 C   0  0  0  0  0
    6.7460  -19.9570  130.9460 C   0  0  0  0  0
    6.7120  -21.0340  130.3050 O   0  0  0  0  0
    6.0620  -18.9460  130.6160 O   0  0  0  0  0
   10.0540  -22.7150  134.4750 O   0  0  0  0  0
    8.8970  -15.6260  119.5240 C   0  0  0  0  0
    9.2260  -16.0180  120.8200 C   0  0  0  0  0
   10.0920  -17.1440  121.0860 C   0  0  0  0  0
   10.5520  -17.8780  119.9870 C   0  0  0  0  0
   10.2180  -17.4740  118.6790 C   0  0  0  0  0
    9.3980  -16.3540  118.4450 C   0  0  0  0  0
    8.0810  -14.3830  119.1600 C   0  0  0  0  0
   10.6940  -17.4830  122.4750 C   0  0  0  0  0
    8.9939   -7.6334  109.4818 H   0  0  0  0  0
    9.9487   -8.1687  110.7382 H   0  0  0  0  0
    8.7641   -9.1590  110.1114 H   0  0  0  0  0
    7.0270   -7.6738  110.8944 H   0  0  0  0  0
    9.0670   -8.4540  113.0192 H   0  0  0  0  0
    7.3459   -8.0959  113.3031 H   0  0  0  0  0
    7.8122   -9.5213  112.3430 H   0  0  0  0  0
    6.4246   -5.7957  111.9534 H   0  0  0  0  0
    8.0716   -3.4600  111.7111 H   0  0  0  0  0
    5.4920   -3.6887  111.9499 H   0  0  0  0  0
    6.2778   -2.3263  112.8211 H   0  0  0  0  0
    4.7773   -3.4830  114.1279 H   0  0  0  0  0
   10.6593   -3.4143  115.4156 H   0  0  0  0  0
   11.1363   -1.0780  115.9352 H   0  0  0  0  0
    9.4899   -0.6323  115.9138 H   0  0  0  0  0
   11.3000   -1.1805  113.4968 H   0  0  0  0  0
   10.2321    0.1602  113.7276 H   0  0  0  0  0
    8.2903   -1.1083  113.1664 H   0  0  0  0  0
    9.4369   -1.9259  112.1983 H   0  0  0  0  0
    7.3505   -2.0637  115.8824 H   0  0  0  0  0
    7.4652   -2.8269  118.6611 H   0  0  0  0  0
    4.9887   -2.4915  118.6358 H   0  0  0  0  0
    5.1766   -2.0635  116.8669 H   0  0  0  0  0
    6.0910   -0.1088  117.2861 H   0  0  0  0  0
    3.9056   -0.0917  118.5371 H   0  0  0  0  0
    4.7374   -0.6663  120.0031 H   0  0  0  0  0
    5.0557    0.9725  119.3832 H   0  0  0  0  0
    7.2669   -0.8773  119.9620 H   0  0  0  0  0
    8.1256   -0.6581  118.4175 H   0  0  0  0  0
    7.3675    0.7387  119.2207 H   0  0  0  0  0
    6.3492   -4.6744  115.8352 H   0  0  0  0  0
    5.3781   -6.8535  117.4363 H   0  0  0  0  0
    5.6795   -8.1715  115.2921 H   0  0  0  0  0
    6.3849   -6.6976  114.5697 H   0  0  0  0  0
    4.3241   -5.4732  115.1496 H   0  0  0  0  0
    3.6106   -7.0576  115.7112 H   0  0  0  0  0
    5.5244   -6.6053  112.9628 H   0  0  0  0  0
    8.5500   -6.0237  116.0017 H   0  0  0  0  0
    9.8605   -8.4749  116.6988 H   0  0  0  0  0
   11.9833   -6.9993  116.7997 H   0  0  0  0  0
   10.8813   -5.7418  116.0941 H   0  0  0  0  0
   10.3721   -7.1895  114.2595 H   0  0  0  0  0
   11.4716   -8.4792  114.9789 H   0  0  0  0  0
   11.9699   -7.9522  112.6492 H   0  0  0  0  0
    9.3325   -5.3664  118.4697 H   0  0  0  0  0
   10.9375   -5.8771  120.7685 H   0  0  0  0  0
    9.1699   -4.4801  121.9936 H   0  0  0  0  0
    8.4745   -4.2582  120.3227 H   0  0  0  0  0
   11.6455   -4.5779  120.3268 H   0  0  0  0  0
    7.4909   -6.2849  120.1332 H   0  0  0  0  0
    6.9284   -7.6450  122.5610 H   0  0  0  0  0
    5.5202   -7.8002  119.9080 H   0  0  0  0  0
    5.2851   -6.5159  121.2329 H   0  0  0  0  0
    4.5941   -9.4265  121.4335 H   0  0  0  0  0
    5.1706   -8.4589  123.5630 H   0  0  0  0  0
    4.0370   -7.1156  123.2770 H   0  0  0  0  0
    3.4236   -8.7798  123.4360 H   0  0  0  0  0
    2.9773   -6.8646  120.9927 H   0  0  0  0  0
    3.2504   -8.1281  119.7679 H   0  0  0  0  0
    2.2854   -8.4896  121.2202 H   0  0  0  0  0
    7.7011   -9.2143  119.4353 H   0  0  0  0  0
    7.5358  -11.8355  120.5683 H   0  0  0  0  0
    9.3285  -10.6643  118.4314 H   0  0  0  0  0
    7.6775  -11.3833  118.2014 H   0  0  0  0  0
   10.3628   -9.6331  120.5050 H   0  0  0  0  0
   12.3255   -9.6401  121.8328 H   0  0  0  0  0
   12.2859  -11.4116  121.6905 H   0  0  0  0  0
    9.9740   -9.1201  123.2741 H   0  0  0  0  0
   10.8140   -9.8464  125.9339 H   0  0  0  0  0
    8.7471   -8.6529  126.6569 H   0  0  0  0  0
    8.4270   -8.3603  124.8947 H   0  0  0  0  0
   11.3619   -8.1054  127.2576 H   0  0  0  0  0
    8.9663   -6.2434  124.2921 H   0  0  0  0  0
   12.8183   -6.1397  127.3086 H   0  0  0  0  0
   10.3456   -4.2272  124.3936 H   0  0  0  0  0
   12.0996   -3.2348  125.3511 H   0  0  0  0  0
    8.1725  -11.0696  123.8588 H   0  0  0  0  0
    6.9808  -12.6364  125.9370 H   0  0  0  0  0
    6.1457  -14.0710  124.0839 H   0  0  0  0  0
    7.0219  -12.9225  122.9583 H   0  0  0  0  0
    5.6547  -11.0938  123.9770 H   0  0  0  0  0
    5.0889  -12.0600  121.7639 H   0  0  0  0  0
    4.1200  -13.3275  122.5549 H   0  0  0  0  0
    3.6063  -11.6251  122.6492 H   0  0  0  0  0
    4.0755  -13.4296  125.0469 H   0  0  0  0  0
    4.9908  -12.2412  126.0067 H   0  0  0  0  0
    3.5649  -11.7238  125.0738 H   0  0  0  0  0
    9.6725  -13.1411  123.6393 H   0  0  0  0  0
   10.0467  -15.9354  124.2725 H   0  0  0  0  0
   12.3265  -14.1401  123.3901 H   0  0  0  0  0
   11.0771  -14.6412  122.2773 H   0  0  0  0  0
   11.5714  -12.9543  125.4577 H   0  0  0  0  0
   13.3463  -13.8974  127.5153 H   0  0  0  0  0
   11.5198  -11.5989  127.5340 H   0  0  0  0  0
   13.2193  -11.7504  126.6973 H   0  0  0  0  0
   12.7653  -12.7553  130.3685 H   0  0  0  0  0
   13.9486   -9.3777  126.6693 H   0  0  0  0  0
   15.2141   -8.4817  131.4460 H   0  0  0  0  0
   15.1520   -7.3097  127.2946 H   0  0  0  0  0
   15.7100   -6.8184  129.6622 H   0  0  0  0  0
    9.8544  -13.0764  127.8868 H   0  0  0  0  0
    9.6919  -14.0472  130.5477 H   0  0  0  0  0
    7.5454  -13.7556  128.3819 H   0  0  0  0  0
    8.7785  -11.7873  129.3109 H   0  0  0  0  0
    8.0736  -12.2257  130.9335 H   0  0  0  0  0
    6.7362  -15.4722  129.8597 H   0  0  0  0  0
    7.0468  -14.4354  131.2738 H   0  0  0  0  0
    5.8219  -13.9589  130.0724 H   0  0  0  0  0
    6.5155  -11.4398  128.4452 H   0  0  0  0  0
    5.8268  -11.8682  130.0305 H   0  0  0  0  0
    6.8176  -10.3987  129.8579 H   0  0  0  0  0
    9.3623  -15.9795  127.5553 H   0  0  0  0  0
    8.4013  -18.2292  128.9063 H   0  0  0  0  0
    9.0493  -19.6559  127.1072 H   0  0  0  0  0
   10.2487  -18.7514  125.3095 H   0  0  0  0  0
    7.0229  -18.2878  126.7438 H   0  0  0  0  0
    8.0070  -16.9660  126.0690 H   0  0  0  0  0
    7.8802  -18.5149  125.1996 H   0  0  0  0  0
   11.6056  -16.8966  128.5071 H   0  0  0  0  0
   13.1322  -19.3032  129.2623 H   0  0  0  0  0
   15.0486  -17.8319  129.1777 H   0  0  0  0  0
   14.0107  -16.3888  129.3019 H   0  0  0  0  0
   13.9710  -16.3393  127.0993 H   0  0  0  0  0
   12.9973  -17.8628  127.1655 H   0  0  0  0  0
   16.8184  -17.7767  125.8288 H   0  0  0  0  0
   15.9171  -16.3100  126.2258 H   0  0  0  0  0
   11.3510  -16.9337  131.0217 H   0  0  0  0  0
   12.9404  -17.5055  133.3711 H   0  0  0  0  0
   11.7089  -15.3683  133.1631 H   0  0  0  0  0
   10.1672  -16.2516  133.0452 H   0  0  0  0  0
   11.0957  -16.2800  134.5644 H   0  0  0  0  0
   10.5793  -19.4123  131.7768 H   0  0  0  0  0
    9.2952  -20.3159  134.2700 H   0  0  0  0  0
   11.8055  -21.3149  132.5787 H   0  0  0  0  0
    8.0891  -21.9127  132.7304 H   0  0  0  0  0
    9.0847  -21.2684  131.3862 H   0  0  0  0  0
    8.2459  -18.9741  132.0739 H   0  0  0  0  0
    6.9859  -19.8949  133.0500 H   0  0  0  0  0
    6.2319  -18.2307  131.2334 H   0  0  0  0  0
    8.8170  -15.4572  121.6604 H   0  0  0  0  0
   11.1691  -18.7629  120.1428 H   0  0  0  0  0
   10.6025  -18.0405  117.8309 H   0  0  0  0  0
    9.1556  -16.0569  117.4247 H   0  0  0  0  0
    7.3578  -14.6220  118.3803 H   0  0  0  0  0
    7.5312  -14.0250  120.0304 H   0  0  0  0  0
    9.9285  -17.1826  123.1905 H   0  0  0  0  0
   10.9781  -18.5331  122.4060 H   0  0  0  0  0
  2  1  1  0  0  0
  3  2  1  0  0  0
  2  5  1  0  0  0
  3  4  2  0  0  0
  6  3  1  0  0  0
  7  6  1  0  0  0
  8  7  1  0  0  0
  7 10  1  0  0  0
  8  9  2  0  0  0
 12  8  1  0  0  0
 10 11  1  0  0  0
 13 12  1  0  0  0
 12 18  1  0  0  0
 14 13  1  0  0  0
 13 16  1  0  0  0
 14 15  2  0  0  0
 19 14  1  0  0  0
 16 17  1  0  0  0
 17 18  1  0  0  0
 20 19  1  0  0  0
 21 20  1  0  0  0
 20 23  1  0  0  0
 21 22  2  0  0  0
 27 21  1  0  0  0
 23 24  1  0  0  0
 24 25  1  0  0  0
 24 26  1  0  0  0
 28 27  1  0  0  0
 29 28  1  0  0  0
 28 31  1  0  0  0
 29 30  2  0  0  0
 36 29  1  0  0  0
 31 32  1  0  0  0
 32 33  1  0  0  0
 33 34  1  0  0  0
 33 35  2  0  0  0
 37 36  1  0  0  0
 38 37  1  0  0  0
 37 40  1  0  0  0
 38 39  2  0  0  0
 45 38  1  0  0  0
 40 41  1  0  0  0
 41 42  1  0  0  0
 42 43  2  0  0  0
 42 44  1  0  0  0
 46 45  1  0  0  0
 47 46  1  0  0  0
 46 49  1  0  0  0
 47 48  2  0  0  0
 53 47  1  0  0  0
 49 50  1  0  0  0
 50 51  1  0  0  0
 50 52  2  0  0  0
 54 53  1  0  0  0
 55 54  1  0  0  0
 54 57  1  0  0  0
 55 56  2  0  0  0
 61 55  1  0  0  0
 57 58  1  0  0  0
 58 59  1  0  0  0
 58 60  1  0  0  0
 62 61  1  0  0  0
 62 63  1  0  0  0
 65 62  1  0  0  0
 63 64  2  0  0  0
 63 67  1  0  0  0
 66 65  1  0  0  0
156 66  1  0  0  0
 67 68  1  0  0  0
 68 69  1  0  0  0
 69 70  2  0  0  0
 69 71  1  0  0  0
 71 72  1  0  0  0
 72 73  1  0  0  0
 72 75  1  0  0  0
 73 74  2  0  0  0
 73 83  1  0  0  0
 75 76  1  0  0  0
 76 77  4  0  0  0
 76 78  4  0  0  0
 77 79  4  0  0  0
 78 80  4  0  0  0
 79 81  4  0  0  0
 80 81  4  0  0  0
 81 82  1  0  0  0
 83 84  1  0  0  0
 84 85  1  0  0  0
 84 87  1  0  0  0
 85 86  2  0  0  0
 85 91  1  0  0  0
 87 88  1  0  0  0
 88 89  1  0  0  0
 88 90  1  0  0  0
 91 92  1  0  0  0
 92 93  1  0  0  0
 92 95  1  0  0  0
 93 94  2  0  0  0
 93 97  1  0  0  0
 95 96  1  0  0  0
 96157  1  0  0  0
 97 98  1  0  0  0
 98 99  1  0  0  0
 98101  1  0  0  0
 99100  2  0  0  0
 99111  1  0  0  0
101102  1  0  0  0
102103  4  0  0  0
102104  4  0  0  0
103105  4  0  0  0
104106  4  0  0  0
104107  4  0  0  0
106105  4  0  0  0
106108  4  0  0  0
107109  4  0  0  0
108110  4  0  0  0
109110  4  0  0  0
111112  1  0  0  0
112113  1  0  0  0
112115  1  0  0  0
113114  2  0  0  0
113119  1  0  0  0
115116  1  0  0  0
115117  1  0  0  0
116118  1  0  0  0
119120  1  0  0  0
120121  1  0  0  0
120123  1  0  0  0
121122  2  0  0  0
121126  1  0  0  0
123124  1  0  0  0
123125  1  0  0  0
126127  1  0  0  0
127128  1  0  0  0
127130  1  0  0  0
128129  2  0  0  0
128135  1  0  0  0
130131  1  0  0  0
131132  1  0  0  0
132133  2  0  0  0
132134  1  0  0  0
135136  1  0  0  0
136137  1  0  0  0
136139  1  0  0  0
137138  2  0  0  0
137140  1  0  0  0
140141  1  0  0  0
141142  1  0  0  0
141144  1  0  0  0
142143  1  0  0  0
142149  2  0  0  0
144145  1  0  0  0
145146  1  0  0  0
146147  2  0  0  0
146148  1  0  0  0
150151  4  0  0  0
150155  4  0  0  0
150156  1  0  0  0
151152  4  0  0  0
152153  4  0  0  0
152157  1  0  0  0
153154  4  0  0  0
154155  4  0  0  0
  1158  1  0  0  0
  1159  1  0  0  0
  1160  1  0  0  0
  2161  1  0  0  0
  5162  1  0  0  0
  5163  1  0  0  0
  5164  1  0  0  0
  6165  1  0  0  0
  7166  1  0  0  0
 10167  1  0  0  0
 10168  1  0  0  0
 11169  1  0  0  0
 13170  1  0  0  0
 16171  1  0  0  0
 16172  1  0  0  0
 17173  1  0  0  0
 17174  1  0  0  0
 18175  1  0  0  0
 18176  1  0  0  0
 19177  1  0  0  0
 20178  1  0  0  0
 23179  1  0  0  0
 23180  1  0  0  0
 24181  1  0  0  0
 25182  1  0  0  0
 25183  1  0  0  0
 25184  1  0  0  0
 26185  1  0  0  0
 26186  1  0  0  0
 26187  1  0  0  0
 27188  1  0  0  0
 28189  1  0  0  0
 31190  1  0  0  0
 31191  1  0  0  0
 32192  1  0  0  0
 32193  1  0  0  0
 34194  1  0  0  0
 36195  1  0  0  0
 37196  1  0  0  0
 40197  1  0  0  0
 40198  1  0  0  0
 41199  1  0  0  0
 41200  1  0  0  0
 44201  1  0  0  0
 45202  1  0  0  0
 46203  1  0  0  0
 49204  1  0  0  0
 49205  1  0  0  0
 51206  1  0  0  0
 53207  1  0  0  0
 54208  1  0  0  0
 57209  1  0  0  0
 57210  1  0  0  0
 58211  1  0  0  0
 59212  1  0  0  0
 59213  1  0  0  0
 59214  1  0  0  0
 60215  1  0  0  0
 60216  1  0  0  0
 60217  1  0  0  0
 61218  1  0  0  0
 62219  1  0  0  0
 65220  1  0  0  0
 65221  1  0  0  0
 67222  1  0  0  0
 68223  1  0  0  0
 68224  1  0  0  0
 71225  1  0  0  0
 72226  1  0  0  0
 75227  1  0  0  0
 75228  1  0  0  0
 77229  1  0  0  0
 78230  1  0  0  0
 79231  1  0  0  0
 80232  1  0  0  0
 82233  1  0  0  0
 83234  1  0  0  0
 84235  1  0  0  0
 87236  1  0  0  0
 87237  1  0  0  0
 88238  1  0  0  0
 89239  1  0  0  0
 89240  1  0  0  0
 89241  1  0  0  0
 90242  1  0  0  0
 90243  1  0  0  0
 90244  1  0  0  0
 91245  1  0  0  0
 92246  1  0  0  0
 95247  1  0  0  0
 95248  1  0  0  0
 97249  1  0  0  0
 98250  1  0  0  0
101251  1  0  0  0
101252  1  0  0  0
103253  1  0  0  0
107254  1  0  0  0
108255  1  0  0  0
109256  1  0  0  0
110257  1  0  0  0
111258  1  0  0  0
112259  1  0  0  0
115260  1  0  0  0
116261  1  0  0  0
116262  1  0  0  0
117263  1  0  0  0
117264  1  0  0  0
117265  1  0  0  0
118266  1  0  0  0
118267  1  0  0  0
118268  1  0  0  0
119269  1  0  0  0
120270  1  0  0  0
123271  1  0  0  0
124272  1  0  0  0
125273  1  0  0  0
125274  1  0  0  0
125275  1  0  0  0
126276  1  0  0  0
127277  1  0  0  0
130278  1  0  0  0
130279  1  0  0  0
131280  1  0  0  0
131281  1  0  0  0
134282  1  0  0  0
134283  1  0  0  0
135284  1  0  0  0
136285  1  0  0  0
139286  1  0  0  0
139287  1  0  0  0
139288  1  0  0  0
140289  1  0  0  0
141290  1  0  0  0
143291  1  0  0  0
144292  1  0  0  0
144293  1  0  0  0
145294  1  0  0  0
145295  1  0  0  0
148296  1  0  0  0
151297  1  0  0  0
153298  1  0  0  0
154299  1  0  0  0
155300  1  0  0  0
156301  1  0  0  0
156302  1  0  0  0
157303  1  0  0  0
157304  1  0  0  0
M  END
$$$$
