### 
### Created by X-TOOL on Mon Sep 10 21:13:31 2018
### 

@<TRIPOS>MOLECULE
5v2q_ligand
  300   305     1     0     0
SMALL
GAST_HUCK


@<TRIPOS>ATOM
      1 N           9.0130   -8.1950  110.3330 N.4       1 ALA         0.2377
      2 CA          8.0330   -7.6430  111.3130 C.3       1 ALA         0.0621
      3 C           8.3860   -6.1920  111.6230 C.2       1 ALA         0.2265
      4 O           9.5660   -5.8050  111.5240 O.2       1 ALA        -0.3907
      5 CB          8.0670   -8.4900  112.5870 C.3       1 ALA        -0.0040
      6 N           7.3690   -5.4130  111.9990 N.am      1 SER        -0.2589
      7 CA          7.5400   -4.0220  112.4790 C.3       1 SER         0.1542
      8 C           8.3470   -3.9960  113.8030 C.2       1 SER         0.2087
      9 O           8.2960   -4.9960  114.5560 O.2       1 SER        -0.3941
     10 CB          6.1690   -3.4090  112.7570 C.3       1 SER         0.0843
     11 OG          5.6370   -3.8830  113.9780 O.3       1 SER        -0.3903
     12 N           9.0780   -2.8830  114.0900 N.am      1 PRO        -0.2498
     13 CA          9.8130   -2.7290  115.3680 C.3       1 PRO         0.1338
     14 C           8.9780   -3.0760  116.5950 C.2       1 PRO         0.2041
     15 O           9.4800   -3.7700  117.4860 O.2       1 PRO        -0.3944
     16 CB         10.2110   -1.2580  115.3880 C.3       1 PRO        -0.0104
     17 CG         10.3240   -0.9120  113.9010 C.3       1 PRO        -0.0281
     18 CD          9.2150   -1.6810  113.2370 C.3       1 PRO         0.0369
     19 N           7.7190   -2.6440  116.6360 N.am      1 LEU        -0.2637
     20 CA          6.8710   -3.0060  117.7650 C.3       1 LEU         0.1312
     21 C           6.5370   -4.5190  117.8580 C.2       1 LEU         0.2039
     22 O           6.5090   -5.1040  118.9550 O.2       1 LEU        -0.3944
     23 CB          5.6340   -2.0870  117.8560 C.3       1 LEU        -0.0101
     24 CG          5.9650   -0.6000  118.2510 C.3       1 LEU        -0.0425
     25 CD1         4.8360   -0.0580  119.1040 C.3       1 LEU        -0.0625
     26 CD2         7.2790   -0.3290  119.0200 C.3       1 LEU        -0.0625
     27 N           6.3500   -5.1870  116.7170 N.am      1 GLU        -0.2636
     28 CA          6.1480   -6.6230  116.7000 C.3       1 GLU         0.1325
     29 C           7.4220   -7.3580  117.0670 C.2       1 GLU         0.2040
     30 O           7.3460   -8.3930  117.7510 O.2       1 GLU        -0.3944
     31 CB          5.6940   -7.0820  115.3200 C.3       1 GLU        -0.0008
     32 CG          4.2960   -6.5560  115.0280 C.3       1 GLU         0.0044
     33 CD          3.8150   -6.8420  113.6100 C.2       1 GLU         0.0350
     34 OE1         4.6530   -6.8380  112.6340 O.co2     1 GLU        -0.5690
     35 OE2         2.5860   -7.1070  113.5180 O.co2     1 GLU        -0.5690
     36 N           8.5770   -6.8390  116.6140 N.am      1 GLU        -0.2636
     37 CA          9.8880   -7.4230  116.9830 C.3       1 GLU         0.1325
     38 C          10.0970   -7.2630  118.4990 C.2       1 GLU         0.2041
     39 O          10.6190   -8.1770  119.1240 O.2       1 GLU        -0.3944
     40 CB         11.0800   -6.8060  116.2210 C.3       1 GLU        -0.0008
     41 CG         11.2730   -7.4180  114.8290 C.3       1 GLU         0.0044
     42 CD         12.4640   -6.8540  114.0200 C.2       1 GLU         0.0350
     43 OE1        13.1990   -5.9990  114.5450 O.co2     1 GLU        -0.5690
     44 OE2        12.6500   -7.3060  112.8530 O.co2     1 GLU        -0.5690
     45 N           9.7280   -6.0950  119.0640 N.am      1 ASP        -0.2622
     46 CA          9.8760   -5.8270  120.5260 C.3       1 ASP         0.1423
     47 C           9.0650   -6.8350  121.2590 C.2       1 ASP         0.2056
     48 O           9.5210   -7.5420  122.1240 O.2       1 ASP        -0.3943
     49 CB          9.3630   -4.4600  120.9210 C.3       1 ASP         0.0406
     50 CG         10.3430   -3.3540  120.6600 C.2       1 ASP         0.0393
     51 OD1        11.5340   -3.6250  120.3600 O.co2     1 ASP        -0.5688
     52 OD2         9.9140   -2.1820  120.7740 O.co2     1 ASP        -0.5688
     53 N           7.8230   -6.9000  120.8760 N.am      1 LEU        -0.2636
     54 CA          6.9190   -7.8250  121.4860 C.3       1 LEU         0.1312
     55 C           7.3540   -9.2860  121.4440 C.2       1 LEU         0.2039
     56 O           7.3710   -9.9710  122.4800 O.2       1 LEU        -0.3944
     57 CB          5.5020   -7.5510  120.9690 C.3       1 LEU        -0.0101
     58 CG          4.3910   -8.3630  121.5590 C.3       1 LEU        -0.0425
     59 CD1         4.2450   -8.1650  123.0680 C.3       1 LEU        -0.0625
     60 CD2         3.1380   -7.9310  120.8340 C.3       1 LEU        -0.0625
     61 N           7.7600   -9.7830  120.2800 N.am      1 CYS        -0.2629
     62 CA          8.2860  -11.1310  120.2090 C.3       1 CYS         0.1400
     63 C           9.5120  -11.3640  121.1600 C.2       1 CYS         0.2045
     64 O           9.5950  -12.4210  121.8220 O.2       1 CYS        -0.3944
     65 CB          8.6100  -11.4130  118.7650 C.3       1 CYS         0.0361
     66 SG          9.3330  -12.9970  118.5270 S.3       1 CYS        -0.1424
     67 N          10.4730  -10.4340  121.1270 N.am      1 GLY        -0.2664
     68 CA         11.7130  -10.5300  121.9780 C.3       1 GLY         0.1201
     69 C          11.3010  -10.6410  123.4750 C.2       1 GLY         0.2009
     70 O          11.7920  -11.4990  124.1970 O.2       1 GLY        -0.3947
     71 N          10.3770   -9.7970  123.9220 N.am      1 TYR        -0.2624
     72 CA          9.9150   -9.8050  125.3190 C.3       1 TYR         0.1390
     73 C           9.1240  -11.0430  125.6920 C.2       1 TYR         0.2057
     74 O           9.2890  -11.6010  126.7930 O.2       1 TYR        -0.3942
     75 CB          9.1800   -8.5310  125.6640 C.3       1 TYR         0.0163
     76 CG         10.0840   -7.3310  125.6990 C.ar      1 TYR        -0.0493
     77 CD1        11.1580   -7.2650  126.5940 C.ar      1 TYR        -0.0685
     78 CD2         9.8260   -6.2290  124.9620 C.ar      1 TYR        -0.0685
     79 CE1        11.9560   -6.1500  126.6420 C.ar      1 TYR        -0.0398
     80 CE2        10.5960   -5.0870  125.0150 C.ar      1 TYR        -0.0398
     81 CZ         11.6900   -5.0390  125.8630 C.ar      1 TYR         0.0805
     82 OH         12.4340   -3.8890  125.9690 O.3       1 TYR        -0.3376
     83 N           8.2810  -11.5500  124.7520 N.am      1 LEU        -0.2636
     84 CA          7.5360  -12.7660  125.0080 C.3       1 LEU         0.1312
     85 C           8.5370  -13.9470  125.1240 C.2       1 LEU         0.2039
     86 O           8.3750  -14.8410  125.9690 O.2       1 LEU        -0.3944
     87 CB          6.5160  -13.0600  123.9140 C.3       1 LEU        -0.0101
     88 CG          5.2890  -12.1190  123.9190 C.3       1 LEU        -0.0425
     89 CD1         4.4650  -12.2960  122.6260 C.3       1 LEU        -0.0625
     90 CD2         4.4220  -12.3970  125.0900 C.3       1 LEU        -0.0625
     91 N           9.5710  -13.9080  124.3040 N.am      1 CYS        -0.2629
     92 CA         10.5840  -14.9910  124.3590 C.3       1 CYS         0.1400
     93 C          11.3590  -14.9360  125.7170 C.2       1 CYS         0.2048
     94 O          11.5650  -15.9840  126.3430 O.2       1 CYS        -0.3944
     95 CB         11.5780  -14.9110  123.2070 C.3       1 CYS         0.0361
     96 SG         12.3490  -16.5470  123.0780 S.3       1 CYS        -0.1424
     97 N          11.7280  -13.7310  126.1000 N.am      1 TRP        -0.2626
     98 CA         12.3640  -13.4340  127.4230 C.3       1 TRP         0.1352
     99 C          11.5060  -14.0430  128.5790 C.2       1 TRP         0.2052
    100 O          12.0450  -14.8430  129.4200 O.2       1 TRP        -0.3942
    101 CB         12.5390  -11.9850  127.5160 C.3       1 TRP         0.0042
    102 CG         13.1890  -11.3490  128.7210 C.2       1 TRP        -0.0418
    103 CD1        13.1880  -11.8090  130.0310 C.2       1 TRP         0.0167
    104 CD2        13.8780  -10.1240  128.7160 C.ar      1 TRP        -0.0214
    105 NE1        13.8160  -10.8640  130.8480 N.pl3     1 TRP        -0.2890
    106 CE2        14.2480   -9.8280  130.0760 C.ar      1 TRP         0.0603
    107 CE3        14.2120   -9.1890  127.7100 C.ar      1 TRP        -0.0747
    108 CZ2        14.9200   -8.6730  130.4140 C.ar      1 TRP        -0.0443
    109 CZ3        14.8800   -8.0280  128.0680 C.ar      1 TRP        -0.0792
    110 CH2        15.2150   -7.7560  129.4090 C.ar      1 TRP        -0.0768
    111 N          10.2130  -13.7310  128.5820 N.am      1 ILE        -0.2634
    112 CA          9.2900  -14.3130  129.5700 C.3       1 ILE         0.1335
    113 C           9.2540  -15.8640  129.5960 C.2       1 ILE         0.2042
    114 O           9.2560  -16.4870  130.6970 O.2       1 ILE        -0.3944
    115 CB          7.8600  -13.6840  129.4230 C.3       1 ILE        -0.0037
    116 CG1         7.9470  -12.2400  129.8510 C.3       1 ILE        -0.0491
    117 CG2         6.7880  -14.4430  130.2150 C.3       1 ILE        -0.0582
    118 CD1         6.6840  -11.4270  129.5220 C.3       1 ILE        -0.0648
    119 N           9.3130  -16.5150  128.4220 N.am      1 THR        -0.2613
    120 CA          9.3080  -17.9630  128.3630 C.3       1 THR         0.1565
    121 C          10.5690  -18.5460  129.0200 C.2       1 THR         0.2065
    122 O          10.5070  -19.5850  129.6510 O.2       1 THR        -0.3943
    123 CB          9.1780  -18.5840  126.9570 C.3       1 THR         0.0924
    124 OG1        10.3580  -18.3550  126.1770 O.3       1 THR        -0.3874
    125 CG2         7.9260  -18.0470  126.1830 C.3       1 THR        -0.0346
    126 N          11.6580  -17.8100  128.9580 N.am      1 GLN        -0.2635
    127 CA         12.9690  -18.2570  129.5210 C.3       1 GLN         0.1330
    128 C          12.9790  -18.1830  130.9720 C.2       1 GLN         0.2040
    129 O          13.8310  -18.7710  131.6030 O.2       1 GLN        -0.3944
    130 CB         14.0810  -17.4050  128.9140 C.3       1 GLN         0.0045
    131 CG         13.9390  -17.3790  127.4250 C.3       1 GLN         0.0412
    132 CD         14.9990  -18.0850  126.7680 C.2       1 GLN         0.1737
    133 OE1        15.0140  -19.3100  126.8120 O.2       1 GLN        -0.3973
    134 NE2        15.9950  -17.3270  126.2290 N.am      1 GLN        -0.3009
    135 N          12.0120  -17.4800  131.5740 N.am      1 ALA        -0.2640
    136 CA         11.9170  -17.5040  132.9960 C.3       1 ALA         0.1282
    137 C          11.2820  -18.7720  133.5710 C.2       1 ALA         0.2031
    138 O          11.4560  -19.0460  134.7490 O.2       1 ALA        -0.3944
    139 CB         11.1680  -16.2610  133.4770 C.3       1 ALA        -0.0244
    140 N          10.5630  -19.5660  132.7850 N.am      1 GLU        -0.2694
    141 CA          9.7280  -20.6820  133.3390 C.3       1 GLU         0.0959
    142 C          10.5290  -21.9090  133.6840 C.2       1 GLU         0.0602
    143 O          11.6270  -22.0570  133.1610 O.co2     1 GLU        -0.5666
    144 CB          8.6310  -21.0460  132.3520 C.3       1 GLU        -0.0064
    145 CG          7.6450  -19.8770  132.1820 C.3       1 GLU         0.0038
    146 CD          6.7460  -19.9570  130.9460 C.2       1 GLU         0.0350
    147 OE1         6.7120  -21.0340  130.3050 O.co2     1 GLU        -0.5690
    148 OE2         6.0620  -18.9460  130.6160 O.co2     1 GLU        -0.5690
    149 OXT        10.0540  -22.7150  134.4750 O.co2     1 GLU        -0.5666
    150 C1          8.8970  -15.6260  119.5240 C.ar      1 8VY        -0.0400
    151 C2          9.2260  -16.0180  120.8200 C.ar      1 8VY        -0.0576
    152 C3         10.0920  -17.1440  121.0860 C.ar      1 8VY        -0.0400
    153 C4         10.5520  -17.8780  119.9870 C.ar      1 8VY        -0.0665
    154 C5         10.2180  -17.4740  118.6790 C.ar      1 8VY        -0.0752
    155 C6          9.3980  -16.3540  118.4450 C.ar      1 8VY        -0.0665
    156 C1'         8.0810  -14.3830  119.1600 C.3       1 8VY         0.0260
    157 C3'        10.6940  -17.4830  122.4750 C.3       1 8VY         0.0260
    158 H1          8.7795   -9.1540  110.1283 H         1 ALA         0.2015
    159 H2          9.9408   -8.1514  110.7247 H         1 ALA         0.2015
    160 H3          8.9809   -7.6527  109.4839 H         1 ALA         0.2015
    161 H4          7.0224   -7.6826  110.8803 H         1 ALA         0.1095
    162 H5          7.3461   -8.0878  113.3140 H         1 ALA         0.0310
    163 H6          9.0781   -8.4617  113.0193 H         1 ALA         0.0310
    164 H7          7.8012   -9.5293  112.3436 H         1 ALA         0.0310
    165 H8          6.4431   -5.7882  111.9543 H         1 SER         0.1885
    166 H9          8.0658   -3.4335  111.7127 H         1 SER         0.0823
    167 H10         5.4837   -3.6759  111.9390 H         1 SER         0.0606
    168 H11         6.2688   -2.3148  112.8095 H         1 SER         0.0606
    169 H12         6.2234   -3.6516  114.6887 H         1 SER         0.2097
    170 H13        10.7081   -3.3683  115.3625 H         1 PRO         0.0802
    171 H14        11.1734   -1.1157  115.9013 H         1 PRO         0.0313
    172 H15         9.4397   -0.6463  115.8788 H         1 PRO         0.0313
    173 H16        11.3016   -1.2237  113.5047 H         1 PRO         0.0287
    174 H17        10.1925    0.1688  113.7445 H         1 PRO         0.0287
    175 H18         8.2826   -1.0974  113.2253 H         1 PRO         0.0524
    176 H19         9.4879   -1.9569  112.2077 H         1 PRO         0.0524
    177 H20         7.3578   -2.0751  115.8972 H         1 LEU         0.1883
    178 H21         7.4680   -2.7896  118.6632 H         1 LEU         0.0800
    179 H22         4.9509   -2.5012  118.6122 H         1 LEU         0.0315
    180 H23         5.1354   -2.0810  116.8755 H         1 LEU         0.0315
    181 H24         6.0135   -0.0258  117.3140 H         1 LEU         0.0298
    182 H25         5.0566    0.9820  119.3864 H         1 LEU         0.0232
    183 H26         4.7354   -0.6710  120.0118 H         1 LEU         0.0232
    184 H27         3.8964   -0.0914  118.5330 H         1 LEU         0.0232
    185 H28         8.1306   -0.7076  118.4356 H         1 LEU         0.0232
    186 H29         7.2462   -0.8401  119.9935 H         1 LEU         0.0232
    187 H30         7.3950    0.7534  119.1778 H         1 LEU         0.0232
    188 H31         6.3492   -4.6844  115.8525 H         1 GLU         0.1883
    189 H32         5.3687   -6.8747  117.4344 H         1 GLU         0.0801
    190 H33         5.6832   -8.1815  115.2875 H         1 GLU         0.0330
    191 H34         6.3925   -6.6995  114.5612 H         1 GLU         0.0330
    192 H35         4.2963   -5.4667  115.1810 H         1 GLU         0.0433
    193 H36         3.5945   -7.0253  115.7334 H         1 GLU         0.0433
    194 H37         8.5505   -6.0397  116.0137 H         1 GLU         0.1883
    195 H38         9.8584   -8.4962  116.7437 H         1 GLU         0.0801
    196 H39        11.9958   -6.9704  116.8077 H         1 GLU         0.0330
    197 H40        10.9051   -5.7258  116.1092 H         1 GLU         0.0330
    198 H41        10.3546   -7.2419  114.2497 H         1 GLU         0.0433
    199 H42        11.4273   -8.5002  114.9517 H         1 GLU         0.0433
    200 H43         9.3403   -5.3807  118.4814 H         1 ASP         0.1884
    201 H44        10.9364   -5.9133  120.8054 H         1 ASP         0.0819
    202 H45         9.1307   -4.4727  121.9961 H         1 ASP         0.0478
    203 H46         8.4456   -4.2541  120.3500 H         1 ASP         0.0478
    204 H47         7.4975   -6.2970  120.1477 H         1 LEU         0.1883
    205 H48         6.9038   -7.5696  122.5558 H         1 LEU         0.0800
    206 H49         5.5045   -7.7321  119.8840 H         1 LEU         0.0315
    207 H50         5.2775   -6.4919  121.1635 H         1 LEU         0.0315
    208 H51         4.5801   -9.4297  121.3682 H         1 LEU         0.0298
    209 H52         3.4163   -8.7850  123.4407 H         1 LEU         0.0232
    210 H53         4.0350   -7.1063  123.2803 H         1 LEU         0.0232
    211 H54         5.1785   -8.4613  123.5687 H         1 LEU         0.0232
    212 H55         3.2691   -8.0835  119.7525 H         1 LEU         0.0232
    213 H56         2.9475   -6.8662  121.0337 H         1 LEU         0.0232
    214 H57         2.2851   -8.5288  121.1878 H         1 LEU         0.0232
    215 H58         7.7023   -9.2255  119.4518 H         1 CYS         0.1884
    216 H59         7.4937  -11.8251  120.5259 H         1 CYS         0.0808
    217 H60         9.3142  -10.6477  118.4067 H         1 CYS         0.0426
    218 H61         7.6806  -11.3592  118.1791 H         1 CYS         0.0426
    219 H62        10.3649   -9.6488  120.5172 H         1 GLY         0.1881
    220 H63        12.3295   -9.6308  121.8321 H         1 GLY         0.0763
    221 H64        12.2896  -11.4209  121.6884 H         1 GLY         0.0763
    222 H65         9.9819   -9.1333  123.2868 H         1 TYR         0.1885
    223 H66        10.8208   -9.8226  125.9428 H         1 TYR         0.0821
    224 H67         8.7149   -8.6501  126.6537 H         1 TYR         0.0453
    225 H68         8.3980   -8.3605  124.9094 H         1 TYR         0.0453
    226 H69        11.3608   -8.1007  127.2539 H         1 TYR         0.0530
    227 H70         8.9710   -6.2434  124.2958 H         1 TYR         0.0530
    228 H71        12.8136   -6.1398  127.3050 H         1 TYR         0.0525
    229 H72        10.3469   -4.2320  124.3970 H         1 TYR         0.0525
    230 H73        13.1412   -4.0266  126.5882 H         1 TYR         0.2458
    231 H74         8.1746  -11.0790  123.8763 H         1 LEU         0.1883
    232 H75         6.9992  -12.6543  125.9616 H         1 LEU         0.0800
    233 H76         6.1590  -14.0923  124.0441 H         1 LEU         0.0315
    234 H77         7.0185  -12.9658  122.9400 H         1 LEU         0.0315
    235 H78         5.6436  -11.0793  123.9767 H         1 LEU         0.0298
    236 H79         3.5980  -11.6194  122.6483 H         1 LEU         0.0232
    237 H80         4.1162  -13.3367  122.5530 H         1 LEU         0.0232
    238 H81         5.0935  -12.0580  121.7552 H         1 LEU         0.0232
    239 H82         5.0041  -12.2724  126.0150 H         1 LEU         0.0232
    240 H83         4.0448  -13.4286  125.0303 H         1 LEU         0.0232
    241 H84         3.5742  -11.6962  125.0931 H         1 LEU         0.0232
    242 H85         9.6706  -13.1561  123.6523 H         1 CYS         0.1884
    243 H86        10.0575  -15.9545  124.2930 H         1 CYS         0.0808
    244 H87        12.3411  -14.1467  123.4158 H         1 CYS         0.0426
    245 H88        11.0561  -14.6620  122.2713 H         1 CYS         0.0426
    246 H89        11.5744  -12.9695  125.4703 H         1 TRP         0.1884
    247 H90        13.3577  -13.9045  127.4575 H         1 TRP         0.0815
    248 H91        11.5344  -11.5443  127.4355 H         1 TRP         0.0397
    249 H92        13.1408  -11.6876  126.6446 H         1 TRP         0.0397
    250 H93        12.7657  -12.7545  130.3682 H         1 TRP         0.0795
    251 H94        13.9331  -10.9390  131.8686 H         1 TRP         0.2216
    252 H95        13.9500   -9.3767  126.6750 H         1 TRP         0.0540
    253 H96        15.2125   -8.4828  131.4403 H         1 TRP         0.0541
    254 H97        15.1505   -7.3137  127.2989 H         1 TRP         0.0510
    255 H98        15.7073   -6.8236  129.6608 H         1 TRP         0.0530
    256 H99         9.8614  -13.0892  127.9005 H         1 ILE         0.1883
    257 H100        9.6674  -14.0071  130.5569 H         1 ILE         0.0803
    258 H101        7.5748  -13.7185  128.3612 H         1 ILE         0.0345
    259 H102        8.8031  -11.7759  129.3395 H         1 ILE         0.0267
    260 H103        8.1084  -12.2081  130.9386 H         1 ILE         0.0267
    261 H104        6.7538  -15.4890  129.8764 H         1 ILE         0.0235
    262 H105        5.8078  -13.9720  130.0498 H         1 ILE         0.0235
    263 H106        7.0336  -14.4125  131.2868 H         1 ILE         0.0235
    264 H107        6.8176  -10.3890  129.8606 H         1 ILE         0.0230
    265 H108        5.8181  -11.8712  130.0346 H         1 ILE         0.0230
    266 H109        6.5128  -11.4391  128.4355 H         1 ILE         0.0230
    267 H110        9.3613  -15.9900  127.5723 H         1 THR         0.1884
    268 H111        8.4354  -18.2954  128.9444 H         1 THR         0.0826
    269 H112        9.0571  -19.6700  127.0836 H         1 THR         0.0639
    270 H113       10.4981  -17.4200  126.0837 H         1 THR         0.2101
    271 H114        7.8786  -18.5185  125.1903 H         1 THR         0.0257
    272 H115        8.0066  -16.9561  126.0672 H         1 THR         0.0257
    273 H116        7.0138  -18.2895  126.7479 H         1 THR         0.0257
    274 H117       11.6066  -16.9145  128.5160 H         1 GLN         0.1883
    275 H118       13.1341  -19.3056  129.2324 H         1 GLN         0.0801
    276 H119       15.0580  -17.8343  129.1809 H         1 GLN         0.0337
    277 H120       14.0117  -16.3796  129.3060 H         1 GLN         0.0337
    278 H121       13.9473  -16.3324  127.0865 H         1 GLN         0.0504
    279 H122       12.9807  -17.8450  127.1523 H         1 GLN         0.0504
    280 H123       16.7598  -17.7674  125.7588 H         1 GLN         0.1814
    281 H124       15.9611  -16.3304  126.3037 H         1 GLN         0.1814
    282 H125       11.3640  -16.9444  131.0326 H         1 ALA         0.1883
    283 H126       12.9429  -17.4539  133.3897 H         1 ALA         0.0797
    284 H127       11.0944  -16.2790  134.5744 H         1 ALA         0.0277
    285 H128       10.1578  -16.2504  133.0419 H         1 ALA         0.0277
    286 H129       11.7129  -15.3593  133.1609 H         1 ALA         0.0277
    287 H130       10.5790  -19.4154  131.7965 H         1 GLU         0.1875
    288 H131        9.2562  -20.3191  134.2640 H         1 GLU         0.0727
    289 H132        8.0869  -21.9263  132.7248 H         1 GLU         0.0323
    290 H133        9.0846  -21.2807  131.3778 H         1 GLU         0.0323
    291 H134        8.2281  -18.9464  132.1189 H         1 GLU         0.0432
    292 H135        6.9985  -19.8450  133.0714 H         1 GLU         0.0432
    293 H136        8.8192  -15.4603  121.6558 H         1 CYS         0.0495
    294 H137       11.1657  -18.7580  120.1420 H         1 CYS         0.0500
    295 H138       10.6004  -18.0373  117.8355 H         1 CYS         0.0582
    296 H139        9.1569  -16.0585  117.4303 H         1 CYS         0.0500
    297 H140        7.3620  -14.6282  118.3645 H         1 CYS         0.0537
    298 H141        7.5386  -14.0200  120.0454 H         1 CYS         0.0537
    299 H142        9.9152  -17.2709  123.2224 H         1 CYS         0.0537
    300 H143       10.9172  -18.5601  122.4735 H         1 CYS         0.0537
@<TRIPOS>BOND
     1    2    1 1  
     2    3    2 1  
     3    2    5 1  
     4    3    4 2  
     5    6    3 am 
     6    7    6 1  
     7    8    7 1  
     8    7   10 1  
     9    8    9 2  
    10   12    8 am 
    11   10   11 1  
    12   13   12 1  
    13   12   18 1  
    14   14   13 1  
    15   13   16 1  
    16   14   15 2  
    17   19   14 am 
    18   16   17 1  
    19   17   18 1  
    20   20   19 1  
    21   21   20 1  
    22   20   23 1  
    23   21   22 2  
    24   27   21 am 
    25   23   24 1  
    26   24   25 1  
    27   24   26 1  
    28   28   27 1  
    29   29   28 1  
    30   28   31 1  
    31   29   30 2  
    32   36   29 am 
    33   31   32 1  
    34   32   33 1  
    35   33   34 ar 
    36   33   35 ar 
    37   37   36 1  
    38   38   37 1  
    39   37   40 1  
    40   38   39 2  
    41   45   38 am 
    42   40   41 1  
    43   41   42 1  
    44   42   43 ar 
    45   42   44 ar 
    46   46   45 1  
    47   47   46 1  
    48   46   49 1  
    49   47   48 2  
    50   53   47 am 
    51   49   50 1  
    52   50   51 ar 
    53   50   52 ar 
    54   54   53 1  
    55   55   54 1  
    56   54   57 1  
    57   55   56 2  
    58   61   55 am 
    59   57   58 1  
    60   58   59 1  
    61   58   60 1  
    62   62   61 1  
    63   62   63 1  
    64   65   62 1  
    65   63   64 2  
    66   63   67 am 
    67   66   65 1  
    68  156   66 1  
    69   67   68 1  
    70   68   69 1  
    71   69   70 2  
    72   69   71 am 
    73   71   72 1  
    74   72   73 1  
    75   72   75 1  
    76   73   74 2  
    77   73   83 am 
    78   75   76 1  
    79   76   77 ar 
    80   76   78 ar 
    81   77   79 ar 
    82   78   80 ar 
    83   79   81 ar 
    84   80   81 ar 
    85   81   82 1  
    86   83   84 1  
    87   84   85 1  
    88   84   87 1  
    89   85   86 2  
    90   85   91 am 
    91   87   88 1  
    92   88   89 1  
    93   88   90 1  
    94   91   92 1  
    95   92   93 1  
    96   92   95 1  
    97   93   94 2  
    98   93   97 am 
    99   95   96 1  
   100   96  157 1  
   101   97   98 1  
   102   98   99 1  
   103   98  101 1  
   104   99  100 2  
   105   99  111 am 
   106  101  102 1  
   107  102  103 2  
   108  102  104 1  
   109  103  105 1  
   110  104  106 ar 
   111  104  107 ar 
   112  106  105 1  
   113  106  108 ar 
   114  107  109 ar 
   115  108  110 ar 
   116  109  110 ar 
   117  111  112 1  
   118  112  113 1  
   119  112  115 1  
   120  113  114 2  
   121  113  119 am 
   122  115  116 1  
   123  115  117 1  
   124  116  118 1  
   125  119  120 1  
   126  120  121 1  
   127  120  123 1  
   128  121  122 2  
   129  121  126 am 
   130  123  124 1  
   131  123  125 1  
   132  126  127 1  
   133  127  128 1  
   134  127  130 1  
   135  128  129 2  
   136  128  135 am 
   137  130  131 1  
   138  131  132 1  
   139  132  133 2  
   140  132  134 am 
   141  135  136 1  
   142  136  137 1  
   143  136  139 1  
   144  137  138 2  
   145  137  140 am 
   146  140  141 1  
   147  141  142 1  
   148  141  144 1  
   149  142  143 ar 
   150  142  149 ar 
   151  144  145 1  
   152  145  146 1  
   153  146  147 ar 
   154  146  148 ar 
   155  150  151 ar 
   156  150  155 ar 
   157  150  156 1  
   158  151  152 ar 
   159  152  153 ar 
   160  152  157 1  
   161  153  154 ar 
   162  154  155 ar 
   163    1  158 1  
   164    1  159 1  
   165    1  160 1  
   166    2  161 1  
   167    5  162 1  
   168    5  163 1  
   169    5  164 1  
   170    6  165 1  
   171    7  166 1  
   172   10  167 1  
   173   10  168 1  
   174   11  169 1  
   175   13  170 1  
   176   16  171 1  
   177   16  172 1  
   178   17  173 1  
   179   17  174 1  
   180   18  175 1  
   181   18  176 1  
   182   19  177 1  
   183   20  178 1  
   184   23  179 1  
   185   23  180 1  
   186   24  181 1  
   187   25  182 1  
   188   25  183 1  
   189   25  184 1  
   190   26  185 1  
   191   26  186 1  
   192   26  187 1  
   193   27  188 1  
   194   28  189 1  
   195   31  190 1  
   196   31  191 1  
   197   32  192 1  
   198   32  193 1  
   199   36  194 1  
   200   37  195 1  
   201   40  196 1  
   202   40  197 1  
   203   41  198 1  
   204   41  199 1  
   205   45  200 1  
   206   46  201 1  
   207   49  202 1  
   208   49  203 1  
   209   53  204 1  
   210   54  205 1  
   211   57  206 1  
   212   57  207 1  
   213   58  208 1  
   214   59  209 1  
   215   59  210 1  
   216   59  211 1  
   217   60  212 1  
   218   60  213 1  
   219   60  214 1  
   220   61  215 1  
   221   62  216 1  
   222   65  217 1  
   223   65  218 1  
   224   67  219 1  
   225   68  220 1  
   226   68  221 1  
   227   71  222 1  
   228   72  223 1  
   229   75  224 1  
   230   75  225 1  
   231   77  226 1  
   232   78  227 1  
   233   79  228 1  
   234   80  229 1  
   235   82  230 1  
   236   83  231 1  
   237   84  232 1  
   238   87  233 1  
   239   87  234 1  
   240   88  235 1  
   241   89  236 1  
   242   89  237 1  
   243   89  238 1  
   244   90  239 1  
   245   90  240 1  
   246   90  241 1  
   247   91  242 1  
   248   92  243 1  
   249   95  244 1  
   250   95  245 1  
   251   97  246 1  
   252   98  247 1  
   253  101  248 1  
   254  101  249 1  
   255  103  250 1  
   256  105  251 1  
   257  107  252 1  
   258  108  253 1  
   259  109  254 1  
   260  110  255 1  
   261  111  256 1  
   262  112  257 1  
   263  115  258 1  
   264  116  259 1  
   265  116  260 1  
   266  117  261 1  
   267  117  262 1  
   268  117  263 1  
   269  118  264 1  
   270  118  265 1  
   271  118  266 1  
   272  119  267 1  
   273  120  268 1  
   274  123  269 1  
   275  124  270 1  
   276  125  271 1  
   277  125  272 1  
   278  125  273 1  
   279  126  274 1  
   280  127  275 1  
   281  130  276 1  
   282  130  277 1  
   283  131  278 1  
   284  131  279 1  
   285  134  280 1  
   286  134  281 1  
   287  135  282 1  
   288  136  283 1  
   289  139  284 1  
   290  139  285 1  
   291  139  286 1  
   292  140  287 1  
   293  141  288 1  
   294  144  289 1  
   295  144  290 1  
   296  145  291 1  
   297  145  292 1  
   298  151  293 1  
   299  153  294 1  
   300  154  295 1  
   301  155  296 1  
   302  156  297 1  
   303  156  298 1  
   304  157  299 1  
   305  157  300 1  
@<TRIPOS>SUBSTRUCTURE
     1 ALA         1

