3erd_ligand
  -I-interpret- 

 40 41  0  0  0  0  0  0  0  0999 V2000
    5.3970   -3.0840   -6.1700 C   0  0  0  0  0
    5.8180   -2.0660   -5.1530 C   0  0  0  0  0
    5.0590   -0.7450   -5.2310 C   0  0  0  0  0
    3.5590   -0.8980   -5.0640 C   0  0  0  0  0
    2.9720   -0.9970   -3.7920 C   0  0  0  0  0
    1.5760   -1.1710   -3.6570 C   0  0  0  0  0
    0.7810   -1.2440   -4.8000 C   0  0  0  0  0
   -0.5870   -1.4440   -4.7290 O   0  0  0  0  0
    1.3510   -1.1440   -6.0710 C   0  0  0  0  0
    2.7290   -0.9730   -6.1850 C   0  0  0  0  0
    5.6330    0.4260   -5.4430 C   0  0  0  0  0
    7.1080    0.5490   -5.8150 C   0  0  0  0  0
    7.5360    0.3040   -7.1250 C   0  0  0  0  0
    8.8860    0.4380   -7.4820 C   0  0  0  0  0
    9.8190    0.8170   -6.5220 C   0  0  0  0  0
   11.1610    0.9440   -6.8290 O   0  0  0  0  0
    9.4220    1.0690   -5.2040 C   0  0  0  0  0
    8.0630    0.9280   -4.8680 C   0  0  0  0  0
    4.8990    1.7680   -5.4010 C   0  0  0  0  0
    4.9700    2.4780   -4.0720 C   0  0  0  0  0
    4.3405   -3.3155   -6.0347 H   0  0  0  0  0
    5.5572   -2.6835   -7.1710 H   0  0  0  0  0
    5.9883   -3.9906   -6.0411 H   0  0  0  0  0
    6.8683   -1.8427   -5.3402 H   0  0  0  0  0
    5.6161   -2.4931   -4.1707 H   0  0  0  0  0
    3.5982   -0.9392   -2.9017 H   0  0  0  0  0
    1.1247   -1.2475   -2.6678 H   0  0  0  0  0
   -0.9528   -1.4644   -5.6164 H   0  0  0  0  0
    0.7259   -1.1990   -6.9623 H   0  0  0  0  0
    3.1723   -0.8955   -7.1778 H   0  0  0  0  0
    6.8088    0.0044   -7.8797 H   0  0  0  0  0
    9.2027    0.2460   -8.5072 H   0  0  0  0  0
   11.6438    1.2116   -6.0436 H   0  0  0  0  0
   10.1518    1.3688   -4.4519 H   0  0  0  0  0
    7.7470    1.1194   -3.8425 H   0  0  0  0  0
    3.8467    1.5625   -5.5972 H   0  0  0  0  0
    5.3772    2.4164   -6.1352 H   0  0  0  0  0
    4.5257    1.8485   -3.3010 H   0  0  0  0  0
    6.0123    2.6779   -3.8236 H   0  0  0  0  0
    4.4231    3.4188   -4.1345 H   0  0  0  0  0
  1  2  1  0  0  0
  2  3  1  0  0  0
  3  4  1  0  0  0
  3 11  2  0  0  0
  4  5  4  0  0  0
  4 10  4  0  0  0
  5  6  4  0  0  0
  6  7  4  0  0  0
  7  8  1  0  0  0
  7  9  4  0  0  0
  9 10  4  0  0  0
 11 12  1  0  0  0
 11 19  1  0  0  0
 12 13  4  0  0  0
 12 18  4  0  0  0
 13 14  4  0  0  0
 14 15  4  0  0  0
 15 16  1  0  0  0
 15 17  4  0  0  0
 17 18  4  0  0  0
 19 20  1  0  0  0
  1 21  1  0  0  0
  1 22  1  0  0  0
  1 23  1  0  0  0
  2 24  1  0  0  0
  2 25  1  0  0  0
  5 26  1  0  0  0
  6 27  1  0  0  0
  8 28  1  0  0  0
  9 29  1  0  0  0
 10 30  1  0  0  0
 13 31  1  0  0  0
 14 32  1  0  0  0
 16 33  1  0  0  0
 17 34  1  0  0  0
 18 35  1  0  0  0
 19 36  1  0  0  0
 19 37  1  0  0  0
 20 38  1  0  0  0
 20 39  1  0  0  0
 20 40  1  0  0  0
M  END
$$$$
