4k3h_ligand
  -I-interpret- 

 52 54  0  0  0  0  0  0  0  0999 V2000
    1.1980    3.3150    1.6460 O   0  0  0  0  0
    1.4490    4.4020    0.7630 C   0  0  0  0  0
    1.4360    4.2360   -0.6500 C   0  0  0  0  0
    1.6520    5.3560   -1.5300 C   0  0  0  0  0
    1.8690    6.6350   -1.0210 C   0  0  0  0  0
    1.8990    6.8020    0.4100 C   0  0  0  0  0
    1.6770    5.6890    1.2780 C   0  0  0  0  0
    2.1230    7.7870   -1.9170 C   0  0  0  0  0
    1.5560    9.0570   -1.5950 C   0  0  0  0  0
    2.1620   10.2850   -1.9660 C   0  0  0  0  0
    1.5210   11.5290   -1.7520 C   0  0  0  0  0
    0.2210   11.5900   -1.1150 C   0  0  0  0  0
   -0.5530   12.8070   -1.0230 N   0  0  0  0  0
   -1.9810   12.6760   -0.8080 C   0  0  0  0  0
    0.0910   14.1040   -1.2520 C   0  0  0  0  0
   -0.3730   10.3620   -0.7650 C   0  0  0  0  0
    0.2610    9.1170   -0.9830 C   0  0  0  0  0
    2.9280    7.6380   -3.1010 C   0  0  0  0  0
    2.6230    8.3410   -4.3210 C   0  0  0  0  0
    3.4110    8.2400   -5.4740 C   0  0  0  0  0
    4.5400    7.4160   -5.4630 C   0  0  0  0  0
    5.3500    7.3750   -6.5280 N   0  0  0  0  0
    4.8550    7.8320   -7.8500 C   0  0  0  0  0
    6.7350    6.9740   -6.4110 C   0  0  0  0  0
    4.8570    6.7180   -4.2780 C   0  0  0  0  0
    4.0480    6.8320   -3.1010 C   0  0  0  0  0
    1.2502    3.6230    2.5538 H   0  0  0  0  0
    1.2600    3.2469   -1.0729 H   0  0  0  0  0
    1.6456    5.2009   -2.6089 H   0  0  0  0  0
    2.0930    7.7871    0.8344 H   0  0  0  0  0
    1.6847    5.8410    2.3573 H   0  0  0  0  0
    2.8115    7.1697   -2.4941 H   0  0  0  0  0
    3.1488   10.2702   -2.4288 H   0  0  0  0  0
    2.0102   12.4499   -2.0695 H   0  0  0  0  0
   -2.4212   12.1147   -1.6321 H   0  0  0  0  0
   -2.1592   12.1482    0.1289 H   0  0  0  0  0
   -2.4323   13.6670   -0.7597 H   0  0  0  0  0
    0.8913   14.2442   -0.5254 H   0  0  0  0  0
    0.5051   14.1297   -2.2600 H   0  0  0  0  0
   -0.6463   14.8990   -1.1403 H   0  0  0  0  0
   -1.3622   10.3716   -0.3072 H   0  0  0  0  0
   -0.2388    8.1958   -0.6834 H   0  0  0  0  0
    1.7400    8.9795   -4.3476 H   0  0  0  0  0
    3.1465    8.7987   -6.3718 H   0  0  0  0  0
    3.9977    7.2267   -8.1446 H   0  0  0  0  0
    4.5568    8.8783   -7.7830 H   0  0  0  0  0
    5.6481    7.7256   -8.5901 H   0  0  0  0  0
    7.2520    7.6517   -5.7316 H   0  0  0  0  0
    6.7859    5.9575   -6.0208 H   0  0  0  0  0
    7.2070    7.0118   -7.3928 H   0  0  0  0  0
    5.7383    6.0769   -4.2578 H   0  0  0  0  0
    4.3186    6.2794   -2.2013 H   0  0  0  0  0
  1  2  1  0  0  0
  2  3  4  0  0  0
  2  7  4  0  0  0
  3  4  4  0  0  0
  4  5  4  0  0  0
  5  6  4  0  0  0
  5  8  1  0  0  0
  6  7  4  0  0  0
  8  9  1  0  0  0
  8 18  1  0  0  0
  9 10  4  0  0  0
  9 17  4  0  0  0
 10 11  4  0  0  0
 11 12  4  0  0  0
 12 13  1  0  0  0
 12 16  4  0  0  0
 13 14  1  0  0  0
 13 15  1  0  0  0
 16 17  4  0  0  0
 18 19  4  0  0  0
 18 26  4  0  0  0
 19 20  4  0  0  0
 20 21  4  0  0  0
 21 22  1  0  0  0
 21 25  4  0  0  0
 22 23  1  0  0  0
 22 24  1  0  0  0
 25 26  4  0  0  0
  1 27  1  0  0  0
  3 28  1  0  0  0
  4 29  1  0  0  0
  6 30  1  0  0  0
  7 31  1  0  0  0
  8 32  1  0  0  0
 10 33  1  0  0  0
 11 34  1  0  0  0
 14 35  1  0  0  0
 14 36  1  0  0  0
 14 37  1  0  0  0
 15 38  1  0  0  0
 15 39  1  0  0  0
 15 40  1  0  0  0
 16 41  1  0  0  0
 17 42  1  0  0  0
 19 43  1  0  0  0
 20 44  1  0  0  0
 23 45  1  0  0  0
 23 46  1  0  0  0
 23 47  1  0  0  0
 24 48  1  0  0  0
 24 49  1  0  0  0
 24 50  1  0  0  0
 25 51  1  0  0  0
 26 52  1  0  0  0
M  END
$$$$
