5a54_ligand
  -I-interpret- 

 23 24  0  0  0  0  0  0  0  0999 V2000
   40.3730  -31.6830    9.7600 C   0  0  0  0  0
   39.5060  -33.2510    8.2010 O   0  0  0  0  0
   36.9480  -26.0390   14.1850 O   0  0  0  0  0
   35.3420  -24.7850   12.8700 O   0  0  0  0  0
   35.1790  -27.0740   11.2370 C   0  0  0  0  0
   35.2570  -28.1130   10.3130 C   0  0  0  0  0
   37.2790  -27.8110   12.0890 C   0  0  0  0  0
   36.5090  -29.9920    9.4490 N   0  0  0  0  0
   38.0050  -31.7230    8.9140 N   0  0  0  0  0
   38.4010  -29.9570   10.8830 S   0  0  0  0  0
   39.2470  -32.2720    8.8990 C   0  0  0  0  0
   36.2130  -26.9120   12.1540 C   0  0  0  0  0
   37.6510  -30.6580    9.6470 C   0  0  0  0  0
   36.2980  -28.9490   10.2850 C   0  0  0  0  0
   37.2960  -28.7830   11.1750 C   0  0  0  0  0
   36.1840  -25.9300   13.0680 N   0  0  0  0  0
   40.7310  -32.4415   10.4562 H   0  0  0  0  0
   41.1922  -31.3638    9.1157 H   0  0  0  0  0
   39.9926  -30.8270   10.3173 H   0  0  0  0  0
   34.3229  -26.3994   11.2418 H   0  0  0  0  0
   34.4482  -28.2472    9.5947 H   0  0  0  0  0
   38.1064  -27.7179   12.7925 H   0  0  0  0  0
   37.2906  -32.1516    8.3255 H   0  0  0  0  0
 11  1  1  0  0  0
 11  2  2  0  0  0
 16  3  2  0  0  0
 16  4  2  0  0  0
  5  6  4  0  0  0
 12  5  4  0  0  0
  6 14  4  0  0  0
 12  7  4  0  0  0
  7 15  4  0  0  0
 13  8  4  0  0  0
 14  8  4  0  0  0
  9 11  1  0  0  0
 13  9  1  0  0  0
 10 13  4  0  0  0
 15 10  4  0  0  0
 12 16  1  0  0  0
 14 15  4  0  0  0
  1 17  1  0  0  0
  1 18  1  0  0  0
  1 19  1  0  0  0
  5 20  1  0  0  0
  6 21  1  0  0  0
  7 22  1  0  0  0
  9 23  1  0  0  0
M  END
$$$$
