2pl0_ligand
  -I-interpret- 

 70 74  0  0  0  0  0  0  0  0999 V2000
   29.5530   18.3180    4.0590 C   0  0  0  0  0
   28.6700   17.7700    5.0050 C   0  0  0  0  0
   29.0870   16.6420    5.7800 C   0  0  0  0  0
   30.3950   16.1200    5.5550 C   0  0  0  0  0
   31.1990   16.6850    4.6360 N   0  0  0  0  0
   30.8250   17.7460    3.8980 C   0  0  0  0  0
   28.1590   16.0470    6.7960 C   0  0  0  0  0
   28.3950   14.7670    7.3770 C   0  0  0  0  0
   27.4620   14.3000    8.3220 C   0  0  0  0  0
   26.3970   15.0630    8.6440 N   0  0  0  0  0
   26.2060   16.2690    8.0720 C   0  0  0  0  0
   27.0670   16.7450    7.1750 N   0  0  0  0  0
   25.1030   17.0500    8.3970 N   0  0  0  0  0
   24.1300   16.6660    9.3360 C   0  0  0  0  0
   23.1110   15.7050    9.0180 C   0  0  0  0  0
   22.1550   15.3590    9.9920 C   0  0  0  0  0
   22.1930   15.9500   11.2730 C   0  0  0  0  0
   23.1950   16.9040   11.6020 C   0  0  0  0  0
   24.1620   17.2540   10.6200 C   0  0  0  0  0
   23.1750   17.4890   12.9100 N   0  0  0  0  0
   24.1680   18.2310   13.5100 C   0  0  0  0  0
   23.9360   18.7710   14.8790 C   0  0  0  0  0
   23.0740   18.0890   15.7900 C   0  0  0  0  0
   22.8580   18.6090   17.0850 C   0  0  0  0  0
   23.4980   19.8080   17.4860 C   0  0  0  0  0
   24.3530   20.4900   16.5850 C   0  0  0  0  0
   24.5750   19.9810   15.2930 C   0  0  0  0  0
   23.2760   20.3770   18.8800 C   0  0  0  0  0
   23.4910   19.3560   19.9290 N   0  3  0  0  0
   24.9350   19.0940   20.1820 C   0  0  0  0  0
   25.0660   17.9330   21.1920 C   0  0  0  0  0
   24.3330   18.2690   22.4410 N   0  3  0  0  0
   24.4670   17.1930   23.4340 C   0  0  0  0  0
   22.9000   18.5900   22.2030 C   0  0  0  0  0
   22.7870   19.7400   21.1780 C   0  0  0  0  0
   25.2280   18.4670   12.9470 O   0  0  0  0  0
   23.0360   15.0570    7.6520 C   0  0  0  0  0
   29.2540   19.1765    3.4577 H   0  0  0  0  0
   27.6783   18.1996    5.1467 H   0  0  0  0  0
   30.7441   15.2615    6.1288 H   0  0  0  0  0
   31.5167   18.1658    3.1676 H   0  0  0  0  0
   29.2653   14.1721    7.1000 H   0  0  0  0  0
   27.5995   13.3260    8.7916 H   0  0  0  0  0
   24.9938   17.9498    7.9291 H   0  0  0  0  0
   21.3803   14.6297    9.7551 H   0  0  0  0  0
   21.4469   15.6725   12.0176 H   0  0  0  0  0
   24.9356   17.9832   10.8604 H   0  0  0  0  0
   22.3288   17.3387   13.4593 H   0  0  0  0  0
   22.5818   17.1654   15.4855 H   0  0  0  0  0
   22.1976   18.0871   17.7775 H   0  0  0  0  0
   24.8412   21.4140   16.8950 H   0  0  0  0  0
   25.2355   20.5100   14.6060 H   0  0  0  0  0
   22.2460   20.7271   18.9478 H   0  0  0  0  0
   23.9886   21.1866   19.0378 H   0  0  0  0  0
   23.0946   18.4808   19.5866 H   0  0  0  0  0
   25.4053   19.9894   20.5883 H   0  0  0  0  0
   25.4291   18.8262   19.2481 H   0  0  0  0  0
   26.1191   17.7730   21.4234 H   0  0  0  0  0
   24.6428   17.0273   20.7577 H   0  0  0  0  0
   24.7653   19.1153   22.8114 H   0  0  0  0  0
   24.0577   16.2695   23.0246 H   0  0  0  0  0
   25.5208   17.0502   23.6732 H   0  0  0  0  0
   23.9215   17.4644   24.3378 H   0  0  0  0  0
   22.4377   18.8959   23.1415 H   0  0  0  0  0
   22.3921   17.7077   21.8134 H   0  0  0  0  0
   21.7364   19.9321   20.9600 H   0  0  0  0  0
   23.2408   20.6414   21.5899 H   0  0  0  0  0
   22.8988   15.8272    6.8930 H   0  0  0  0  0
   23.9610   14.5141    7.4575 H   0  0  0  0  0
   22.1944   14.3648    7.6254 H   0  0  0  0  0
  1  2  4  0  0  0
  1  6  4  0  0  0
  2  3  4  0  0  0
  3  4  4  0  0  0
  3  7  1  0  0  0
  4  5  4  0  0  0
  5  6  4  0  0  0
  7  8  4  0  0  0
  7 12  4  0  0  0
  8  9  4  0  0  0
  9 10  4  0  0  0
 10 11  4  0  0  0
 11 12  4  0  0  0
 11 13  1  0  0  0
 13 14  1  0  0  0
 14 15  4  0  0  0
 14 19  4  0  0  0
 15 16  4  0  0  0
 15 37  1  0  0  0
 16 17  4  0  0  0
 17 18  4  0  0  0
 18 19  4  0  0  0
 18 20  1  0  0  0
 20 21  1  0  0  0
 21 22  1  0  0  0
 21 36  2  0  0  0
 22 23  4  0  0  0
 22 27  4  0  0  0
 23 24  4  0  0  0
 24 25  4  0  0  0
 25 26  4  0  0  0
 25 28  1  0  0  0
 26 27  4  0  0  0
 28 29  1  0  0  0
 29 30  1  0  0  0
 29 35  1  0  0  0
 30 31  1  0  0  0
 31 32  1  0  0  0
 32 33  1  0  0  0
 32 34  1  0  0  0
 34 35  1  0  0  0
  1 38  1  0  0  0
  2 39  1  0  0  0
  4 40  1  0  0  0
  6 41  1  0  0  0
  8 42  1  0  0  0
  9 43  1  0  0  0
 13 44  1  0  0  0
 16 45  1  0  0  0
 17 46  1  0  0  0
 19 47  1  0  0  0
 20 48  1  0  0  0
 23 49  1  0  0  0
 24 50  1  0  0  0
 26 51  1  0  0  0
 27 52  1  0  0  0
 28 53  1  0  0  0
 28 54  1  0  0  0
 29 55  1  0  0  0
 30 56  1  0  0  0
 30 57  1  0  0  0
 31 58  1  0  0  0
 31 59  1  0  0  0
 32 60  1  0  0  0
 33 61  1  0  0  0
 33 62  1  0  0  0
 33 63  1  0  0  0
 34 64  1  0  0  0
 34 65  1  0  0  0
 35 66  1  0  0  0
 35 67  1  0  0  0
 37 68  1  0  0  0
 37 69  1  0  0  0
 37 70  1  0  0  0
M  END
$$$$
