1h28_ligand
  -I-interpret- 

162162  0  0  0  0  0  0  0  0999 V2000
   41.1520   44.7110   44.0310 N   0  3  0  0  0
   39.8470   45.1160   43.4380 C   0  0  0  0  0
   39.1250   46.2720   44.1250 C   0  0  0  0  0
   38.0040   46.1200   44.5180 O   0  0  0  0  0
   39.7650   47.4400   44.2090 N   0  0  0  0  0
   39.4970   48.4880   45.2200 C   0  0  0  0  0
   40.3800   49.7180   44.9700 C   0  0  0  0  0
   41.3450   49.9410   45.6800 O   0  0  0  0  0
   39.8830   47.9720   46.5980 C   0  0  0  0  0
   41.2980   47.8540   46.6720 O   0  0  0  0  0
   40.0700   50.4940   43.9450 N   0  0  0  0  0
   40.9010   51.6280   43.5430 C   0  0  0  0  0
   40.0380   52.8390   43.3790 C   0  0  0  0  0
   40.5410   53.9200   43.2050 O   0  0  0  0  0
   41.5680   51.3510   42.2330 C   0  0  0  0  0
   38.7280   52.6390   43.3760 N   0  0  0  0  0
   37.8070   53.7410   43.2660 C   0  0  0  0  0
   38.0320   54.4950   44.5140 C   0  0  0  0  0
   38.5500   53.9520   45.4780 O   0  0  0  0  0
   36.3550   53.2680   43.1500 C   0  0  0  0  0
   35.5600   53.2020   44.4220 C   0  0  0  0  0
   34.1890   52.6090   44.1560 C   0  0  0  0  0
   33.3830   52.4870   45.4260 C   0  0  0  0  0
   31.9400   52.7200   45.1650 N   0  3  0  0  0
   37.6860   55.7640   44.4860 N   0  0  0  0  0
   38.2120   56.6760   45.4610 C   0  0  0  0  0
   37.9850   58.0680   44.9330 C   0  0  0  0  0
   37.9470   58.2920   43.7530 O   0  0  0  0  0
   39.7020   56.3810   45.7420 C   0  0  0  0  0
   40.4070   57.4320   46.5800 C   0  0  0  0  0
   41.5530   56.9310   47.4500 C   0  0  0  0  0
   42.8440   56.9680   46.7690 N   0  0  0  0  0
   43.3460   55.9620   46.0590 C   0  0  0  0  0
   42.6600   54.8370   45.9200 N   0  0  0  0  0
   44.5370   56.0770   45.4750 N   0  0  0  0  0
   37.7880   58.9750   45.8710 N   0  0  0  0  0
   37.5650   60.3790   45.6560 C   0  0  0  0  0
   38.7770   61.0640   46.2370 C   0  0  0  0  0
   39.0110   61.0080   47.4360 O   0  0  0  0  0
   36.2970   60.8150   46.4180 C   0  0  0  0  0
   35.9130   62.2810   46.1770 C   0  0  0  0  0
   34.5100   62.6940   46.5660 C   0  0  0  0  0
   34.4100   64.1420   46.7870 N   0  0  0  0  0
   33.4840   64.7360   47.5490 C   0  0  0  0  0
   32.5870   64.0030   48.1780 N   0  0  0  0  0
   33.4530   66.0600   47.6770 N   0  0  0  0  0
   39.5700   61.6950   45.3940 N   0  0  0  0  0
   40.8900   62.0900   45.7940 C   0  0  0  0  0
   40.9090   63.3200   46.6760 C   0  0  0  0  0
   41.7120   63.3650   47.6120 O   0  0  0  0  0
   41.7690   62.3020   44.5810 C   0  0  0  0  0
   41.9440   61.0760   43.7300 C   0  0  0  0  0
   42.7200   61.4340   42.4760 C   0  0  0  0  0
   42.6500   60.0290   44.5450 C   0  0  0  0  0
   40.0720   64.3210   46.3720 N   0  0  0  0  0
   40.0980   65.5840   47.1330 C   0  0  0  0  0
   38.7170   66.1360   47.6030 C   0  0  0  0  0
   37.7070   65.4270   47.6260 O   0  0  0  0  0
   40.8830   66.6680   46.3910 C   0  0  0  0  0
   42.0560   66.1540   45.5800 C   0  0  0  0  0
   41.9290   65.8890   44.2250 C   0  0  0  0  0
   43.2690   65.9710   46.1570 C   0  0  0  0  0
   43.0010   65.4290   43.4830 C   0  0  0  0  0
   44.3350   65.5040   45.4100 C   0  0  0  0  0
   44.1850   65.2330   44.0740 C   0  0  0  0  0
   38.6770   67.3880   48.0450 N   0  0  0  0  0
   37.3980   67.9780   48.4170 C   0  0  0  0  0
   36.5870   68.1880   47.1620 C   0  0  0  0  0
   36.4720   69.3370   46.7020 O   0  0  0  0  0
   36.0640   67.0590   46.6370 N   0  0  0  0  0
   35.4960   66.8450   45.2460 C   0  0  0  0  0
   36.5450   66.5690   44.1300 C   0  0  0  0  0
   37.0130   65.4400   43.9110 O   0  0  0  0  0
   34.4650   67.9500   44.8220 C   0  0  0  0  0
   33.9830   67.8600   43.3510 C   0  0  0  0  0
   33.5750   69.2020   42.6970 C   0  0  0  0  0
   33.7170   70.2640   43.3470 O   0  0  0  0  0
   33.1020   69.1760   41.5220 O   0  0  0  0  0
   36.9840   67.4590   43.3840 O   0  0  0  0  0
   41.5416   43.9355   43.4950 H   0  0  0  0  0
   41.7960   45.5015   44.0046 H   0  0  0  0  0
   41.0089   44.4196   44.9980 H   0  0  0  0  0
   39.1903   44.2507   43.5273 H   0  0  0  0  0
   40.0644   45.4522   42.4242 H   0  0  0  0  0
   40.4964   47.6254   43.5227 H   0  0  0  0  0
   38.4396   48.7450   45.1571 H   0  0  0  0  0
   39.4248   46.9973   46.7658 H   0  0  0  0  0
   39.5330   48.6674   47.3609 H   0  0  0  0  0
   41.5459   47.5285   47.5405 H   0  0  0  0  0
   39.2210   50.2944   43.4160 H   0  0  0  0  0
   41.6570   51.7915   44.3110 H   0  0  0  0  0
   42.1974   50.4660   42.3271 H   0  0  0  0  0
   40.8092   51.1793   41.4695 H   0  0  0  0  0
   42.1817   52.2066   41.9511 H   0  0  0  0  0
   38.3657   51.6886   43.4529 H   0  0  0  0  0
   37.9725   54.3375   42.3688 H   0  0  0  0  0
   36.4026   52.2461   42.7738 H   0  0  0  0  0
   35.8511   54.0012   42.5202 H   0  0  0  0  0
   35.4407   54.2098   44.8198 H   0  0  0  0  0
   36.0871   52.5723   45.1388 H   0  0  0  0  0
   34.3199   51.6129   43.7332 H   0  0  0  0  0
   33.6553   53.2672   43.4704 H   0  0  0  0  0
   33.7350   53.2347   46.1367 H   0  0  0  0  0
   33.5082   51.4801   45.8242 H   0  0  0  0  0
   31.4193   52.6319   46.0377 H   0  0  0  0  0
   31.8116   53.6575   44.7843 H   0  0  0  0  0
   31.6013   52.0301   44.4944 H   0  0  0  0  0
   37.0424   56.1003   43.7697 H   0  0  0  0  0
   37.7062   56.5654   46.4202 H   0  0  0  0  0
   40.2080   56.3515   44.7770 H   0  0  0  0  0
   39.7411   55.4476   46.3035 H   0  0  0  0  0
   39.6576   57.8345   47.2615 H   0  0  0  0  0
   40.8428   58.1427   45.8778 H   0  0  0  0  0
   41.3439   55.8932   47.7096 H   0  0  0  0  0
   41.6182   57.5827   48.3213 H   0  0  0  0  0
   43.3972   57.8217   46.8427 H   0  0  0  0  0
   41.7440   54.7408   46.3583 H   0  0  0  0  0
   44.9131   55.3033   44.9269 H   0  0  0  0  0
   45.0733   56.9388   45.5757 H   0  0  0  0  0
   37.7945   58.6500   46.8378 H   0  0  0  0  0
   37.4255   60.6243   44.6032 H   0  0  0  0  0
   36.4984   60.6995   47.4830 H   0  0  0  0  0
   35.4722   60.1973   46.0627 H   0  0  0  0  0
   35.9815   62.4343   45.1000 H   0  0  0  0  0
   36.5823   62.8716   46.8026 H   0  0  0  0  0
   34.2483   62.1866   47.4945 H   0  0  0  0  0
   33.8354   62.4238   45.7536 H   0  0  0  0  0
   35.0966   64.7390   46.3260 H   0  0  0  0  0
   32.6006   62.9875   48.0828 H   0  0  0  0  0
   32.7392   66.4996   48.2581 H   0  0  0  0  0
   34.1430   66.6354   47.1941 H   0  0  0  0  0
   39.2429   61.9039   44.4507 H   0  0  0  0  0
   41.2846   61.2713   46.3957 H   0  0  0  0  0
   42.7566   62.5871   44.9437 H   0  0  0  0  0
   41.2878   63.0590   43.9617 H   0  0  0  0  0
   40.9788   60.6795   43.4149 H   0  0  0  0  0
   42.1717   62.1904   41.9145 H   0  0  0  0  0
   43.6985   61.8250   42.7550 H   0  0  0  0  0
   42.8453   60.5429   41.8610 H   0  0  0  0  0
   43.6228   60.4085   44.8575 H   0  0  0  0  0
   42.0519   59.7907   45.4246 H   0  0  0  0  0
   42.7854   59.1312   43.9420 H   0  0  0  0  0
   39.4089   64.2082   45.6052 H   0  0  0  0  0
   40.6121   65.3127   48.0550 H   0  0  0  0  0
   41.2890   67.3405   47.1467 H   0  0  0  0  0
   40.1927   67.1372   45.6900 H   0  0  0  0  0
   40.9674   66.0460   43.7364 H   0  0  0  0  0
   43.4048   66.1931   47.2154 H   0  0  0  0  0
   42.8817   65.2264   42.4186 H   0  0  0  0  0
   45.3028   65.3500   45.8872 H   0  0  0  0  0
   45.0290   64.8586   43.4947 H   0  0  0  0  0
   39.5359   67.9326   48.1234 H   0  0  0  0  0
   37.5594   68.9312   48.9205 H   0  0  0  0  0
   36.8655   67.3146   49.0984 H   0  0  0  0  0
   36.0488   66.2468   47.2538 H   0  0  0  0  0
   34.9470   65.9086   45.3451 H   0  0  0  0  0
   36.6271   64.8104   44.5244 H   0  0  0  0  0
   34.9680   68.9108   44.9319 H   0  0  0  0  0
   33.5849   67.8198   45.4518 H   0  0  0  0  0
   33.0905   67.2343   43.3557 H   0  0  0  0  0
   34.8240   67.4773   42.7728 H   0  0  0  0  0
   33.0783   68.2692   41.2078 H   0  0  0  0  0
  1  2  1  0  0  0
  2  3  1  0  0  0
  3  4  2  0  0  0
  3  5  1  0  0  0
  5  6  1  0  0  0
  6  7  1  0  0  0
  6  9  1  0  0  0
  7  8  2  0  0  0
  7 11  1  0  0  0
  9 10  1  0  0  0
 11 12  1  0  0  0
 12 13  1  0  0  0
 12 15  1  0  0  0
 13 14  2  0  0  0
 13 16  1  0  0  0
 16 17  1  0  0  0
 17 18  1  0  0  0
 17 20  1  0  0  0
 18 19  2  0  0  0
 18 25  1  0  0  0
 20 21  1  0  0  0
 21 22  1  0  0  0
 22 23  1  0  0  0
 23 24  1  0  0  0
 25 26  1  0  0  0
 26 27  1  0  0  0
 26 29  1  0  0  0
 27 28  2  0  0  0
 27 36  1  0  0  0
 29 30  1  0  0  0
 30 31  1  0  0  0
 31 32  1  0  0  0
 32 33  1  0  0  0
 33 34  2  0  0  0
 33 35  1  0  0  0
 36 37  1  0  0  0
 37 38  1  0  0  0
 37 40  1  0  0  0
 38 39  2  0  0  0
 38 47  1  0  0  0
 40 41  1  0  0  0
 41 42  1  0  0  0
 42 43  1  0  0  0
 43 44  1  0  0  0
 44 45  2  0  0  0
 44 46  1  0  0  0
 47 48  1  0  0  0
 48 49  1  0  0  0
 48 51  1  0  0  0
 49 50  2  0  0  0
 49 55  1  0  0  0
 51 52  1  0  0  0
 52 53  1  0  0  0
 52 54  1  0  0  0
 55 56  1  0  0  0
 56 57  1  0  0  0
 56 59  1  0  0  0
 57 58  2  0  0  0
 57 66  1  0  0  0
 59 60  1  0  0  0
 60 61  4  0  0  0
 60 62  4  0  0  0
 61 63  4  0  0  0
 62 64  4  0  0  0
 63 65  4  0  0  0
 64 65  4  0  0  0
 66 67  1  0  0  0
 67 68  1  0  0  0
 68 69  2  0  0  0
 68 70  1  0  0  0
 70 71  1  0  0  0
 71 72  1  0  0  0
 71 74  1  0  0  0
 72 73  1  0  0  0
 72 79  2  0  0  0
 74 75  1  0  0  0
 75 76  1  0  0  0
 76 77  2  0  0  0
 76 78  1  0  0  0
  1 80  1  0  0  0
  1 81  1  0  0  0
  1 82  1  0  0  0
  2 83  1  0  0  0
  2 84  1  0  0  0
  5 85  1  0  0  0
  6 86  1  0  0  0
  9 87  1  0  0  0
  9 88  1  0  0  0
 10 89  1  0  0  0
 11 90  1  0  0  0
 12 91  1  0  0  0
 15 92  1  0  0  0
 15 93  1  0  0  0
 15 94  1  0  0  0
 16 95  1  0  0  0
 17 96  1  0  0  0
 20 97  1  0  0  0
 20 98  1  0  0  0
 21 99  1  0  0  0
 21100  1  0  0  0
 22101  1  0  0  0
 22102  1  0  0  0
 23103  1  0  0  0
 23104  1  0  0  0
 24105  1  0  0  0
 24106  1  0  0  0
 24107  1  0  0  0
 25108  1  0  0  0
 26109  1  0  0  0
 29110  1  0  0  0
 29111  1  0  0  0
 30112  1  0  0  0
 30113  1  0  0  0
 31114  1  0  0  0
 31115  1  0  0  0
 32116  1  0  0  0
 34117  1  0  0  0
 35118  1  0  0  0
 35119  1  0  0  0
 36120  1  0  0  0
 37121  1  0  0  0
 40122  1  0  0  0
 40123  1  0  0  0
 41124  1  0  0  0
 41125  1  0  0  0
 42126  1  0  0  0
 42127  1  0  0  0
 43128  1  0  0  0
 45129  1  0  0  0
 46130  1  0  0  0
 46131  1  0  0  0
 47132  1  0  0  0
 48133  1  0  0  0
 51134  1  0  0  0
 51135  1  0  0  0
 52136  1  0  0  0
 53137  1  0  0  0
 53138  1  0  0  0
 53139  1  0  0  0
 54140  1  0  0  0
 54141  1  0  0  0
 54142  1  0  0  0
 55143  1  0  0  0
 56144  1  0  0  0
 59145  1  0  0  0
 59146  1  0  0  0
 61147  1  0  0  0
 62148  1  0  0  0
 63149  1  0  0  0
 64150  1  0  0  0
 65151  1  0  0  0
 66152  1  0  0  0
 67153  1  0  0  0
 67154  1  0  0  0
 70155  1  0  0  0
 71156  1  0  0  0
 73157  1  0  0  0
 74158  1  0  0  0
 74159  1  0  0  0
 75160  1  0  0  0
 75161  1  0  0  0
 78162  1  0  0  0
M  END
$$$$
