### 
### Created by X-TOOL on Mon Sep 10 21:12:50 2018
### 

@<TRIPOS>MOLECULE
1h28_ligand
  162   162     1     0     0
SMALL
GAST_HUCK


@<TRIPOS>ATOM
      1 N          41.1520   44.7110   44.0310 N.4       1 GLY         0.2357
      2 CA         39.8470   45.1160   43.4380 C.3       1 GLY         0.0545
      3 C          39.1250   46.2720   44.1250 C.2       1 GLY         0.2237
      4 O          38.0040   46.1200   44.5180 O.2       1 GLY        -0.3910
      5 N          39.7650   47.4400   44.2090 N.am      1 SER        -0.2591
      6 CA         39.4970   48.4880   45.2200 C.3       1 SER         0.1540
      7 C          40.3800   49.7180   44.9700 C.2       1 SER         0.2062
      8 O          41.3450   49.9410   45.6800 O.2       1 SER        -0.3943
      9 CB         39.8830   47.9720   46.5980 C.3       1 SER         0.0843
     10 OG         41.2980   47.8540   46.6720 O.3       1 SER        -0.3903
     11 N          40.0700   50.4940   43.9450 N.am      1 ALA        -0.2639
     12 CA         40.9010   51.6280   43.5430 C.3       1 ALA         0.1282
     13 C          40.0380   52.8390   43.3790 C.2       1 ALA         0.2036
     14 O          40.5410   53.9200   43.2050 O.2       1 ALA        -0.3944
     15 CB         41.5680   51.3510   42.2330 C.3       1 ALA        -0.0244
     16 N          38.7280   52.6390   43.3760 N.am      1 LYS        -0.2637
     17 CA         37.8070   53.7410   43.2660 C.3       1 LYS         0.1310
     18 C          38.0320   54.4950   44.5140 C.2       1 LYS         0.2039
     19 O          38.5500   53.9520   45.4780 O.2       1 LYS        -0.3944
     20 CB         36.3550   53.2680   43.1500 C.3       1 LYS        -0.0122
     21 CG         35.5600   53.2020   44.4220 C.3       1 LYS        -0.0440
     22 CD         34.1890   52.6090   44.1560 C.3       1 LYS        -0.0124
     23 CE         33.3830   52.4870   45.4260 C.3       1 LYS        -0.0354
     24 NZ         31.9400   52.7200   45.1650 N.4       1 LYS         0.2185
     25 N          37.6860   55.7640   44.4860 N.am      1 ARG        -0.2637
     26 CA         38.2120   56.6760   45.4610 C.3       1 ARG         0.1311
     27 C          37.9850   58.0680   44.9330 C.2       1 ARG         0.2039
     28 O          37.9470   58.2920   43.7530 O.2       1 ARG        -0.3944
     29 CB         39.7020   56.3810   45.7420 C.3       1 ARG        -0.0092
     30 CG         40.4070   57.4320   46.5800 C.3       1 ARG        -0.0156
     31 CD         41.5530   56.9310   47.4500 C.3       1 ARG         0.0627
     32 NE         42.8440   56.9680   46.7690 N.pl3     1 ARG        -0.2723
     33 CZ         43.3460   55.9620   46.0590 C.cat     1 ARG         0.2882
     34 NH1        42.6600   54.8370   45.9200 N.pl3     1 ARG        -0.2849
     35 NH2        44.5370   56.0770   45.4750 N.pl3     1 ARG        -0.2849
     36 N          37.7880   58.9750   45.8710 N.am      1 ARG        -0.2637
     37 CA         37.5650   60.3790   45.6560 C.3       1 ARG         0.1311
     38 C          38.7770   61.0640   46.2370 C.2       1 ARG         0.2039
     39 O          39.0110   61.0080   47.4360 O.2       1 ARG        -0.3944
     40 CB         36.2970   60.8150   46.4180 C.3       1 ARG        -0.0092
     41 CG         35.9130   62.2810   46.1770 C.3       1 ARG        -0.0156
     42 CD         34.5100   62.6940   46.5660 C.3       1 ARG         0.0627
     43 NE         34.4100   64.1420   46.7870 N.pl3     1 ARG        -0.2723
     44 CZ         33.4840   64.7360   47.5490 C.cat     1 ARG         0.2882
     45 NH1        32.5870   64.0030   48.1780 N.pl3     1 ARG        -0.2849
     46 NH2        33.4530   66.0600   47.6770 N.pl3     1 ARG        -0.2849
     47 N          39.5700   61.6950   45.3940 N.am      1 LEU        -0.2637
     48 CA         40.8900   62.0900   45.7940 C.3       1 LEU         0.1312
     49 C          40.9090   63.3200   46.6760 C.2       1 LEU         0.2040
     50 O          41.7120   63.3650   47.6120 O.2       1 LEU        -0.3944
     51 CB         41.7690   62.3020   44.5810 C.3       1 LEU        -0.0101
     52 CG         41.9440   61.0760   43.7300 C.3       1 LEU        -0.0425
     53 CD1        42.7200   61.4340   42.4760 C.3       1 LEU        -0.0625
     54 CD2        42.6500   60.0290   44.5450 C.3       1 LEU        -0.0625
     55 N          40.0720   64.3210   46.3720 N.am      1 PHE        -0.2619
     56 CA         40.0980   65.5840   47.1330 C.3       1 PHE         0.1404
     57 C          38.7170   66.1360   47.6030 C.2       1 PHE         0.2058
     58 O          37.7070   65.4270   47.6260 O.2       1 PHE        -0.3942
     59 CB         40.8830   66.6680   46.3910 C.3       1 PHE         0.0214
     60 CG         42.0560   66.1540   45.5800 C.ar      1 PHE        -0.0386
     61 CD1        41.9290   65.8890   44.2250 C.ar      1 PHE        -0.0601
     62 CD2        43.2690   65.9710   46.1570 C.ar      1 PHE        -0.0601
     63 CE1        43.0010   65.4290   43.4830 C.ar      1 PHE        -0.0686
     64 CE2        44.3350   65.5040   45.4100 C.ar      1 PHE        -0.0686
     65 CZ         44.1850   65.2330   44.0740 C.ar      1 PHE        -0.0687
     66 N          38.6770   67.3880   48.0450 N.am      1 GLY        -0.2663
     67 CA         37.3980   67.9780   48.4170 C.3       1 GLY         0.1201
     68 C          36.5870   68.1880   47.1620 C.2       1 GLY         0.2002
     69 O          36.4720   69.3370   46.7020 O.2       1 GLY        -0.3947
     70 N          36.0640   67.0590   46.6370 N.am      1 GLU        -0.2696
     71 CA         35.4960   66.8450   45.2460 C.3       1 GLU         0.0958
     72 C          36.5450   66.5690   44.1300 C.2       1 GLU         0.0602
     73 O          37.0130   65.4400   43.9110 O.co2     1 GLU        -0.5666
     74 CB         34.4650   67.9500   44.8220 C.3       1 GLU        -0.0064
     75 CG         33.9830   67.8600   43.3510 C.3       1 GLU         0.0038
     76 CD         33.5750   69.2020   42.6970 C.2       1 GLU         0.0350
     77 OE1        33.7170   70.2640   43.3470 O.co2     1 GLU        -0.5690
     78 OE2        33.1020   69.1760   41.5220 O.co2     1 GLU        -0.5690
     79 OXT        36.9840   67.4590   43.3840 O.co2     1 GLU        -0.5666
     80 H1         41.5380   43.9446   43.5021 H         1 GLY         0.2012
     81 H2         41.0118   44.4227   44.9867 H         1 GLY         0.2012
     82 H3         41.7894   45.4915   44.0055 H         1 GLY         0.2012
     83 H4         39.1806   44.2412   43.4638 H         1 GLY         0.1061
     84 H5         40.0291   45.4075   42.3931 H         1 GLY         0.1061
     85 H6         40.4821   47.6217   43.5361 H         1 SER         0.1885
     86 H7         38.4332   48.7667   45.1933 H         1 SER         0.0823
     87 H8         39.4222   46.9872   46.7648 H         1 SER         0.0606
     88 H9         39.5316   48.6761   47.3666 H         1 SER         0.0606
     89 H10        41.6937   48.7054   46.5269 H         1 SER         0.2097
     90 H11        39.2377   50.2983   43.4264 H         1 ALA         0.1883
     91 H12        41.6635   51.8137   44.3138 H         1 ALA         0.0797
     92 H13        42.1877   52.2138   41.9474 H         1 ALA         0.0277
     93 H14        40.8033   51.1775   41.4616 H         1 ALA         0.0277
     94 H15        42.2035   50.4581   42.3267 H         1 ALA         0.0277
     95 H16        38.3728   51.7072   43.4514 H         1 LYS         0.1883
     96 H17        38.0504   54.3604   42.3901 H         1 LYS         0.0800
     97 H18        36.3679   52.2586   42.7131 H         1 LYS         0.0312
     98 H19        35.8345   53.9562   42.4678 H         1 LYS         0.0312
     99 H20        35.4434   54.2168   44.8301 H         1 LYS         0.0269
    100 H21        36.0924   52.5727   45.1504 H         1 LYS         0.0269
    101 H22        34.3117   51.6096   43.7132 H         1 LYS         0.0317
    102 H23        33.6492   53.2586   43.4512 H         1 LYS         0.0317
    103 H24        33.7418   53.2309   46.1526 H         1 LYS         0.0813
    104 H25        33.5150   51.4765   45.8402 H         1 LYS         0.0813
    105 H26        31.4244   52.6332   46.0268 H         1 LYS         0.1994
    106 H27        31.6041   52.0387   44.5024 H         1 LYS         0.1994
    107 H28        31.8119   53.6463   44.7887 H         1 LYS         0.1994
    108 H29        37.0551   56.0937   43.7837 H         1 ARG         0.1883
    109 H30        37.6567   56.5586   46.4032 H         1 ARG         0.0800
    110 H31        40.2245   56.3044   44.7771 H         1 ARG         0.0313
    111 H32        39.7674   55.4192   46.2718 H         1 ARG         0.0313
    112 H33        39.6588   57.8933   47.2413 H         1 ARG         0.0301
    113 H34        40.8109   58.1930   45.8961 H         1 ARG         0.0301
    114 H35        41.3416   55.8924   47.7444 H         1 ARG         0.0689
    115 H36        41.6126   57.5621   48.3489 H         1 ARG         0.0689
    116 H37        43.4027   57.8301   46.8435 H         1 ARG         0.2642
    117 H38        43.0517   54.0596   45.3694 H         1 ARG         0.2615
    118 H39        41.7350   54.7398   46.3626 H         1 ARG         0.2615
    119 H40        45.0786   56.9472   45.5767 H         1 ARG         0.2615
    120 H41        44.9168   55.2958   44.9215 H         1 ARG         0.2615
    121 H42        37.7944   58.6564   46.8189 H         1 ARG         0.1883
    122 H43        37.4603   60.6048   44.5845 H         1 ARG         0.0800
    123 H44        36.4715   60.6731   47.4947 H         1 ARG         0.0313
    124 H45        35.4602   60.1782   46.0951 H         1 ARG         0.0313
    125 H46        36.0332   62.4837   45.1026 H         1 ARG         0.0301
    126 H47        36.6141   62.9066   46.7489 H         1 ARG         0.0301
    127 H48        34.2291   62.1721   47.4927 H         1 ARG         0.0689
    128 H49        33.8182   62.4082   45.7600 H         1 ARG         0.0689
    129 H50        35.1034   64.7449   46.3214 H         1 ARG         0.2642
    130 H51        31.8723   64.4557   48.7656 H         1 ARG         0.2615
    131 H52        32.6007   62.9776   48.0819 H         1 ARG         0.2615
    132 H53        34.1498   66.6410   47.1893 H         1 ARG         0.2615
    133 H54        32.7322   66.5039   48.2638 H         1 ARG         0.2615
    134 H55        39.2493   61.8998   44.4692 H         1 LEU         0.1883
    135 H56        41.3155   61.2613   46.3790 H         1 LEU         0.0800
    136 H57        42.7614   62.6279   44.9259 H         1 LEU         0.0315
    137 H58        41.3186   63.0914   43.9614 H         1 LEU         0.0315
    138 H59        40.9561   60.6922   43.4355 H         1 LEU         0.0298
    139 H60        42.8471   60.5354   41.8544 H         1 LEU         0.0232
    140 H61        43.7078   61.8287   42.7562 H         1 LEU         0.0232
    141 H62        42.1677   62.1973   41.9084 H         1 LEU         0.0232
    142 H63        42.0554   59.7997   45.4416 H         1 LEU         0.0232
    143 H64        43.6389   60.4044   44.8469 H         1 LEU         0.0232
    144 H65        42.7723   59.1165   43.9430 H         1 LEU         0.0232
    145 H66        39.4219   64.2104   45.6202 H         1 PHE         0.1885
    146 H67        40.6588   65.3620   48.0529 H         1 PHE         0.0823
    147 H68        41.2665   67.3831   47.1337 H         1 PHE         0.0474
    148 H69        40.1930   67.1841   45.7072 H         1 PHE         0.0474
    149 H70        40.9727   66.0452   43.7390 H         1 PHE         0.0557
    150 H71        43.4041   66.1919   47.2096 H         1 PHE         0.0557
    151 H72        42.8824   65.2276   42.4245 H         1 PHE         0.0599
    152 H73        45.2975   65.3508   45.8846 H         1 PHE         0.0599
    153 H74        45.0244   64.8606   43.4979 H         1 PHE         0.0559
    154 H75        39.5191   67.9219   48.1219 H         1 GLY         0.1881
    155 H76        37.5656   68.9435   48.9168 H         1 GLY         0.0763
    156 H77        36.8606   67.3012   49.0975 H         1 GLY         0.0763
    157 H78        36.0491   66.2627   47.2417 H         1 GLU         0.1875
    158 H79        34.9125   65.9157   45.3228 H         1 GLU         0.0727
    159 H80        34.9374   68.9327   44.9677 H         1 GLU         0.0323
    160 H81        33.5847   67.8657   45.4762 H         1 GLU         0.0323
    161 H82        33.1109   67.1902   43.3211 H         1 GLU         0.0432
    162 H83        34.7987   67.4268   42.7536 H         1 GLU         0.0432
@<TRIPOS>BOND
     1    1    2 1  
     2    2    3 1  
     3    3    4 2  
     4    3    5 am 
     5    5    6 1  
     6    6    7 1  
     7    6    9 1  
     8    7    8 2  
     9    7   11 am 
    10    9   10 1  
    11   11   12 1  
    12   12   13 1  
    13   12   15 1  
    14   13   14 2  
    15   13   16 am 
    16   16   17 1  
    17   17   18 1  
    18   17   20 1  
    19   18   19 2  
    20   18   25 am 
    21   20   21 1  
    22   21   22 1  
    23   22   23 1  
    24   23   24 1  
    25   25   26 1  
    26   26   27 1  
    27   26   29 1  
    28   27   28 2  
    29   27   36 am 
    30   29   30 1  
    31   30   31 1  
    32   31   32 1  
    33   32   33 ar 
    34   33   34 ar 
    35   33   35 ar 
    36   36   37 1  
    37   37   38 1  
    38   37   40 1  
    39   38   39 2  
    40   38   47 am 
    41   40   41 1  
    42   41   42 1  
    43   42   43 1  
    44   43   44 ar 
    45   44   45 ar 
    46   44   46 ar 
    47   47   48 1  
    48   48   49 1  
    49   48   51 1  
    50   49   50 2  
    51   49   55 am 
    52   51   52 1  
    53   52   53 1  
    54   52   54 1  
    55   55   56 1  
    56   56   57 1  
    57   56   59 1  
    58   57   58 2  
    59   57   66 am 
    60   59   60 1  
    61   60   61 ar 
    62   60   62 ar 
    63   61   63 ar 
    64   62   64 ar 
    65   63   65 ar 
    66   64   65 ar 
    67   66   67 1  
    68   67   68 1  
    69   68   69 2  
    70   68   70 am 
    71   70   71 1  
    72   71   72 1  
    73   71   74 1  
    74   72   73 ar 
    75   72   79 ar 
    76   74   75 1  
    77   75   76 1  
    78   76   77 ar 
    79   76   78 ar 
    80    1   80 1  
    81    1   81 1  
    82    1   82 1  
    83    2   83 1  
    84    2   84 1  
    85    5   85 1  
    86    6   86 1  
    87    9   87 1  
    88    9   88 1  
    89   10   89 1  
    90   11   90 1  
    91   12   91 1  
    92   15   92 1  
    93   15   93 1  
    94   15   94 1  
    95   16   95 1  
    96   17   96 1  
    97   20   97 1  
    98   20   98 1  
    99   21   99 1  
   100   21  100 1  
   101   22  101 1  
   102   22  102 1  
   103   23  103 1  
   104   23  104 1  
   105   24  105 1  
   106   24  106 1  
   107   24  107 1  
   108   25  108 1  
   109   26  109 1  
   110   29  110 1  
   111   29  111 1  
   112   30  112 1  
   113   30  113 1  
   114   31  114 1  
   115   31  115 1  
   116   32  116 1  
   117   34  117 1  
   118   34  118 1  
   119   35  119 1  
   120   35  120 1  
   121   36  121 1  
   122   37  122 1  
   123   40  123 1  
   124   40  124 1  
   125   41  125 1  
   126   41  126 1  
   127   42  127 1  
   128   42  128 1  
   129   43  129 1  
   130   45  130 1  
   131   45  131 1  
   132   46  132 1  
   133   46  133 1  
   134   47  134 1  
   135   48  135 1  
   136   51  136 1  
   137   51  137 1  
   138   52  138 1  
   139   53  139 1  
   140   53  140 1  
   141   53  141 1  
   142   54  142 1  
   143   54  143 1  
   144   54  144 1  
   145   55  145 1  
   146   56  146 1  
   147   59  147 1  
   148   59  148 1  
   149   61  149 1  
   150   62  150 1  
   151   63  151 1  
   152   64  152 1  
   153   65  153 1  
   154   66  154 1  
   155   67  155 1  
   156   67  156 1  
   157   70  157 1  
   158   71  158 1  
   159   74  159 1  
   160   74  160 1  
   161   75  161 1  
   162   75  162 1  
@<TRIPOS>SUBSTRUCTURE
     1 GLY         1

