### 
### Created by X-TOOL on Mon Sep 10 21:13:12 2018
### 

@<TRIPOS>MOLECULE
2ll6_ligand
  302   302     1     0     0
SMALL
GAST_HUCK


@<TRIPOS>ATOM
      1 N          -0.8440    9.6130    6.7290 N.4       1 LEU         0.2379
      2 CA         -1.0110    8.3450    5.9720 C.3       1 LEU         0.0652
      3 C          -2.3110    8.3510    5.1690 C.2       1 LEU         0.2267
      4 O          -3.3960    8.5400    5.7280 O.2       1 LEU        -0.3907
      5 CB         -0.9970    7.1490    6.9340 C.3       1 LEU         0.0102
      6 CG          0.3800    6.7410    7.4810 C.3       1 LEU        -0.0394
      7 CD1         0.2250    6.0230    8.8110 C.3       1 LEU        -0.0623
      8 CD2         1.1170    5.8510    6.4860 C.3       1 LEU        -0.0623
      9 N          -2.1830    8.1550    3.8470 N.am      1 LYS        -0.2610
     10 CA         -3.3340    8.1240    2.9190 C.3       1 LYS         0.1311
     11 C          -2.9180    7.5450    1.5630 C.2       1 LYS         0.2039
     12 O          -3.6600    6.7670    0.9560 O.2       1 LYS        -0.3944
     13 CB         -3.9770    9.5250    2.7300 C.3       1 LYS        -0.0122
     14 CG         -2.9960   10.6630    2.4460 C.3       1 LYS        -0.0440
     15 CD         -3.7190   11.9850    2.2490 C.3       1 LYS        -0.0124
     16 CE         -2.7440   13.1170    1.9690 C.3       1 LYS        -0.0354
     17 NZ         -3.4440   14.4170    1.7720 N.4       1 LYS         0.2185
     18 N          -1.7210    7.9390    1.1060 N.am      1 VAL        -0.2635
     19 CA         -1.1610    7.4750   -0.1710 C.3       1 VAL         0.1332
     20 C          -0.3790    6.1750    0.0070 C.2       1 VAL         0.2041
     21 O          -0.6120    5.1930   -0.7040 O.2       1 VAL        -0.3944
     22 CB         -0.2310    8.5300   -0.8350 C.3       1 VAL        -0.0063
     23 CG1        -1.0090    9.3710   -1.8340 C.3       1 VAL        -0.0584
     24 CG2         0.4590    9.4270    0.1950 C.3       1 VAL        -0.0584
     25 N           0.5510    6.1910    0.9700 N.am      1 LEU        -0.2637
     26 CA          1.3980    5.0310    1.2970 C.3       1 LEU         0.1312
     27 C           0.5930    3.8640    1.9040 C.2       1 LEU         0.2039
     28 O           1.1160    2.7560    2.0490 O.2       1 LEU        -0.3944
     29 CB          2.5020    5.4660    2.2710 C.3       1 LEU        -0.0101
     30 CG          3.8480    4.7420    2.1250 C.3       1 LEU        -0.0425
     31 CD1         4.9890    5.6880    2.4620 C.3       1 LEU        -0.0625
     32 CD2         3.9030    3.5130    3.0220 C.3       1 LEU        -0.0625
     33 N          -0.6810    4.1250    2.2420 N.am      1 VAL        -0.2635
     34 CA         -1.5760    3.1080    2.8250 C.3       1 VAL         0.1332
     35 C          -2.1500    2.1920    1.7270 C.2       1 VAL         0.2041
     36 O          -2.4040    1.0080    1.9690 O.2       1 VAL        -0.3944
     37 CB         -2.7450    3.7610    3.6330 C.3       1 VAL        -0.0063
     38 CG1        -3.5960    2.7120    4.3500 C.3       1 VAL        -0.0584
     39 CG2        -2.2170    4.7700    4.6470 C.3       1 VAL        -0.0584
     40 N          -2.3480    2.7600    0.5280 N.am      1 LYS        -0.2637
     41 CA         -2.8910    2.0230   -0.6250 C.3       1 LYS         0.1310
     42 C          -1.8420    1.1070   -1.2710 C.2       1 LYS         0.2039
     43 O          -2.1870    0.0740   -1.8500 O.2       1 LYS        -0.3944
     44 CB         -3.4350    3.0010   -1.6750 C.3       1 LYS        -0.0122
     45 CG         -4.6840    3.7530   -1.2330 C.3       1 LYS        -0.0440
     46 CD         -5.2160    4.6520   -2.3410 C.3       1 LYS        -0.0124
     47 CE         -6.4660    5.4060   -1.9060 C.3       1 LYS        -0.0354
     48 NZ         -7.6620    4.5180   -1.8330 N.4       1 LYS         0.2185
     49 N          -0.5620    1.4960   -1.1580 N.am      1 ALA        -0.2640
     50 CA          0.5610    0.7350   -1.7310 C.3       1 ALA         0.1282
     51 C           0.8430   -0.5700   -0.9760 C.2       1 ALA         0.2036
     52 O           1.2650   -1.5600   -1.5810 O.2       1 ALA        -0.3944
     53 CB          1.8110    1.6010   -1.7590 C.3       1 ALA        -0.0244
     54 N           0.6050   -0.5600    0.3440 N.am      1 VAL        -0.2635
     55 CA          0.8380   -1.7370    1.2050 C.3       1 VAL         0.1332
     56 C          -0.2670   -2.7960    1.0240 C.2       1 VAL         0.2041
     57 O           0.0090   -3.9970    1.0890 O.2       1 VAL        -0.3944
     58 CB          0.9530   -1.3480    2.7140 C.3       1 VAL        -0.0063
     59 CG1         1.5150   -2.5000    3.5470 C.3       1 VAL        -0.0584
     60 CG2         1.8210   -0.1070    2.9050 C.3       1 VAL        -0.0584
     61 N          -1.5070   -2.3370    0.7950 N.am      1 LEU        -0.2637
     62 CA         -2.6660   -3.2300    0.6050 C.3       1 LEU         0.1312
     63 C          -2.5500   -4.0780   -0.6700 C.2       1 LEU         0.2040
     64 O          -3.0360   -5.2130   -0.7080 O.2       1 LEU        -0.3944
     65 CB         -3.9640   -2.4130    0.5630 C.3       1 LEU        -0.0101
     66 CG         -4.6760   -2.2320    1.9100 C.3       1 LEU        -0.0425
     67 CD1        -5.4050   -0.8980    1.9490 C.3       1 LEU        -0.0625
     68 CD2        -5.6560   -3.3740    2.1580 C.3       1 LEU        -0.0625
     69 N          -1.9040   -3.5180   -1.7050 N.am      1 PHE        -0.2619
     70 CA         -1.7130   -4.2110   -2.9900 C.3       1 PHE         0.1404
     71 C          -0.6620   -5.3230   -2.9020 C.2       1 PHE         0.2059
     72 O          -0.8400   -6.3970   -3.4830 O.2       1 PHE        -0.3942
     73 CB         -1.3230   -3.2110   -4.0830 C.3       1 PHE         0.0214
     74 CG         -2.5010   -2.5770   -4.7670 C.ar      1 PHE        -0.0386
     75 CD1        -3.0710   -3.1690   -5.8830 C.ar      1 PHE        -0.0601
     76 CD2        -3.0380   -1.3890   -4.2960 C.ar      1 PHE        -0.0601
     77 CE1        -4.1520   -2.5880   -6.5170 C.ar      1 PHE        -0.0686
     78 CE2        -4.1200   -0.8040   -4.9260 C.ar      1 PHE        -0.0686
     79 CZ         -4.6770   -1.4050   -6.0370 C.ar      1 PHE        -0.0687
     80 N           0.4280   -5.0520   -2.1690 N.am      1 ALA        -0.2639
     81 CA          1.5260   -6.0180   -1.9910 C.3       1 ALA         0.1282
     82 C           1.1310   -7.1890   -1.0820 C.2       1 ALA         0.2036
     83 O           1.6680   -8.2920   -1.2170 O.2       1 ALA        -0.3944
     84 CB          2.7580   -5.3160   -1.4380 C.3       1 ALA        -0.0244
     85 N           0.1880   -6.9350   -0.1600 N.am      1 CYS        -0.2629
     86 CA         -0.2970   -7.9550    0.7830 C.3       1 CYS         0.1396
     87 C          -1.2680   -8.9420    0.1200 C.2       1 CYS         0.2047
     88 O          -1.4080  -10.0800    0.5770 O.2       1 CYS        -0.3944
     89 CB         -0.9760   -7.2840    1.9770 C.3       1 CYS         0.0311
     90 SG          0.1220   -6.2280    2.9510 S.3       1 CYS        -0.1735
     91 N          -1.9310   -8.4930   -0.9570 N.am      1 MET        -0.2637
     92 CA         -2.8910   -9.3260   -1.6950 C.3       1 MET         0.1317
     93 C          -2.2010  -10.1460   -2.7920 C.2       1 MET         0.2039
     94 O          -2.6870  -11.2170   -3.1670 O.2       1 MET        -0.3944
     95 CB         -3.9900   -8.4570   -2.3170 C.3       1 MET        -0.0034
     96 CG         -4.9970   -7.9190   -1.3080 C.3       1 MET        -0.0024
     97 SD         -6.3580   -7.0180   -2.0830 S.3       1 MET        -0.1639
     98 CE         -5.5940   -5.4300   -2.4130 C.3       1 MET        -0.0181
     99 N          -1.0700   -9.6320   -3.2950 N.am      1 LEU        -0.2637
    100 CA         -0.3000  -10.3040   -4.3490 C.3       1 LEU         0.1312
    101 C           0.7520  -11.2560   -3.7660 C.2       1 LEU         0.2039
    102 O           1.2730  -12.1180   -4.4800 O.2       1 LEU        -0.3944
    103 CB          0.3850   -9.2680   -5.2530 C.3       1 LEU        -0.0101
    104 CG         -0.5560   -8.4050   -6.1060 C.3       1 LEU        -0.0425
    105 CD1         0.0570   -7.0360   -6.3520 C.3       1 LEU        -0.0625
    106 CD2        -0.8630   -9.0880   -7.4340 C.3       1 LEU        -0.0625
    107 N           1.0550  -11.0940   -2.4690 N.am      1 MET        -0.2637
    108 CA          2.0430  -11.9320   -1.7810 C.3       1 MET         0.1317
    109 C           1.3870  -13.1550   -1.1340 C.2       1 MET         0.2039
    110 O           2.0000  -14.2240   -1.0580 O.2       1 MET        -0.3944
    111 CB          2.7890  -11.1080   -0.7240 C.3       1 MET        -0.0034
    112 CG          4.2510  -11.5040   -0.5470 C.3       1 MET        -0.0024
    113 SD          4.4600  -13.1870    0.0750 S.3       1 MET        -0.1639
    114 CE          4.1510  -12.9590    1.8260 C.3       1 MET        -0.0181
    115 N           0.1400  -12.9880   -0.6770 N.am      1 ARG        -0.2637
    116 CA         -0.6160  -14.0740   -0.0410 C.3       1 ARG         0.1310
    117 C          -1.3390  -14.9380   -1.0950 C.2       1 ARG         0.2033
    118 O          -2.1570  -15.8010   -0.7510 O.2       1 ARG        -0.3944
    119 CB         -1.6210  -13.4860    0.9620 C.3       1 ARG        -0.0092
    120 CG         -1.9840  -14.4340    2.0970 C.3       1 ARG        -0.0156
    121 CD         -2.9920  -13.8080    3.0470 C.3       1 ARG         0.0627
    122 NE         -3.3490  -14.7150    4.1440 N.pl3     1 ARG        -0.2723
    123 CZ         -4.2350  -14.4330    5.1110 C.cat     1 ARG         0.2882
    124 NH1        -4.8750  -13.2650    5.1400 N.pl3     1 ARG        -0.2849
    125 NH2        -4.4800  -15.3310    6.0560 N.pl3     1 ARG        -0.2849
    126 N          -1.0110  -14.7060   -2.3720 N.am      1 LYS        -0.2695
    127 CA         -1.6110  -15.4430   -3.4810 C.3       1 LYS         0.0944
    128 C          -0.6650  -16.5450   -3.9690 C.2       1 LYS         0.0601
    129 O          -1.0510  -17.7300   -3.8880 O.co2     1 LYS        -0.5666
    130 CB         -1.9640  -14.4800   -4.6300 C.3       1 LYS        -0.0177
    131 CG         -3.1420  -14.9310   -5.4950 C.3       1 LYS        -0.0446
    132 CD         -4.4800  -14.5020   -4.9040 C.3       1 LYS        -0.0125
    133 CE         -5.6430  -14.9570   -5.7710 C.3       1 LYS        -0.0354
    134 NZ         -6.9550  -14.5480   -5.1990 N.4       1 LYS         0.2185
    135 OXT         0.4550  -16.2140   -4.4180 O.co2     1 LYS        -0.5666
    136 H          -0.8550   10.3993    6.0794 H         1 LEU         0.2015
    137 H          -1.6082    9.7118    7.3973 H         1 LEU         0.2015
    138 H           0.0454    9.5950    7.2280 H         1 LEU         0.2015
    139 H          -0.1780    8.2560    5.2746 H         1 LEU         0.1098
    140 H          -1.3663    6.2950    6.3662 H         1 LEU         0.0348
    141 H          -1.5944    7.4431    7.7969 H         1 LEU         0.0348
    142 H           0.9688    7.6456    7.6332 H         1 LEU         0.0299
    143 H          -0.3436    5.1049    8.6627 H         1 LEU         0.0232
    144 H           1.2105    5.7812    9.2089 H         1 LEU         0.0232
    145 H          -0.3028    6.6695    9.5121 H         1 LEU         0.0232
    146 H           2.1044    5.6089    6.8791 H         1 LEU         0.0232
    147 H           0.5503    4.9326    6.3329 H         1 LEU         0.0232
    148 H           1.2213    6.3776    5.5373 H         1 LEU         0.0232
    149 H          -1.2470    8.0211    3.4644 H         1 LYS         0.1884
    150 H          -4.0878    7.4777    3.3687 H         1 LYS         0.0800
    151 H          -4.4738    9.7690    3.6690 H         1 LYS         0.0312
    152 H          -4.6308    9.4530    1.8608 H         1 LYS         0.0312
    153 H          -2.4501   10.4284    1.5322 H         1 LYS         0.0269
    154 H          -2.3240   10.7606    3.2987 H         1 LYS         0.0269
    155 H          -4.2662   12.2187    3.1623 H         1 LYS         0.0317
    156 H          -4.3896   11.8878    1.3952 H         1 LYS         0.0317
    157 H          -2.1989   12.8804    1.0552 H         1 LYS         0.0813
    158 H          -2.0777   13.2141    2.8262 H         1 LYS         0.0813
    159 H          -2.7564   15.1474    1.5873 H         1 LYS         0.1994
    160 H          -4.0825   14.3414    0.9802 H         1 LYS         0.1994
    161 H          -3.9707   14.6492    2.6141 H         1 LYS         0.1994
    162 H          -1.1744    8.5900    1.6698 H         1 VAL         0.1883
    163 H          -2.0159    7.3073   -0.8261 H         1 VAL         0.0802
    164 H           0.5513    7.9825   -1.3608 H         1 VAL         0.0343
    165 H          -1.4215    8.7241   -2.6083 H         1 VAL         0.0234
    166 H          -1.8199    9.8865   -1.3194 H         1 VAL         0.0234
    167 H          -0.3415   10.1034   -2.2882 H         1 VAL         0.0234
    168 H          -0.2952    9.9587    0.7751 H         1 VAL         0.0234
    169 H           1.0655    8.8133    0.8610 H         1 VAL         0.0234
    170 H           1.0965   10.1457   -0.3200 H         1 VAL         0.0234
    171 H           0.6796    7.0502    1.5045 H         1 LEU         0.1883
    172 H           1.8343    4.6683    0.3663 H         1 LEU         0.0800
    173 H           2.1366    5.2361    3.2719 H         1 LEU         0.0315
    174 H           2.6957    6.5188    2.0653 H         1 LEU         0.0315
    175 H           3.9507    4.4146    1.0904 H         1 LEU         0.0298
    176 H           4.9651    6.5404    1.7831 H         1 LEU         0.0232
    177 H           4.8791    6.0365    3.4889 H         1 LEU         0.0232
    178 H           5.9382    5.1630    2.3548 H         1 LEU         0.0232
    179 H           3.7787    3.8174    4.0612 H         1 LEU         0.0232
    180 H           3.1030    2.8265    2.7450 H         1 LEU         0.0232
    181 H           4.8666    3.0183    2.8997 H         1 LEU         0.0232
    182 H          -1.0443    5.0657    2.0890 H         1 VAL         0.1883
    183 H          -0.9783    2.5109    3.5137 H         1 VAL         0.0802
    184 H          -3.3748    4.2788    2.9096 H         1 VAL         0.0343
    185 H          -4.0258    2.0308    3.6156 H         1 VAL         0.0234
    186 H          -2.9705    2.1516    5.0448 H         1 VAL         0.0234
    187 H          -4.3962    3.2085    4.8989 H         1 VAL         0.0234
    188 H          -1.5494    4.2657    5.3456 H         1 VAL         0.0234
    189 H          -1.6720    5.5565    4.1250 H         1 VAL         0.0234
    190 H          -3.0535    5.2065    5.1927 H         1 VAL         0.0234
    191 H          -2.1121    3.7453    0.4100 H         1 LYS         0.1883
    192 H          -3.7001    1.3953   -0.2517 H         1 LYS         0.0800
    193 H          -3.7044    2.4151   -2.5538 H         1 LYS         0.0312
    194 H          -2.6584    3.7436   -1.8583 H         1 LYS         0.0312
    195 H          -4.4267    4.3762   -0.3766 H         1 LYS         0.0269
    196 H          -5.4542    3.0243   -0.9801 H         1 LYS         0.0269
    197 H          -5.4731    4.0267   -3.1960 H         1 LYS         0.0317
    198 H          -4.4452    5.3813   -2.5904 H         1 LYS         0.0317
    199 H          -6.6659    6.1847   -2.6420 H         1 LYS         0.0813
    200 H          -6.2864    5.8158   -0.9121 H         1 LYS         0.0813
    201 H          -8.4719    5.0639   -1.5389 H         1 LYS         0.1994
    202 H          -7.8394    4.1124   -2.7519 H         1 LYS         0.1994
    203 H          -7.4898    3.7725   -1.1584 H         1 LYS         0.1994
    204 H          -0.3581    2.3580   -0.6522 H         1 ALA         0.1883
    205 H           0.2751    0.4583   -2.7458 H         1 ALA         0.0797
    206 H           1.6256    2.4847   -2.3695 H         1 ALA         0.0277
    207 H           2.0631    1.9059   -0.7433 H         1 ALA         0.0277
    208 H           2.6370    1.0309   -2.1842 H         1 ALA         0.0277
    209 H           0.2486    0.2953    0.7704 H         1 VAL         0.1883
    210 H           1.7903   -2.1635    0.8897 H         1 VAL         0.0802
    211 H          -0.0565   -1.1262    3.0600 H         1 VAL         0.0343
    212 H           0.8557   -3.3638    3.4616 H         1 VAL         0.0234
    213 H           2.5077   -2.7613    3.1804 H         1 VAL         0.0234
    214 H           1.5809   -2.1934    4.5909 H         1 VAL         0.0234
    215 H           2.8220   -0.3026    2.5205 H         1 VAL         0.0234
    216 H           1.3798    0.7302    2.3641 H         1 VAL         0.0234
    217 H           1.8789    0.1345    3.9663 H         1 VAL         0.0234
    218 H          -1.6544   -1.3287    0.7504 H         1 LEU         0.1883
    219 H          -2.6836   -3.9126    1.4546 H         1 LEU         0.0800
    220 H          -4.6533   -2.9592   -0.0809 H         1 LEU         0.0315
    221 H          -3.6910   -1.4150    0.2202 H         1 LEU         0.0315
    222 H          -3.9237   -2.2440    2.6986 H         1 LEU         0.0298
    223 H          -4.6870   -0.0890    1.8147 H         1 LEU         0.0232
    224 H          -6.1444   -0.8659    1.1487 H         1 LEU         0.0232
    225 H          -5.9043   -0.7863    2.9114 H         1 LEU         0.0232
    226 H          -6.4019   -3.3900    1.3634 H         1 LEU         0.0232
    227 H          -5.1145   -4.3199    2.1688 H         1 LEU         0.0232
    228 H          -6.1496   -3.2254    3.1184 H         1 LEU         0.0232
    229 H          -1.5306   -2.5750   -1.5969 H         1 PHE         0.1885
    230 H          -2.6645   -4.6780   -3.2443 H         1 PHE         0.0823
    231 H          -0.7608   -3.7575   -4.8402 H         1 PHE         0.0474
    232 H          -0.7531   -2.4129   -3.6073 H         1 PHE         0.0474
    233 H          -2.6614   -4.1041   -6.2649 H         1 PHE         0.0557
    234 H          -2.6019   -0.9109   -3.4189 H         1 PHE         0.0557
    235 H          -4.5898   -3.0629   -7.3950 H         1 PHE         0.0599
    236 H          -4.5330    0.1305   -4.5463 H         1 PHE         0.0599
    237 H          -5.5309   -0.9456   -6.5349 H         1 PHE         0.0559
    238 H           0.4996   -4.1406   -1.7167 H         1 ALA         0.1883
    239 H           1.7532   -6.4337   -2.9726 H         1 ALA         0.0797
    240 H           3.0746   -4.5388   -2.1335 H         1 ALA         0.0277
    241 H           2.5169   -4.8669   -0.4745 H         1 ALA         0.0277
    242 H           3.5617   -6.0413   -1.3113 H         1 ALA         0.0277
    243 H          -0.2082   -5.9964   -0.1115 H         1 CYS         0.1884
    244 H           0.5698   -8.5226    1.1215 H         1 CYS         0.0808
    245 H          -1.3291   -8.0775    2.6357 H         1 CYS         0.0422
    246 H          -1.7690   -6.6487    1.5825 H         1 CYS         0.0422
    247 H           0.6038   -5.2593    2.1776 H         1 CYS         0.1019
    248 H          -1.7625   -7.5386   -1.2751 H         1 MET         0.1883
    249 H          -3.3369  -10.0177   -0.9803 H         1 MET         0.0800
    250 H          -4.5389   -9.0830   -3.0205 H         1 MET         0.0320
    251 H          -3.5021   -7.5980   -2.7776 H         1 MET         0.0320
    252 H          -4.4714   -7.2264   -0.6506 H         1 MET         0.0378
    253 H          -5.4219   -8.7702   -0.7761 H         1 MET         0.0378
    254 H          -5.2617   -4.9861   -1.4746 H         1 MET         0.0340
    255 H          -4.7381   -5.5702   -3.0732 H         1 MET         0.0340
    256 H          -6.3193   -4.7716   -2.8911 H         1 MET         0.0340
    257 H          -0.7317   -8.7408   -2.9320 H         1 LEU         0.1883
    258 H          -1.0016  -10.8950   -4.9377 H         1 LEU         0.0800
    259 H           1.0069   -9.8293   -5.9503 H         1 LEU         0.0315
    260 H           0.9171   -8.5842   -4.5916 H         1 LEU         0.0315
    261 H          -1.4902   -8.2796   -5.5586 H         1 LEU         0.0298
    262 H           0.2274   -6.5387   -5.3971 H         1 LEU         0.0232
    263 H           1.0053   -7.1529   -6.8766 H         1 LEU         0.0232
    264 H          -0.6237   -6.4381   -6.9581 H         1 LEU         0.0232
    265 H           0.0652   -9.2450   -7.9835 H         1 LEU         0.0232
    266 H          -1.3417  -10.0488   -7.2448 H         1 LEU         0.0232
    267 H          -1.5312   -8.4568   -8.0198 H         1 LEU         0.0232
    268 H           0.5807  -10.3609   -1.9418 H         1 MET         0.1883
    269 H           2.7551  -12.2903   -2.5244 H         1 MET         0.0800
    270 H           2.2901  -11.2783    0.2300 H         1 MET         0.0320
    271 H           2.7730  -10.0691   -1.0534 H         1 MET         0.0320
    272 H           4.6919  -10.8245    0.1824 H         1 MET         0.0378
    273 H           4.7290  -11.4510   -1.5252 H         1 MET         0.0378
    274 H           4.8764  -12.2546    2.2330 H         1 MET         0.0340
    275 H           3.1436  -12.5677    1.9679 H         1 MET         0.0340
    276 H           4.2457  -13.9166    2.3381 H         1 MET         0.0340
    277 H          -0.3009  -12.0733   -0.7741 H         1 ARG         0.1883
    278 H           0.0820  -14.7199    0.4917 H         1 ARG         0.0800
    279 H          -2.5380  -13.2695    0.4139 H         1 ARG         0.0313
    280 H          -1.1570  -12.6068    1.4091 H         1 ARG         0.0313
    281 H          -1.0779  -14.6631    2.6579 H         1 ARG         0.0301
    282 H          -2.4271  -15.3324    1.6673 H         1 ARG         0.0301
    283 H          -3.8970  -13.5815    2.4833 H         1 ARG         0.0689
    284 H          -2.5446  -12.9119    3.4771 H         1 ARG         0.0689
    285 H          -2.8904  -15.6256    4.1734 H         1 ARG         0.2642
    286 H          -4.6948  -12.5667    4.4187 H         1 ARG         0.2615
    287 H          -5.5452  -13.0690    5.8835 H         1 ARG         0.2615
    288 H          -3.9960  -16.2288    6.0442 H         1 ARG         0.2615
    289 H          -5.1524  -15.1237    6.7945 H         1 ARG         0.2615
    290 H          -0.3164  -13.9880   -2.5781 H         1 LYS         0.1875
    291 H          -2.5290  -15.9147   -3.1304 H         1 LYS         0.0726
    292 H          -1.0916  -14.4266   -5.2813 H         1 LYS         0.0305
    293 H          -2.2467  -13.5305   -4.1754 H         1 LYS         0.0305
    294 H          -3.1270  -16.0194   -5.5513 H         1 LYS         0.0269
    295 H          -3.0397  -14.4707   -6.4777 H         1 LYS         0.0269
    296 H          -4.4984  -13.4138   -4.8446 H         1 LYS         0.0317
    297 H          -4.5845  -14.9572   -3.9191 H         1 LYS         0.0317
    298 H          -5.6201  -16.0452   -5.8299 H         1 LYS         0.0813
    299 H          -5.5390  -14.4945   -6.7525 H         1 LYS         0.0813
    300 H          -7.7060  -14.8715   -5.8087 H         1 LYS         0.1994
    301 H          -7.0648  -14.9619   -4.2733 H         1 LYS         0.1994
    302 H          -6.9900  -13.5313   -5.1245 H         1 LYS         0.1994
@<TRIPOS>BOND
     1    1    2 1  
     2    2    3 1  
     3    2    5 1  
     4    3    4 2  
     5    3    9 am 
     6    5    6 1  
     7    6    7 1  
     8    6    8 1  
     9    9   10 1  
    10   10   11 1  
    11   10   13 1  
    12   11   12 2  
    13   11   18 am 
    14   13   14 1  
    15   14   15 1  
    16   15   16 1  
    17   16   17 1  
    18   18   19 1  
    19   19   20 1  
    20   19   22 1  
    21   20   21 2  
    22   20   25 am 
    23   22   23 1  
    24   22   24 1  
    25   25   26 1  
    26   26   27 1  
    27   26   29 1  
    28   27   28 2  
    29   27   33 am 
    30   29   30 1  
    31   30   31 1  
    32   30   32 1  
    33   33   34 1  
    34   34   35 1  
    35   34   37 1  
    36   35   36 2  
    37   35   40 am 
    38   37   38 1  
    39   37   39 1  
    40   40   41 1  
    41   41   42 1  
    42   41   44 1  
    43   42   43 2  
    44   42   49 am 
    45   44   45 1  
    46   45   46 1  
    47   46   47 1  
    48   47   48 1  
    49   49   50 1  
    50   50   51 1  
    51   50   53 1  
    52   51   52 2  
    53   51   54 am 
    54   54   55 1  
    55   55   56 1  
    56   55   58 1  
    57   56   57 2  
    58   56   61 am 
    59   58   59 1  
    60   58   60 1  
    61   61   62 1  
    62   62   63 1  
    63   62   65 1  
    64   63   64 2  
    65   63   69 am 
    66   65   66 1  
    67   66   67 1  
    68   66   68 1  
    69   69   70 1  
    70   70   71 1  
    71   70   73 1  
    72   71   72 2  
    73   71   80 am 
    74   73   74 1  
    75   74   75 ar 
    76   74   76 ar 
    77   75   77 ar 
    78   76   78 ar 
    79   77   79 ar 
    80   78   79 ar 
    81   80   81 1  
    82   81   82 1  
    83   81   84 1  
    84   82   83 2  
    85   82   85 am 
    86   85   86 1  
    87   86   87 1  
    88   86   89 1  
    89   87   88 2  
    90   87   91 am 
    91   89   90 1  
    92   91   92 1  
    93   92   93 1  
    94   92   95 1  
    95   93   94 2  
    96   93   99 am 
    97   95   96 1  
    98   96   97 1  
    99   97   98 1  
   100   99  100 1  
   101  100  101 1  
   102  100  103 1  
   103  101  102 2  
   104  101  107 am 
   105  103  104 1  
   106  104  105 1  
   107  104  106 1  
   108  107  108 1  
   109  108  109 1  
   110  108  111 1  
   111  109  110 2  
   112  109  115 am 
   113  111  112 1  
   114  112  113 1  
   115  113  114 1  
   116  115  116 1  
   117  116  117 1  
   118  116  119 1  
   119  117  118 2  
   120  117  126 am 
   121  119  120 1  
   122  120  121 1  
   123  121  122 1  
   124  122  123 ar 
   125  123  124 ar 
   126  123  125 ar 
   127  126  127 1  
   128  127  128 1  
   129  127  130 1  
   130  128  129 ar 
   131  128  135 ar 
   132  130  131 1  
   133  131  132 1  
   134  132  133 1  
   135  133  134 1  
   136    1  136 1  
   137    1  137 1  
   138    1  138 1  
   139    2  139 1  
   140    5  140 1  
   141    5  141 1  
   142    6  142 1  
   143    7  143 1  
   144    7  144 1  
   145    7  145 1  
   146    8  146 1  
   147    8  147 1  
   148    8  148 1  
   149    9  149 1  
   150   10  150 1  
   151   13  151 1  
   152   13  152 1  
   153   14  153 1  
   154   14  154 1  
   155   15  155 1  
   156   15  156 1  
   157   16  157 1  
   158   16  158 1  
   159   17  159 1  
   160   17  160 1  
   161   17  161 1  
   162   18  162 1  
   163   19  163 1  
   164   22  164 1  
   165   23  165 1  
   166   23  166 1  
   167   23  167 1  
   168   24  168 1  
   169   24  169 1  
   170   24  170 1  
   171   25  171 1  
   172   26  172 1  
   173   29  173 1  
   174   29  174 1  
   175   30  175 1  
   176   31  176 1  
   177   31  177 1  
   178   31  178 1  
   179   32  179 1  
   180   32  180 1  
   181   32  181 1  
   182   33  182 1  
   183   34  183 1  
   184   37  184 1  
   185   38  185 1  
   186   38  186 1  
   187   38  187 1  
   188   39  188 1  
   189   39  189 1  
   190   39  190 1  
   191   40  191 1  
   192   41  192 1  
   193   44  193 1  
   194   44  194 1  
   195   45  195 1  
   196   45  196 1  
   197   46  197 1  
   198   46  198 1  
   199   47  199 1  
   200   47  200 1  
   201   48  201 1  
   202   48  202 1  
   203   48  203 1  
   204   49  204 1  
   205   50  205 1  
   206   53  206 1  
   207   53  207 1  
   208   53  208 1  
   209   54  209 1  
   210   55  210 1  
   211   58  211 1  
   212   59  212 1  
   213   59  213 1  
   214   59  214 1  
   215   60  215 1  
   216   60  216 1  
   217   60  217 1  
   218   61  218 1  
   219   62  219 1  
   220   65  220 1  
   221   65  221 1  
   222   66  222 1  
   223   67  223 1  
   224   67  224 1  
   225   67  225 1  
   226   68  226 1  
   227   68  227 1  
   228   68  228 1  
   229   69  229 1  
   230   70  230 1  
   231   73  231 1  
   232   73  232 1  
   233   75  233 1  
   234   76  234 1  
   235   77  235 1  
   236   78  236 1  
   237   79  237 1  
   238   80  238 1  
   239   81  239 1  
   240   84  240 1  
   241   84  241 1  
   242   84  242 1  
   243   85  243 1  
   244   86  244 1  
   245   89  245 1  
   246   89  246 1  
   247   90  247 1  
   248   91  248 1  
   249   92  249 1  
   250   95  250 1  
   251   95  251 1  
   252   96  252 1  
   253   96  253 1  
   254   98  254 1  
   255   98  255 1  
   256   98  256 1  
   257   99  257 1  
   258  100  258 1  
   259  103  259 1  
   260  103  260 1  
   261  104  261 1  
   262  105  262 1  
   263  105  263 1  
   264  105  264 1  
   265  106  265 1  
   266  106  266 1  
   267  106  267 1  
   268  107  268 1  
   269  108  269 1  
   270  111  270 1  
   271  111  271 1  
   272  112  272 1  
   273  112  273 1  
   274  114  274 1  
   275  114  275 1  
   276  114  276 1  
   277  115  277 1  
   278  116  278 1  
   279  119  279 1  
   280  119  280 1  
   281  120  281 1  
   282  120  282 1  
   283  121  283 1  
   284  121  284 1  
   285  122  285 1  
   286  124  286 1  
   287  124  287 1  
   288  125  288 1  
   289  125  289 1  
   290  126  290 1  
   291  127  291 1  
   292  130  292 1  
   293  130  293 1  
   294  131  294 1  
   295  131  295 1  
   296  132  296 1  
   297  132  297 1  
   298  133  298 1  
   299  133  299 1  
   300  134  300 1  
   301  134  301 1  
   302  134  302 1  
@<TRIPOS>SUBSTRUCTURE
     1 LEU         1

