2ll6_ligand
  -I-interpret- 

302302  0  0  0  0  0  0  0  0999 V2000
   -0.8440    9.6130    6.7290 N   0  3  0  0  0
   -1.0110    8.3450    5.9720 C   0  0  0  0  0
   -2.3110    8.3510    5.1690 C   0  0  0  0  0
   -3.3960    8.5400    5.7280 O   0  0  0  0  0
   -0.9970    7.1490    6.9340 C   0  0  0  0  0
    0.3800    6.7410    7.4810 C   0  0  0  0  0
    0.2250    6.0230    8.8110 C   0  0  0  0  0
    1.1170    5.8510    6.4860 C   0  0  0  0  0
   -2.1830    8.1550    3.8470 N   0  0  0  0  0
   -3.3340    8.1240    2.9190 C   0  0  0  0  0
   -2.9180    7.5450    1.5630 C   0  0  0  0  0
   -3.6600    6.7670    0.9560 O   0  0  0  0  0
   -3.9770    9.5250    2.7300 C   0  0  0  0  0
   -2.9960   10.6630    2.4460 C   0  0  0  0  0
   -3.7190   11.9850    2.2490 C   0  0  0  0  0
   -2.7440   13.1170    1.9690 C   0  0  0  0  0
   -3.4440   14.4170    1.7720 N   0  3  0  0  0
   -1.7210    7.9390    1.1060 N   0  0  0  0  0
   -1.1610    7.4750   -0.1710 C   0  0  0  0  0
   -0.3790    6.1750    0.0070 C   0  0  0  0  0
   -0.6120    5.1930   -0.7040 O   0  0  0  0  0
   -0.2310    8.5300   -0.8350 C   0  0  0  0  0
   -1.0090    9.3710   -1.8340 C   0  0  0  0  0
    0.4590    9.4270    0.1950 C   0  0  0  0  0
    0.5510    6.1910    0.9700 N   0  0  0  0  0
    1.3980    5.0310    1.2970 C   0  0  0  0  0
    0.5930    3.8640    1.9040 C   0  0  0  0  0
    1.1160    2.7560    2.0490 O   0  0  0  0  0
    2.5020    5.4660    2.2710 C   0  0  0  0  0
    3.8480    4.7420    2.1250 C   0  0  0  0  0
    4.9890    5.6880    2.4620 C   0  0  0  0  0
    3.9030    3.5130    3.0220 C   0  0  0  0  0
   -0.6810    4.1250    2.2420 N   0  0  0  0  0
   -1.5760    3.1080    2.8250 C   0  0  0  0  0
   -2.1500    2.1920    1.7270 C   0  0  0  0  0
   -2.4040    1.0080    1.9690 O   0  0  0  0  0
   -2.7450    3.7610    3.6330 C   0  0  0  0  0
   -3.5960    2.7120    4.3500 C   0  0  0  0  0
   -2.2170    4.7700    4.6470 C   0  0  0  0  0
   -2.3480    2.7600    0.5280 N   0  0  0  0  0
   -2.8910    2.0230   -0.6250 C   0  0  0  0  0
   -1.8420    1.1070   -1.2710 C   0  0  0  0  0
   -2.1870    0.0740   -1.8500 O   0  0  0  0  0
   -3.4350    3.0010   -1.6750 C   0  0  0  0  0
   -4.6840    3.7530   -1.2330 C   0  0  0  0  0
   -5.2160    4.6520   -2.3410 C   0  0  0  0  0
   -6.4660    5.4060   -1.9060 C   0  0  0  0  0
   -7.6620    4.5180   -1.8330 N   0  3  0  0  0
   -0.5620    1.4960   -1.1580 N   0  0  0  0  0
    0.5610    0.7350   -1.7310 C   0  0  0  0  0
    0.8430   -0.5700   -0.9760 C   0  0  0  0  0
    1.2650   -1.5600   -1.5810 O   0  0  0  0  0
    1.8110    1.6010   -1.7590 C   0  0  0  0  0
    0.6050   -0.5600    0.3440 N   0  0  0  0  0
    0.8380   -1.7370    1.2050 C   0  0  0  0  0
   -0.2670   -2.7960    1.0240 C   0  0  0  0  0
    0.0090   -3.9970    1.0890 O   0  0  0  0  0
    0.9530   -1.3480    2.7140 C   0  0  0  0  0
    1.5150   -2.5000    3.5470 C   0  0  0  0  0
    1.8210   -0.1070    2.9050 C   0  0  0  0  0
   -1.5070   -2.3370    0.7950 N   0  0  0  0  0
   -2.6660   -3.2300    0.6050 C   0  0  0  0  0
   -2.5500   -4.0780   -0.6700 C   0  0  0  0  0
   -3.0360   -5.2130   -0.7080 O   0  0  0  0  0
   -3.9640   -2.4130    0.5630 C   0  0  0  0  0
   -4.6760   -2.2320    1.9100 C   0  0  0  0  0
   -5.4050   -0.8980    1.9490 C   0  0  0  0  0
   -5.6560   -3.3740    2.1580 C   0  0  0  0  0
   -1.9040   -3.5180   -1.7050 N   0  0  0  0  0
   -1.7130   -4.2110   -2.9900 C   0  0  0  0  0
   -0.6620   -5.3230   -2.9020 C   0  0  0  0  0
   -0.8400   -6.3970   -3.4830 O   0  0  0  0  0
   -1.3230   -3.2110   -4.0830 C   0  0  0  0  0
   -2.5010   -2.5770   -4.7670 C   0  0  0  0  0
   -3.0710   -3.1690   -5.8830 C   0  0  0  0  0
   -3.0380   -1.3890   -4.2960 C   0  0  0  0  0
   -4.1520   -2.5880   -6.5170 C   0  0  0  0  0
   -4.1200   -0.8040   -4.9260 C   0  0  0  0  0
   -4.6770   -1.4050   -6.0370 C   0  0  0  0  0
    0.4280   -5.0520   -2.1690 N   0  0  0  0  0
    1.5260   -6.0180   -1.9910 C   0  0  0  0  0
    1.1310   -7.1890   -1.0820 C   0  0  0  0  0
    1.6680   -8.2920   -1.2170 O   0  0  0  0  0
    2.7580   -5.3160   -1.4380 C   0  0  0  0  0
    0.1880   -6.9350   -0.1600 N   0  0  0  0  0
   -0.2970   -7.9550    0.7830 C   0  0  0  0  0
   -1.2680   -8.9420    0.1200 C   0  0  0  0  0
   -1.4080  -10.0800    0.5770 O   0  0  0  0  0
   -0.9760   -7.2840    1.9770 C   0  0  0  0  0
    0.1220   -6.2280    2.9510 S   0  0  0  0  0
   -1.9310   -8.4930   -0.9570 N   0  0  0  0  0
   -2.8910   -9.3260   -1.6950 C   0  0  0  0  0
   -2.2010  -10.1460   -2.7920 C   0  0  0  0  0
   -2.6870  -11.2170   -3.1670 O   0  0  0  0  0
   -3.9900   -8.4570   -2.3170 C   0  0  0  0  0
   -4.9970   -7.9190   -1.3080 C   0  0  0  0  0
   -6.3580   -7.0180   -2.0830 S   0  0  0  0  0
   -5.5940   -5.4300   -2.4130 C   0  0  0  0  0
   -1.0700   -9.6320   -3.2950 N   0  0  0  0  0
   -0.3000  -10.3040   -4.3490 C   0  0  0  0  0
    0.7520  -11.2560   -3.7660 C   0  0  0  0  0
    1.2730  -12.1180   -4.4800 O   0  0  0  0  0
    0.3850   -9.2680   -5.2530 C   0  0  0  0  0
   -0.5560   -8.4050   -6.1060 C   0  0  0  0  0
    0.0570   -7.0360   -6.3520 C   0  0  0  0  0
   -0.8630   -9.0880   -7.4340 C   0  0  0  0  0
    1.0550  -11.0940   -2.4690 N   0  0  0  0  0
    2.0430  -11.9320   -1.7810 C   0  0  0  0  0
    1.3870  -13.1550   -1.1340 C   0  0  0  0  0
    2.0000  -14.2240   -1.0580 O   0  0  0  0  0
    2.7890  -11.1080   -0.7240 C   0  0  0  0  0
    4.2510  -11.5040   -0.5470 C   0  0  0  0  0
    4.4600  -13.1870    0.0750 S   0  0  0  0  0
    4.1510  -12.9590    1.8260 C   0  0  0  0  0
    0.1400  -12.9880   -0.6770 N   0  0  0  0  0
   -0.6160  -14.0740   -0.0410 C   0  0  0  0  0
   -1.3390  -14.9380   -1.0950 C   0  0  0  0  0
   -2.1570  -15.8010   -0.7510 O   0  0  0  0  0
   -1.6210  -13.4860    0.9620 C   0  0  0  0  0
   -1.9840  -14.4340    2.0970 C   0  0  0  0  0
   -2.9920  -13.8080    3.0470 C   0  0  0  0  0
   -3.3490  -14.7150    4.1440 N   0  0  0  0  0
   -4.2350  -14.4330    5.1110 C   0  0  0  0  0
   -4.8750  -13.2650    5.1400 N   0  0  0  0  0
   -4.4800  -15.3310    6.0560 N   0  0  0  0  0
   -1.0110  -14.7060   -2.3720 N   0  0  0  0  0
   -1.6110  -15.4430   -3.4810 C   0  0  0  0  0
   -0.6650  -16.5450   -3.9690 C   0  0  0  0  0
   -1.0510  -17.7300   -3.8880 O   0  0  0  0  0
   -1.9640  -14.4800   -4.6300 C   0  0  0  0  0
   -3.1420  -14.9310   -5.4950 C   0  0  0  0  0
   -4.4800  -14.5020   -4.9040 C   0  0  0  0  0
   -5.6430  -14.9570   -5.7710 C   0  0  0  0  0
   -6.9550  -14.5480   -5.1990 N   0  3  0  0  0
    0.4550  -16.2140   -4.4180 O   0  0  0  0  0
   -0.8550   10.3993    6.0794 H   0  0  0  0  0
   -1.6082    9.7118    7.3973 H   0  0  0  0  0
    0.0454    9.5950    7.2280 H   0  0  0  0  0
   -0.1780    8.2560    5.2746 H   0  0  0  0  0
   -1.3663    6.2950    6.3662 H   0  0  0  0  0
   -1.5944    7.4431    7.7969 H   0  0  0  0  0
    0.9688    7.6456    7.6332 H   0  0  0  0  0
   -0.3436    5.1049    8.6627 H   0  0  0  0  0
    1.2105    5.7812    9.2089 H   0  0  0  0  0
   -0.3028    6.6695    9.5121 H   0  0  0  0  0
    2.1044    5.6089    6.8791 H   0  0  0  0  0
    0.5503    4.9326    6.3329 H   0  0  0  0  0
    1.2213    6.3776    5.5373 H   0  0  0  0  0
   -1.2470    8.0211    3.4644 H   0  0  0  0  0
   -4.0878    7.4777    3.3687 H   0  0  0  0  0
   -4.4738    9.7690    3.6690 H   0  0  0  0  0
   -4.6308    9.4530    1.8608 H   0  0  0  0  0
   -2.4501   10.4284    1.5322 H   0  0  0  0  0
   -2.3240   10.7606    3.2987 H   0  0  0  0  0
   -4.2662   12.2187    3.1623 H   0  0  0  0  0
   -4.3896   11.8878    1.3952 H   0  0  0  0  0
   -2.1989   12.8804    1.0552 H   0  0  0  0  0
   -2.0777   13.2141    2.8262 H   0  0  0  0  0
   -2.7564   15.1474    1.5873 H   0  0  0  0  0
   -4.0825   14.3414    0.9802 H   0  0  0  0  0
   -3.9707   14.6492    2.6141 H   0  0  0  0  0
   -1.1744    8.5900    1.6698 H   0  0  0  0  0
   -2.0159    7.3073   -0.8261 H   0  0  0  0  0
    0.5513    7.9825   -1.3608 H   0  0  0  0  0
   -1.4215    8.7241   -2.6083 H   0  0  0  0  0
   -1.8199    9.8865   -1.3194 H   0  0  0  0  0
   -0.3415   10.1034   -2.2882 H   0  0  0  0  0
   -0.2952    9.9587    0.7751 H   0  0  0  0  0
    1.0655    8.8133    0.8610 H   0  0  0  0  0
    1.0965   10.1457   -0.3200 H   0  0  0  0  0
    0.6796    7.0502    1.5045 H   0  0  0  0  0
    1.8343    4.6683    0.3663 H   0  0  0  0  0
    2.1366    5.2361    3.2719 H   0  0  0  0  0
    2.6957    6.5188    2.0653 H   0  0  0  0  0
    3.9507    4.4146    1.0904 H   0  0  0  0  0
    4.9651    6.5404    1.7831 H   0  0  0  0  0
    4.8791    6.0365    3.4889 H   0  0  0  0  0
    5.9382    5.1630    2.3548 H   0  0  0  0  0
    3.7787    3.8174    4.0612 H   0  0  0  0  0
    3.1030    2.8265    2.7450 H   0  0  0  0  0
    4.8666    3.0183    2.8997 H   0  0  0  0  0
   -1.0443    5.0657    2.0890 H   0  0  0  0  0
   -0.9783    2.5109    3.5137 H   0  0  0  0  0
   -3.3748    4.2788    2.9096 H   0  0  0  0  0
   -4.0258    2.0308    3.6156 H   0  0  0  0  0
   -2.9705    2.1516    5.0448 H   0  0  0  0  0
   -4.3962    3.2085    4.8989 H   0  0  0  0  0
   -1.5494    4.2657    5.3456 H   0  0  0  0  0
   -1.6720    5.5565    4.1250 H   0  0  0  0  0
   -3.0535    5.2065    5.1927 H   0  0  0  0  0
   -2.1121    3.7453    0.4100 H   0  0  0  0  0
   -3.7001    1.3953   -0.2517 H   0  0  0  0  0
   -3.7044    2.4151   -2.5538 H   0  0  0  0  0
   -2.6584    3.7436   -1.8583 H   0  0  0  0  0
   -4.4267    4.3762   -0.3766 H   0  0  0  0  0
   -5.4542    3.0243   -0.9801 H   0  0  0  0  0
   -5.4731    4.0267   -3.1960 H   0  0  0  0  0
   -4.4452    5.3813   -2.5904 H   0  0  0  0  0
   -6.6659    6.1847   -2.6420 H   0  0  0  0  0
   -6.2864    5.8158   -0.9121 H   0  0  0  0  0
   -8.4719    5.0639   -1.5389 H   0  0  0  0  0
   -7.8394    4.1124   -2.7519 H   0  0  0  0  0
   -7.4898    3.7725   -1.1584 H   0  0  0  0  0
   -0.3581    2.3580   -0.6522 H   0  0  0  0  0
    0.2751    0.4583   -2.7458 H   0  0  0  0  0
    1.6256    2.4847   -2.3695 H   0  0  0  0  0
    2.0631    1.9059   -0.7433 H   0  0  0  0  0
    2.6370    1.0309   -2.1842 H   0  0  0  0  0
    0.2486    0.2953    0.7704 H   0  0  0  0  0
    1.7903   -2.1635    0.8897 H   0  0  0  0  0
   -0.0565   -1.1262    3.0600 H   0  0  0  0  0
    0.8557   -3.3638    3.4616 H   0  0  0  0  0
    2.5077   -2.7613    3.1804 H   0  0  0  0  0
    1.5809   -2.1934    4.5909 H   0  0  0  0  0
    2.8220   -0.3026    2.5205 H   0  0  0  0  0
    1.3798    0.7302    2.3641 H   0  0  0  0  0
    1.8789    0.1345    3.9663 H   0  0  0  0  0
   -1.6544   -1.3287    0.7504 H   0  0  0  0  0
   -2.6836   -3.9126    1.4546 H   0  0  0  0  0
   -4.6533   -2.9592   -0.0809 H   0  0  0  0  0
   -3.6910   -1.4150    0.2202 H   0  0  0  0  0
   -3.9237   -2.2440    2.6986 H   0  0  0  0  0
   -4.6870   -0.0890    1.8147 H   0  0  0  0  0
   -6.1444   -0.8659    1.1487 H   0  0  0  0  0
   -5.9043   -0.7863    2.9114 H   0  0  0  0  0
   -6.4019   -3.3900    1.3634 H   0  0  0  0  0
   -5.1145   -4.3199    2.1688 H   0  0  0  0  0
   -6.1496   -3.2254    3.1184 H   0  0  0  0  0
   -1.5306   -2.5750   -1.5969 H   0  0  0  0  0
   -2.6645   -4.6780   -3.2443 H   0  0  0  0  0
   -0.7608   -3.7575   -4.8402 H   0  0  0  0  0
   -0.7531   -2.4129   -3.6073 H   0  0  0  0  0
   -2.6614   -4.1041   -6.2649 H   0  0  0  0  0
   -2.6019   -0.9109   -3.4189 H   0  0  0  0  0
   -4.5898   -3.0629   -7.3950 H   0  0  0  0  0
   -4.5330    0.1305   -4.5463 H   0  0  0  0  0
   -5.5309   -0.9456   -6.5349 H   0  0  0  0  0
    0.4996   -4.1406   -1.7167 H   0  0  0  0  0
    1.7532   -6.4337   -2.9726 H   0  0  0  0  0
    3.0746   -4.5388   -2.1335 H   0  0  0  0  0
    2.5169   -4.8669   -0.4745 H   0  0  0  0  0
    3.5617   -6.0413   -1.3113 H   0  0  0  0  0
   -0.2082   -5.9964   -0.1115 H   0  0  0  0  0
    0.5698   -8.5226    1.1215 H   0  0  0  0  0
   -1.3291   -8.0775    2.6357 H   0  0  0  0  0
   -1.7690   -6.6487    1.5825 H   0  0  0  0  0
   -0.5596   -5.6939    3.9604 H   0  0  0  0  0
   -1.7625   -7.5386   -1.2751 H   0  0  0  0  0
   -3.3369  -10.0177   -0.9803 H   0  0  0  0  0
   -4.5389   -9.0830   -3.0205 H   0  0  0  0  0
   -3.5021   -7.5980   -2.7776 H   0  0  0  0  0
   -4.4714   -7.2264   -0.6506 H   0  0  0  0  0
   -5.4219   -8.7702   -0.7761 H   0  0  0  0  0
   -5.2617   -4.9861   -1.4746 H   0  0  0  0  0
   -4.7381   -5.5702   -3.0732 H   0  0  0  0  0
   -6.3193   -4.7716   -2.8911 H   0  0  0  0  0
   -0.7317   -8.7408   -2.9320 H   0  0  0  0  0
   -1.0016  -10.8950   -4.9377 H   0  0  0  0  0
    1.0069   -9.8293   -5.9503 H   0  0  0  0  0
    0.9171   -8.5842   -4.5916 H   0  0  0  0  0
   -1.4902   -8.2796   -5.5586 H   0  0  0  0  0
    0.2274   -6.5387   -5.3971 H   0  0  0  0  0
    1.0053   -7.1529   -6.8766 H   0  0  0  0  0
   -0.6237   -6.4381   -6.9581 H   0  0  0  0  0
    0.0652   -9.2450   -7.9835 H   0  0  0  0  0
   -1.3417  -10.0488   -7.2448 H   0  0  0  0  0
   -1.5312   -8.4568   -8.0198 H   0  0  0  0  0
    0.5807  -10.3609   -1.9418 H   0  0  0  0  0
    2.7551  -12.2903   -2.5244 H   0  0  0  0  0
    2.2901  -11.2783    0.2300 H   0  0  0  0  0
    2.7730  -10.0691   -1.0534 H   0  0  0  0  0
    4.6919  -10.8245    0.1824 H   0  0  0  0  0
    4.7290  -11.4510   -1.5252 H   0  0  0  0  0
    4.8764  -12.2546    2.2330 H   0  0  0  0  0
    3.1436  -12.5677    1.9679 H   0  0  0  0  0
    4.2457  -13.9166    2.3381 H   0  0  0  0  0
   -0.3009  -12.0733   -0.7741 H   0  0  0  0  0
    0.0820  -14.7199    0.4917 H   0  0  0  0  0
   -2.5380  -13.2695    0.4139 H   0  0  0  0  0
   -1.1570  -12.6068    1.4091 H   0  0  0  0  0
   -1.0779  -14.6631    2.6579 H   0  0  0  0  0
   -2.4271  -15.3324    1.6673 H   0  0  0  0  0
   -3.8970  -13.5815    2.4833 H   0  0  0  0  0
   -2.5446  -12.9119    3.4771 H   0  0  0  0  0
   -2.8904  -15.6256    4.1734 H   0  0  0  0  0
   -5.5452  -13.0690    5.8835 H   0  0  0  0  0
   -4.6948  -12.5667    4.4187 H   0  0  0  0  0
   -3.9960  -16.2288    6.0442 H   0  0  0  0  0
   -0.3164  -13.9880   -2.5781 H   0  0  0  0  0
   -2.5290  -15.9147   -3.1304 H   0  0  0  0  0
   -1.0916  -14.4266   -5.2813 H   0  0  0  0  0
   -2.2467  -13.5305   -4.1754 H   0  0  0  0  0
   -3.1270  -16.0194   -5.5513 H   0  0  0  0  0
   -3.0397  -14.4707   -6.4777 H   0  0  0  0  0
   -4.4984  -13.4138   -4.8446 H   0  0  0  0  0
   -4.5845  -14.9572   -3.9191 H   0  0  0  0  0
   -5.6201  -16.0452   -5.8299 H   0  0  0  0  0
   -5.5390  -14.4945   -6.7525 H   0  0  0  0  0
   -7.7060  -14.8715   -5.8087 H   0  0  0  0  0
   -7.0648  -14.9619   -4.2733 H   0  0  0  0  0
   -6.9900  -13.5313   -5.1245 H   0  0  0  0  0
    0.5407  -15.2583   -4.3883 H   0  0  0  0  0
  1  2  1  0  0  0
  2  3  1  0  0  0
  2  5  1  0  0  0
  3  4  2  0  0  0
  3  9  1  0  0  0
  5  6  1  0  0  0
  6  7  1  0  0  0
  6  8  1  0  0  0
  9 10  1  0  0  0
 10 11  1  0  0  0
 10 13  1  0  0  0
 11 12  2  0  0  0
 11 18  1  0  0  0
 13 14  1  0  0  0
 14 15  1  0  0  0
 15 16  1  0  0  0
 16 17  1  0  0  0
 18 19  1  0  0  0
 19 20  1  0  0  0
 19 22  1  0  0  0
 20 21  2  0  0  0
 20 25  1  0  0  0
 22 23  1  0  0  0
 22 24  1  0  0  0
 25 26  1  0  0  0
 26 27  1  0  0  0
 26 29  1  0  0  0
 27 28  2  0  0  0
 27 33  1  0  0  0
 29 30  1  0  0  0
 30 31  1  0  0  0
 30 32  1  0  0  0
 33 34  1  0  0  0
 34 35  1  0  0  0
 34 37  1  0  0  0
 35 36  2  0  0  0
 35 40  1  0  0  0
 37 38  1  0  0  0
 37 39  1  0  0  0
 40 41  1  0  0  0
 41 42  1  0  0  0
 41 44  1  0  0  0
 42 43  2  0  0  0
 42 49  1  0  0  0
 44 45  1  0  0  0
 45 46  1  0  0  0
 46 47  1  0  0  0
 47 48  1  0  0  0
 49 50  1  0  0  0
 50 51  1  0  0  0
 50 53  1  0  0  0
 51 52  2  0  0  0
 51 54  1  0  0  0
 54 55  1  0  0  0
 55 56  1  0  0  0
 55 58  1  0  0  0
 56 57  2  0  0  0
 56 61  1  0  0  0
 58 59  1  0  0  0
 58 60  1  0  0  0
 61 62  1  0  0  0
 62 63  1  0  0  0
 62 65  1  0  0  0
 63 64  2  0  0  0
 63 69  1  0  0  0
 65 66  1  0  0  0
 66 67  1  0  0  0
 66 68  1  0  0  0
 69 70  1  0  0  0
 70 71  1  0  0  0
 70 73  1  0  0  0
 71 72  2  0  0  0
 71 80  1  0  0  0
 73 74  1  0  0  0
 74 75  4  0  0  0
 74 76  4  0  0  0
 75 77  4  0  0  0
 76 78  4  0  0  0
 77 79  4  0  0  0
 78 79  4  0  0  0
 80 81  1  0  0  0
 81 82  1  0  0  0
 81 84  1  0  0  0
 82 83  2  0  0  0
 82 85  1  0  0  0
 85 86  1  0  0  0
 86 87  1  0  0  0
 86 89  1  0  0  0
 87 88  2  0  0  0
 87 91  1  0  0  0
 89 90  1  0  0  0
 91 92  1  0  0  0
 92 93  1  0  0  0
 92 95  1  0  0  0
 93 94  2  0  0  0
 93 99  1  0  0  0
 95 96  1  0  0  0
 96 97  1  0  0  0
 97 98  1  0  0  0
 99100  1  0  0  0
100101  1  0  0  0
100103  1  0  0  0
101102  2  0  0  0
101107  1  0  0  0
103104  1  0  0  0
104105  1  0  0  0
104106  1  0  0  0
107108  1  0  0  0
108109  1  0  0  0
108111  1  0  0  0
109110  2  0  0  0
109115  1  0  0  0
111112  1  0  0  0
112113  1  0  0  0
113114  1  0  0  0
115116  1  0  0  0
116117  1  0  0  0
116119  1  0  0  0
117118  2  0  0  0
117126  1  0  0  0
119120  1  0  0  0
120121  1  0  0  0
121122  1  0  0  0
122123  1  0  0  0
123124  1  0  0  0
123125  2  0  0  0
126127  1  0  0  0
127128  1  0  0  0
127130  1  0  0  0
128129  2  0  0  0
128135  1  0  0  0
130131  1  0  0  0
131132  1  0  0  0
132133  1  0  0  0
133134  1  0  0  0
  1136  1  0  0  0
  1137  1  0  0  0
  1138  1  0  0  0
  2139  1  0  0  0
  5140  1  0  0  0
  5141  1  0  0  0
  6142  1  0  0  0
  7143  1  0  0  0
  7144  1  0  0  0
  7145  1  0  0  0
  8146  1  0  0  0
  8147  1  0  0  0
  8148  1  0  0  0
  9149  1  0  0  0
 10150  1  0  0  0
 13151  1  0  0  0
 13152  1  0  0  0
 14153  1  0  0  0
 14154  1  0  0  0
 15155  1  0  0  0
 15156  1  0  0  0
 16157  1  0  0  0
 16158  1  0  0  0
 17159  1  0  0  0
 17160  1  0  0  0
 17161  1  0  0  0
 18162  1  0  0  0
 19163  1  0  0  0
 22164  1  0  0  0
 23165  1  0  0  0
 23166  1  0  0  0
 23167  1  0  0  0
 24168  1  0  0  0
 24169  1  0  0  0
 24170  1  0  0  0
 25171  1  0  0  0
 26172  1  0  0  0
 29173  1  0  0  0
 29174  1  0  0  0
 30175  1  0  0  0
 31176  1  0  0  0
 31177  1  0  0  0
 31178  1  0  0  0
 32179  1  0  0  0
 32180  1  0  0  0
 32181  1  0  0  0
 33182  1  0  0  0
 34183  1  0  0  0
 37184  1  0  0  0
 38185  1  0  0  0
 38186  1  0  0  0
 38187  1  0  0  0
 39188  1  0  0  0
 39189  1  0  0  0
 39190  1  0  0  0
 40191  1  0  0  0
 41192  1  0  0  0
 44193  1  0  0  0
 44194  1  0  0  0
 45195  1  0  0  0
 45196  1  0  0  0
 46197  1  0  0  0
 46198  1  0  0  0
 47199  1  0  0  0
 47200  1  0  0  0
 48201  1  0  0  0
 48202  1  0  0  0
 48203  1  0  0  0
 49204  1  0  0  0
 50205  1  0  0  0
 53206  1  0  0  0
 53207  1  0  0  0
 53208  1  0  0  0
 54209  1  0  0  0
 55210  1  0  0  0
 58211  1  0  0  0
 59212  1  0  0  0
 59213  1  0  0  0
 59214  1  0  0  0
 60215  1  0  0  0
 60216  1  0  0  0
 60217  1  0  0  0
 61218  1  0  0  0
 62219  1  0  0  0
 65220  1  0  0  0
 65221  1  0  0  0
 66222  1  0  0  0
 67223  1  0  0  0
 67224  1  0  0  0
 67225  1  0  0  0
 68226  1  0  0  0
 68227  1  0  0  0
 68228  1  0  0  0
 69229  1  0  0  0
 70230  1  0  0  0
 73231  1  0  0  0
 73232  1  0  0  0
 75233  1  0  0  0
 76234  1  0  0  0
 77235  1  0  0  0
 78236  1  0  0  0
 79237  1  0  0  0
 80238  1  0  0  0
 81239  1  0  0  0
 84240  1  0  0  0
 84241  1  0  0  0
 84242  1  0  0  0
 85243  1  0  0  0
 86244  1  0  0  0
 89245  1  0  0  0
 89246  1  0  0  0
 90247  1  0  0  0
 91248  1  0  0  0
 92249  1  0  0  0
 95250  1  0  0  0
 95251  1  0  0  0
 96252  1  0  0  0
 96253  1  0  0  0
 98254  1  0  0  0
 98255  1  0  0  0
 98256  1  0  0  0
 99257  1  0  0  0
100258  1  0  0  0
103259  1  0  0  0
103260  1  0  0  0
104261  1  0  0  0
105262  1  0  0  0
105263  1  0  0  0
105264  1  0  0  0
106265  1  0  0  0
106266  1  0  0  0
106267  1  0  0  0
107268  1  0  0  0
108269  1  0  0  0
111270  1  0  0  0
111271  1  0  0  0
112272  1  0  0  0
112273  1  0  0  0
114274  1  0  0  0
114275  1  0  0  0
114276  1  0  0  0
115277  1  0  0  0
116278  1  0  0  0
119279  1  0  0  0
119280  1  0  0  0
120281  1  0  0  0
120282  1  0  0  0
121283  1  0  0  0
121284  1  0  0  0
122285  1  0  0  0
124286  1  0  0  0
124287  1  0  0  0
125288  1  0  0  0
126289  1  0  0  0
127290  1  0  0  0
130291  1  0  0  0
130292  1  0  0  0
131293  1  0  0  0
131294  1  0  0  0
132295  1  0  0  0
132296  1  0  0  0
133297  1  0  0  0
133298  1  0  0  0
134299  1  0  0  0
134300  1  0  0  0
134301  1  0  0  0
135302  1  0  0  0
M  END
$$$$
