3uod_ligand
  -I-interpret- 

 40 42  0  0  0  0  0  0  0  0999 V2000
    3.9850   31.8040    9.1840 N   0  0  0  0  0
    4.7060   31.0230    7.0960 N   0  0  0  0  0
    5.9020   28.9500    6.9080 N   0  0  0  0  0
    3.4930   33.1100    7.2580 N   0  0  0  0  0
    4.5110   30.7340    9.8240 C   0  0  0  0  0
    4.0780   31.9390    7.8480 C   0  0  0  0  0
    5.2390   29.9350    7.6900 C   0  0  0  0  0
    5.1570   29.7540    9.0680 C   0  0  0  0  0
    6.2770   29.2260    5.5620 C   0  0  0  0  0
    5.2800   29.2120    4.5850 C   0  0  0  0  0
    5.6010   29.4610    3.2580 C   0  0  0  0  0
    6.9220   29.7260    2.9220 C   0  0  0  0  0
    7.9220   29.7390    3.8970 C   0  0  0  0  0
    7.6140   29.4870    5.2310 C   0  0  0  0  0
    8.7300   29.5060    6.2520 C   0  0  0  0  0
    3.0970   33.2740    5.8840 C   0  0  0  0  0
    3.7620   32.6380    4.8450 C   0  0  0  0  0
    3.3720   32.8220    3.5200 C   0  0  0  0  0
    2.3170   33.6790    3.2520 C   0  0  0  0  0
    1.6500   34.3350    4.2860 C   0  0  0  0  0
    2.0450   34.1330    5.5990 C   0  0  0  0  0
    1.8710   33.8760    1.8450 C   0  0  0  0  0
    0.6500   34.1430    1.6150 O   0  0  0  0  0
    2.6970   33.7490    0.9070 O   0  0  0  0  0
    8.2800   29.3670    7.5070 F   0  0  0  0  0
    9.3860   30.6630    6.1620 F   0  0  0  0  0
    9.5770   28.4960    6.0010 F   0  0  0  0  0
    6.1108   28.0380    7.3143 H   0  0  0  0  0
    3.3426   33.9074    7.8760 H   0  0  0  0  0
    4.4320   30.6392   10.9070 H   0  0  0  0  0
    5.5853   28.8716    9.5435 H   0  0  0  0  0
    4.2471   29.0050    4.8650 H   0  0  0  0  0
    4.8272   29.4487    2.4904 H   0  0  0  0  0
    7.1822   29.9267    1.8827 H   0  0  0  0  0
    8.9527   29.9483    3.6108 H   0  0  0  0  0
    4.6040   31.9832    5.0694 H   0  0  0  0  0
    3.8862   32.3026    2.7114 H   0  0  0  0  0
    0.8199   35.0051    4.0622 H   0  0  0  0  0
    1.5289   34.6493    6.4085 H   0  0  0  0  0
    0.1743   34.2018    2.4468 H   0  0  0  0  0
  1  5  4  0  0  0
  1  6  4  0  0  0
  6  2  4  0  0  0
  2  7  4  0  0  0
  7  3  1  0  0  0
  3  9  1  0  0  0
  6  4  1  0  0  0
  4 16  1  0  0  0
  5  8  4  0  0  0
  7  8  4  0  0  0
  9 10  4  0  0  0
  9 14  4  0  0  0
 10 11  4  0  0  0
 11 12  4  0  0  0
 12 13  4  0  0  0
 13 14  4  0  0  0
 14 15  1  0  0  0
 15 25  1  0  0  0
 15 26  1  0  0  0
 15 27  1  0  0  0
 16 17  4  0  0  0
 16 21  4  0  0  0
 17 18  4  0  0  0
 18 19  4  0  0  0
 19 20  4  0  0  0
 19 22  1  0  0  0
 20 21  4  0  0  0
 22 23  1  0  0  0
 22 24  2  0  0  0
  3 28  1  0  0  0
  4 29  1  0  0  0
  5 30  1  0  0  0
  8 31  1  0  0  0
 10 32  1  0  0  0
 11 33  1  0  0  0
 12 34  1  0  0  0
 13 35  1  0  0  0
 17 36  1  0  0  0
 18 37  1  0  0  0
 20 38  1  0  0  0
 21 39  1  0  0  0
 23 40  1  0  0  0
M  END
$$$$
