3zzf_ligand
  -I-interpret- 

 24 23  0  0  0  0  0  0  0  0999 V2000
    6.3750   32.3070    2.4190 C   0  0  0  0  0
    7.5560   31.7840    1.5760 C   0  0  0  0  0
    8.6130   32.4600    1.6000 O   0  0  0  0  0
    7.3940   30.7200    0.9280 O   0  0  0  0  0
    6.3780   31.6520    3.8030 C   0  0  0  0  0
    7.7310   31.7390    4.5120 C   0  0  0  0  0
    7.9290   33.0690    5.2440 C   0  0  0  0  0
    9.0660   33.2520    5.7170 O   0  0  0  0  0
    6.9720   33.8800    5.2850 O   0  0  0  0  0
    4.4860   32.6870    0.8540 C   0  0  0  0  0
    3.2690   32.2260    0.3460 C   0  0  0  0  0
    4.9360   33.7430    0.4210 O   0  0  0  0  0
    5.0950   31.9550    1.7810 N   0  0  0  0  0
    6.4840   33.3885    2.5005 H   0  0  0  0  0
    6.5029   30.3925    1.0704 H   0  0  0  0  0
    6.1447   30.5959    3.6677 H   0  0  0  0  0
    5.6495   32.1799    4.4184 H   0  0  0  0  0
    8.5115   31.6533    3.7560 H   0  0  0  0  0
    7.7734   30.9398    5.2520 H   0  0  0  0  0
    6.2088   33.4949    4.8482 H   0  0  0  0  0
    2.4914   32.9639    0.5435 H   0  0  0  0  0
    3.3606   32.0717   -0.7291 H   0  0  0  0  0
    3.0087   31.2840    0.8287 H   0  0  0  0  0
    4.6438   31.0875    2.0714 H   0  0  0  0  0
  1  2  1  0  0  0
  1  5  1  0  0  0
 13  1  1  0  0  0
  2  3  2  0  0  0
  2  4  1  0  0  0
  5  6  1  0  0  0
  6  7  1  0  0  0
  7  8  2  0  0  0
  7  9  1  0  0  0
 10 11  1  0  0  0
 10 12  2  0  0  0
 10 13  1  0  0  0
  1 14  1  0  0  0
  4 15  1  0  0  0
  5 16  1  0  0  0
  5 17  1  0  0  0
  6 18  1  0  0  0
  6 19  1  0  0  0
  9 20  1  0  0  0
 11 21  1  0  0  0
 11 22  1  0  0  0
 11 23  1  0  0  0
 13 24  1  0  0  0
M  END
$$$$
