1z4o_ligand
  -I-interpret- 

 29 29  0  0  0  0  0  0  0  0999 V2000
    4.8630   -3.8340   13.1020 C   0  0  0  0  0
    3.7100   -2.8250   13.0430 C   0  0  0  0  0
    3.9590   -1.7790   11.9650 C   0  0  0  0  0
    5.3550   -1.0560   12.2000 C   0  0  0  0  0
    6.4450   -2.1610   12.2920 C   0  0  0  0  0
    7.8260   -1.5370   12.6670 C   0  0  0  0  0
    5.0270   -4.4990   11.8610 O   0  0  0  0  0
    2.4500   -3.5190   12.8000 O   0  0  0  0  0
    2.8970   -0.8310   11.9480 O   0  0  0  0  0
    5.2700   -0.2130   13.3760 O   0  0  0  0  0
    6.1030   -3.1090   13.3260 O   0  0  0  0  0
    8.1120   -0.6170   11.6800 O   0  0  0  0  0
    4.3670   -5.9670   11.5460 P   0  0  0  0  0
    4.8140   -6.4880   10.1390 O   0  0  0  0  0
    4.9190   -6.8730   12.6790 O   0  0  0  0  0
    2.8020   -5.9120   11.6510 O   0  0  0  0  0
    4.6375   -4.5495   13.8927 H   0  0  0  0  0
    3.6505   -2.3121   14.0029 H   0  0  0  0  0
    3.9949   -2.2770   10.9961 H   0  0  0  0  0
    5.6232   -0.3920   11.3782 H   0  0  0  0  0
    6.5027   -2.6523   11.3207 H   0  0  0  0  0
    8.5999   -2.3021   12.7278 H   0  0  0  0  0
    7.7903   -1.0632   13.6480 H   0  0  0  0  0
    2.3088   -4.1738   13.4877 H   0  0  0  0  0
    2.0645   -1.2873   11.8051 H   0  0  0  0  0
    4.5802    0.4425   13.2493 H   0  0  0  0  0
    8.9577   -0.2024   11.8659 H   0  0  0  0  0
    4.4600   -5.9112    9.4581 H   0  0  0  0  0
    2.4550   -5.3526   10.9522 H   0  0  0  0  0
  1  2  1  0  0  0
  1  7  1  0  0  0
  1 11  1  0  0  0
  2  3  1  0  0  0
  2  8  1  0  0  0
  3  4  1  0  0  0
  3  9  1  0  0  0
  4  5  1  0  0  0
  4 10  1  0  0  0
  5  6  1  0  0  0
  5 11  1  0  0  0
  6 12  1  0  0  0
  7 13  1  0  0  0
 13 14  1  0  0  0
 13 15  2  0  0  0
 13 16  1  0  0  0
  1 17  1  0  0  0
  2 18  1  0  0  0
  3 19  1  0  0  0
  4 20  1  0  0  0
  5 21  1  0  0  0
  6 22  1  0  0  0
  6 23  1  0  0  0
  8 24  1  0  0  0
  9 25  1  0  0  0
 10 26  1  0  0  0
 12 27  1  0  0  0
 14 28  1  0  0  0
 16 29  1  0  0  0
M  END
$$$$
