3ikd_ligand
  -I-interpret- 

 44 46  0  0  0  0  0  0  0  0999 V2000
   13.8830    6.5740    1.1670 C   0  0  0  0  0
   13.1320    3.4690    1.0550 N   0  0  0  0  0
   12.3770    4.3220    2.9500 O   0  0  0  0  0
   16.8030    0.7690    2.9920 P   0  0  0  0  0
   13.5230    7.8540    1.5840 C   0  0  0  0  0
   15.7760    0.7620    4.1400 O   0  0  0  0  0
   14.2170    8.4660    2.6260 C   0  0  0  0  0
   16.4140    1.9940    2.0410 O   0  0  0  0  0
    9.6400    5.2200    1.7580 S   0  0  0  0  0
   15.2620    7.7730    3.2440 C   0  0  0  0  0
   18.0900    1.2140    3.6150 O   0  0  0  0  0
   15.6210    6.4920    2.8280 C   0  0  0  0  0
   16.7120   -0.5000    2.2800 O   0  0  0  0  0
   14.9350    5.8830    1.7800 C   0  0  0  0  0
   15.3710    4.5520    1.2880 C   0  0  0  0  0
   14.4830    3.3320    1.6680 C   0  0  0  0  0
    8.6960    3.5290   -1.6610 C   0  0  0  0  0
    7.4090    4.0020   -2.0000 C   0  0  0  0  0
    6.7530    4.9100   -1.1780 C   0  0  0  0  0
    7.3830    5.3290    0.0070 C   0  0  0  0  0
    8.6640    4.8710    0.3740 C   0  0  0  0  0
    9.3310    3.9420   -0.4840 C   0  0  0  0  0
   10.6040    3.5670    0.0110 C   0  0  0  0  0
   10.8820    4.2230    1.2350 C   0  0  0  0  0
   12.1560    4.0420    1.7630 C   0  0  0  0  0
   15.1720    1.9870    1.2820 C   0  0  0  0  0
   13.3364    6.1030    0.3500 H   0  0  0  0  0
   12.9556    3.1303    0.1092 H   0  0  0  0  0
   12.6998    8.3757    1.0959 H   0  0  0  0  0
   15.8258    1.5933    4.6175 H   0  0  0  0  0
   13.9490    9.4702    2.9543 H   0  0  0  0  0
   15.8049    8.2420    4.0646 H   0  0  0  0  0
   17.9619    2.0667    4.0371 H   0  0  0  0  0
   16.4383    5.9671    3.3227 H   0  0  0  0  0
   16.3417    4.3681    1.7485 H   0  0  0  0  0
   15.3425    4.6132    0.2001 H   0  0  0  0  0
   14.3564    3.3156    2.7505 H   0  0  0  0  0
    9.2031    2.8308   -2.3270 H   0  0  0  0  0
    6.9270    3.6522   -2.9129 H   0  0  0  0  0
    5.7677    5.2906   -1.4470 H   0  0  0  0  0
    6.8647    6.0295    0.6618 H   0  0  0  0  0
   11.2786    2.8679   -0.4833 H   0  0  0  0  0
   14.5502    1.1231    1.5170 H   0  0  0  0  0
   15.3452    1.9057    0.2089 H   0  0  0  0  0
  1  5  4  0  0  0
 14  1  4  0  0  0
  2 16  1  0  0  0
 25  2  1  0  0  0
 25  3  2  0  0  0
  4  6  1  0  0  0
  8  4  1  0  0  0
  4 11  1  0  0  0
  4 13  2  0  0  0
  5  7  4  0  0  0
 10  7  4  0  0  0
 26  8  1  0  0  0
  9 21  4  0  0  0
 24  9  4  0  0  0
 12 10  4  0  0  0
 14 12  4  0  0  0
 15 14  1  0  0  0
 16 15  1  0  0  0
 16 26  1  0  0  0
 17 18  4  0  0  0
 22 17  4  0  0  0
 18 19  4  0  0  0
 20 19  4  0  0  0
 21 20  4  0  0  0
 22 21  4  0  0  0
 23 22  4  0  0  0
 24 23  4  0  0  0
 24 25  1  0  0  0
  1 27  1  0  0  0
  2 28  1  0  0  0
  5 29  1  0  0  0
  6 30  1  0  0  0
  7 31  1  0  0  0
 10 32  1  0  0  0
 11 33  1  0  0  0
 12 34  1  0  0  0
 15 35  1  0  0  0
 15 36  1  0  0  0
 16 37  1  0  0  0
 17 38  1  0  0  0
 18 39  1  0  0  0
 19 40  1  0  0  0
 20 41  1  0  0  0
 23 42  1  0  0  0
 26 43  1  0  0  0
 26 44  1  0  0  0
M  END
$$$$
