6cf7_ligand
  -I-interpret- 

 68 73  0  0  0  0  0  0  0  0999 V2000
   15.3300   41.0530   18.6220 C   0  0  0  0  0
   14.0490   41.1320   19.1400 C   0  0  0  0  0
   13.8840   41.7480   20.3800 C   0  0  0  0  0
   14.9400   42.2330   21.0380 C   0  0  0  0  0
   16.1680   42.1440   20.5210 C   0  0  0  0  0
   18.3210   43.7080   23.4510 C   0  0  0  0  0
   16.2170   44.3820   24.4020 C   0  0  0  0  0
   16.8960   45.0220   25.4460 C   0  0  0  0  0
   10.9180   39.7690   17.7420 C   0  0  0  0  0
   11.8180   40.3840   18.8110 C   0  0  0  0  0
   11.3710   40.6220   19.9320 O   0  0  0  0  0
   13.0750   40.6080   18.3800 N   0  0  0  0  0
   16.3870   41.5740   19.3450 C   0  0  0  0  0
   17.0190   42.6960   21.3640 O   0  0  0  0  0
   15.0600   42.8540   22.2130 N   0  0  0  0  0
   16.3530   43.1200   22.3700 C   0  0  0  0  0
   16.9340   43.7300   23.3990 C   0  0  0  0  0
   18.9770   44.3320   24.5020 C   0  0  0  0  0
   18.2380   44.9710   25.4950 N   0  0  0  0  0
   16.2110   45.6640   26.4850 C   0  0  0  0  0
   15.4540   44.9800   27.1690 O   0  0  0  0  0
   16.4520   46.9610   26.7920 N   0  0  0  0  0
   15.7560   47.5940   27.9320 C   0  0  0  0  0
   16.7250   48.4600   28.7430 C   0  0  0  0  0
   17.3640   47.8280   26.0070 C   0  0  0  0  0
   18.2130   48.7270   26.9090 C   0  0  0  0  0
   17.4210   49.4590   27.9120 N   0  3  0  0  0
   18.3290   50.2790   28.7500 C   0  0  0  0  0
   18.9660   51.4330   27.9800 C   0  0  0  0  0
   18.4970   52.0230   26.9060 N   0  0  0  0  0
   20.0960   52.0310   28.2880 N   0  0  0  0  0
   20.2360   52.8150   27.5140 N   0  0  0  0  0
   19.2830   52.8250   26.6730 N   0  0  0  0  0
   19.2460   53.7730   25.5550 C   0  0  0  0  0
   17.7030   50.8000   29.8810 C   0  0  0  0  0
   18.1760   50.4320   31.1340 C   0  0  0  0  0
   17.5690   50.9330   32.2760 C   0  0  0  0  0
   16.4950   51.8090   32.1680 C   0  0  0  0  0
   16.0230   52.1870   30.9160 C   0  0  0  0  0
   16.6310   51.6850   29.7700 C   0  0  0  0  0
   15.5039   40.5845   17.6533 H   0  0  0  0  0
   12.8880   41.8341   20.8144 H   0  0  0  0  0
   18.8911   43.2036   22.6709 H   0  0  0  0  0
   15.1274   44.3933   24.3731 H   0  0  0  0  0
   10.5512   38.8031   18.0894 H   0  0  0  0  0
   10.0744   40.4329   17.5532 H   0  0  0  0  0
   11.4881   39.6334   16.8229 H   0  0  0  0  0
   13.3003   40.3639   17.4156 H   0  0  0  0  0
   17.4003   41.5159   18.9477 H   0  0  0  0  0
   20.0659   44.3224   24.5506 H   0  0  0  0  0
   15.3551   46.8132   28.5783 H   0  0  0  0  0
   14.9541   48.2254   27.5493 H   0  0  0  0  0
   17.4774   47.8034   29.1800 H   0  0  0  0  0
   16.1475   48.9941   29.4975 H   0  0  0  0  0
   16.7591   48.4648   25.3614 H   0  0  0  0  0
   18.0345   47.1882   25.4333 H   0  0  0  0  0
   18.7023   49.4646   26.2729 H   0  0  0  0  0
   18.9145   48.0879   27.4452 H   0  0  0  0  0
   16.7451   50.0789   27.4655 H   0  0  0  0  0
   19.1071   49.5822   29.0617 H   0  0  0  0  0
   19.2342   53.2229   24.6141 H   0  0  0  0  0
   18.3481   54.3864   25.6300 H   0  0  0  0  0
   20.1283   54.4119   25.5927 H   0  0  0  0  0
   19.0226   49.7508   31.2197 H   0  0  0  0  0
   17.9347   50.6394   33.2599 H   0  0  0  0  0
   16.0212   52.2009   33.0680 H   0  0  0  0  0
   15.1805   52.8735   30.8329 H   0  0  0  0  0
   16.2697   51.9832   28.7858 H   0  0  0  0  0
  2  1  4  0  0  0
 13  1  4  0  0  0
  3  2  4  0  0  0
  2 12  1  0  0  0
  4  3  4  0  0  0
  4  5  4  0  0  0
 15  4  4  0  0  0
  5 13  4  0  0  0
 14  5  4  0  0  0
 17  6  4  0  0  0
  6 18  4  0  0  0
  7  8  4  0  0  0
 17  7  4  0  0  0
  8 19  4  0  0  0
  8 20  1  0  0  0
 10  9  1  0  0  0
 10 11  2  0  0  0
 12 10  1  0  0  0
 16 14  4  0  0  0
 16 15  4  0  0  0
 16 17  1  0  0  0
 18 19  4  0  0  0
 20 21  2  0  0  0
 20 22  1  0  0  0
 22 23  1  0  0  0
 22 25  1  0  0  0
 23 24  1  0  0  0
 24 27  1  0  0  0
 25 26  1  0  0  0
 26 27  1  0  0  0
 27 28  1  0  0  0
 28 29  1  0  0  0
 28 35  1  0  0  0
 29 30  4  0  0  0
 29 31  4  0  0  0
 30 33  4  0  0  0
 31 32  4  0  0  0
 32 33  4  0  0  0
 33 34  1  0  0  0
 35 36  4  0  0  0
 35 40  4  0  0  0
 36 37  4  0  0  0
 37 38  4  0  0  0
 38 39  4  0  0  0
 39 40  4  0  0  0
  1 41  1  0  0  0
  3 42  1  0  0  0
  6 43  1  0  0  0
  7 44  1  0  0  0
  9 45  1  0  0  0
  9 46  1  0  0  0
  9 47  1  0  0  0
 12 48  1  0  0  0
 13 49  1  0  0  0
 18 50  1  0  0  0
 23 51  1  0  0  0
 23 52  1  0  0  0
 24 53  1  0  0  0
 24 54  1  0  0  0
 25 55  1  0  0  0
 25 56  1  0  0  0
 26 57  1  0  0  0
 26 58  1  0  0  0
 27 59  1  0  0  0
 28 60  1  0  0  0
 34 61  1  0  0  0
 34 62  1  0  0  0
 34 63  1  0  0  0
 36 64  1  0  0  0
 37 65  1  0  0  0
 38 66  1  0  0  0
 39 67  1  0  0  0
 40 68  1  0  0  0
M  END
$$$$
