3el4_ligand
  -I-interpret- 

100104  0  0  0  0  0  0  0  0999 V2000
    6.2260   -6.3450   18.0590 C   0  0  0  0  0
    6.5210   -5.7370   19.0980 O   0  0  0  0  0
    5.2490   -8.1340   16.7940 N   0  0  0  0  0
    5.4940   -7.5540   18.0310 C   0  0  0  0  0
    4.9890   -8.1900   19.2030 C   0  0  0  0  0
    4.2530   -9.4010   19.0710 C   0  0  0  0  0
    3.2970  -11.1710   17.6250 C   0  0  0  0  0
    3.0990  -11.6920   16.3080 C   0  0  0  0  0
    3.6240  -11.0180   15.1610 C   0  0  0  0  0
    4.3550   -9.8100   15.3140 C   0  0  0  0  0
    4.0280   -9.9610   17.7850 C   0  0  0  0  0
    4.5540   -9.2900   16.6180 C   0  0  0  0  0
    6.5870   -5.8140   16.8730 N   0  0  0  0  0
    7.3170   -4.5540   16.7880 C   0  0  0  0  0
    6.5510   -3.6020   15.8840 C   0  0  0  0  0
    6.6440   -3.6470   14.6570 O   0  0  0  0  0
    8.7290   -4.7980   16.2590 C   0  0  0  0  0
    9.5930   -5.5240   17.2680 C   0  0  0  0  0
    9.9360   -4.9700   18.3110 O   0  0  0  0  0
    9.9270   -6.7750   16.9790 N   0  0  0  0  0
    5.5280   -0.3560   16.0890 C   0  0  0  0  0
    5.2510   -0.0220   17.4480 O   0  0  0  0  0
    4.9420   -1.7690   15.7900 C   0  0  0  0  0
    5.7570   -2.7290   16.5180 N   0  0  0  0  0
    3.4740   -1.9500   16.2700 C   0  0  0  0  0
    2.9750   -3.3770   16.1560 C   0  0  0  0  0
    2.6020   -3.8890   14.9150 C   0  0  0  0  0
    2.9360   -4.1720   17.3010 C   0  0  0  0  0
    2.1910   -5.2140   14.8250 C   0  0  0  0  0
    2.5240   -5.4880   17.1920 C   0  0  0  0  0
    2.1540   -6.0080   15.9570 C   0  0  0  0  0
    5.8580    0.7960   13.8900 N   0  3  0  0  0
    5.1150    0.8010   15.1620 C   0  0  0  0  0
    5.0650    1.3600   12.7430 C   0  0  0  0  0
    3.7830    0.6030   12.4200 C   0  0  0  0  0
    3.8100   -0.6350   12.4100 O   0  0  0  0  0
    5.9010    1.3680   11.4480 C   0  0  0  0  0
    7.2060    2.1460   11.6760 C   0  0  0  0  0
    8.0850    2.1600   10.4280 C   0  0  0  0  0
    8.7710    0.7960   10.1730 C   0  0  0  0  0
    9.5990    0.3010   11.3770 C   0  0  0  0  0
    8.6760    0.2070   12.6040 C   0  0  0  0  0
    8.0360    1.5770   12.9090 C   0  0  0  0  0
    7.1100    1.5340   14.1370 C   0  0  0  0  0
    2.7180    1.4080   12.2200 N   0  0  0  0  0
    1.3630    1.0010   11.8580 C   0  0  0  0  0
    0.5760    2.2860   11.7650 C   0  0  0  0  0
    1.3030    0.3510   10.4960 C   0  0  0  0  0
    0.7130    0.1090   12.9320 C   0  0  0  0  0
    5.1643   -7.7546   20.1868 H   0  0  0  0  0
    3.8615   -9.8994   19.9578 H   0  0  0  0  0
    2.8940  -11.6929   18.4929 H   0  0  0  0  0
    2.5389  -12.6178   16.1762 H   0  0  0  0  0
    3.4625  -11.4329   14.1661 H   0  0  0  0  0
    4.7564   -9.2912   14.4434 H   0  0  0  0  0
    6.3433   -6.3061   16.0134 H   0  0  0  0  0
    7.4068   -4.1083   17.7786 H   0  0  0  0  0
    9.1871   -3.8313   16.0499 H   0  0  0  0  0
    8.6564   -5.4161   15.3641 H   0  0  0  0  0
   10.4904   -7.3168   17.6343 H   0  0  0  0  0
    9.6204   -7.1950   16.1015 H   0  0  0  0  0
    6.5944   -0.4569   15.8875 H   0  0  0  0  0
    5.6085    0.8476   17.6419 H   0  0  0  0  0
    4.9504   -1.9096   14.7091 H   0  0  0  0  0
    5.7231   -2.7377   17.5374 H   0  0  0  0  0
    2.8418   -1.3291   15.6352 H   0  0  0  0  0
    3.4360   -1.6717   17.3232 H   0  0  0  0  0
    2.6321   -3.2588   14.0262 H   0  0  0  0  0
    3.2261   -3.7621   18.2684 H   0  0  0  0  0
    1.8973   -5.6280   13.8604 H   0  0  0  0  0
    2.4893   -6.1205   18.0790 H   0  0  0  0  0
    1.8331   -7.0469   15.8803 H   0  0  0  0  0
    6.0564   -0.1609   13.5977 H   0  0  0  0  0
    5.3324    1.7377   15.6753 H   0  0  0  0  0
    4.0553    0.6874   14.9334 H   0  0  0  0  0
    4.8011    2.3630   13.0782 H   0  0  0  0  0
    5.3297    1.8475   10.6531 H   0  0  0  0  0
    6.1376    0.3422   11.1654 H   0  0  0  0  0
    6.9092    3.1695   11.9050 H   0  0  0  0  0
    8.8649    2.9074   10.5736 H   0  0  0  0  0
    7.4496    2.3831    9.5709 H   0  0  0  0  0
    9.4520    0.9199    9.3310 H   0  0  0  0  0
    7.9881    0.0614    9.9848 H   0  0  0  0  0
   10.4131    0.9973   11.5782 H   0  0  0  0  0
   10.0239   -0.6784   11.1570 H   0  0  0  0  0
    9.2652   -0.1070   13.4656 H   0  0  0  0  0
    7.8850   -0.5137   12.3963 H   0  0  0  0  0
    8.8764    2.2396   13.1158 H   0  0  0  0  0
    7.6442    1.0223   14.9375 H   0  0  0  0  0
    6.8455    2.5609   14.3891 H   0  0  0  0  0
    2.8769    2.4091   12.3341 H   0  0  0  0  0
    0.5983    2.7948   12.7287 H   0  0  0  0  0
    1.0193    2.9277   11.0036 H   0  0  0  0  0
   -0.4558    2.0600   11.4958 H   0  0  0  0  0
    1.6567    1.0551    9.7429 H   0  0  0  0  0
    1.9352   -0.5369   10.4904 H   0  0  0  0  0
    0.2740    0.0673   10.2752 H   0  0  0  0  0
    1.3120   -0.7918   13.0655 H   0  0  0  0  0
    0.6614    0.6554   13.8737 H   0  0  0  0  0
   -0.2928   -0.1657   12.6142 H   0  0  0  0  0
  1  2  2  0  0  0
  1  4  1  0  0  0
 13  1  1  0  0  0
  4  3  4  0  0  0
  3 12  4  0  0  0
  4  5  4  0  0  0
  5  6  4  0  0  0
  6 11  4  0  0  0
  7  8  4  0  0  0
 11  7  4  0  0  0
  9  8  4  0  0  0
 10  9  4  0  0  0
 12 10  4  0  0  0
 12 11  4  0  0  0
 14 13  1  0  0  0
 15 14  1  0  0  0
 14 17  1  0  0  0
 15 16  2  0  0  0
 24 15  1  0  0  0
 17 18  1  0  0  0
 18 19  2  0  0  0
 18 20  1  0  0  0
 21 22  1  0  0  0
 23 21  1  0  0  0
 21 33  1  0  0  0
 23 24  1  0  0  0
 23 25  1  0  0  0
 25 26  1  0  0  0
 26 27  4  0  0  0
 26 28  4  0  0  0
 27 29  4  0  0  0
 28 30  4  0  0  0
 29 31  4  0  0  0
 30 31  4  0  0  0
 33 32  1  0  0  0
 32 34  1  0  0  0
 32 44  1  0  0  0
 34 35  1  0  0  0
 34 37  1  0  0  0
 35 36  2  0  0  0
 35 45  1  0  0  0
 37 38  1  0  0  0
 38 39  1  0  0  0
 38 43  1  0  0  0
 39 40  1  0  0  0
 40 41  1  0  0  0
 41 42  1  0  0  0
 42 43  1  0  0  0
 43 44  1  0  0  0
 45 46  1  0  0  0
 46 47  1  0  0  0
 46 48  1  0  0  0
 46 49  1  0  0  0
  5 50  1  0  0  0
  6 51  1  0  0  0
  7 52  1  0  0  0
  8 53  1  0  0  0
  9 54  1  0  0  0
 10 55  1  0  0  0
 13 56  1  0  0  0
 14 57  1  0  0  0
 17 58  1  0  0  0
 17 59  1  0  0  0
 20 60  1  0  0  0
 20 61  1  0  0  0
 21 62  1  0  0  0
 22 63  1  0  0  0
 23 64  1  0  0  0
 24 65  1  0  0  0
 25 66  1  0  0  0
 25 67  1  0  0  0
 27 68  1  0  0  0
 28 69  1  0  0  0
 29 70  1  0  0  0
 30 71  1  0  0  0
 31 72  1  0  0  0
 32 73  1  0  0  0
 33 74  1  0  0  0
 33 75  1  0  0  0
 34 76  1  0  0  0
 37 77  1  0  0  0
 37 78  1  0  0  0
 38 79  1  0  0  0
 39 80  1  0  0  0
 39 81  1  0  0  0
 40 82  1  0  0  0
 40 83  1  0  0  0
 41 84  1  0  0  0
 41 85  1  0  0  0
 42 86  1  0  0  0
 42 87  1  0  0  0
 43 88  1  0  0  0
 44 89  1  0  0  0
 44 90  1  0  0  0
 45 91  1  0  0  0
 47 92  1  0  0  0
 47 93  1  0  0  0
 47 94  1  0  0  0
 48 95  1  0  0  0
 48 96  1  0  0  0
 48 97  1  0  0  0
 49 98  1  0  0  0
 49 99  1  0  0  0
 49100  1  0  0  0
M  END
$$$$
