2rjp_ligand
  -I-interpret- 

 67 69  0  0  0  0  0  0  0  0999 V2000
   66.4200  -11.2980   14.6310 C   0  0  0  0  0
   66.1680  -10.3930   13.4140 C   0  0  0  0  0
   65.1200  -11.0660   12.5200 C   0  0  0  0  0
   65.7550   -8.9780   13.8790 C   0  0  0  0  0
   65.5120   -7.9580   12.7100 C   0  0  0  0  0
   66.5440   -7.7160   12.0220 O   0  0  0  0  0
   64.3590   -7.4870   12.5810 O   0  0  0  0  0
   66.9480   -8.4060   14.6220 N   0  0  0  0  0
   66.7020   -7.7840   16.1600 S   0  0  0  0  0
   67.9460   -7.9800   16.8880 O   0  0  0  0  0
   65.4600   -8.3000   16.6980 O   0  0  0  0  0
   66.4610   -6.0420   15.9050 C   0  0  0  0  0
   67.5710   -5.2310   15.6630 C   0  0  0  0  0
   67.3800   -3.8590   15.4610 C   0  0  0  0  0
   66.0930   -3.2720   15.4950 C   0  0  0  0  0
   64.9930   -4.1200   15.7450 C   0  0  0  0  0
   65.1700   -5.4940   15.9480 C   0  0  0  0  0
   65.9170   -1.8140   15.3010 C   0  0  0  0  0
   64.8100   -1.1300   15.8510 C   0  0  0  0  0
   64.6430    0.2560   15.6840 C   0  0  0  0  0
   65.5930    1.0090   14.9690 C   0  0  0  0  0
   66.7080    0.3410   14.4300 C   0  0  0  0  0
   66.8680   -1.0440   14.5970 C   0  0  0  0  0
   65.4430    2.5000   14.7540 C   0  0  0  0  0
   64.5020    3.0750   15.6590 O   0  0  0  0  0
   63.6020    4.0610   15.3180 C   0  0  0  0  0
   62.5340    4.0030   14.4100 C   0  0  0  0  0
   61.6890    5.1220   14.2230 C   0  0  0  0  0
   61.8820    6.3240   14.9330 C   0  0  0  0  0
   62.9420    6.3630   15.8540 C   0  0  0  0  0
   63.7790    5.2500   16.0380 C   0  0  0  0  0
   60.9820    7.5290   14.7710 C   0  0  0  0  0
   59.7900    7.3310   15.0140 O   0  0  0  0  0
   61.4580    8.9910   14.7180 C   0  0  0  0  0
   62.6290    9.2100   13.7680 C   0  0  0  0  0
   61.7090    9.5830   16.1090 C   0  0  0  0  0
   67.2192  -10.8735   15.2385 H   0  0  0  0  0
   65.5087  -11.3683   15.2248 H   0  0  0  0  0
   66.7101  -12.2916   14.2894 H   0  0  0  0  0
   67.0766  -10.2635   12.8259 H   0  0  0  0  0
   64.1828  -11.1599   13.0685 H   0  0  0  0  0
   64.9614  -10.4594   11.6284 H   0  0  0  0  0
   65.4733  -12.0554   12.2297 H   0  0  0  0  0
   64.8330   -9.0919   14.4491 H   0  0  0  0  0
   67.2810   -8.2292   12.3613 H   0  0  0  0  0
   67.8753   -8.3999   14.1972 H   0  0  0  0  0
   68.5725   -5.6600   15.6317 H   0  0  0  0  0
   68.2466   -3.2254   15.2723 H   0  0  0  0  0
   63.9886   -3.6982   15.7807 H   0  0  0  0  0
   64.3091   -6.1348   16.1385 H   0  0  0  0  0
   64.0672   -1.6905   16.4187 H   0  0  0  0  0
   63.7711    0.7511   16.1116 H   0  0  0  0  0
   67.4573    0.9060   13.8756 H   0  0  0  0  0
   67.7447   -1.5348   14.1743 H   0  0  0  0  0
   65.0850    2.6648   13.7377 H   0  0  0  0  0
   66.4120    2.9694   14.9240 H   0  0  0  0  0
   62.3540    3.0888   13.8444 H   0  0  0  0  0
   60.8667    5.0527   13.5108 H   0  0  0  0  0
   63.1174    7.2692   16.4337 H   0  0  0  0  0
   64.5907    5.3132   16.7628 H   0  0  0  0  0
   60.6261    9.5522   14.2924 H   0  0  0  0  0
   63.4740    8.6006   14.0884 H   0  0  0  0  0
   62.3347    8.9233   12.7584 H   0  0  0  0  0
   62.9131   10.2623   13.7800 H   0  0  0  0  0
   60.7855    9.5530   16.6873 H   0  0  0  0  0
   62.4767    8.9998   16.6175 H   0  0  0  0  0
   62.0426   10.6158   16.0081 H   0  0  0  0  0
  1  2  1  0  0  0
  2  3  1  0  0  0
  2  4  1  0  0  0
  4  5  1  0  0  0
  4  8  1  0  0  0
  5  6  1  0  0  0
  5  7  2  0  0  0
  8  9  1  0  0  0
  9 10  2  0  0  0
  9 11  2  0  0  0
  9 12  1  0  0  0
 12 13  4  0  0  0
 12 17  4  0  0  0
 13 14  4  0  0  0
 14 15  4  0  0  0
 15 16  4  0  0  0
 15 18  1  0  0  0
 16 17  4  0  0  0
 18 19  4  0  0  0
 18 23  4  0  0  0
 19 20  4  0  0  0
 20 21  4  0  0  0
 21 22  4  0  0  0
 21 24  1  0  0  0
 22 23  4  0  0  0
 24 25  1  0  0  0
 25 26  1  0  0  0
 26 27  4  0  0  0
 26 31  4  0  0  0
 27 28  4  0  0  0
 28 29  4  0  0  0
 29 30  4  0  0  0
 29 32  1  0  0  0
 30 31  4  0  0  0
 32 33  2  0  0  0
 32 34  1  0  0  0
 34 35  1  0  0  0
 34 36  1  0  0  0
  1 37  1  0  0  0
  1 38  1  0  0  0
  1 39  1  0  0  0
  2 40  1  0  0  0
  3 41  1  0  0  0
  3 42  1  0  0  0
  3 43  1  0  0  0
  4 44  1  0  0  0
  6 45  1  0  0  0
  8 46  1  0  0  0
 13 47  1  0  0  0
 14 48  1  0  0  0
 16 49  1  0  0  0
 17 50  1  0  0  0
 19 51  1  0  0  0
 20 52  1  0  0  0
 22 53  1  0  0  0
 23 54  1  0  0  0
 24 55  1  0  0  0
 24 56  1  0  0  0
 27 57  1  0  0  0
 28 58  1  0  0  0
 30 59  1  0  0  0
 31 60  1  0  0  0
 34 61  1  0  0  0
 35 62  1  0  0  0
 35 63  1  0  0  0
 35 64  1  0  0  0
 36 65  1  0  0  0
 36 66  1  0  0  0
 36 67  1  0  0  0
M  END
$$$$
