1w76_ligand
  -I-interpret- 

 41 44  0  0  0  0  0  0  0  0999 V2000
   93.0260   49.4920   19.8460 C   0  0  0  0  0
   91.8600   48.8880   19.4540 C   0  0  0  0  0
   91.0690   47.9260   20.3810 C   0  0  0  0  0
   91.9650   47.3780   21.5940 C   0  0  0  0  0
   92.6950   48.5840   22.2030 C   0  0  0  0  0
   93.7260   49.1760   21.2180 C   0  0  0  0  0
   91.8280   49.6980   22.6240 O   0  0  0  0  0
   92.6530   51.8990   23.4410 C   0  0  0  0  0
   93.7320   52.8190   23.3950 C   0  0  0  0  0
   94.8990   52.5340   22.6330 C   0  0  0  0  0
   96.3030   51.1460   21.1140 C   0  0  0  0  0
   96.7090   50.1650   20.3220 N   0  3  0  0  0
   95.9740   48.9230   19.9320 C   0  0  0  0  0
   94.9580   48.2770   20.9210 C   0  0  0  0  0
   92.7920   50.7300   22.6990 C   0  0  0  0  0
   93.9510   50.4520   21.9280 C   0  0  0  0  0
   95.0370   51.3480   21.8860 C   0  0  0  0  0
   91.6240   52.6470   25.5210 C   0  0  0  0  0
   91.4580   52.0820   24.2070 O   0  0  0  0  0
   89.9980   48.7290   20.8770 O   0  0  0  0  0
   98.0600   50.2920   19.7870 C   0  0  0  0  0
   93.4869   50.2211   19.1796 H   0  0  0  0  0
   91.4738   49.0904   18.4550 H   0  0  0  0  0
   90.7333   47.0377   19.8459 H   0  0  0  0  0
   92.6806   46.6371   21.2375 H   0  0  0  0  0
   91.3400   46.8906   22.3423 H   0  0  0  0  0
   93.1653   48.1634   23.0918 H   0  0  0  0  0
   93.6661   53.7549   23.9498 H   0  0  0  0  0
   95.7139   53.2579   22.6271 H   0  0  0  0  0
   97.0243   51.9558   21.2237 H   0  0  0  0  0
   96.7538   48.1709   19.8120 H   0  0  0  0  0
   95.3691   49.2215   19.0758 H   0  0  0  0  0
   94.5910   47.3594   20.4611 H   0  0  0  0  0
   95.4785   48.1120   21.8644 H   0  0  0  0  0
   92.2662   51.9975   26.1159 H   0  0  0  0  0
   92.0809   53.6330   25.4361 H   0  0  0  0  0
   90.6501   52.7367   26.0022 H   0  0  0  0  0
   89.4718   49.0490   20.1406 H   0  0  0  0  0
   98.1317   51.2064   19.1981 H   0  0  0  0  0
   98.7732   50.3317   20.6103 H   0  0  0  0  0
   98.2811   49.4325   19.1542 H   0  0  0  0  0
  1  2  2  0  0  0
  6  1  1  0  0  0
  3  2  1  0  0  0
  4  3  1  0  0  0
  3 20  1  0  0  0
  5  4  1  0  0  0
  5  6  1  0  0  0
  7  5  1  0  0  0
  6 14  1  0  0  0
  6 16  1  0  0  0
 15  7  1  0  0  0
  9  8  4  0  0  0
  8 15  4  0  0  0
  8 19  1  0  0  0
 10  9  4  0  0  0
 17 10  4  0  0  0
 11 12  2  0  0  0
 11 17  1  0  0  0
 12 13  1  0  0  0
 12 21  1  0  0  0
 13 14  1  0  0  0
 15 16  4  0  0  0
 16 17  4  0  0  0
 19 18  1  0  0  0
  1 22  1  0  0  0
  2 23  1  0  0  0
  3 24  1  0  0  0
  4 25  1  0  0  0
  4 26  1  0  0  0
  5 27  1  0  0  0
  9 28  1  0  0  0
 10 29  1  0  0  0
 11 30  1  0  0  0
 13 31  1  0  0  0
 13 32  1  0  0  0
 14 33  1  0  0  0
 14 34  1  0  0  0
 18 35  1  0  0  0
 18 36  1  0  0  0
 18 37  1  0  0  0
 20 38  1  0  0  0
 21 39  1  0  0  0
 21 40  1  0  0  0
 21 41  1  0  0  0
M  END
$$$$
