1m7q_ligand
  -I-interpret- 

 52 56  0  0  0  0  0  0  0  0999 V2000
   43.9700   33.1090   31.4590 C   0  0  0  0  0
   43.1590   31.9130   31.3160 C   0  0  0  0  0
   43.8110   30.6620   31.0680 C   0  0  0  0  0
   45.2260   30.5790   30.9530 C   0  0  0  0  0
   46.0080   31.7440   31.0740 C   0  0  0  0  0
   45.4100   33.0490   31.3300 C   0  0  0  0  0
   45.9420   29.5640   30.7570 N   0  0  0  0  0
   41.6580   31.9160   31.4240 C   0  0  0  0  0
   46.1960   34.2930   31.4760 N   0  0  0  0  0
   45.5900   35.5440   31.7460 C   0  0  0  0  0
   44.2620   35.5890   31.8680 N   0  0  0  0  0
   43.3460   34.4680   31.7410 C   0  0  0  0  0
   46.2070   36.5930   31.8800 O   0  0  0  0  0
   47.3830   34.2240   31.3460 C   0  0  0  0  0
   41.0130   31.4150   32.5910 C   0  0  0  0  0
   39.5880   31.4310   32.7000 C   0  0  0  0  0
   38.8120   31.9600   31.6220 C   0  0  0  0  0
   39.4250   32.4610   30.4440 C   0  0  0  0  0
   40.8340   32.4370   30.3490 C   0  0  0  0  0
   48.3920   33.8600   32.3530 C   0  0  0  0  0
   49.7750   33.8300   32.0280 C   0  0  0  0  0
   50.2240   34.1480   30.7010 C   0  0  0  0  0
   49.2970   34.4980   29.6720 C   0  0  0  0  0
   47.9020   34.5410   29.9590 C   0  0  0  0  0
   41.3250   32.9390   29.1860 F   0  0  0  0  0
   37.4810   31.9890   31.7250 F   0  0  0  0  0
   46.8400   34.9750   28.5960 Cl  0  0  0  0  0
   47.9630   33.4370   33.9810 Cl  0  0  0  0  0
   46.1520   28.9520   29.4020 C   0  0  0  0  0
   45.9120   27.4140   29.5260 C   0  0  0  0  0
   46.6400   26.7970   30.6970 N   0  3  0  0  0
   46.3320   27.4280   32.0110 C   0  0  0  0  0
   46.5970   28.9550   31.9860 C   0  0  0  0  0
   43.2118   29.7573   30.9656 H   0  0  0  0  0
   47.0907   31.6680   30.9735 H   0  0  0  0  0
   42.2681   34.5940   31.8425 H   0  0  0  0  0
   41.6122   31.0154   33.4091 H   0  0  0  0  0
   39.0988   31.0446   33.5941 H   0  0  0  0  0
   38.8200   32.8567   29.6282 H   0  0  0  0  0
   50.5031   33.5628   32.7939 H   0  0  0  0  0
   51.2901   34.1218   30.4754 H   0  0  0  0  0
   49.6560   34.7316   28.6697 H   0  0  0  0  0
   47.1656   29.1484   29.0526 H   0  0  0  0  0
   45.4583   29.3849   28.6812 H   0  0  0  0  0
   46.2869   26.9445   28.6165 H   0  0  0  0  0
   44.8443   27.2551   29.6771 H   0  0  0  0  0
   47.6384   26.9228   30.5301 H   0  0  0  0  0
   46.3441   25.8226   30.7550 H   0  0  0  0  0
   46.9749   26.9790   32.7681 H   0  0  0  0  0
   45.2774   27.2648   32.2329 H   0  0  0  0  0
   46.1788   29.4107   32.8835 H   0  0  0  0  0
   47.6713   29.1364   31.9522 H   0  0  0  0  0
  1 12  1  0  0  0
  1  6  4  0  0  0
  1  2  4  0  0  0
  2  8  1  0  0  0
  2  3  4  0  0  0
  3  4  4  0  0  0
  4  7  1  0  0  0
  4  5  4  0  0  0
  6  5  4  0  0  0
  6  9  1  0  0  0
  9 14  1  0  0  0
  9 10  1  0  0  0
 10 13  2  0  0  0
 10 11  1  0  0  0
 12 11  2  0  0  0
 14 24  4  0  0  0
 14 20  4  0  0  0
 20 28  1  0  0  0
 20 21  4  0  0  0
 21 22  4  0  0  0
 22 23  4  0  0  0
 24 23  4  0  0  0
 24 27  1  0  0  0
  7 33  1  0  0  0
  7 29  1  0  0  0
 29 30  1  0  0  0
 30 31  1  0  0  0
 31 32  1  0  0  0
 33 32  1  0  0  0
  8 19  4  0  0  0
  8 15  4  0  0  0
 15 16  4  0  0  0
 16 17  4  0  0  0
 17 26  1  0  0  0
 17 18  4  0  0  0
 18 19  4  0  0  0
 19 25  1  0  0  0
  3 34  1  0  0  0
  5 35  1  0  0  0
 12 36  1  0  0  0
 15 37  1  0  0  0
 16 38  1  0  0  0
 18 39  1  0  0  0
 21 40  1  0  0  0
 22 41  1  0  0  0
 23 42  1  0  0  0
 29 43  1  0  0  0
 29 44  1  0  0  0
 30 45  1  0  0  0
 30 46  1  0  0  0
 31 47  1  0  0  0
 31 48  1  0  0  0
 32 49  1  0  0  0
 32 50  1  0  0  0
 33 51  1  0  0  0
 33 52  1  0  0  0
M  END
$$$$
