### 
### Created by X-TOOL on Mon Sep 10 21:13:16 2018
### 

@<TRIPOS>MOLECULE
4quo_ligand
   54    55     1     0     0
SMALL
GAST_HUCK


@<TRIPOS>ATOM
      1 OAA       -38.7410  -11.9110  -22.0660 O.co2     1 3DZ        -0.5685
      2 CAB       -39.2240  -13.0300  -21.7440 C.2       1 3DZ         0.0413
      3 OAC       -38.9210  -13.5410  -20.6380 O.co2     1 3DZ        -0.5685
      4 CAD       -40.1450  -13.8150  -22.6790 C.3       1 3DZ         0.0373
      5 CAE       -39.2800  -14.3500  -23.7990 C.3       1 3DZ        -0.0049
      6 CAF       -38.2170  -15.3170  -23.3230 C.ar      1 3DZ        -0.0477
      7 CAK       -38.5420  -16.6600  -23.1820 C.ar      1 3DZ        -0.0671
      8 CAJ       -37.5780  -17.5880  -22.7840 C.ar      1 3DZ        -0.0750
      9 CAI       -36.2750  -17.1660  -22.5300 C.ar      1 3DZ        -0.0622
     10 CAH       -35.9440  -15.8220  -22.6850 C.ar      1 3DZ        -0.0055
     11 CAZ       -34.5270  -15.4040  -22.4080 C.3       1 3DZ        -0.0032
     12 NBA       -34.4440  -14.7110  -21.1190 N.4       1 3DZ         0.2307
     13 CAG       -36.9130  -14.8820  -23.0880 C.ar      1 3DZ        -0.0541
     14 CAL       -41.2040  -13.0070  -23.4050 C.3       1 3DZ         0.0347
     15 PAM       -42.8990  -13.6910  -23.3900 P.3       1 3DZ         0.0376
     16 OAN       -43.2980  -14.5810  -24.5250 O.co2     1 3DZ        -0.6154
     17 OAO       -43.0840  -14.4090  -22.1180 O.co2     1 3DZ        -0.6154
     18 CAP       -44.0850  -12.3240  -23.4140 C.3       1 3DZ         0.0390
     19 NAQ       -45.4660  -12.9280  -23.3140 N.4       1 3DZ         0.2337
     20 CAR       -43.7610  -11.3310  -22.3210 C.3       1 3DZ         0.0167
     21 CAS       -44.7350  -10.1810  -22.3590 C.3       1 3DZ        -0.0124
     22 CAT       -44.2070   -8.7720  -22.3140 C.ar      1 3DZ        -0.0428
     23 CAU       -43.3840   -8.2990  -23.3280 C.ar      1 3DZ        -0.0603
     24 CAY       -44.6240   -7.9320  -21.2780 C.ar      1 3DZ        -0.0603
     25 CAX       -44.1650   -6.6050  -21.2830 C.ar      1 3DZ        -0.0686
     26 CAW       -43.2950   -6.1380  -22.2920 C.ar      1 3DZ        -0.0687
     27 CAV       -42.8980   -6.9850  -23.3250 C.ar      1 3DZ        -0.0686
     28 H         -40.6230  -14.6279  -22.1126 H         1 3DZ         0.0504
     29 H         -38.7843  -13.5016  -24.2935 H         1 3DZ         0.0446
     30 H         -39.9262  -14.8693  -24.5220 H         1 3DZ         0.0446
     31 H         -39.5545  -16.9909  -23.3830 H         1 3DZ         0.0499
     32 H         -37.8425  -18.6334  -22.6730 H         1 3DZ         0.0582
     33 H         -35.5229  -17.8796  -22.2135 H         1 3DZ         0.0501
     34 H         -34.1854  -14.7283  -23.2059 H         1 3DZ         0.0978
     35 H         -33.8839  -16.2960  -22.3825 H         1 3DZ         0.0978
     36 H         -33.4896  -14.4366  -20.9459 H         1 3DZ         0.2008
     37 H         -34.7544  -15.3282  -20.3850 H         1 3DZ         0.2008
     38 H         -35.0307  -13.8916  -21.1396 H         1 3DZ         0.2008
     39 H         -36.6494  -13.8380  -23.2133 H         1 3DZ         0.0496
     40 H         -40.8908  -12.9114  -24.4551 H         1 3DZ         0.0489
     41 H         -41.2411  -12.0102  -22.9412 H         1 3DZ         0.0489
     42 H         -44.0078  -11.7979  -24.3769 H         1 3DZ         0.1066
     43 H         -46.1557  -12.1930  -23.3245 H         1 3DZ         0.2013
     44 H         -45.5434  -13.4492  -22.4547 H         1 3DZ         0.2013
     45 H         -45.6204  -13.5448  -24.0961 H         1 3DZ         0.2013
     46 H         -42.7404  -10.9481  -22.4684 H         1 3DZ         0.0359
     47 H         -43.8273  -11.8314  -21.3437 H         1 3DZ         0.0359
     48 H         -45.4075  -10.3002  -21.4967 H         1 3DZ         0.0428
     49 H         -45.3121  -10.2787  -23.2904 H         1 3DZ         0.0428
     50 H         -43.1113   -8.9622  -24.1409 H         1 3DZ         0.0557
     51 H         -45.2811   -8.2934  -20.4952 H         1 3DZ         0.0557
     52 H         -44.4840   -5.9278  -20.4990 H         1 3DZ         0.0599
     53 H         -42.9342   -5.1162  -22.2631 H         1 3DZ         0.0559
     54 H         -42.2311   -6.6365  -24.1053 H         1 3DZ         0.0599
@<TRIPOS>BOND
     1    1    2 ar 
     2    2    3 ar 
     3    2    4 1  
     4    4    5 1  
     5    4   14 1  
     6    5    6 1  
     7    6    7 ar 
     8    6   13 ar 
     9    7    8 ar 
    10    8    9 ar 
    11    9   10 ar 
    12   10   11 1  
    13   10   13 ar 
    14   11   12 1  
    15   14   15 1  
    16   15   16 ar 
    17   15   17 ar 
    18   15   18 1  
    19   18   19 1  
    20   18   20 1  
    21   20   21 1  
    22   21   22 1  
    23   22   23 ar 
    24   22   24 ar 
    25   23   27 ar 
    26   24   25 ar 
    27   25   26 ar 
    28   26   27 ar 
    29    4   28 1  
    30    5   29 1  
    31    5   30 1  
    32    7   31 1  
    33    8   32 1  
    34    9   33 1  
    35   11   34 1  
    36   11   35 1  
    37   12   36 1  
    38   12   37 1  
    39   12   38 1  
    40   13   39 1  
    41   14   40 1  
    42   14   41 1  
    43   18   42 1  
    44   19   43 1  
    45   19   44 1  
    46   19   45 1  
    47   20   46 1  
    48   20   47 1  
    49   21   48 1  
    50   21   49 1  
    51   23   50 1  
    52   24   51 1  
    53   25   52 1  
    54   26   53 1  
    55   27   54 1  
@<TRIPOS>SUBSTRUCTURE
     1 3DZ         1

