4quo_ligand
  -I-interpret- 

 56 57  0  0  0  0  0  0  0  0999 V2000
  -38.7410  -11.9110  -22.0660 O   0  0  0  0  0
  -39.2240  -13.0300  -21.7440 C   0  0  0  0  0
  -38.9210  -13.5410  -20.6380 O   0  0  0  0  0
  -40.1450  -13.8150  -22.6790 C   0  0  0  0  0
  -39.2800  -14.3500  -23.7990 C   0  0  0  0  0
  -38.2170  -15.3170  -23.3230 C   0  0  0  0  0
  -38.5420  -16.6600  -23.1820 C   0  0  0  0  0
  -37.5780  -17.5880  -22.7840 C   0  0  0  0  0
  -36.2750  -17.1660  -22.5300 C   0  0  0  0  0
  -35.9440  -15.8220  -22.6850 C   0  0  0  0  0
  -34.5270  -15.4040  -22.4080 C   0  0  0  0  0
  -34.4440  -14.7110  -21.1190 N   0  3  0  0  0
  -36.9130  -14.8820  -23.0880 C   0  0  0  0  0
  -41.2040  -13.0070  -23.4050 C   0  0  0  0  0
  -42.8990  -13.6910  -23.3900 P   0  0  0  0  0
  -43.2980  -14.5810  -24.5250 O   0  0  0  0  0
  -43.0840  -14.4090  -22.1180 O   0  0  0  0  0
  -44.0850  -12.3240  -23.4140 C   0  0  0  0  0
  -45.4660  -12.9280  -23.3140 N   0  3  0  0  0
  -43.7610  -11.3310  -22.3210 C   0  0  0  0  0
  -44.7350  -10.1810  -22.3590 C   0  0  0  0  0
  -44.2070   -8.7720  -22.3140 C   0  0  0  0  0
  -43.3840   -8.2990  -23.3280 C   0  0  0  0  0
  -44.6240   -7.9320  -21.2780 C   0  0  0  0  0
  -44.1650   -6.6050  -21.2830 C   0  0  0  0  0
  -43.2950   -6.1380  -22.2920 C   0  0  0  0  0
  -42.8980   -6.9850  -23.3250 C   0  0  0  0  0
  -39.0672  -11.6606  -22.9335 H   0  0  0  0  0
  -40.6454  -14.5429  -22.0403 H   0  0  0  0  0
  -38.7725  -13.5016  -24.2580 H   0  0  0  0  0
  -39.9297  -14.8876  -24.4896 H   0  0  0  0  0
  -39.5601  -16.9928  -23.3842 H   0  0  0  0  0
  -37.8440  -18.6391  -22.6724 H   0  0  0  0  0
  -35.5187  -17.8835  -22.2117 H   0  0  0  0  0
  -34.1942  -14.7294  -23.1969 H   0  0  0  0  0
  -33.8939  -16.2908  -22.3768 H   0  0  0  0  0
  -33.4779  -14.4338  -20.9450 H   0  0  0  0  0
  -35.0381  -13.8822  -21.1411 H   0  0  0  0  0
  -34.7584  -15.3365  -20.3772 H   0  0  0  0  0
  -36.6479  -13.8323  -23.2140 H   0  0  0  0  0
  -40.8985  -12.9775  -24.4509 H   0  0  0  0  0
  -41.2597  -12.0481  -22.8897 H   0  0  0  0  0
  -43.1775  -14.1132  -25.3546 H   0  0  0  0  0
  -44.0336  -11.7496  -24.3389 H   0  0  0  0  0
  -46.1630  -12.1834  -23.3247 H   0  0  0  0  0
  -45.6211  -13.5519  -24.1059 H   0  0  0  0  0
  -45.5431  -13.4551  -22.4441 H   0  0  0  0  0
  -42.7514  -10.9493  -22.4728 H   0  0  0  0  0
  -43.8328  -11.8283  -21.3537 H   0  0  0  0  0
  -45.3282  -10.2866  -21.4507 H   0  0  0  0  0
  -45.2284  -10.2641  -23.3274 H   0  0  0  0  0
  -43.1098   -8.9659  -24.1454 H   0  0  0  0  0
  -45.2847   -8.2954  -20.4909 H   0  0  0  0  0
  -44.4858   -5.9240  -20.4946 H   0  0  0  0  0
  -42.9322   -5.1105  -22.2629 H   0  0  0  0  0
  -42.2274   -6.6346  -24.1096 H   0  0  0  0  0
  1  2  1  0  0  0
  2  3  2  0  0  0
  2  4  1  0  0  0
  4  5  1  0  0  0
  4 14  1  0  0  0
  5  6  1  0  0  0
  6  7  4  0  0  0
  6 13  4  0  0  0
  7  8  4  0  0  0
  8  9  4  0  0  0
  9 10  4  0  0  0
 10 11  1  0  0  0
 10 13  4  0  0  0
 11 12  1  0  0  0
 14 15  1  0  0  0
 15 16  1  0  0  0
 15 17  2  0  0  0
 15 18  1  0  0  0
 18 19  1  0  0  0
 18 20  1  0  0  0
 20 21  1  0  0  0
 21 22  1  0  0  0
 22 23  4  0  0  0
 22 24  4  0  0  0
 23 27  4  0  0  0
 24 25  4  0  0  0
 25 26  4  0  0  0
 26 27  4  0  0  0
  1 28  1  0  0  0
  4 29  1  0  0  0
  5 30  1  0  0  0
  5 31  1  0  0  0
  7 32  1  0  0  0
  8 33  1  0  0  0
  9 34  1  0  0  0
 11 35  1  0  0  0
 11 36  1  0  0  0
 12 37  1  0  0  0
 12 38  1  0  0  0
 12 39  1  0  0  0
 13 40  1  0  0  0
 14 41  1  0  0  0
 14 42  1  0  0  0
 16 43  1  0  0  0
 18 44  1  0  0  0
 19 45  1  0  0  0
 19 46  1  0  0  0
 19 47  1  0  0  0
 20 48  1  0  0  0
 20 49  1  0  0  0
 21 50  1  0  0  0
 21 51  1  0  0  0
 23 52  1  0  0  0
 24 53  1  0  0  0
 25 54  1  0  0  0
 26 55  1  0  0  0
 27 56  1  0  0  0
M  END
$$$$
