4apo_ligand
  -I-interpret- 

 88 87  0  0  0  0  0  0  0  0999 V2000
   22.8960   29.6570   26.3990 N   0  3  0  0  0
   24.0010   29.0910   27.1690 C   0  0  0  0  0
   24.6680   27.9380   26.4270 C   0  0  0  0  0
   24.0200   27.2180   25.6590 O   0  0  0  0  0
   23.5200   28.6290   28.5360 C   0  0  0  0  0
   25.9630   27.7610   26.6710 N   0  0  0  0  0
   26.7240   26.6990   26.0200 C   0  0  0  0  0
   26.3270   25.2940   26.4870 C   0  0  0  0  0
   26.6120   24.3110   25.8060 O   0  0  0  0  0
   28.2330   26.9180   26.1830 C   0  0  0  0  0
   28.7950   27.9920   25.2620 C   0  0  0  0  0
   28.4110   27.7780   23.7980 C   0  0  0  0  0
   28.9650   26.8550   23.1620 O   0  0  0  0  0
   27.5560   28.5350   23.2780 O   0  0  0  0  0
   25.6660   25.1880   27.6350 N   0  0  0  0  0
   25.1900   23.8760   28.0750 C   0  0  0  0  0
   23.6820   23.7200   27.8640 C   0  0  0  0  0
   23.0560   22.8000   28.3940 O   0  0  0  0  0
   25.6050   23.5760   29.5190 C   0  0  0  0  0
   24.8430   24.4040   30.5380 C   0  0  0  0  0
   24.2810   25.4570   30.1670 O   0  0  0  0  0
   24.8110   23.9970   31.7190 O   0  0  0  0  0
   23.1070   24.6230   27.0760 N   0  0  0  0  0
   21.7180   24.4790   26.6520 C   0  0  0  0  0
   21.6870   23.7440   25.3080 C   0  0  0  0  0
   22.7260   23.2980   24.7910 O   0  0  0  0  0
   21.0490   25.8550   26.5200 C   0  0  0  0  0
   19.5560   25.8280   26.8660 C   0  0  0  0  0
   18.8270   24.9110   26.4250 O   0  0  0  0  0
   19.1080   26.7390   27.5970 O   0  0  0  0  0
   20.4950   23.6160   24.7450 N   0  0  0  0  0
   20.3440   23.0220   23.4270 C   0  0  0  0  0
   19.7800   24.0500   22.4380 C   0  0  0  0  0
   19.0670   24.9730   22.8340 O   0  0  0  0  0
   19.4650   21.7540   23.4940 C   0  0  0  0  0
   20.2320   20.6300   24.1690 C   0  0  0  0  0
   18.1540   22.0450   24.2460 C   0  0  0  0  0
   20.1250   23.8990   21.1630 N   0  0  0  0  0
   19.6490   24.8070   20.1210 C   0  0  0  0  0
   18.3150   24.3170   19.5890 C   0  0  0  0  0
   18.0190   23.1160   19.6210 O   0  0  0  0  0
   20.6390   24.8780   18.9610 C   0  0  0  0  0
   22.0340   25.3370   19.3260 C   0  0  0  0  0
   22.9740   25.3140   18.1250 C   0  0  0  0  0
   23.5410   24.2390   17.8260 O   0  0  0  0  0
   23.1430   26.3690   17.4770 O   0  0  0  0  0
   17.5140   25.1150   19.1000 O   0  0  0  0  0
   23.2386   29.9602   25.4874 H   0  0  0  0  0
   22.1728   28.9487   26.2734 H   0  0  0  0  0
   22.5077   30.4558   26.9005 H   0  0  0  0  0
   24.7437   29.8774   27.3034 H   0  0  0  0  0
   22.8000   27.8201   28.4121 H   0  0  0  0  0
   24.3705   28.2742   29.1182 H   0  0  0  0  0
   23.0461   29.4628   29.0539 H   0  0  0  0  0
   26.4356   28.3816   27.3282 H   0  0  0  0  0
   26.4723   26.7561   24.9610 H   0  0  0  0  0
   28.7286   25.9801   25.9325 H   0  0  0  0  0
   28.4076   27.2426   27.2088 H   0  0  0  0  0
   29.8822   27.9547   25.3306 H   0  0  0  0  0
   28.3840   28.9508   25.5779 H   0  0  0  0  0
   27.2555   29.1722   23.9302 H   0  0  0  0  0
   25.4916   26.0154   28.2055 H   0  0  0  0  0
   25.6752   23.1292   27.4465 H   0  0  0  0  0
   26.6631   23.8182   29.6180 H   0  0  0  0  0
   25.3893   22.5258   29.7156 H   0  0  0  0  0
   24.4288   25.5832   29.2269 H   0  0  0  0  0
   23.6458   25.4303   26.7623 H   0  0  0  0  0
   21.1673   23.9072   27.3989 H   0  0  0  0  0
   21.1445   26.1734   25.4819 H   0  0  0  0  0
   21.5404   26.5325   27.2183 H   0  0  0  0  0
   19.3542   24.3148   25.8881 H   0  0  0  0  0
   19.6676   23.9403   25.2456 H   0  0  0  0  0
   21.3267   22.7179   23.0667 H   0  0  0  0  0
   19.2115   21.4459   22.4796 H   0  0  0  0  0
   21.1345   20.4134   23.5975 H   0  0  0  0  0
   20.5046   20.9337   25.1797 H   0  0  0  0  0
   19.6054   19.7392   24.2124 H   0  0  0  0  0
   18.3833   22.3713   25.2604 H   0  0  0  0  0
   17.6048   22.8298   23.7259 H   0  0  0  0  0
   17.5487   21.1392   24.2824 H   0  0  0  0  0
   20.7397   23.1272   20.9044 H   0  0  0  0  0
   19.5440   25.7990   20.5604 H   0  0  0  0  0
   18.7350   22.6218   20.0269 H   0  0  0  0  0
   20.2436   25.6117   18.2586 H   0  0  0  0  0
   20.7364   23.8643   18.5723 H   0  0  0  0  0
   22.4296   24.6589   20.0822 H   0  0  0  0  0
   21.9715   26.3622   19.6910 H   0  0  0  0  0
   23.2768   23.5558   18.4465 H   0  0  0  0  0
  1  2  1  0  0  0
  2  3  1  0  0  0
  2  5  1  0  0  0
  3  4  2  0  0  0
  3  6  1  0  0  0
  6  7  1  0  0  0
  7  8  1  0  0  0
  7 10  1  0  0  0
  8  9  2  0  0  0
  8 15  1  0  0  0
 10 11  1  0  0  0
 11 12  1  0  0  0
 12 13  2  0  0  0
 12 14  1  0  0  0
 15 16  1  0  0  0
 16 17  1  0  0  0
 16 19  1  0  0  0
 17 18  2  0  0  0
 17 23  1  0  0  0
 19 20  1  0  0  0
 20 21  1  0  0  0
 20 22  2  0  0  0
 23 24  1  0  0  0
 24 25  1  0  0  0
 24 27  1  0  0  0
 25 26  2  0  0  0
 25 31  1  0  0  0
 27 28  1  0  0  0
 28 29  1  0  0  0
 28 30  2  0  0  0
 31 32  1  0  0  0
 32 33  1  0  0  0
 32 35  1  0  0  0
 33 34  2  0  0  0
 33 38  1  0  0  0
 35 36  1  0  0  0
 35 37  1  0  0  0
 38 39  1  0  0  0
 39 40  1  0  0  0
 39 42  1  0  0  0
 40 41  1  0  0  0
 40 47  2  0  0  0
 42 43  1  0  0  0
 43 44  1  0  0  0
 44 45  1  0  0  0
 44 46  2  0  0  0
  1 48  1  0  0  0
  1 49  1  0  0  0
  1 50  1  0  0  0
  2 51  1  0  0  0
  5 52  1  0  0  0
  5 53  1  0  0  0
  5 54  1  0  0  0
  6 55  1  0  0  0
  7 56  1  0  0  0
 10 57  1  0  0  0
 10 58  1  0  0  0
 11 59  1  0  0  0
 11 60  1  0  0  0
 14 61  1  0  0  0
 15 62  1  0  0  0
 16 63  1  0  0  0
 19 64  1  0  0  0
 19 65  1  0  0  0
 21 66  1  0  0  0
 23 67  1  0  0  0
 24 68  1  0  0  0
 27 69  1  0  0  0
 27 70  1  0  0  0
 29 71  1  0  0  0
 31 72  1  0  0  0
 32 73  1  0  0  0
 35 74  1  0  0  0
 36 75  1  0  0  0
 36 76  1  0  0  0
 36 77  1  0  0  0
 37 78  1  0  0  0
 37 79  1  0  0  0
 37 80  1  0  0  0
 38 81  1  0  0  0
 39 82  1  0  0  0
 41 83  1  0  0  0
 42 84  1  0  0  0
 42 85  1  0  0  0
 43 86  1  0  0  0
 43 87  1  0  0  0
 45 88  1  0  0  0
M  END
$$$$
