### 
### Created by X-TOOL on Mon Sep 10 21:13:13 2018
### 

@<TRIPOS>MOLECULE
4apo_ligand
   83    82     1     0     0
SMALL
GAST_HUCK


@<TRIPOS>ATOM
      1 N          22.8960   29.6570   26.3990 N.4       1 ALA         0.2377
      2 CA         24.0010   29.0910   27.1690 C.3       1 ALA         0.0621
      3 C          24.6680   27.9380   26.4270 C.2       1 ALA         0.2264
      4 O          24.0200   27.2180   25.6590 O.2       1 ALA        -0.3907
      5 CB         23.5200   28.6290   28.5360 C.3       1 ALA        -0.0040
      6 N          25.9630   27.7610   26.6710 N.am      1 GLU        -0.2609
      7 CA         26.7240   26.6990   26.0200 C.3       1 GLU         0.1326
      8 C          26.3270   25.2940   26.4870 C.2       1 GLU         0.2041
      9 O          26.6120   24.3110   25.8060 O.2       1 GLU        -0.3944
     10 CB         28.2330   26.9180   26.1830 C.3       1 GLU        -0.0008
     11 CG         28.7950   27.9920   25.2620 C.3       1 GLU         0.0044
     12 CD         28.4110   27.7780   23.7980 C.2       1 GLU         0.0350
     13 OE1        28.9650   26.8550   23.1620 O.co2     1 GLU        -0.5690
     14 OE2        27.5560   28.5350   23.2780 O.co2     1 GLU        -0.5690
     15 N          25.6660   25.1880   27.6350 N.am      1 ASP        -0.2622
     16 CA         25.1900   23.8760   28.0750 C.3       1 ASP         0.1423
     17 C          23.6820   23.7200   27.8640 C.2       1 ASP         0.2057
     18 O          23.0560   22.8000   28.3940 O.2       1 ASP        -0.3943
     19 CB         25.6050   23.5760   29.5190 C.3       1 ASP         0.0406
     20 CG         24.8430   24.4040   30.5380 C.2       1 ASP         0.0393
     21 OD1        24.2810   25.4570   30.1670 O.co2     1 ASP        -0.5688
     22 OD2        24.8110   23.9970   31.7190 O.co2     1 ASP        -0.5688
     23 N          23.1070   24.6230   27.0760 N.am      1 ASP        -0.2621
     24 CA         21.7180   24.4790   26.6520 C.3       1 ASP         0.1423
     25 C          21.6870   23.7440   25.3080 C.2       1 ASP         0.2056
     26 O          22.7260   23.2980   24.7910 O.2       1 ASP        -0.3943
     27 CB         21.0490   25.8550   26.5200 C.3       1 ASP         0.0406
     28 CG         19.5560   25.8280   26.8660 C.2       1 ASP         0.0393
     29 OD1        18.8270   24.9110   26.4250 O.co2     1 ASP        -0.5688
     30 OD2        19.1080   26.7390   27.5970 O.co2     1 ASP        -0.5688
     31 N          20.4950   23.6160   24.7450 N.am      1 VAL        -0.2634
     32 CA         20.3440   23.0220   23.4270 C.3       1 VAL         0.1332
     33 C          19.7800   24.0500   22.4380 C.2       1 VAL         0.2036
     34 O          19.0670   24.9730   22.8340 O.2       1 VAL        -0.3944
     35 CB         19.4650   21.7540   23.4940 C.3       1 VAL        -0.0063
     36 CG1        20.2320   20.6300   24.1690 C.3       1 VAL        -0.0584
     37 CG2        18.1540   22.0450   24.2460 C.3       1 VAL        -0.0584
     38 N          20.1250   23.8990   21.1630 N.am      1 GLU        -0.2694
     39 CA         19.6490   24.8070   20.1210 C.3       1 GLU         0.0959
     40 C          18.3150   24.3170   19.5890 C.2       1 GLU         0.0602
     41 O          18.0190   23.1160   19.6210 O.co2     1 GLU        -0.5666
     42 CB         20.6390   24.8780   18.9610 C.3       1 GLU        -0.0064
     43 CG         22.0340   25.3370   19.3260 C.3       1 GLU         0.0038
     44 CD         22.9740   25.3140   18.1250 C.2       1 GLU         0.0350
     45 OE1        23.5410   24.2390   17.8260 O.co2     1 GLU        -0.5690
     46 OE2        23.1430   26.3690   17.4770 O.co2     1 GLU        -0.5690
     47 OXT        17.5140   25.1150   19.1000 O.co2     1 GLU        -0.5666
     48 H1         22.4788   30.4144   26.9170 H         1 ALA         0.2015
     49 H2         22.2038   28.9439   26.2305 H         1 ALA         0.2015
     50 H3         23.2429   30.0033   25.5182 H         1 ALA         0.2015
     51 H4         24.7518   29.8812   27.3170 H         1 ALA         0.1095
     52 H5         24.3656   28.2069   29.0988 H         1 ALA         0.0310
     53 H6         22.7428   27.8607   28.4109 H         1 ALA         0.0310
     54 H7         23.1038   29.4853   29.0870 H         1 ALA         0.0310
     55 H8         26.4263   28.3694   27.3153 H         1 GLU         0.1885
     56 H9         26.4974   26.7563   24.9451 H         1 GLU         0.0801
     57 H10        28.7475   25.9701   25.9667 H         1 GLU         0.0330
     58 H11        28.4313   27.2137   27.2238 H         1 GLU         0.0330
     59 H12        29.8920   27.9847   25.3421 H         1 GLU         0.0433
     60 H13        28.4101   28.9699   25.5868 H         1 GLU         0.0433
     61 H14        25.4951   25.9992   28.1943 H         1 ASP         0.1884
     62 H15        25.6816   23.1256   27.4384 H         1 ASP         0.0819
     63 H16        26.6789   23.7886   29.6268 H         1 ASP         0.0478
     64 H17        25.4197   22.5111   29.7232 H         1 ASP         0.0478
     65 H18        23.6352   25.4145   26.7685 H         1 ASP         0.1884
     66 H19        21.1710   23.8878   27.4012 H         1 ASP         0.0819
     67 H20        21.1626   26.2024   25.4825 H         1 ASP         0.0478
     68 H21        21.5540   26.5575   27.1993 H         1 ASP         0.0478
     69 H22        19.6838   23.9339   25.2358 H         1 VAL         0.1883
     70 H23        21.3409   22.7223   23.0715 H         1 VAL         0.0802
     71 H24        19.2170   21.4434   22.4683 H         1 VAL         0.0343
     72 H25        19.6006   19.7304   24.2134 H         1 VAL         0.0234
     73 H26        20.5076   20.9352   25.1892 H         1 VAL         0.0234
     74 H27        21.1431   20.4104   23.5932 H         1 VAL         0.0234
     75 H28        17.6152   22.8606   23.7415 H         1 VAL         0.0234
     76 H29        18.3826   22.3414   25.2803 H         1 VAL         0.0234
     77 H30        17.5272   21.1411   24.2536 H         1 VAL         0.0234
     78 H31        20.7276   23.1423   20.9094 H         1 GLU         0.1875
     79 H32        19.5250   25.8115   20.5517 H         1 GLU         0.0727
     80 H33        20.2364   25.5772   18.2134 H         1 GLU         0.0323
     81 H34        20.7169   23.8736   18.5192 H         1 GLU         0.0323
     82 H35        22.4352   24.6709   20.1041 H         1 GLU         0.0432
     83 H36        21.9797   26.3644   19.7151 H         1 GLU         0.0432
@<TRIPOS>BOND
     1    1    2 1  
     2    2    3 1  
     3    2    5 1  
     4    3    4 2  
     5    3    6 am 
     6    6    7 1  
     7    7    8 1  
     8    7   10 1  
     9    8    9 2  
    10    8   15 am 
    11   10   11 1  
    12   11   12 1  
    13   12   13 ar 
    14   12   14 ar 
    15   15   16 1  
    16   16   17 1  
    17   16   19 1  
    18   17   18 2  
    19   17   23 am 
    20   19   20 1  
    21   20   21 ar 
    22   20   22 ar 
    23   23   24 1  
    24   24   25 1  
    25   24   27 1  
    26   25   26 2  
    27   25   31 am 
    28   27   28 1  
    29   28   29 ar 
    30   28   30 ar 
    31   31   32 1  
    32   32   33 1  
    33   32   35 1  
    34   33   34 2  
    35   33   38 am 
    36   35   36 1  
    37   35   37 1  
    38   38   39 1  
    39   39   40 1  
    40   39   42 1  
    41   40   41 ar 
    42   40   47 ar 
    43   42   43 1  
    44   43   44 1  
    45   44   45 ar 
    46   44   46 ar 
    47    1   48 1  
    48    1   49 1  
    49    1   50 1  
    50    2   51 1  
    51    5   52 1  
    52    5   53 1  
    53    5   54 1  
    54    6   55 1  
    55    7   56 1  
    56   10   57 1  
    57   10   58 1  
    58   11   59 1  
    59   11   60 1  
    60   15   61 1  
    61   16   62 1  
    62   19   63 1  
    63   19   64 1  
    64   23   65 1  
    65   24   66 1  
    66   27   67 1  
    67   27   68 1  
    68   31   69 1  
    69   32   70 1  
    70   35   71 1  
    71   36   72 1  
    72   36   73 1  
    73   36   74 1  
    74   37   75 1  
    75   37   76 1  
    76   37   77 1  
    77   38   78 1  
    78   39   79 1  
    79   42   80 1  
    80   42   81 1  
    81   43   82 1  
    82   43   83 1  
@<TRIPOS>SUBSTRUCTURE
     1 ALA         1

