5ehi_ligand
  -I-interpret- 

 48 50  0  0  0  0  0  0  0  0999 V2000
   52.1740   42.8000   11.0560 C   0  0  0  0  0
   51.0670   42.1030   10.5950 C   0  0  0  0  0
   51.1200   41.2230    9.5450 C   0  0  0  0  0
   52.3460   40.9760    8.9100 C   0  0  0  0  0
   53.4780   41.6440    9.3610 C   0  0  0  0  0
   54.9640   41.4720    7.3990 C   0  0  0  0  0
   56.9570   41.4170    5.8560 C   0  0  0  0  0
   58.3370   41.6940    5.8340 C   0  0  0  0  0
   58.9840   41.9900    4.6290 C   0  0  0  0  0
   58.2580   42.0380    3.4090 C   0  0  0  0  0
   56.8580   41.7540    3.4130 C   0  0  0  0  0
   56.4800   39.2310    1.1410 C   0  0  0  0  0
   56.9430   38.2780    0.1980 C   0  0  0  0  0
   56.8780   36.9030    0.5230 C   0  0  0  0  0
   56.3970   36.4540    1.7810 C   0  0  0  0  0
   56.3280   35.0290    2.1860 C   0  0  0  0  0
   55.9340   37.4020    2.7080 C   0  0  0  0  0
   55.9680   38.7500    2.3810 C   0  0  0  0  0
   56.2300   41.4240    4.6560 C   0  0  0  0  0
   49.5180   42.2840   11.3970 Cl  0  0  0  0  0
   53.4030   42.5640   10.4390 C   0  0  0  0  0
   56.5340   40.6370    0.9240 N   0  0  0  0  0
   54.5660   43.2820   10.8600 N   0  0  0  0  0
   54.0570   41.5160    6.5520 O   0  0  0  0  0
   54.7490   41.4690    8.7540 N   0  0  0  0  0
   55.9510   41.7870    1.9800 S   0  0  0  0  0
   54.5690   41.4880    2.2920 O   0  0  0  0  0
   56.2230   43.0690    1.4030 O   0  0  0  0  0
   56.3250   41.3340    7.0900 N   0  0  0  0  0
   56.6300   34.1230    1.2260 O   0  0  0  0  0
   56.0980   34.5910    3.3130 O   0  0  0  0  0
   52.0864   43.5118   11.8768 H   0  0  0  0  0
   50.2152   40.7186    9.2059 H   0  0  0  0  0
   52.4096   40.2737    8.0789 H   0  0  0  0  0
   58.9064   41.6778    6.7633 H   0  0  0  0  0
   60.0563   42.1858    4.6265 H   0  0  0  0  0
   58.7650   42.2895    2.4774 H   0  0  0  0  0
   57.3431   38.6006   -0.7632 H   0  0  0  0  0
   57.2061   36.1682   -0.2123 H   0  0  0  0  0
   55.5509   37.0813    3.6768 H   0  0  0  0  0
   55.5869   39.4719    3.1033 H   0  0  0  0  0
   55.1692   41.1739    4.6707 H   0  0  0  0  0
   56.9613   40.9649    0.0578 H   0  0  0  0  0
   54.4976   43.9676   11.6121 H   0  0  0  0  0
   55.4638   43.1085   10.4081 H   0  0  0  0  0
   55.5545   41.3322    9.3646 H   0  0  0  0  0
   56.9374   41.1461    7.8838 H   0  0  0  0  0
   56.7884   34.5787    0.3960 H   0  0  0  0  0
  1  2  4  0  0  0
 21  1  4  0  0  0
  3  2  4  0  0  0
  2 20  1  0  0  0
  4  3  4  0  0  0
  5  4  4  0  0  0
  5 21  4  0  0  0
 25  5  1  0  0  0
  6 24  2  0  0  0
  6 25  1  0  0  0
 29  6  1  0  0  0
  7  8  4  0  0  0
 19  7  4  0  0  0
  7 29  1  0  0  0
  9  8  4  0  0  0
 10  9  4  0  0  0
 11 10  4  0  0  0
 11 19  4  0  0  0
 26 11  1  0  0  0
 12 13  4  0  0  0
 12 18  4  0  0  0
 22 12  1  0  0  0
 13 14  4  0  0  0
 14 15  4  0  0  0
 15 16  1  0  0  0
 17 15  4  0  0  0
 16 30  1  0  0  0
 16 31  2  0  0  0
 18 17  4  0  0  0
 21 23  1  0  0  0
 22 26  1  0  0  0
 26 27  2  0  0  0
 26 28  2  0  0  0
  1 32  1  0  0  0
  3 33  1  0  0  0
  4 34  1  0  0  0
  8 35  1  0  0  0
  9 36  1  0  0  0
 10 37  1  0  0  0
 13 38  1  0  0  0
 14 39  1  0  0  0
 17 40  1  0  0  0
 18 41  1  0  0  0
 19 42  1  0  0  0
 22 43  1  0  0  0
 23 44  1  0  0  0
 23 45  1  0  0  0
 25 46  1  0  0  0
 29 47  1  0  0  0
 30 48  1  0  0  0
M  END
$$$$
