3sus_ligand
  -I-interpret- 

 30 31  0  0  0  0  0  0  0  0999 V2000
  -35.4970  -18.9580  -15.9290 C   0  0  0  0  0
  -34.0010  -20.0150  -15.7780 S   0  0  0  0  0
  -35.1140  -17.9510  -17.0600 C   0  0  0  0  0
  -34.2990  -18.7670  -18.0160 N   0  3  0  0  0
  -34.3640  -16.6830  -16.5490 C   0  0  0  0  0
  -34.3990  -15.6270  -17.5280 O   0  0  0  0  0
  -34.9200  -16.1510  -15.2040 C   0  0  0  0  0
  -36.2660  -15.6640  -15.3800 O   0  0  0  0  0
  -34.9120  -17.2890  -14.1730 C   0  0  0  0  0
  -35.8040  -18.3330  -14.6730 O   0  0  0  0  0
  -35.3990  -16.8750  -12.7870 C   0  0  0  0  0
  -35.1650  -17.9440  -11.8680 O   0  0  0  0  0
  -33.1880  -19.3960  -17.2780 C   0  0  0  0  0
  -32.5030  -20.5080  -18.0620 C   0  0  0  0  0
  -36.4078  -19.5018  -16.1797 H   0  0  0  0  0
  -35.9999  -17.5236  -17.5298 H   0  0  0  0  0
  -33.9282  -18.1672  -18.7530 H   0  0  0  0  0
  -34.8833  -19.4873  -18.4404 H   0  0  0  0  0
  -33.3335  -16.9970  -16.3828 H   0  0  0  0  0
  -34.0550  -15.9542  -18.3624 H   0  0  0  0  0
  -34.2942  -15.3302  -14.8538 H   0  0  0  0  0
  -36.2661  -14.9530  -16.0251 H   0  0  0  0  0
  -33.8794  -17.6181  -14.0565 H   0  0  0  0  0
  -36.4653  -16.6524  -12.8254 H   0  0  0  0  0
  -34.8589  -15.9865  -12.4598 H   0  0  0  0  0
  -35.4703  -17.6866  -10.9950 H   0  0  0  0  0
  -32.3752  -18.6990  -17.0740 H   0  0  0  0  0
  -33.2288  -21.2873  -18.2943 H   0  0  0  0  0
  -32.0964  -20.1008  -18.9877 H   0  0  0  0  0
  -31.6953  -20.9287  -17.4630 H   0  0  0  0  0
  1  2  1  0  0  0
  1  3  1  0  0  0
  1 10  1  0  0  0
  2 13  1  0  0  0
  3  4  1  0  0  0
  3  5  1  0  0  0
  4 13  1  0  0  0
  5  6  1  0  0  0
  5  7  1  0  0  0
  7  8  1  0  0  0
  7  9  1  0  0  0
  9 10  1  0  0  0
  9 11  1  0  0  0
 11 12  1  0  0  0
 13 14  1  0  0  0
  1 15  1  0  0  0
  3 16  1  0  0  0
  4 17  1  0  0  0
  4 18  1  0  0  0
  5 19  1  0  0  0
  6 20  1  0  0  0
  7 21  1  0  0  0
  8 22  1  0  0  0
  9 23  1  0  0  0
 11 24  1  0  0  0
 11 25  1  0  0  0
 12 26  1  0  0  0
 13 27  1  0  0  0
 14 28  1  0  0  0
 14 29  1  0  0  0
 14 30  1  0  0  0
M  END
$$$$
