5yzd_ligand
  -I-interpret- 

 66 68  0  0  0  0  0  0  0  0999 V2000
  -24.4870  -21.3500  -36.3800 C   0  0  0  0  0
  -25.4490  -20.4860  -36.6490 O   0  0  0  0  0
  -23.4920  -21.3220  -37.3430 O   0  0  0  0  0
  -22.8840  -20.0080  -37.5390 C   0  0  0  0  0
  -23.1750  -19.6450  -39.0150 C   0  0  0  0  0
  -22.7540  -18.4360  -39.5580 C   0  0  0  0  0
  -23.0560  -18.1580  -40.9250 C   0  0  0  0  0
  -23.7550  -19.0680  -41.7250 C   0  0  0  0  0
  -24.1900  -20.2970  -41.1820 C   0  0  0  0  0
  -23.8990  -20.5770  -39.8340 C   0  0  0  0  0
  -24.9570  -22.6750  -36.6370 N   0  0  0  0  0
  -26.3220  -22.8440  -36.2330 C   0  0  0  0  0
  -27.1430  -23.0570  -37.4750 C   0  0  0  0  0
  -26.6020  -23.1150  -38.5190 O   0  0  0  0  0
  -26.4860  -24.0600  -35.2260 C   0  0  0  0  0
  -25.6190  -23.9100  -33.9720 C   0  0  0  0  0
  -24.8050  -24.9670  -33.5650 C   0  0  0  0  0
  -25.6480  -22.7190  -33.2610 C   0  0  0  0  0
  -24.0030  -24.8200  -32.4180 C   0  0  0  0  0
  -24.8520  -22.5790  -32.1380 C   0  0  0  0  0
  -24.0180  -23.6410  -31.7240 C   0  0  0  0  0
  -28.4610  -23.1590  -37.3350 N   0  0  0  0  0
  -29.3520  -23.1610  -38.5010 C   0  0  0  0  0
  -29.0770  -22.0480  -39.5140 C   0  0  0  0  0
  -28.6970  -20.9380  -39.1440 O   0  0  0  0  0
  -30.7960  -23.0090  -38.0680 C   0  0  0  0  0
  -31.3310  -24.1540  -37.2980 C   0  0  0  0  0
  -31.3560  -24.1150  -35.9100 C   0  0  0  0  0
  -31.8530  -25.2570  -37.9480 C   0  0  0  0  0
  -31.8980  -25.1720  -35.1810 C   0  0  0  0  0
  -32.3800  -26.3160  -37.2360 C   0  0  0  0  0
  -32.4120  -26.2760  -35.8490 C   0  0  0  0  0
  -29.2860  -22.3580  -40.7890 N   0  0  0  0  0
  -29.4520  -21.3420  -41.8090 C   0  0  0  0  0
  -28.3310  -21.2610  -42.8130 C   0  0  0  0  0
  -28.2430  -20.2700  -43.5420 O   0  0  0  0  0
  -27.5200  -22.1870  -42.8890 O   0  0  0  0  0
  -21.8141  -20.0241  -37.3314 H   0  0  0  0  0
  -23.2954  -19.2673  -36.8532 H   0  0  0  0  0
  -22.2047  -17.7154  -38.9521 H   0  0  0  0  0
  -22.7332  -17.2109  -41.3573 H   0  0  0  0  0
  -23.9640  -18.8285  -42.7676 H   0  0  0  0  0
  -24.7391  -21.0129  -41.7936 H   0  0  0  0  0
  -24.2301  -21.5214  -39.4020 H   0  0  0  0  0
  -24.3898  -23.4113  -37.0571 H   0  0  0  0  0
  -26.6627  -21.9558  -35.7008 H   0  0  0  0  0
  -26.1729  -24.9672  -35.7428 H   0  0  0  0  0
  -27.5286  -24.0946  -34.9099 H   0  0  0  0  0
  -24.7902  -25.8988  -34.1304 H   0  0  0  0  0
  -26.2920  -21.9011  -33.5841 H   0  0  0  0  0
  -23.3716  -25.6431  -32.0834 H   0  0  0  0  0
  -24.8686  -21.6477  -31.5719 H   0  0  0  0  0
  -23.3826  -23.5206  -30.8465 H   0  0  0  0  0
  -28.8604  -23.2373  -36.3997 H   0  0  0  0  0
  -29.1601  -24.1190  -38.9842 H   0  0  0  0  0
  -31.3939  -22.9284  -38.9758 H   0  0  0  0  0
  -30.8428  -22.1369  -37.4158 H   0  0  0  0  0
  -30.9483  -23.2504  -35.3863 H   0  0  0  0  0
  -31.8484  -25.2910  -39.0375 H   0  0  0  0  0
  -31.9184  -25.1325  -34.0919 H   0  0  0  0  0
  -32.7717  -27.1853  -37.7642 H   0  0  0  0  0
  -32.8384  -27.1068  -35.2868 H   0  0  0  0  0
  -29.3310  -23.3409  -41.0580 H   0  0  0  0  0
  -29.4849  -20.3814  -41.2949 H   0  0  0  0  0
  -30.3547  -21.5970  -42.3641 H   0  0  0  0  0
  -28.9567  -19.6607  -43.3394 H   0  0  0  0  0
  1  2  2  0  0  0
  1  3  1  0  0  0
  3  4  1  0  0  0
  4  5  1  0  0  0
  5  6  4  0  0  0
  5 10  4  0  0  0
  6  7  4  0  0  0
  7  8  4  0  0  0
  9  8  4  0  0  0
 10  9  4  0  0  0
 11 12  1  0  0  0
 12 13  1  0  0  0
 12 15  1  0  0  0
 13 14  2  0  0  0
 15 16  1  0  0  0
 16 17  4  0  0  0
 16 18  4  0  0  0
 17 19  4  0  0  0
 18 20  4  0  0  0
 19 21  4  0  0  0
 20 21  4  0  0  0
 22 23  1  0  0  0
 23 26  1  0  0  0
 23 24  1  0  0  0
 24 25  2  0  0  0
 26 27  1  0  0  0
 27 28  4  0  0  0
 27 29  4  0  0  0
 29 31  4  0  0  0
 31 32  4  0  0  0
 30 32  4  0  0  0
 28 30  4  0  0  0
 13 22  1  0  0  0
 33 34  1  0  0  0
 34 35  1  0  0  0
 35 36  1  0  0  0
 35 37  2  0  0  0
 24 33  1  0  0  0
  1 11  1  0  0  0
  4 38  1  0  0  0
  4 39  1  0  0  0
  6 40  1  0  0  0
  7 41  1  0  0  0
  8 42  1  0  0  0
  9 43  1  0  0  0
 10 44  1  0  0  0
 11 45  1  0  0  0
 12 46  1  0  0  0
 15 47  1  0  0  0
 15 48  1  0  0  0
 17 49  1  0  0  0
 18 50  1  0  0  0
 19 51  1  0  0  0
 20 52  1  0  0  0
 21 53  1  0  0  0
 22 54  1  0  0  0
 23 55  1  0  0  0
 26 56  1  0  0  0
 26 57  1  0  0  0
 28 58  1  0  0  0
 29 59  1  0  0  0
 30 60  1  0  0  0
 31 61  1  0  0  0
 32 62  1  0  0  0
 33 63  1  0  0  0
 34 64  1  0  0  0
 34 65  1  0  0  0
 36 66  1  0  0  0
M  END
$$$$
