4xy8_ligand
  -I-interpret- 

 28 30  0  0  0  0  0  0  0  0999 V2000
   18.2010   28.0270  -19.1670 C   0  0  0  0  0
   17.7630   26.7420  -19.4020 C   0  0  0  0  0
   17.7830   25.8280  -18.2940 C   0  0  0  0  0
   19.0240   21.7460  -16.7790 C   0  0  0  0  0
   17.3830   24.4530  -18.4840 C   0  0  0  0  0
   17.9430   23.3250  -17.9070 C   0  0  0  0  0
   17.4920   22.0820  -18.2710 C   0  0  0  0  0
   16.0500   22.9470  -19.7780 C   0  0  0  0  0
   15.1160   22.8210  -20.7360 N   0  0  0  0  0
   16.4580   24.1830  -19.4670 N   0  0  0  0  0
   18.6980   28.4860  -17.9670 C   0  0  0  0  0
   18.1460   21.1210  -17.5670 N   0  0  0  0  0
   18.0950   29.2630  -20.5790 Br  0  0  0  0  0
   18.7310   27.6200  -16.8820 C   0  0  0  0  0
   18.2990   26.3280  -17.0640 C   0  0  0  0  0
   18.2480   25.4620  -16.0290 O   0  0  0  0  0
   18.4460   25.9000  -14.6580 C   0  0  0  0  0
   16.5460   21.8920  -19.2010 N   0  0  0  0  0
   18.9260   23.0630  -16.9420 N   0  0  0  0  0
   17.4158   26.4319  -20.3876 H   0  0  0  0  0
   19.7192   21.2502  -16.1015 H   0  0  0  0  0
   14.7439   23.6509  -21.1978 H   0  0  0  0  0
   14.7792   21.8955  -21.0013 H   0  0  0  0  0
   19.0587   29.5101  -17.8709 H   0  0  0  0  0
   19.0907   27.9567  -15.9097 H   0  0  0  0  0
   19.4360   26.3454  -14.5596 H   0  0  0  0  0
   17.6867   26.6385  -14.4006 H   0  0  0  0  0
   18.3634   25.0436  -13.9888 H   0  0  0  0  0
  2  1  4  0  0  0
  1 11  4  0  0  0
  1 13  1  0  0  0
  3  2  4  0  0  0
  5  3  1  0  0  0
  3 15  4  0  0  0
  4 12  4  0  0  0
 19  4  4  0  0  0
  5  6  4  0  0  0
 10  5  4  0  0  0
  6  7  4  0  0  0
  6 19  4  0  0  0
  7 12  4  0  0  0
  7 18  4  0  0  0
  8  9  1  0  0  0
  8 10  4  0  0  0
  8 18  4  0  0  0
 11 14  4  0  0  0
 14 15  4  0  0  0
 15 16  1  0  0  0
 16 17  1  0  0  0
  2 20  1  0  0  0
  4 21  1  0  0  0
  9 22  1  0  0  0
  9 23  1  0  0  0
 11 24  1  0  0  0
 14 25  1  0  0  0
 17 26  1  0  0  0
 17 27  1  0  0  0
 17 28  1  0  0  0
M  END
$$$$
