4z7h_ligand
  -I-interpret- 

 43 45  0  0  0  0  0  0  0  0999 V2000
   34.1820  -13.2100   10.5540 C   0  0  0  0  0
   36.1070  -17.4340   10.6420 C   0  0  0  0  0
   35.4030  -13.8670   10.4820 C   0  0  0  0  0
   36.6070  -11.8380   11.0360 C   0  0  0  0  0
   37.8880  -11.0980   11.4070 C   0  0  0  0  0
   38.1710  -14.6080    9.4980 C   0  0  0  0  0
   33.1380  -17.5890    9.8710 C   0  0  0  0  0
   31.8010  -17.8930    9.5140 C   0  0  0  0  0
   30.8870  -16.7880    9.4550 C   0  0  0  0  0
   31.3830  -15.4560    9.7340 C   0  0  0  0  0
   32.6440  -15.2820   10.0120 N   0  0  0  0  0
   33.5020  -16.3240   10.0690 N   0  0  0  0  0
   30.7280  -14.2540    9.8040 N   0  0  0  0  0
   31.6250  -13.3000   10.0960 C   0  0  0  0  0
   32.8770  -13.9170   10.2290 C   0  0  0  0  0
   34.0920  -18.6510    9.8350 N   0  0  0  0  0
   35.3020  -18.7080   10.6100 C   0  0  0  0  0
   36.1940  -19.8010   10.0480 C   0  0  0  0  0
   36.6090  -13.1980   10.7120 C   0  0  0  0  0
   35.3840  -11.1680   11.0950 C   0  0  0  0  0
   34.1890  -11.8460   10.8370 C   0  0  0  0  0
   37.8440   -9.9270   11.7360 O   0  0  0  0  0
   39.1540  -11.7460   11.4430 N   0  0  0  0  0
   37.8210  -13.9270   10.6890 O   0  0  0  0  0
   36.4011  -17.1660    9.6272 H   0  0  0  0  0
   35.5023  -16.6343   11.0696 H   0  0  0  0  0
   36.9977  -17.5837   11.2522 H   0  0  0  0  0
   35.4218  -14.9297   10.2404 H   0  0  0  0  0
   37.3985  -15.3387    9.2584 H   0  0  0  0  0
   38.2590  -13.8898    8.6828 H   0  0  0  0  0
   39.1240  -15.1179    9.6392 H   0  0  0  0  0
   31.4833  -18.9125    9.2956 H   0  0  0  0  0
   29.8383  -16.9483    9.2047 H   0  0  0  0  0
   31.4176  -12.2359   10.2095 H   0  0  0  0  0
   33.8995  -19.4327    9.2087 H   0  0  0  0  0
   34.9792  -18.8983   11.6335 H   0  0  0  0  0
   35.6740  -20.7573   10.1042 H   0  0  0  0  0
   36.4315  -19.5756    9.0083 H   0  0  0  0  0
   37.1145  -19.8518   10.6295 H   0  0  0  0  0
   35.3605  -10.1072   11.3443 H   0  0  0  0  0
   33.2469  -11.2982   10.8576 H   0  0  0  0  0
   39.9830  -11.2297   11.7371 H   0  0  0  0  0
   39.2326  -12.7269   11.1747 H   0  0  0  0  0
  3  1  4  0  0  0
  1 15  1  0  0  0
  1 21  4  0  0  0
 17  2  1  0  0  0
 19  3  4  0  0  0
  4  5  1  0  0  0
 19  4  4  0  0  0
  4 20  4  0  0  0
  5 22  2  0  0  0
  5 23  1  0  0  0
 24  6  1  0  0  0
  7  8  4  0  0  0
 12  7  4  0  0  0
  7 16  1  0  0  0
  9  8  4  0  0  0
 10  9  4  0  0  0
 11 10  4  0  0  0
 13 10  4  0  0  0
 11 12  4  0  0  0
 15 11  4  0  0  0
 14 13  4  0  0  0
 15 14  4  0  0  0
 16 17  1  0  0  0
 17 18  1  0  0  0
 19 24  1  0  0  0
 20 21  4  0  0  0
  2 25  1  0  0  0
  2 26  1  0  0  0
  2 27  1  0  0  0
  3 28  1  0  0  0
  6 29  1  0  0  0
  6 30  1  0  0  0
  6 31  1  0  0  0
  8 32  1  0  0  0
  9 33  1  0  0  0
 14 34  1  0  0  0
 16 35  1  0  0  0
 17 36  1  0  0  0
 18 37  1  0  0  0
 18 38  1  0  0  0
 18 39  1  0  0  0
 20 40  1  0  0  0
 21 41  1  0  0  0
 23 42  1  0  0  0
 23 43  1  0  0  0
M  END
$$$$
