5ap3_ligand
  -I-interpret- 

 66 70  0  0  0  0  0  0  0  0999 V2000
   -3.0650   39.5220  129.3510 O   0  0  0  0  0
   -2.3080   40.4660  129.3470 C   0  0  0  0  0
   -1.9110   41.1870  130.4890 N   0  0  0  0  0
   -2.3620   40.8790  131.8320 C   0  0  0  0  0
   -1.0480   42.2130  130.0950 C   0  0  0  0  0
   -0.3680   43.2140  130.7560 C   0  0  0  0  0
    0.3900   44.0940  130.0840 N   0  0  0  0  0
   -1.6750   41.0600  128.2250 N   0  0  0  0  0
   -1.8050   40.6070  126.8370 C   0  0  0  0  0
   -0.4420   40.2700  126.2100 C   0  0  0  0  0
   -0.5470   40.6250  124.7280 C   0  0  0  0  0
   -1.8160   41.4540  124.5440 C   0  0  0  0  0
   -2.3780   41.7050  125.9370 C   0  0  0  0  0
   -0.9050   42.1370  128.6760 C   0  0  0  0  0
   -0.1650   42.9830  127.9300 N   0  0  0  0  0
    0.4470   43.9480  128.7050 C   0  0  0  0  0
    1.1940   44.9380  128.0890 N   0  0  0  0  0
    1.4340   45.0940  126.7110 C   0  0  0  0  0
    1.5440   46.3340  126.0930 C   0  0  0  0  0
    1.4370   47.4750  126.8380 O   0  0  0  0  0
    0.4280   48.3440  126.3790 C   0  0  0  0  0
    1.7750   46.4480  124.7240 C   0  0  0  0  0
    1.9010   45.2920  123.9800 C   0  0  0  0  0
    1.7910   44.0340  124.5710 C   0  0  0  0  0
    1.5600   43.9410  125.9290 C   0  0  0  0  0
    2.1600   45.3210  122.6400 O   0  0  0  0  0
    1.0310   45.2430  121.8000 C   0  0  0  0  0
    1.3950   44.4680  120.5290 C   0  0  0  0  0
    0.1780   44.4750  119.5900 C   0  0  0  0  0
   -0.3210   45.8340  119.2440 N   0  3  0  0  0
   -1.5510   45.7720  118.4160 C   0  0  0  0  0
   -0.5220   46.6500  120.4690 C   0  0  0  0  0
    0.6840   46.6840  121.4230 C   0  0  0  0  0
   -1.5007   40.6503  132.4596 H   0  0  0  0  0
   -2.8936   41.7380  132.2413 H   0  0  0  0  0
   -3.0296   40.0179  131.8012 H   0  0  0  0  0
   -0.4474   43.2916  131.8403 H   0  0  0  0  0
   -2.4551   39.7337  126.8897 H   0  0  0  0  0
   -0.2014   39.2152  126.3426 H   0  0  0  0  0
    0.3585   40.8326  126.6904 H   0  0  0  0  0
   -0.5910   39.7205  124.1214 H   0  0  0  0  0
    0.3280   41.1910  124.4085 H   0  0  0  0  0
   -2.5389   40.9261  123.9220 H   0  0  0  0  0
   -1.5967   42.3940  124.0376 H   0  0  0  0  0
   -2.0986   42.6942  126.2997 H   0  0  0  0  0
   -3.4676   41.6772  125.9306 H   0  0  0  0  0
    1.6183   45.6328  128.7035 H   0  0  0  0  0
    0.6439   48.6392  125.3522 H   0  0  0  0  0
   -0.5343   47.8335  126.4169 H   0  0  0  0  0
    0.3963   49.2294  127.0139 H   0  0  0  0  0
    1.8544   47.4270  124.2513 H   0  0  0  0  0
    1.8865   43.1321  123.9664 H   0  0  0  0  0
    1.4750   42.9599  126.3962 H   0  0  0  0  0
    0.1991   44.7389  122.2918 H   0  0  0  0  0
    1.6645   43.4426  120.7821 H   0  0  0  0  0
    2.2474   44.9372  120.0377 H   0  0  0  0  0
   -0.6301   43.9590  120.1085 H   0  0  0  0  0
    0.4885   44.0007  118.6590 H   0  0  0  0  0
    0.3922   46.2938  118.6780 H   0  0  0  0  0
   -1.3376   45.2379  117.4901 H   0  0  0  0  0
   -2.3324   45.2487  118.9670 H   0  0  0  0  0
   -1.8832   46.7841  118.1848 H   0  0  0  0  0
   -1.3487   46.1996  121.0183 H   0  0  0  0  0
   -0.6974   47.6750  120.1424 H   0  0  0  0  0
    1.5350   47.1608  120.9366 H   0  0  0  0  0
    0.4404   47.2583  122.3168 H   0  0  0  0  0
  1  2  2  0  0  0
  2  3  1  0  0  0
  2  8  1  0  0  0
  3  4  1  0  0  0
  3  5  1  0  0  0
  5  6  4  0  0  0
  5 14  4  0  0  0
  6  7  4  0  0  0
  7 16  4  0  0  0
  8  9  1  0  0  0
  8 14  1  0  0  0
  9 10  1  0  0  0
  9 13  1  0  0  0
 10 11  1  0  0  0
 11 12  1  0  0  0
 12 13  1  0  0  0
 14 15  4  0  0  0
 15 16  4  0  0  0
 16 17  1  0  0  0
 17 18  1  0  0  0
 18 19  4  0  0  0
 18 25  4  0  0  0
 19 20  1  0  0  0
 19 22  4  0  0  0
 20 21  1  0  0  0
 22 23  4  0  0  0
 23 24  4  0  0  0
 23 26  1  0  0  0
 24 25  4  0  0  0
 26 27  1  0  0  0
 27 28  1  0  0  0
 27 33  1  0  0  0
 28 29  1  0  0  0
 29 30  1  0  0  0
 30 31  1  0  0  0
 30 32  1  0  0  0
 32 33  1  0  0  0
  4 34  1  0  0  0
  4 35  1  0  0  0
  4 36  1  0  0  0
  6 37  1  0  0  0
  9 38  1  0  0  0
 10 39  1  0  0  0
 10 40  1  0  0  0
 11 41  1  0  0  0
 11 42  1  0  0  0
 12 43  1  0  0  0
 12 44  1  0  0  0
 13 45  1  0  0  0
 13 46  1  0  0  0
 17 47  1  0  0  0
 21 48  1  0  0  0
 21 49  1  0  0  0
 21 50  1  0  0  0
 22 51  1  0  0  0
 24 52  1  0  0  0
 25 53  1  0  0  0
 27 54  1  0  0  0
 28 55  1  0  0  0
 28 56  1  0  0  0
 29 57  1  0  0  0
 29 58  1  0  0  0
 30 59  1  0  0  0
 31 60  1  0  0  0
 31 61  1  0  0  0
 31 62  1  0  0  0
 32 63  1  0  0  0
 32 64  1  0  0  0
 33 65  1  0  0  0
 33 66  1  0  0  0
M  END
$$$$
