3c7n_ligand
  -I-interpret- 

 42 44  0  0  0  0  0  0  0  0999 V2000
  -31.8720   11.9060  -15.9300 P   0  0  0  0  0
  -31.6490   10.7230  -16.8830 O   0  0  0  0  0
  -33.2990   11.9990  -15.4330 O   0  0  0  0  0
  -30.8170   12.0700  -14.8560 O   0  0  0  0  0
  -32.7370   14.4860  -16.7310 P   0  0  0  0  0
  -34.0800   13.9670  -17.1480 O   0  0  0  0  0
  -32.5180   15.1430  -15.3870 O   0  0  0  0  0
  -31.7150   13.2400  -16.8320 O   0  0  0  0  0
  -32.2410   15.4270  -17.9200 O   0  0  0  0  0
  -30.8560   15.7050  -18.0950 C   0  0  0  0  0
  -30.4920   15.7190  -19.5830 C   0  0  0  0  0
  -31.3680   16.5930  -20.3100 O   0  0  0  0  0
  -29.0690   16.2190  -19.7680 C   0  0  0  0  0
  -28.3700   15.3990  -20.7110 O   0  0  0  0  0
  -29.2270   17.6060  -20.3490 C   0  0  0  0  0
  -28.2130   17.8530  -21.3260 O   0  0  0  0  0
  -30.6300   17.6310  -20.9540 C   0  0  0  0  0
  -31.1760   18.9980  -20.7530 N   0  0  0  0  0
  -31.3000   19.6590  -19.5850 C   0  0  0  0  0
  -31.7960   20.9210  -19.7650 N   0  0  0  0  0
  -31.9790   21.0780  -21.0910 C   0  0  0  0  0
  -32.4680   22.1530  -21.9790 C   0  0  0  0  0
  -32.8690   23.3310  -21.4700 N   0  0  0  0  0
  -32.5080   21.9130  -23.3050 N   0  0  0  0  0
  -32.1080   20.7370  -23.8190 C   0  0  0  0  0
  -31.6520   19.7120  -23.0810 N   0  0  0  0  0
  -31.5640   19.8160  -21.7340 C   0  0  0  0  0
  -30.7320   10.7107  -17.1668 H   0  0  0  0  0
  -29.9453   11.9983  -15.2517 H   0  0  0  0  0
  -31.5983   15.4063  -15.3068 H   0  0  0  0  0
  -30.2746   14.9293  -17.5967 H   0  0  0  0  0
  -30.6358   16.6837  -17.6686 H   0  0  0  0  0
  -30.5890   14.7006  -19.9591 H   0  0  0  0  0
  -28.5082   16.2032  -18.8335 H   0  0  0  0  0
  -27.4741   15.7274  -20.8166 H   0  0  0  0  0
  -29.1146   18.3902  -19.6004 H   0  0  0  0  0
  -28.3253   18.7358  -21.6860 H   0  0  0  0  0
  -30.6666   17.4384  -22.0262 H   0  0  0  0  0
  -31.0369   19.2387  -18.6143 H   0  0  0  0  0
  -32.8372   23.4887  -20.4628 H   0  0  0  0  0
  -33.2050   24.0670  -22.0911 H   0  0  0  0  0
  -32.1568   20.6077  -24.9002 H   0  0  0  0  0
  1  2  1  0  0  0
  1  3  2  0  0  0
  1  4  1  0  0  0
  8  1  1  0  0  0
  5  6  2  0  0  0
  5  7  1  0  0  0
  5  8  1  0  0  0
  5  9  1  0  0  0
  9 10  1  0  0  0
 10 11  1  0  0  0
 11 12  1  0  0  0
 11 13  1  0  0  0
 12 17  1  0  0  0
 13 14  1  0  0  0
 13 15  1  0  0  0
 15 16  1  0  0  0
 15 17  1  0  0  0
 17 18  1  0  0  0
 18 19  4  0  0  0
 18 27  4  0  0  0
 19 20  4  0  0  0
 20 21  4  0  0  0
 21 22  4  0  0  0
 21 27  4  0  0  0
 22 23  1  0  0  0
 22 24  4  0  0  0
 24 25  4  0  0  0
 25 26  4  0  0  0
 26 27  4  0  0  0
  2 28  1  0  0  0
  4 29  1  0  0  0
  7 30  1  0  0  0
 10 31  1  0  0  0
 10 32  1  0  0  0
 11 33  1  0  0  0
 13 34  1  0  0  0
 14 35  1  0  0  0
 15 36  1  0  0  0
 16 37  1  0  0  0
 17 38  1  0  0  0
 19 39  1  0  0  0
 23 40  1  0  0  0
 23 41  1  0  0  0
 25 42  1  0  0  0
M  END
$$$$
