### 
### Created by X-TOOL on Mon Sep 10 21:12:59 2018
### 

@<TRIPOS>MOLECULE
3c7n_ligand
   39    41     1     0     0
SMALL
GAST_HUCK


@<TRIPOS>ATOM
      1 PB        -31.8720   11.9060  -15.9300 P.3       1 ADP         0.2069
      2 O1B       -31.6490   10.7230  -16.8830 O.co2     1 ADP        -0.5891
      3 O2B       -33.2990   11.9990  -15.4330 O.co2     1 ADP        -0.5891
      4 O3B       -30.8170   12.0700  -14.8560 O.co2     1 ADP        -0.5891
      5 PA        -32.7370   14.4860  -16.7310 P.3       1 ADP         0.3276
      6 O1A       -34.0800   13.9670  -17.1480 O.co2     1 ADP        -0.5556
      7 O2A       -32.5180   15.1430  -15.3870 O.co2     1 ADP        -0.5556
      8 O3A       -31.7150   13.2400  -16.8320 O.3       1 ADP        -0.1548
      9 O5'       -32.2410   15.4270  -17.9200 O.3       1 ADP        -0.2436
     10 C5'       -30.8560   15.7050  -18.0950 C.3       1 ADP         0.1132
     11 C4'       -30.4920   15.7190  -19.5830 C.3       1 ADP         0.1189
     12 O4'       -31.3680   16.5930  -20.3100 O.3       1 ADP        -0.3364
     13 C3'       -29.0690   16.2190  -19.7680 C.3       1 ADP         0.1149
     14 O3'       -28.3700   15.3990  -20.7110 O.3       1 ADP        -0.3864
     15 C2'       -29.2270   17.6060  -20.3490 C.3       1 ADP         0.1385
     16 O2'       -28.2130   17.8530  -21.3260 O.3       1 ADP        -0.3836
     17 C1'       -30.6300   17.6310  -20.9540 C.3       1 ADP         0.2010
     18 N9        -31.1760   18.9980  -20.7530 N.pl3     1 ADP        -0.1919
     19 C8        -31.3000   19.6590  -19.5850 C.2       1 ADP         0.1123
     20 N7        -31.7960   20.9210  -19.7650 N.2       1 ADP        -0.2958
     21 C5        -31.9790   21.0780  -21.0910 C.ar      1 ADP         0.1045
     22 C6        -32.4680   22.1530  -21.9790 C.ar      1 ADP         0.1298
     23 N6        -32.8690   23.3310  -21.4700 N.pl3     1 ADP        -0.3152
     24 N1        -32.5080   21.9130  -23.3050 N.ar      1 ADP        -0.2698
     25 C2        -32.1080   20.7370  -23.8190 C.ar      1 ADP         0.0533
     26 N3        -31.6520   19.7120  -23.0810 N.ar      1 ADP        -0.2714
     27 C4        -31.5640   19.8160  -21.7340 C.ar      1 ADP         0.1613
     28 H1        -30.2646   14.9299  -17.5856 H         1 ADP         0.0648
     29 H2        -30.6266   16.6879  -17.6576 H         1 ADP         0.0648
     30 H3        -30.5784   14.6980  -19.9832 H         1 ADP         0.0651
     31 H4        -28.5292   16.2431  -18.8099 H         1 ADP         0.0648
     32 H5        -27.4834   15.7239  -20.8155 H         1 ADP         0.2100
     33 H6        -29.1485   18.3631  -19.5549 H         1 ADP         0.0676
     34 H7        -27.3579   17.7825  -20.9181 H         1 ADP         0.2101
     35 H8        -30.5869   17.4221  -22.0331 H         1 ADP         0.0996
     36 H9        -31.0371   19.2391  -18.6152 H         1 ADP         0.1349
     37 H10       -33.2083   24.0743  -22.0972 H         1 ADP         0.1820
     38 H11       -32.8369   23.4902  -20.4529 H         1 ADP         0.1820
     39 H12       -32.1565   20.6084  -24.8943 H         1 ADP         0.0996
@<TRIPOS>BOND
     1    1    2 ar 
     2    1    3 ar 
     3    1    4 ar 
     4    8    1 1  
     5    5    6 ar 
     6    5    7 ar 
     7    5    8 1  
     8    5    9 1  
     9    9   10 1  
    10   10   11 1  
    11   11   12 1  
    12   11   13 1  
    13   12   17 1  
    14   13   14 1  
    15   13   15 1  
    16   15   16 1  
    17   15   17 1  
    18   17   18 1  
    19   18   19 1  
    20   18   27 1  
    21   19   20 2  
    22   20   21 1  
    23   21   22 ar 
    24   21   27 ar 
    25   22   23 1  
    26   22   24 ar 
    27   24   25 ar 
    28   25   26 ar 
    29   26   27 ar 
    30   10   28 1  
    31   10   29 1  
    32   11   30 1  
    33   13   31 1  
    34   14   32 1  
    35   15   33 1  
    36   16   34 1  
    37   17   35 1  
    38   19   36 1  
    39   23   37 1  
    40   23   38 1  
    41   25   39 1  
@<TRIPOS>SUBSTRUCTURE
     1 ADP         1

