2q6h_ligand
  -I-interpret- 

 46 48  0  0  0  0  0  0  0  0999 V2000
   25.2970   21.0300   23.3410 C   0  0  0  0  0
   24.1120   20.3550   23.0060 C   0  0  0  0  0
   24.0040   19.6070   21.8180 C   0  0  0  0  0
   25.1290   19.5640   20.9850 C   0  0  0  0  0
   27.4750   20.1140   20.3100 C   0  0  0  0  0
   27.8980   21.4090   19.6050 C   0  0  0  0  0
   29.1030   24.9910   20.4600 C   0  0  0  0  0
   28.9940   25.0610   21.8380 C   0  0  0  0  0
   28.5290   23.9690   22.5690 C   0  0  0  0  0
   28.1500   22.7460   21.9340 C   0  0  0  0  0
   26.3440   20.2270   21.2810 C   0  0  0  0  0
   26.4340   20.9720   22.4790 C   0  0  0  0  0
   28.6160   18.6680   24.1680 C   0  0  0  0  0
   29.6310   16.5730   24.8290 C   0  0  0  0  0
   28.7430   23.8080   19.7900 C   0  0  0  0  0
   28.2590   22.6420   20.4530 C   0  0  0  0  0
   28.6660   21.1440   23.8040 C   0  0  0  0  0
   28.2410   20.0300   24.7420 C   0  0  0  0  0
   27.2990   16.9560   25.3420 C   0  0  0  0  0
   27.6720   21.6540   22.7910 N   0  0  0  0  0
   28.6310   17.6000   25.1900 N   0  3  0  0  0
   22.7570   20.4610   24.0940 Cl  0  0  0  0  0
   25.3493   21.6030   24.2668 H   0  0  0  0  0
   23.0840   19.0837   21.5577 H   0  0  0  0  0
   25.0656   18.9900   20.0605 H   0  0  0  0  0
   28.3394   19.7869   20.8878 H   0  0  0  0  0
   27.1347   19.4385   19.5251 H   0  0  0  0  0
   27.0233   21.7122   19.0296 H   0  0  0  0  0
   28.8177   21.1529   19.0789 H   0  0  0  0  0
   29.4666   25.8499   19.8959 H   0  0  0  0  0
   29.2742   25.9781   22.3562 H   0  0  0  0  0
   28.4524   24.0500   23.6533 H   0  0  0  0  0
   29.6205   18.7462   23.7521 H   0  0  0  0  0
   27.8685   18.4037   23.4200 H   0  0  0  0  0
   29.3743   16.1421   23.8612 H   0  0  0  0  0
   30.6179   17.0324   24.7734 H   0  0  0  0  0
   29.6356   15.7899   25.5871 H   0  0  0  0  0
   28.8392   23.7810   18.7046 H   0  0  0  0  0
   29.4813   20.7238   23.2151 H   0  0  0  0  0
   28.8745   21.9960   24.4511 H   0  0  0  0  0
   28.7491   20.1613   25.6973 H   0  0  0  0  0
   27.1595   20.0719   24.8709 H   0  0  0  0  0
   26.5667   17.7054   25.6424 H   0  0  0  0  0
   26.9998   16.5144   24.3915 H   0  0  0  0  0
   27.3578   16.1779   26.1031 H   0  0  0  0  0
   28.8759   18.0331   26.0804 H   0  0  0  0  0
  1  2  4  0  0  0
 12  1  4  0  0  0
  2  3  4  0  0  0
  2 22  1  0  0  0
  4  3  4  0  0  0
 11  4  4  0  0  0
  5  6  1  0  0  0
 11  5  1  0  0  0
 16  6  1  0  0  0
  8  7  4  0  0  0
 15  7  4  0  0  0
  9  8  4  0  0  0
 10  9  4  0  0  0
 10 16  4  0  0  0
 20 10  1  0  0  0
 12 11  4  0  0  0
 20 12  1  0  0  0
 18 13  1  0  0  0
 13 21  1  0  0  0
 21 14  1  0  0  0
 16 15  4  0  0  0
 17 18  1  0  0  0
 17 20  1  0  0  0
 21 19  1  0  0  0
  1 23  1  0  0  0
  3 24  1  0  0  0
  4 25  1  0  0  0
  5 26  1  0  0  0
  5 27  1  0  0  0
  6 28  1  0  0  0
  6 29  1  0  0  0
  7 30  1  0  0  0
  8 31  1  0  0  0
  9 32  1  0  0  0
 13 33  1  0  0  0
 13 34  1  0  0  0
 14 35  1  0  0  0
 14 36  1  0  0  0
 14 37  1  0  0  0
 15 38  1  0  0  0
 17 39  1  0  0  0
 17 40  1  0  0  0
 18 41  1  0  0  0
 18 42  1  0  0  0
 19 43  1  0  0  0
 19 44  1  0  0  0
 19 45  1  0  0  0
 21 46  1  0  0  0
M  END
$$$$
