4gj9_ligand
  -I-interpret- 

 43 46  0  0  0  0  0  0  0  0999 V2000
   11.7230   20.4640   54.3390 C   0  0  0  0  0
   12.9260   20.5830   53.7260 C   0  0  0  0  0
   10.9930   19.2150   54.8280 C   0  0  0  0  0
   11.0690   21.8160   54.4290 C   0  0  0  0  0
   13.9760   19.4860   53.5720 C   0  0  0  0  0
   13.2160   22.0400   53.4120 C   0  0  0  0  0
   11.3550   17.8900   54.4340 C   0  0  0  0  0
    9.8430   19.3780   55.6340 C   0  0  0  0  0
   12.1670   22.7820   54.1690 N   0  3  0  0  0
   13.6660   18.0950   53.6390 C   0  0  0  0  0
   15.3450   19.8670   53.6310 C   0  0  0  0  0
   12.4030   17.5900   53.6080 N   0  0  0  0  0
   10.5770   16.7750   54.8380 C   0  0  0  0  0
    9.0930   18.2630   56.0400 C   0  0  0  0  0
   11.7920   24.1510   53.7070 C   0  0  0  0  0
   14.7000   17.1430   53.6160 C   0  0  0  0  0
   16.3730   18.9090   53.6340 C   0  0  0  0  0
    9.4860   16.9620   55.6880 C   0  0  0  0  0
   11.2640   25.1320   54.7780 C   0  0  0  0  0
   16.0450   17.5430   53.6140 C   0  0  0  0  0
   12.2160   25.2150   55.9670 C   0  0  0  0  0
   11.1980   26.4280   54.1710 O   0  0  0  0  0
   10.6041   21.9797   55.4012 H   0  0  0  0  0
   10.2543   21.9229   53.7128 H   0  0  0  0  0
   13.1825   22.2490   52.3427 H   0  0  0  0  0
   14.2244   22.3346   53.7026 H   0  0  0  0  0
    9.5363   20.3774   55.9426 H   0  0  0  0  0
   12.5625   23.1000   55.0538 H   0  0  0  0  0
   15.6024   20.9253   53.6748 H   0  0  0  0  0
   12.2144   16.9026   52.8784 H   0  0  0  0  0
   10.8304   15.7751   54.4857 H   0  0  0  0  0
    8.1928   18.4094   56.6370 H   0  0  0  0  0
   10.9738   24.0131   53.0002 H   0  0  0  0  0
   12.7088   24.5966   53.3210 H   0  0  0  0  0
   14.4540   16.0812   53.5995 H   0  0  0  0  0
   17.4166   19.2232   53.6517 H   0  0  0  0  0
    8.9414   16.1016   56.0769 H   0  0  0  0  0
   10.2925   24.7895   55.1343 H   0  0  0  0  0
   16.8360   16.7933   53.5969 H   0  0  0  0  0
   12.3182   24.2282   56.4185 H   0  0  0  0  0
   13.1912   25.5629   55.6264 H   0  0  0  0  0
   11.8164   25.9130   56.7027 H   0  0  0  0  0
   10.8723   27.0641   54.8120 H   0  0  0  0  0
  1  2  2  0  0  0
  1  3  1  0  0  0
  1  4  1  0  0  0
  2  5  1  0  0  0
  2  6  1  0  0  0
  3  7  4  0  0  0
  3  8  4  0  0  0
  4  9  1  0  0  0
  5 10  4  0  0  0
  5 11  4  0  0  0
  6  9  1  0  0  0
  7 12  1  0  0  0
  7 13  4  0  0  0
  8 14  4  0  0  0
  9 15  1  0  0  0
 10 12  1  0  0  0
 10 16  4  0  0  0
 11 17  4  0  0  0
 13 18  4  0  0  0
 14 18  4  0  0  0
 15 19  1  0  0  0
 16 20  4  0  0  0
 17 20  4  0  0  0
 19 21  1  0  0  0
 19 22  1  0  0  0
  4 23  1  0  0  0
  4 24  1  0  0  0
  6 25  1  0  0  0
  6 26  1  0  0  0
  8 27  1  0  0  0
  9 28  1  0  0  0
 11 29  1  0  0  0
 12 30  1  0  0  0
 13 31  1  0  0  0
 14 32  1  0  0  0
 15 33  1  0  0  0
 15 34  1  0  0  0
 16 35  1  0  0  0
 17 36  1  0  0  0
 18 37  1  0  0  0
 19 38  1  0  0  0
 20 39  1  0  0  0
 21 40  1  0  0  0
 21 41  1  0  0  0
 21 42  1  0  0  0
 22 43  1  0  0  0
M  END
$$$$
