2oph_ligand
  -I-interpret- 

 54 55  0  0  0  0  0  0  0  0999 V2000
   42.7890   50.9110   34.5470 C   0  0  0  0  0
   41.4150   50.6190   35.1490 C   0  0  0  0  0
   40.7520   51.9110   35.7040 C   0  0  0  0  0
   41.6920   52.5720   36.7740 C   0  0  0  0  0
   43.0960   52.8750   36.2100 C   0  0  0  0  0
   43.7090   51.5860   35.5910 C   0  0  0  0  0
   39.3560   51.6220   36.3190 C   0  0  0  0  0
   38.2950   51.2190   35.2310 C   0  0  0  0  0
   36.8530   51.2360   35.8390 C   0  0  0  0  0
   36.1070   50.1110   35.7850 N   0  0  0  0  0
   45.0680   51.8810   35.0470 N   0  0  0  0  0
   46.2700   51.5900   35.6500 C   0  0  0  0  0
   45.2000   52.5530   33.7250 C   0  0  0  0  0
   46.2940   50.9030   37.0350 C   0  0  0  0  0
   47.3470   51.8590   35.1240 O   0  0  0  0  0
   36.4380   52.2310   36.3990 O   0  0  0  0  0
   38.3100   51.9710   34.4040 N   0  3  0  0  0
   39.4230   50.5090   37.4130 C   0  0  0  0  0
   36.6560   48.8210   35.4280 C   0  0  0  0  0
   35.5230   47.8450   35.5320 C   0  0  0  0  0
   34.2880   48.7140   35.4090 C   0  0  0  0  0
   34.6560   50.0280   36.0920 C   0  0  0  0  0
   35.5580   47.2850   36.8100 F   0  0  0  0  0
   42.6666   51.5829   33.6975 H   0  0  0  0  0
   43.2430   49.9716   34.2314 H   0  0  0  0  0
   41.5401   49.9139   35.9708 H   0  0  0  0  0
   40.7747   50.2099   34.3674 H   0  0  0  0  0
   40.6065   52.5997   34.8717 H   0  0  0  0  0
   41.8036   51.8744   37.6041 H   0  0  0  0  0
   41.2412   53.5144   37.0851 H   0  0  0  0  0
   43.7389   53.2265   37.0170 H   0  0  0  0  0
   43.0154   53.6406   35.4383 H   0  0  0  0  0
   43.8072   50.8514   36.3902 H   0  0  0  0  0
   39.0372   52.5560   36.7817 H   0  0  0  0  0
   38.5425   50.2210   34.8692 H   0  0  0  0  0
   45.7343   53.4949   33.8494 H   0  0  0  0  0
   45.7539   51.9067   33.0440 H   0  0  0  0  0
   44.2081   52.7476   33.3171 H   0  0  0  0  0
   46.8195   49.9512   36.9580 H   0  0  0  0  0
   46.8077   51.5463   37.7494 H   0  0  0  0  0
   45.2717   50.7289   37.3706 H   0  0  0  0  0
   37.6221   51.7110   33.6972 H   0  0  0  0  0
   38.0824   52.8918   34.7792 H   0  0  0  0  0
   39.2391   51.9939   33.9837 H   0  0  0  0  0
   38.4440   50.4009   37.8799 H   0  0  0  0  0
   39.7133   49.5650   36.9518 H   0  0  0  0  0
   40.1583   50.7872   38.1680 H   0  0  0  0  0
   37.4764   48.5447   36.0903 H   0  0  0  0  0
   37.0731   48.8350   34.4211 H   0  0  0  0  0
   35.5562   47.0468   34.7904 H   0  0  0  0  0
   33.4195   48.2477   35.8741 H   0  0  0  0  0
   34.0052   48.8668   34.3675 H   0  0  0  0  0
   34.0811   50.8843   35.7393 H   0  0  0  0  0
   34.4290   50.0494   37.1579 H   0  0  0  0  0
  1  2  1  0  0  0
  1  6  1  0  0  0
  2  3  1  0  0  0
  3  4  1  0  0  0
  3  7  1  0  0  0
  4  5  1  0  0  0
  5  6  1  0  0  0
  6 11  1  0  0  0
  7  8  1  0  0  0
  7 18  1  0  0  0
  8  9  1  0  0  0
  8 17  1  0  0  0
  9 10  1  0  0  0
  9 16  2  0  0  0
 10 19  1  0  0  0
 10 22  1  0  0  0
 11 12  1  0  0  0
 11 13  1  0  0  0
 12 14  1  0  0  0
 12 15  2  0  0  0
 19 20  1  0  0  0
 20 21  1  0  0  0
 20 23  1  0  0  0
 21 22  1  0  0  0
  1 24  1  0  0  0
  1 25  1  0  0  0
  2 26  1  0  0  0
  2 27  1  0  0  0
  3 28  1  0  0  0
  4 29  1  0  0  0
  4 30  1  0  0  0
  5 31  1  0  0  0
  5 32  1  0  0  0
  6 33  1  0  0  0
  7 34  1  0  0  0
  8 35  1  0  0  0
 13 36  1  0  0  0
 13 37  1  0  0  0
 13 38  1  0  0  0
 14 39  1  0  0  0
 14 40  1  0  0  0
 14 41  1  0  0  0
 17 42  1  0  0  0
 17 43  1  0  0  0
 17 44  1  0  0  0
 18 45  1  0  0  0
 18 46  1  0  0  0
 18 47  1  0  0  0
 19 48  1  0  0  0
 19 49  1  0  0  0
 20 50  1  0  0  0
 21 51  1  0  0  0
 21 52  1  0  0  0
 22 53  1  0  0  0
 22 54  1  0  0  0
M  END
$$$$
