5nar_ligand
  -I-interpret- 

 54 57  0  0  0  0  0  0  0  0999 V2000
    2.0420  -12.4620   -4.1230 C   0  0  0  0  0
   -4.6910   -6.1620   -4.0570 C   0  0  0  0  0
    1.2560  -11.2240   -3.7950 C   0  0  0  0  0
   -0.6380  -10.3360   -5.2420 C   0  0  0  0  0
   -2.3710   -7.5440   -4.7650 C   0  0  0  0  0
   -1.1750   -8.0090   -5.3440 C   0  0  0  0  0
   -0.9320   -7.2190   -6.3670 C   0  0  0  0  0
   -2.0320   -5.2490   -7.5580 C   0  0  0  0  0
   -2.8710   -6.4880   -5.5410 C   0  0  0  0  0
   -3.1150   -7.9480   -3.6530 C   0  0  0  0  0
   -4.2710   -7.2510   -3.3290 C   0  0  0  0  0
    0.1200  -11.3240   -4.7070 N   0  0  0  0  0
   -0.3930   -9.1030   -4.9290 N   0  0  0  0  0
    1.0520  -13.4870   -4.4230 C   0  0  0  0  0
   -1.9580   -6.2740   -6.5400 N   0  0  0  0  0
   -2.0130  -12.7650   -3.5680 O   0  0  0  0  0
   -1.4770  -13.2340   -4.5400 C   0  0  0  0  0
   -0.1330  -12.7270   -4.9500 C   0  0  0  0  0
   -0.9110   -5.1000   -8.2630 N   0  0  0  0  0
   -3.0380   -4.6330   -7.7450 O   0  0  0  0  0
   -4.0290   -5.7970   -5.2230 C   0  0  0  0  0
   -1.5480  -10.5750   -6.0320 O   0  0  0  0  0
   -2.0230  -14.2150   -5.2770 N   0  0  0  0  0
   -3.2440  -14.8070   -5.0980 C   0  0  0  0  0
   -3.6480  -15.2010   -3.8290 C   0  0  0  0  0
   -4.8480  -15.8980   -3.6860 C   0  0  0  0  0
   -5.6040  -16.2270   -4.8000 C   0  0  0  0  0
   -5.1450  -15.8380   -6.0540 C   0  0  0  0  0
   -5.8630  -16.1940   -7.2010 O   0  0  0  0  0
   -6.7440  -15.3040   -7.6280 C   0  0  0  0  0
   -7.5080  -14.9150   -6.6540 F   0  0  0  0  0
   -7.5190  -15.7160   -8.5890 F   0  0  0  0  0
   -6.1370  -14.2170   -8.0240 F   0  0  0  0  0
   -3.9430  -15.1730   -6.2080 C   0  0  0  0  0
    2.6831  -12.7584   -3.2928 H   0  0  0  0  0
    2.7121  -12.2965   -4.9666 H   0  0  0  0  0
   -5.5487   -5.5816   -3.7170 H   0  0  0  0  0
    1.8293  -10.3060   -3.9241 H   0  0  0  0  0
    0.9605  -11.1694   -2.7472 H   0  0  0  0  0
   -0.0475   -7.2883   -7.0002 H   0  0  0  0  0
   -2.7927   -8.7968   -3.0498 H   0  0  0  0  0
   -4.8628   -7.5759   -2.4733 H   0  0  0  0  0
    0.4201   -8.9126   -4.3433 H   0  0  0  0  0
    0.7984  -14.0785   -3.5433 H   0  0  0  0  0
    1.4239  -14.2138   -5.1451 H   0  0  0  0  0
   -0.2190  -12.8964   -6.0233 H   0  0  0  0  0
   -0.8732   -4.4212   -9.0234 H   0  0  0  0  0
   -0.0908   -5.6647   -8.0422 H   0  0  0  0  0
   -4.4059   -4.9986   -5.8622 H   0  0  0  0  0
   -1.4645  -14.5577   -6.0587 H   0  0  0  0  0
   -3.0362  -14.9690   -2.9572 H   0  0  0  0  0
   -5.1929  -16.1854   -2.6927 H   0  0  0  0  0
   -6.5382  -16.7788   -4.6956 H   0  0  0  0  0
   -3.5604  -14.9450   -7.2029 H   0  0  0  0  0
  1  3  1  0  0  0
 14  1  1  0  0  0
 11  2  4  0  0  0
 21  2  4  0  0  0
 12  3  1  0  0  0
 12  4  1  0  0  0
  4 13  1  0  0  0
  4 22  2  0  0  0
  6  5  4  0  0  0
  5  9  4  0  0  0
  5 10  4  0  0  0
  6  7  4  0  0  0
 13  6  1  0  0  0
  7 15  4  0  0  0
 15  8  1  0  0  0
  8 19  1  0  0  0
  8 20  2  0  0  0
 15  9  4  0  0  0
  9 21  4  0  0  0
 10 11  4  0  0  0
 18 12  1  0  0  0
 18 14  1  0  0  0
 17 16  2  0  0  0
 17 18  1  0  0  0
 17 23  1  0  0  0
 23 24  1  0  0  0
 24 25  4  0  0  0
 24 34  4  0  0  0
 25 26  4  0  0  0
 26 27  4  0  0  0
 27 28  4  0  0  0
 28 29  1  0  0  0
 28 34  4  0  0  0
 29 30  1  0  0  0
 30 31  1  0  0  0
 30 32  1  0  0  0
 30 33  1  0  0  0
  1 35  1  0  0  0
  1 36  1  0  0  0
  2 37  1  0  0  0
  3 38  1  0  0  0
  3 39  1  0  0  0
  7 40  1  0  0  0
 10 41  1  0  0  0
 11 42  1  0  0  0
 13 43  1  0  0  0
 14 44  1  0  0  0
 14 45  1  0  0  0
 18 46  1  0  0  0
 19 47  1  0  0  0
 19 48  1  0  0  0
 21 49  1  0  0  0
 23 50  1  0  0  0
 25 51  1  0  0  0
 26 52  1  0  0  0
 27 53  1  0  0  0
 34 54  1  0  0  0
M  END
$$$$
