3d27_ligand
  -I-interpret- 

 27 28  0  0  0  0  0  0  0  0999 V2000
    1.3330   14.4750    9.5170 O   0  0  0  0  0
    0.0100   14.1980    9.3210 C   0  0  0  0  0
   -0.4300   13.8760    8.0500 C   0  0  0  0  0
    0.4590   13.8440    7.0270 O   0  0  0  0  0
   -1.7720   13.5850    7.8180 C   0  0  0  0  0
   -0.9010   14.2360   10.3800 C   0  0  0  0  0
   -2.2480   13.9450   10.1490 C   0  0  0  0  0
   -2.6900   13.6180    8.8640 C   0  0  0  0  0
   -4.1310   13.3110    8.5960 C   0  0  0  0  0
   -4.4990   11.9530    7.5870 S   0  0  0  0  0
   -6.2250   12.1260    7.6580 C   0  0  0  0  0
   -6.5180   13.2350    8.4590 C   0  0  0  0  0
   -5.4220   13.9340    9.0060 C   0  0  0  0  0
   -5.5440   15.1530    9.8900 C   0  0  0  0  0
   -5.5740   14.7080   11.3300 C   0  0  0  0  0
    1.4823   14.6786   10.4432 H   0  0  0  0  0
    0.0035   13.6066    6.2160 H   0  0  0  0  0
   -2.1054   13.3300    6.8120 H   0  0  0  0  0
   -0.5617   14.4920   11.3837 H   0  0  0  0  0
   -2.9580   13.9732   10.9755 H   0  0  0  0  0
   -6.9535   11.4827    7.1645 H   0  0  0  0  0
   -7.5453   13.5443    8.6513 H   0  0  0  0  0
   -6.4606   15.6923    9.6510 H   0  0  0  0  0
   -4.6938   15.8150    9.7257 H   0  0  0  0  0
   -6.4283   14.0497   11.4878 H   0  0  0  0  0
   -4.6534   14.1729   11.5628 H   0  0  0  0  0
   -5.6619   15.5808   11.9769 H   0  0  0  0  0
  1  2  1  0  0  0
  2  3  4  0  0  0
  2  6  4  0  0  0
  3  4  1  0  0  0
  3  5  4  0  0  0
  5  8  4  0  0  0
  6  7  4  0  0  0
  7  8  4  0  0  0
  8  9  1  0  0  0
  9 10  4  0  0  0
  9 13  4  0  0  0
 10 11  4  0  0  0
 11 12  4  0  0  0
 12 13  4  0  0  0
 13 14  1  0  0  0
 14 15  1  0  0  0
  1 16  1  0  0  0
  4 17  1  0  0  0
  5 18  1  0  0  0
  6 19  1  0  0  0
  7 20  1  0  0  0
 11 21  1  0  0  0
 12 22  1  0  0  0
 14 23  1  0  0  0
 14 24  1  0  0  0
 15 25  1  0  0  0
 15 26  1  0  0  0
 15 27  1  0  0  0
M  END
$$$$
