1b0h_ligand
  -I-interpret- 

 74 75  0  0  0  0  0  0  0  0999 V2000
    6.9090   16.7300   15.2530 N   0  3  0  0  0
    6.4360   18.0200   14.6830 C   0  0  0  0  0
    5.1700   18.4740   15.4120 C   0  0  0  0  0
    4.4670   17.5800   15.8650 O   0  0  0  0  0
    6.2720   17.9240   13.1610 C   0  0  0  0  0
    5.3730   16.7960   12.6860 C   0  0  0  0  0
    5.3290   16.6920   11.1580 C   0  0  0  0  0
    6.6160   16.0710   10.5960 C   0  0  0  0  0
    6.6840   14.6270   10.9920 N   0  3  0  0  0
    4.9980   19.7850   15.6180 N   0  0  0  0  0
    3.7820   20.2150   16.3270 C   0  0  0  0  0
    2.5590   20.1490   15.4140 C   0  0  0  0  0
    2.5900   20.4070   14.2000 O   0  0  0  0  0
    3.9240   21.6660   16.8420 C   0  0  0  0  0
    5.0970   21.7900   17.8040 C   0  0  0  0  0
    6.1730   22.5540   17.3290 C   0  0  0  0  0
    7.3110   22.7060   18.1170 C   0  0  0  0  0
    5.1750   21.2140   19.0800 C   0  0  0  0  0
    6.2950   21.3250   19.9340 C   0  0  0  0  0
    7.3670   22.1270   19.3670 C   0  0  0  0  0
    4.1150   20.4510   19.5690 C   0  0  0  0  0
    4.0960   19.8320   20.7520 C   0  0  0  0  0
    5.2370   19.9180   21.5770 C   0  0  0  0  0
    6.3230   20.6880   21.1870 C   0  0  0  0  0
    1.4090   19.7920   15.9990 N   0  0  0  0  0
    0.1730   19.7670   15.2560 C   0  0  0  0  0
   -0.8960   20.5730   16.0140 C   0  0  0  0  0
   -1.8600   20.9460   15.3390 O   0  0  0  0  0
   -0.4140   18.3430   15.1810 C   0  0  0  0  0
   -1.3790   18.2590   13.9930 C   0  0  0  0  0
   -2.0790   16.9220   14.0350 C   0  0  0  0  0
   -3.4240   17.0270   13.3120 C   0  0  0  0  0
   -3.1520   16.8360   11.8600 N   0  3  0  0  0
   -0.8180   20.7360   17.2390 O   0  0  0  0  0
    7.7528   16.4324   14.7634 H   0  0  0  0  0
    7.1152   16.8530   16.2443 H   0  0  0  0  0
    6.1822   16.0232   15.1408 H   0  0  0  0  0
    7.1881   18.7922   14.8447 H   0  0  0  0  0
    7.2626   17.7340   12.7478 H   0  0  0  0  0
    5.8101   18.8554   12.8336 H   0  0  0  0  0
    4.3621   16.9970   13.0406 H   0  0  0  0  0
    5.7700   15.8594   13.0775 H   0  0  0  0  0
    5.2236   17.6962   10.7475 H   0  0  0  0  0
    4.4895   16.0546   10.8804 H   0  0  0  0  0
    7.4810   16.5999   10.9961 H   0  0  0  0  0
    6.6151   16.1513    9.5090 H   0  0  0  0  0
    7.5386   14.2133   10.6192 H   0  0  0  0  0
    6.6854   14.5544   12.0094 H   0  0  0  0  0
    5.8741   14.1340   10.6159 H   0  0  0  0  0
    5.6870   20.4639   15.2943 H   0  0  0  0  0
    3.6496   19.5350   17.1685 H   0  0  0  0  0
    3.0097   21.9420   17.3674 H   0  0  0  0  0
    4.0984   22.3241   15.9907 H   0  0  0  0  0
    6.1187   23.0263   16.3481 H   0  0  0  0  0
    8.1578   23.2830   17.7454 H   0  0  0  0  0
    8.2661   22.2792   19.9641 H   0  0  0  0  0
    3.2331   20.3522   18.9361 H   0  0  0  0  0
    3.2176   19.2722   21.0733 H   0  0  0  0  0
    5.2654   19.3780   22.5234 H   0  0  0  0  0
    7.1864   20.7977   21.8432 H   0  0  0  0  0
    1.4068   19.5336   16.9857 H   0  0  0  0  0
    0.3987   20.1617   14.2654 H   0  0  0  0  0
   -0.9487   18.1182   16.1038 H   0  0  0  0  0
    0.3920   17.6210   15.0499 H   0  0  0  0  0
   -0.8270   18.3598   13.0585 H   0  0  0  0  0
   -2.1118   19.0637   14.0524 H   0  0  0  0  0
   -2.2459   16.6318   15.0723 H   0  0  0  0  0
   -1.4597   16.1721   13.5429 H   0  0  0  0  0
   -3.8858   17.9974   13.4941 H   0  0  0  0  0
   -4.1191   16.2711   13.6775 H   0  0  0  0  0
   -4.0273   16.8991   11.3402 H   0  0  0  0  0
   -2.5105   17.5604   11.5373 H   0  0  0  0  0
   -2.7325   15.9181   11.7117 H   0  0  0  0  0
    0.0113   20.3717   17.5570 H   0  0  0  0  0
  2  1  1  0  0  0
  2  5  1  0  0  0
  3  2  1  0  0  0
  3  4  2  0  0  0
  5  6  1  0  0  0
  6  7  1  0  0  0
  7  8  1  0  0  0
  8  9  1  0  0  0
 25 26  1  0  0  0
 26 29  1  0  0  0
 26 27  1  0  0  0
 27 28  2  0  0  0
 27 34  1  0  0  0
 29 30  1  0  0  0
 30 31  1  0  0  0
 31 32  1  0  0  0
 32 33  1  0  0  0
 11 10  1  0  0  0
 12 11  1  0  0  0
 11 14  1  0  0  0
 12 13  2  0  0  0
 14 15  1  0  0  0
 15 16  4  0  0  0
 15 18  4  0  0  0
 16 17  4  0  0  0
 17 20  4  0  0  0
 18 19  4  0  0  0
 18 21  4  0  0  0
 19 20  4  0  0  0
 19 24  4  0  0  0
 21 22  4  0  0  0
 22 23  4  0  0  0
 24 23  4  0  0  0
 10  3  1  0  0  0
 12 25  1  0  0  0
  1 35  1  0  0  0
  1 36  1  0  0  0
  1 37  1  0  0  0
  2 38  1  0  0  0
  5 39  1  0  0  0
  5 40  1  0  0  0
  6 41  1  0  0  0
  6 42  1  0  0  0
  7 43  1  0  0  0
  7 44  1  0  0  0
  8 45  1  0  0  0
  8 46  1  0  0  0
  9 47  1  0  0  0
  9 48  1  0  0  0
  9 49  1  0  0  0
 10 50  1  0  0  0
 11 51  1  0  0  0
 14 52  1  0  0  0
 14 53  1  0  0  0
 16 54  1  0  0  0
 17 55  1  0  0  0
 20 56  1  0  0  0
 21 57  1  0  0  0
 22 58  1  0  0  0
 23 59  1  0  0  0
 24 60  1  0  0  0
 25 61  1  0  0  0
 26 62  1  0  0  0
 29 63  1  0  0  0
 29 64  1  0  0  0
 30 65  1  0  0  0
 30 66  1  0  0  0
 31 67  1  0  0  0
 31 68  1  0  0  0
 32 69  1  0  0  0
 32 70  1  0  0  0
 33 71  1  0  0  0
 33 72  1  0  0  0
 33 73  1  0  0  0
 34 74  1  0  0  0
M  END
$$$$
