4dew_ligand
  -I-interpret- 

 31 33  0  0  0  0  0  0  0  0999 V2000
   19.4680   41.1430   36.1040 C   0  0  0  0  0
   18.2640   40.6470   34.1800 O   0  0  0  0  0
   19.3420   41.1790   34.7370 C   0  0  0  0  0
   22.3410   42.9580   33.7820 O   0  0  0  0  0
   20.3170   41.8010   33.9520 C   0  0  0  0  0
   23.4840   43.5640   35.9950 O   0  0  0  0  0
   21.4190   42.3770   34.5570 C   0  0  0  0  0
   20.6270   41.6620   38.0210 O   0  0  0  0  0
   21.5510   42.3450   35.9480 C   0  0  0  0  0
   21.3150   39.7780   42.9400 O   0  0  0  0  0
   20.5700   41.7380   36.6910 C   0  0  0  0  0
   21.5160   42.2990   43.9810 O   0  0  0  0  0
   22.6170   42.9270   36.5930 C   0  0  0  0  0
   22.6260   42.9240   37.9670 C   0  0  0  0  0
   21.6460   42.2440   38.6520 C   0  0  0  0  0
   21.6220   42.1920   40.0070 C   0  0  0  0  0
   21.5070   40.9710   40.7210 C   0  0  0  0  0
   21.4600   40.9430   42.1060 C   0  0  0  0  0
   21.5460   42.2130   42.6660 C   0  0  0  0  0
   21.6580   43.4160   41.9890 C   0  0  0  0  0
   21.6940   43.4170   40.6370 C   0  0  0  0  0
   18.7113   40.6532   36.7169 H   0  0  0  0  0
   18.3157   40.7464   33.2266 H   0  0  0  0  0
   23.0431   43.3122   34.3326 H   0  0  0  0  0
   20.2092   41.8319   32.8678 H   0  0  0  0  0
   21.3127   40.0444   43.8623 H   0  0  0  0  0
   21.5825   43.2205   44.2419 H   0  0  0  0  0
   23.4054   43.4575   38.5111 H   0  0  0  0  0
   21.4544   40.0335   40.1675 H   0  0  0  0  0
   21.7166   44.3540   42.5411 H   0  0  0  0  0
   21.7762   44.3445   40.0704 H   0  0  0  0  0
  1  3  4  0  0  0
 11  1  4  0  0  0
  3  2  1  0  0  0
  3  5  4  0  0  0
  7  4  1  0  0  0
  7  5  4  0  0  0
 13  6  2  0  0  0
  9  7  4  0  0  0
  8 11  1  0  0  0
 15  8  1  0  0  0
 11  9  4  0  0  0
 13  9  1  0  0  0
 18 10  1  0  0  0
 19 12  1  0  0  0
 14 13  1  0  0  0
 15 14  2  0  0  0
 16 15  1  0  0  0
 17 16  4  0  0  0
 16 21  4  0  0  0
 18 17  4  0  0  0
 19 18  4  0  0  0
 19 20  4  0  0  0
 20 21  4  0  0  0
  1 22  1  0  0  0
  2 23  1  0  0  0
  4 24  1  0  0  0
  5 25  1  0  0  0
 10 26  1  0  0  0
 12 27  1  0  0  0
 14 28  1  0  0  0
 17 29  1  0  0  0
 20 30  1  0  0  0
 21 31  1  0  0  0
M  END
$$$$
