3mj2_ligand
  -I-interpret- 

 85 88  0  0  0  0  0  0  0  0999 V2000
   17.0640    1.1020   -1.2970 C   0  0  0  0  0
   17.2080    1.8670   -2.4670 C   0  0  0  0  0
   16.1130    1.9900   -3.3420 C   0  0  0  0  0
   14.9010    1.3740   -3.0430 C   0  0  0  0  0
   14.7730    0.6220   -1.8720 C   0  0  0  0  0
   15.8490    0.4840   -1.0160 C   0  0  0  0  0
   18.1130    0.9620   -0.4400 O   0  0  0  0  0
   17.8270    0.9430    0.9610 C   0  0  0  0  0
   18.5100    2.5080   -2.7770 C   0  0  0  0  0
   18.7650    3.8140   -2.5380 N   0  0  0  0  0
   19.3820    1.8210   -3.2740 O   0  0  0  0  0
   20.0900    4.3730   -2.8630 C   0  0  0  0  0
   19.9070    5.6190   -3.7370 C   0  0  0  0  0
   18.9850    6.5620   -3.0720 N   0  0  0  0  0
   17.6760    6.0660   -2.5940 C   0  0  0  0  0
   17.7500    4.6910   -1.9260 C   0  0  0  0  0
   19.3040    7.8770   -2.9280 C   0  0  0  0  0
   20.6220    8.4330   -3.4160 C   0  0  0  0  0
   18.5260    8.6390   -2.3890 O   0  0  0  0  0
   13.5260    1.5490   -4.1400 S   0  0  0  0  0
   11.8230    3.6540   -3.4980 C   0  0  0  0  0
   13.0470    3.2040   -3.8180 C   0  0  0  0  0
   14.1430    4.5720   -3.8870 S   0  0  0  0  0
   12.8250    5.6490   -3.4480 C   0  0  0  0  0
   11.7330    4.9610   -3.3180 N   0  0  0  0  0
   12.9280    7.0280   -3.3380 N   0  0  0  0  0
   14.1040    7.6860   -3.4790 C   0  0  0  0  0
   14.1370    9.1650   -3.4220 C   0  0  0  0  0
   15.3560    9.8500   -3.3230 C   0  0  0  0  0
   15.3720   11.2330   -3.2990 C   0  0  0  0  0
   14.1850   11.9460   -3.3920 C   0  0  0  0  0
   12.9750   11.2760   -3.5060 C   0  0  0  0  0
   12.9480    9.8930   -3.5310 C   0  0  0  0  0
   15.1400    7.0770   -3.6930 O   0  0  0  0  0
   14.1970   13.4560   -3.3780 C   0  0  0  0  0
   14.6390   14.0460   -4.6670 N   0  3  0  0  0
   14.1220   13.3900   -5.8930 C   0  0  0  0  0
   15.1790   13.3410   -7.0270 C   0  0  0  0  0
   16.2900   12.3700   -6.6240 C   0  0  0  0  0
   14.5530   12.8360   -8.3320 C   0  0  0  0  0
   15.8390   14.6950   -7.3090 C   0  0  0  0  0
   13.4780   -0.0620   -1.5280 C   0  0  0  0  0
   12.7880   14.0250   -6.3270 C   0  0  0  0  0
   16.2143    2.5707   -4.2588 H   0  0  0  0  0
   15.7451   -0.1151   -0.1113 H   0  0  0  0  0
   17.3466    1.8792    1.2452 H   0  0  0  0  0
   17.1610    0.1093    1.1833 H   0  0  0  0  0
   18.7562    0.8260    1.5187 H   0  0  0  0  0
   20.6796    3.6307   -3.4010 H   0  0  0  0  0
   20.6101    4.6426   -1.9438 H   0  0  0  0  0
   19.4913    5.3263   -4.7012 H   0  0  0  0  0
   20.8730    6.1017   -3.8850 H   0  0  0  0  0
   17.0242    5.9732   -3.4627 H   0  0  0  0  0
   17.3105    6.7726   -1.8488 H   0  0  0  0  0
   18.0236    4.8410   -0.8816 H   0  0  0  0  0
   16.7787    4.2101   -2.0422 H   0  0  0  0  0
   20.4348    9.2143   -4.1527 H   0  0  0  0  0
   21.1729    8.8508   -2.5734 H   0  0  0  0  0
   21.2054    7.6335   -3.8727 H   0  0  0  0  0
   10.9651    2.9896   -3.3941 H   0  0  0  0  0
   12.0849    7.5681   -3.1432 H   0  0  0  0  0
   16.2911    9.2930   -3.2649 H   0  0  0  0  0
   16.3194   11.7641   -3.2068 H   0  0  0  0  0
   12.0449   11.8400   -3.5759 H   0  0  0  0  0
   11.9977    9.3696   -3.6359 H   0  0  0  0  0
   14.9005   13.7749   -2.6089 H   0  0  0  0  0
   13.1778   13.7940   -3.1908 H   0  0  0  0  0
   15.6537   13.9465   -4.6948 H   0  0  0  0  0
   14.2833   15.0019   -4.6816 H   0  0  0  0  0
   13.9144   12.3464   -5.6564 H   0  0  0  0  0
   16.7545   12.7146   -5.7001 H   0  0  0  0  0
   15.8657   11.3778   -6.4708 H   0  0  0  0  0
   17.0388   12.3282   -7.4150 H   0  0  0  0  0
   14.1546   11.8331   -8.1781 H   0  0  0  0  0
   13.7471   13.5066   -8.6303 H   0  0  0  0  0
   15.3137   12.8104   -9.1123 H   0  0  0  0  0
   15.0761   15.4150   -7.6050 H   0  0  0  0  0
   16.3426   15.0468   -6.4086 H   0  0  0  0  0
   16.5661   14.5828   -8.1132 H   0  0  0  0  0
   12.6874    0.6831   -1.4392 H   0  0  0  0  0
   13.2233   -0.7718   -2.3150 H   0  0  0  0  0
   13.5883   -0.5911   -0.5815 H   0  0  0  0  0
   12.0552   13.9093   -5.5284 H   0  0  0  0  0
   12.9409   15.0848   -6.5309 H   0  0  0  0  0
   12.4270   13.5288   -7.2278 H   0  0  0  0  0
  1  2  4  0  0  0
  1  6  4  0  0  0
  1  7  1  0  0  0
  2  3  4  0  0  0
  2  9  1  0  0  0
  3  4  4  0  0  0
  4  5  4  0  0  0
  4 20  1  0  0  0
  5  6  4  0  0  0
  5 42  1  0  0  0
  7  8  1  0  0  0
  9 10  1  0  0  0
  9 11  2  0  0  0
 10 12  1  0  0  0
 10 16  1  0  0  0
 12 13  1  0  0  0
 13 14  1  0  0  0
 14 15  1  0  0  0
 14 17  1  0  0  0
 15 16  1  0  0  0
 17 18  1  0  0  0
 17 19  2  0  0  0
 20 22  1  0  0  0
 22 21  4  0  0  0
 21 25  4  0  0  0
 22 23  4  0  0  0
 23 24  4  0  0  0
 24 25  4  0  0  0
 24 26  1  0  0  0
 26 27  1  0  0  0
 27 28  1  0  0  0
 27 34  2  0  0  0
 28 29  4  0  0  0
 28 33  4  0  0  0
 29 30  4  0  0  0
 30 31  4  0  0  0
 31 32  4  0  0  0
 31 35  1  0  0  0
 32 33  4  0  0  0
 35 36  1  0  0  0
 36 37  1  0  0  0
 37 38  1  0  0  0
 37 43  1  0  0  0
 38 39  1  0  0  0
 38 40  1  0  0  0
 38 41  1  0  0  0
  3 44  1  0  0  0
  6 45  1  0  0  0
  8 46  1  0  0  0
  8 47  1  0  0  0
  8 48  1  0  0  0
 12 49  1  0  0  0
 12 50  1  0  0  0
 13 51  1  0  0  0
 13 52  1  0  0  0
 15 53  1  0  0  0
 15 54  1  0  0  0
 16 55  1  0  0  0
 16 56  1  0  0  0
 18 57  1  0  0  0
 18 58  1  0  0  0
 18 59  1  0  0  0
 21 60  1  0  0  0
 26 61  1  0  0  0
 29 62  1  0  0  0
 30 63  1  0  0  0
 32 64  1  0  0  0
 33 65  1  0  0  0
 35 66  1  0  0  0
 35 67  1  0  0  0
 36 68  1  0  0  0
 36 69  1  0  0  0
 37 70  1  0  0  0
 39 71  1  0  0  0
 39 72  1  0  0  0
 39 73  1  0  0  0
 40 74  1  0  0  0
 40 75  1  0  0  0
 40 76  1  0  0  0
 41 77  1  0  0  0
 41 78  1  0  0  0
 41 79  1  0  0  0
 42 80  1  0  0  0
 42 81  1  0  0  0
 42 82  1  0  0  0
 43 83  1  0  0  0
 43 84  1  0  0  0
 43 85  1  0  0  0
M  END
$$$$
