6bln_ligand
  -I-interpret- 

 57 61  0  0  0  0  0  0  0  0999 V2000
   -5.9250  -45.3270  -10.4730 C   0  0  0  0  0
   -6.1490  -45.9310   -9.2380 C   0  0  0  0  0
   -7.7760  -43.8390   -9.9710 C   0  0  0  0  0
   -4.4240  -44.6810  -14.4270 N   0  0  0  0  0
   -5.2660  -47.0300   -8.7580 C   0  0  0  0  0
   -4.8560  -47.0840   -7.4230 C   0  0  0  0  0
   -4.9440  -44.7640  -13.1640 N   0  0  0  0  0
   -4.0000  -48.0970   -6.9920 C   0  0  0  0  0
   -3.9490  -49.1710   -4.8300 C   0  0  0  0  0
   -3.5650  -49.1980   -3.3870 C   0  0  0  0  0
   -2.8450  -48.3630   -2.6920 C   0  0  0  0  0
   -6.6580  -43.5630  -12.0580 N   0  0  0  0  0
   -2.7030  -48.6540   -1.4300 C   0  0  0  0  0
   -3.3730  -49.7730   -1.1070 C   0  0  0  0  0
   -3.4230  -50.3840    0.2790 C   0  0  0  0  0
   -7.1170  -45.5010   -8.4280 N   0  0  0  0  0
   -3.3270  -45.6140  -14.7650 C   0  0  0  0  0
   -2.2950  -49.8230    1.1380 C   0  0  0  0  0
   -2.2740  -48.3000    1.0240 C   0  0  0  0  0
   -1.9190  -47.8490   -0.3860 C   0  0  0  0  0
   -3.5560  -48.9990   -7.9100 C   0  0  0  0  0
   -5.8890  -43.8230  -13.1640 C   0  0  0  0  0
   -3.9100  -48.9590   -9.2320 C   0  0  0  0  0
   -4.7640  -47.9530   -9.6610 C   0  0  0  0  0
   -5.9790  -43.1270  -14.3610 C   0  0  0  0  0
   -4.9880  -43.7060  -15.1160 C   0  0  0  0  0
   -4.7110  -43.1760  -16.5060 C   0  0  0  0  0
   -6.7420  -44.2760  -10.8960 C   0  0  0  0  0
   -5.2950  -46.2090   -6.5260 F   0  0  0  0  0
   -2.7040  -49.9600   -7.4800 F   0  0  0  0  0
   -7.9600  -44.4540   -8.8160 N   0  0  0  0  0
   -3.6210  -48.1450   -5.6240 N   0  0  0  0  0
   -8.5520  -42.8960  -10.2980 O   0  0  0  0  0
   -4.6030  -50.0980   -5.3200 O   0  0  0  0  0
   -4.1590  -50.4500   -2.4270 S   0  0  0  0  0
   -5.1116  -45.6748  -11.1098 H   0  0  0  0  0
   -2.3908  -47.4781   -3.1379 H   0  0  0  0  0
   -7.2429  -42.7290  -12.1102 H   0  0  0  0  0
   -3.3085  -51.4650    0.1984 H   0  0  0  0  0
   -4.3799  -50.1435    0.7423 H   0  0  0  0  0
   -2.4876  -45.4454  -14.0905 H   0  0  0  0  0
   -3.6791  -46.6402  -14.6595 H   0  0  0  0  0
   -3.0089  -45.4415  -15.7932 H   0  0  0  0  0
   -1.3424  -50.2254    0.7933 H   0  0  0  0  0
   -2.4562  -50.1064    2.1781 H   0  0  0  0  0
   -1.5198  -47.9135    1.7095 H   0  0  0  0  0
   -3.2674  -47.9226    1.2667 H   0  0  0  0  0
   -2.1737  -46.7945   -0.4919 H   0  0  0  0  0
   -0.8529  -48.0085   -0.5477 H   0  0  0  0  0
   -3.5290  -49.7018   -9.9328 H   0  0  0  0  0
   -5.0411  -47.8887  -10.7132 H   0  0  0  0  0
   -6.6633  -42.3236  -14.6335 H   0  0  0  0  0
   -3.6828  -42.8182  -16.5588 H   0  0  0  0  0
   -4.8570  -43.9743  -17.2336 H   0  0  0  0  0
   -5.3944  -42.3551  -16.7233 H   0  0  0  0  0
   -6.2000  -44.8645  -11.6363 H   0  0  0  0  0
   -3.0813  -47.3723   -5.2341 H   0  0  0  0  0
  1  2  2  0  0  0
 28  1  1  0  0  0
  2  5  1  0  0  0
  2 16  1  0  0  0
 28  3  1  0  0  0
  3 31  1  0  0  0
  3 33  2  0  0  0
  7  4  4  0  0  0
  4 17  1  0  0  0
  4 26  4  0  0  0
  5  6  4  0  0  0
  5 24  4  0  0  0
  6  8  4  0  0  0
  6 29  1  0  0  0
 22  7  4  0  0  0
  8 21  4  0  0  0
  8 32  1  0  0  0
  9 10  1  0  0  0
 32  9  1  0  0  0
  9 34  2  0  0  0
 10 11  4  0  0  0
 10 35  4  0  0  0
 11 13  4  0  0  0
 12 22  1  0  0  0
 12 28  1  0  0  0
 13 14  4  0  0  0
 13 20  1  0  0  0
 14 15  1  0  0  0
 14 35  4  0  0  0
 15 18  1  0  0  0
 16 31  2  0  0  0
 18 19  1  0  0  0
 19 20  1  0  0  0
 21 23  4  0  0  0
 21 30  1  0  0  0
 22 25  4  0  0  0
 23 24  4  0  0  0
 25 26  4  0  0  0
 26 27  1  0  0  0
  1 36  1  0  0  0
 11 37  1  0  0  0
 12 38  1  0  0  0
 15 39  1  0  0  0
 15 40  1  0  0  0
 17 41  1  0  0  0
 17 42  1  0  0  0
 17 43  1  0  0  0
 18 44  1  0  0  0
 18 45  1  0  0  0
 19 46  1  0  0  0
 19 47  1  0  0  0
 20 48  1  0  0  0
 20 49  1  0  0  0
 23 50  1  0  0  0
 24 51  1  0  0  0
 25 52  1  0  0  0
 27 53  1  0  0  0
 27 54  1  0  0  0
 27 55  1  0  0  0
 28 56  1  0  0  0
 32 57  1  0  0  0
M  END
$$$$
