6imr_ligand
  -I-interpret- 

 53 56  0  0  0  0  0  0  0  0999 V2000
   82.8840   77.1030   24.6480 C   0  0  0  0  0
   84.1700   76.6810   28.2010 C   0  0  0  0  0
   82.2850   78.1390   25.3430 C   0  0  0  0  0
   81.4620   79.0390   24.6830 C   0  0  0  0  0
   84.0170   75.0220   23.3400 C   0  0  0  0  0
   82.6900   78.2660   26.7670 C   0  0  0  0  0
   80.6360   79.6550   26.9010 C   0  0  0  0  0
   80.8430   80.1470   25.4830 C   0  0  0  0  0
   81.0860   78.4690   20.4190 C   0  0  0  0  0
   82.4100   79.8640   28.6120 C   0  0  0  0  0
   82.8790   76.8760   27.3990 C   0  0  0  0  0
   81.9160   79.2740   27.5020 N   0  0  0  0  0
   80.6930   77.1530   30.6340 N   0  0  0  0  0
   82.6440   76.9320   23.3190 C   0  0  0  0  0
   81.2120   78.8650   23.3080 C   0  0  0  0  0
   83.8970   75.7830   29.4030 C   0  0  0  0  0
   82.5350   76.0640   29.9590 C   0  0  0  0  0
   81.9690   77.2860   30.1770 C   0  0  0  0  0
   80.4000   75.8210   30.7460 C   0  0  0  0  0
   81.5360   75.0940   30.3240 C   0  0  0  0  0
   81.8070   77.8190   22.6250 C   0  0  0  0  0
   79.2350   75.2020   31.1900 C   0  0  0  0  0
   79.2280   73.8280   31.1980 C   0  0  0  0  0
   80.3370   73.0860   30.7910 C   0  0  0  0  0
   81.4880   73.6970   30.3460 C   0  0  0  0  0
   81.6980   77.5200   21.2920 O   0  0  0  0  0
   83.2030   75.9260   22.5980 O   0  0  0  0  0
   82.0380   80.9450   29.0330 O   0  0  0  0  0
   83.5534   76.4184   25.1689 H   0  0  0  0  0
   84.5300   77.6496   28.5477 H   0  0  0  0  0
   84.9235   76.2155   27.5657 H   0  0  0  0  0
   84.8410   75.5692   23.7979 H   0  0  0  0  0
   83.4169   74.5489   24.1173 H   0  0  0  0  0
   84.4136   74.2588   22.6704 H   0  0  0  0  0
   83.6833   78.7096   26.8359 H   0  0  0  0  0
   79.9799   78.7848   26.8823 H   0  0  0  0  0
   80.1905   80.4548   27.4925 H   0  0  0  0  0
   79.8873   80.4346   25.0447 H   0  0  0  0  0
   81.4979   81.0184   25.4824 H   0  0  0  0  0
   80.0618   78.6521   20.7440 H   0  0  0  0  0
   81.6494   79.4017   20.4461 H   0  0  0  0  0
   81.0811   78.0754   19.4026 H   0  0  0  0  0
   83.1897   79.3406   29.1653 H   0  0  0  0  0
   82.0561   76.7415   28.1010 H   0  0  0  0  0
   82.9174   76.1644   26.5742 H   0  0  0  0  0
   80.5505   79.5536   22.7824 H   0  0  0  0  0
   84.6440   75.9791   30.1721 H   0  0  0  0  0
   83.9461   74.7406   29.0883 H   0  0  0  0  0
   82.4700   78.2393   30.0083 H   0  0  0  0  0
   78.3698   75.7795   31.5157 H   0  0  0  0  0
   78.3322   73.3039   31.5312 H   0  0  0  0  0
   80.2914   71.9975   30.8260 H   0  0  0  0  0
   82.3424   73.1048   30.0183 H   0  0  0  0  0
  1  3  4  0  0  0
 14  1  4  0  0  0
 11  2  1  0  0  0
  2 16  1  0  0  0
  4  3  4  0  0  0
  3  6  1  0  0  0
  4  8  1  0  0  0
 15  4  4  0  0  0
 27  5  1  0  0  0
  6 11  1  0  0  0
  6 12  1  0  0  0
  8  7  1  0  0  0
  7 12  1  0  0  0
 26  9  1  0  0  0
 12 10  1  0  0  0
 10 28  2  0  0  0
 18 13  4  0  0  0
 19 13  4  0  0  0
 21 14  4  0  0  0
 14 27  1  0  0  0
 21 15  4  0  0  0
 16 17  1  0  0  0
 17 18  4  0  0  0
 17 20  4  0  0  0
 20 19  4  0  0  0
 19 22  4  0  0  0
 20 25  4  0  0  0
 21 26  1  0  0  0
 22 23  4  0  0  0
 23 24  4  0  0  0
 24 25  4  0  0  0
  1 29  1  0  0  0
  2 30  1  0  0  0
  2 31  1  0  0  0
  5 32  1  0  0  0
  5 33  1  0  0  0
  5 34  1  0  0  0
  6 35  1  0  0  0
  7 36  1  0  0  0
  7 37  1  0  0  0
  8 38  1  0  0  0
  8 39  1  0  0  0
  9 40  1  0  0  0
  9 41  1  0  0  0
  9 42  1  0  0  0
 10 43  1  0  0  0
 11 44  1  0  0  0
 11 45  1  0  0  0
 15 46  1  0  0  0
 16 47  1  0  0  0
 16 48  1  0  0  0
 18 49  1  0  0  0
 22 50  1  0  0  0
 23 51  1  0  0  0
 24 52  1  0  0  0
 25 53  1  0  0  0
M  END
$$$$
