5gg4_ligand
  -I-interpret- 

199200  0  0  0  0  0  0  0  0999 V2000
   55.1090    7.8130   54.3860 N   0  3  0  0  0
   53.7720    7.2170   54.0810 C   0  0  0  0  0
   53.6320    5.7880   54.5760 C   0  0  0  0  0
   54.4560    4.9280   54.2530 O   0  0  0  0  0
   52.5840    5.5350   55.3570 N   0  0  0  0  0
   52.3640    4.2230   55.9600 C   0  0  0  0  0
   50.9290    3.7500   55.7810 C   0  0  0  0  0
   50.0330    4.5350   55.4760 O   0  0  0  0  0
   52.7120    4.2580   57.4520 C   0  0  0  0  0
   54.1790    3.9740   57.7740 C   0  0  0  0  0
   54.3360    3.4180   59.1870 C   0  0  0  0  0
   53.7650    2.0690   59.3040 N   0  0  0  0  0
   53.1380    1.5760   60.3770 C   0  0  0  0  0
   52.9670    2.3050   61.4820 N   0  0  0  0  0
   52.6620    0.3340   60.3380 N   0  0  0  0  0
   50.7300    2.4510   55.9740 N   0  0  0  0  0
   49.4040    1.8550   55.9160 C   0  0  0  0  0
   48.7200    1.9780   57.2690 C   0  0  0  0  0
   49.3720    1.9080   58.3110 O   0  0  0  0  0
   49.5000    0.3830   55.5320 C   0  0  0  0  0
   50.0400    0.1500   54.1330 C   0  0  0  0  0
   51.1500   -0.8880   54.1130 C   0  0  0  0  0
   50.6200   -2.2790   54.3860 C   0  0  0  0  0
   51.7040   -3.2990   54.3330 N   0  3  0  0  0
   47.4030    2.1680   57.2440 N   0  0  0  0  0
   46.5930    2.1160   58.4500 C   0  0  0  0  0
   46.5470    0.6960   58.9760 C   0  0  0  0  0
   46.8680   -0.2480   58.2650 O   0  0  0  0  0
   45.1720    2.6030   58.1740 C   0  0  0  0  0
   44.9150    4.0430   58.5800 C   0  0  0  0  0
   45.3960    5.0610   57.5610 C   0  0  0  0  0
   44.7910    6.3620   57.8510 N   0  0  0  0  0
   44.7550    7.4040   57.0200 C   0  0  0  0  0
   45.3030    7.3360   55.8090 N   0  0  0  0  0
   44.1630    8.5310   57.4120 N   0  0  0  0  0
   46.0180    0.5400   60.1750 N   0  0  0  0  0
   45.8940   -0.7600   60.7880 C   0  0  0  0  0
   44.4750   -1.2380   60.8490 C   0  0  0  0  0
   44.2360   -2.4170   60.9040 O   0  0  0  0  0
   46.3870   -0.7040   62.2110 C   0  0  0  0  0
   47.8610   -0.5480   62.3350 C   0  0  0  0  0
   48.7440   -1.5130   61.9240 N   0  0  0  0  0
   48.6060    0.4570   62.8340 C   0  0  0  0  0
   49.9730   -1.1050   62.1540 C   0  0  0  0  0
   49.9160    0.0890   62.7060 N   0  0  0  0  0
   43.5500   -0.2950   60.9320 N   0  0  0  0  0
   42.1470   -0.6140   61.0990 C   0  0  0  0  0
   41.3390    0.3990   60.3210 C   0  0  0  0  0
   41.8100    1.5000   60.0370 O   0  0  0  0  0
   41.7590   -0.5770   62.5780 C   0  0  0  0  0
   40.7080   -1.9490   63.1090 S   0  0  0  0  0
   40.1200    0.0220   59.9700 N   0  0  0  0  0
   39.2870    0.8820   59.1610 C   0  0  0  0  0
   38.4340    1.8190   59.9900 C   0  0  0  0  0
   38.5190    1.8440   61.1970 O   0  0  0  0  0
   38.4020    0.0340   58.2970 C   0  0  0  0  0
   39.1700   -0.7410   57.2650 C   0  0  0  0  0
   39.1480   -0.0480   55.9320 C   0  0  0  0  0
   40.5090   -0.0730   55.2890 C   0  0  0  0  0
   40.4250    0.0530   53.8220 N   0  3  0  0  0
   37.6230    2.6360   59.3420 N   0  0  0  0  0
   36.6950    3.5050   60.0550 C   0  0  0  0  0
   35.6780    4.2460   59.1570 C   0  0  0  0  0
   35.9540    5.2940   58.6270 O   0  0  0  0  0
   37.4270    4.4880   60.9730 C   0  0  0  0  0
   38.3440    3.7970   61.8180 O   0  0  0  0  0
   36.4460    5.1550   61.8380 C   0  0  0  0  0
   34.4950    3.6660   59.0180 N   0  0  0  0  0
   33.3280    4.2450   58.3090 C   0  0  0  0  0
   32.1680    3.2300   58.3690 C   0  0  0  0  0
   31.8720    2.5270   57.4000 O   0  0  0  0  0
   33.6750    4.6020   56.8650 C   0  0  0  0  0
   32.5000    5.0240   55.9820 C   0  0  0  0  0
   32.9000    6.1380   55.0330 C   0  0  0  0  0
   34.1510    5.7680   54.2600 C   0  0  0  0  0
   34.9060    6.9640   53.8060 N   0  3  0  0  0
   31.4930    3.2030   59.5140 N   0  0  0  0  0
   30.8660    1.9830   60.0250 C   0  0  0  0  0
   29.4200    1.6670   59.6820 C   0  0  0  0  0
   28.6350    2.5430   59.3180 O   0  0  0  0  0
   30.9590    1.9930   61.5430 C   0  0  0  0  0
   32.3580    2.0230   62.0540 C   0  0  0  0  0
   33.3790    1.3160   61.4600 N   0  0  0  0  0
   32.9040    2.6550   63.1180 C   0  0  0  0  0
   34.4990    1.5230   62.1270 C   0  0  0  0  0
   34.2380    2.3300   63.1390 N   0  0  0  0  0
   29.0980    0.3770   59.8320 N   0  0  0  0  0
   27.7210   -0.1150   59.9040 C   0  0  0  0  0
   27.3400   -0.1710   61.3720 C   0  0  0  0  0
   28.0970   -0.7040   62.1810 O   0  0  0  0  0
   27.5850   -1.5230   59.3020 C   0  0  0  0  0
   27.7070   -1.7340   57.7860 C   0  0  0  0  0
   27.5640   -3.2180   57.4740 C   0  0  0  0  0
   26.6880   -0.9300   56.9910 C   0  0  0  0  0
   26.2760    0.3170   61.7470 O   0  0  0  0  0
   55.1429    8.7687   54.0311 H   0  0  0  0  0
   55.2551    7.8186   55.3955 H   0  0  0  0  0
   55.8378    7.2569   53.9388 H   0  0  0  0  0
   53.6528    7.2062   52.9976 H   0  0  0  0  0
   53.0171    7.8189   54.5868 H   0  0  0  0  0
   51.9132    6.2813   55.5402 H   0  0  0  0  0
   53.0179    3.5173   55.4476 H   0  0  0  0  0
   52.1250    3.4754   57.9326 H   0  0  0  0  0
   52.5005    5.2680   57.8030 H   0  0  0  0  0
   54.7379    4.9071   57.7031 H   0  0  0  0  0
   54.5541    3.2354   57.0656 H   0  0  0  0  0
   53.8081    4.0764   59.8768 H   0  0  0  0  0
   55.3995    3.3631   59.4193 H   0  0  0  0  0
   53.8550    1.4544   58.4950 H   0  0  0  0  0
   52.4763    1.9087   62.2836 H   0  0  0  0  0
   53.3270    3.2584   61.5248 H   0  0  0  0  0
   52.7774   -0.2302   59.4961 H   0  0  0  0  0
   51.5324    1.8522   56.1691 H   0  0  0  0  0
   48.8203    2.3836   55.1624 H   0  0  0  0  0
   48.4910   -0.0281   55.5640 H   0  0  0  0  0
   50.1898   -0.0911   56.2302 H   0  0  0  0  0
   50.4486    1.0913   53.7656 H   0  0  0  0  0
   49.2231   -0.2142   53.5100 H   0  0  0  0  0
   51.8702   -0.6359   54.8913 H   0  0  0  0  0
   51.6076   -0.8827   53.1237 H   0  0  0  0  0
   49.8810   -2.5219   53.6225 H   0  0  0  0  0
   50.1840   -2.2915   55.3849 H   0  0  0  0  0
   51.3109   -4.2212   54.5212 H   0  0  0  0  0
   52.1304   -3.2924   53.4064 H   0  0  0  0  0
   52.4104   -3.0794   55.0352 H   0  0  0  0  0
   46.9478    2.3560   56.3508 H   0  0  0  0  0
   47.0462    2.7703   59.1947 H   0  0  0  0  0
   44.4992    1.9790   58.7624 H   0  0  0  0  0
   45.0151    2.5406   57.0972 H   0  0  0  0  0
   45.4638    4.2234   59.5043 H   0  0  0  0  0
   43.8364    4.1658   58.6786 H   0  0  0  0  0
   45.1062    4.7396   56.5606 H   0  0  0  0  0
   46.4815    5.1443   57.6141 H   0  0  0  0  0
   44.3599    6.4817   58.7676 H   0  0  0  0  0
   45.7600    6.4768   55.5035 H   0  0  0  0  0
   44.1316    9.3352   56.7854 H   0  0  0  0  0
   43.7411    8.5898   58.3388 H   0  0  0  0  0
   45.6878    1.3611   60.6821 H   0  0  0  0  0
   46.4811   -1.4412   60.1720 H   0  0  0  0  0
   46.1212   -1.6500   62.6827 H   0  0  0  0  0
   45.9292    0.1682   62.6777 H   0  0  0  0  0
   48.2340    1.3888   63.2599 H   0  0  0  0  0
   50.8830   -1.6603   61.9266 H   0  0  0  0  0
   43.8329    0.6834   60.8768 H   0  0  0  0  0
   41.9487   -1.6197   60.7285 H   0  0  0  0  0
   41.1922    0.3403   62.7371 H   0  0  0  0  0
   42.6829   -0.6408   63.1528 H   0  0  0  0  0
   40.4325   -1.8191   64.4037 H   0  0  0  0  0
   39.7649   -0.8847   60.2736 H   0  0  0  0  0
   39.9468    1.5016   58.5536 H   0  0  0  0  0
   37.7119    0.6957   57.7735 H   0  0  0  0  0
   37.8914   -0.6816   58.9415 H   0  0  0  0  0
   38.7078   -1.7218   57.1533 H   0  0  0  0  0
   40.2055   -0.8254   57.5947 H   0  0  0  0  0
   38.8510    0.9900   56.0821 H   0  0  0  0  0
   38.4436   -0.5651   55.2804 H   0  0  0  0  0
   40.9812   -1.0269   55.5241 H   0  0  0  0  0
   41.0843    0.7696   55.6725 H   0  0  0  0  0
   41.3647    0.0318   53.4258 H   0  0  0  0  0
   39.8786   -0.7220   53.4461 H   0  0  0  0  0
   39.9738    0.9360   53.5831 H   0  0  0  0  0
   37.6467    2.6592   58.3225 H   0  0  0  0  0
   36.1023    2.8237   60.6655 H   0  0  0  0  0
   37.9635    5.2052   60.3518 H   0  0  0  0  0
   38.7927    4.4283   62.3853 H   0  0  0  0  0
   35.7263    5.6933   61.2212 H   0  0  0  0  0
   35.9257    4.4085   62.4380 H   0  0  0  0  0
   36.9603    5.8567   62.4947 H   0  0  0  0  0
   34.3766    2.7423   59.4341 H   0  0  0  0  0
   33.0296    5.1729   58.7970 H   0  0  0  0  0
   34.0884    3.6990   56.4158 H   0  0  0  0  0
   34.3468    5.4590   56.9131 H   0  0  0  0  0
   31.6951    5.3846   56.6225 H   0  0  0  0  0
   32.1800    4.1639   55.3939 H   0  0  0  0  0
   33.1007    7.0381   55.6141 H   0  0  0  0  0
   32.0875    6.3043   54.3257 H   0  0  0  0  0
   33.8494    5.2030   53.3780 H   0  0  0  0  0
   34.7978    5.1894   54.9195 H   0  0  0  0  0
   35.7357    6.6662   53.2929 H   0  0  0  0  0
   34.3128    7.5283   53.1976 H   0  0  0  0  0
   35.1861    7.5158   54.6169 H   0  0  0  0  0
   31.4090    4.0631   60.0558 H   0  0  0  0  0
   31.4320    1.2090   59.5067 H   0  0  0  0  0
   30.4983    1.0739   61.9049 H   0  0  0  0  0
   30.4628    2.8974   61.8951 H   0  0  0  0  0
   32.3833    3.3005   63.8253 H   0  0  0  0  0
   35.4736    1.0998   61.8838 H   0  0  0  0  0
   29.8555   -0.3027   59.9001 H   0  0  0  0  0
   27.0719    0.5510   59.3354 H   0  0  0  0  0
   28.8754   -1.0293   61.7229 H   0  0  0  0  0
   26.5614   -1.8174   59.5336 H   0  0  0  0  0
   28.4256   -2.0771   59.7198 H   0  0  0  0  0
   28.6901   -1.3740   57.4825 H   0  0  0  0  0
   28.3503   -3.7730   57.9857 H   0  0  0  0  0
   26.5896   -3.5675   57.8154 H   0  0  0  0  0
   27.6501   -3.3718   56.3983 H   0  0  0  0  0
   25.6819   -1.2263   57.2877 H   0  0  0  0  0
   26.8292    0.1321   57.1910 H   0  0  0  0  0
   26.8258   -1.1221   55.9269 H   0  0  0  0  0
  1  2  1  0  0  0
  2  3  1  0  0  0
  3  4  2  0  0  0
  3  5  1  0  0  0
  5  6  1  0  0  0
  6  7  1  0  0  0
  6  9  1  0  0  0
  7  8  2  0  0  0
  7 16  1  0  0  0
  9 10  1  0  0  0
 10 11  1  0  0  0
 11 12  1  0  0  0
 12 13  1  0  0  0
 13 14  1  0  0  0
 13 15  2  0  0  0
 16 17  1  0  0  0
 17 18  1  0  0  0
 17 20  1  0  0  0
 18 19  2  0  0  0
 18 25  1  0  0  0
 20 21  1  0  0  0
 21 22  1  0  0  0
 22 23  1  0  0  0
 23 24  1  0  0  0
 25 26  1  0  0  0
 26 27  1  0  0  0
 26 29  1  0  0  0
 27 28  2  0  0  0
 27 36  1  0  0  0
 29 30  1  0  0  0
 30 31  1  0  0  0
 31 32  1  0  0  0
 32 33  1  0  0  0
 33 34  2  0  0  0
 33 35  1  0  0  0
 36 37  1  0  0  0
 37 38  1  0  0  0
 37 40  1  0  0  0
 38 39  2  0  0  0
 38 46  1  0  0  0
 40 41  1  0  0  0
 41 42  4  0  0  0
 41 43  4  0  0  0
 42 44  4  0  0  0
 43 45  4  0  0  0
 44 45  4  0  0  0
 46 47  1  0  0  0
 47 48  1  0  0  0
 47 50  1  0  0  0
 48 49  2  0  0  0
 48 52  1  0  0  0
 50 51  1  0  0  0
 52 53  1  0  0  0
 53 54  1  0  0  0
 53 56  1  0  0  0
 54 55  2  0  0  0
 54 61  1  0  0  0
 56 57  1  0  0  0
 57 58  1  0  0  0
 58 59  1  0  0  0
 59 60  1  0  0  0
 61 62  1  0  0  0
 62 63  1  0  0  0
 62 65  1  0  0  0
 63 64  2  0  0  0
 63 68  1  0  0  0
 65 66  1  0  0  0
 65 67  1  0  0  0
 68 69  1  0  0  0
 69 70  1  0  0  0
 69 72  1  0  0  0
 70 71  2  0  0  0
 70 77  1  0  0  0
 72 73  1  0  0  0
 73 74  1  0  0  0
 74 75  1  0  0  0
 75 76  1  0  0  0
 77 78  1  0  0  0
 78 79  1  0  0  0
 78 81  1  0  0  0
 79 80  2  0  0  0
 79 87  1  0  0  0
 81 82  1  0  0  0
 82 83  4  0  0  0
 82 84  4  0  0  0
 83 85  4  0  0  0
 84 86  4  0  0  0
 85 86  4  0  0  0
 87 88  1  0  0  0
 88 89  1  0  0  0
 88 91  1  0  0  0
 89 90  1  0  0  0
 89 95  2  0  0  0
 91 92  1  0  0  0
 92 93  1  0  0  0
 92 94  1  0  0  0
  1 96  1  0  0  0
  1 97  1  0  0  0
  1 98  1  0  0  0
  2 99  1  0  0  0
  2100  1  0  0  0
  5101  1  0  0  0
  6102  1  0  0  0
  9103  1  0  0  0
  9104  1  0  0  0
 10105  1  0  0  0
 10106  1  0  0  0
 11107  1  0  0  0
 11108  1  0  0  0
 12109  1  0  0  0
 14110  1  0  0  0
 14111  1  0  0  0
 15112  1  0  0  0
 16113  1  0  0  0
 17114  1  0  0  0
 20115  1  0  0  0
 20116  1  0  0  0
 21117  1  0  0  0
 21118  1  0  0  0
 22119  1  0  0  0
 22120  1  0  0  0
 23121  1  0  0  0
 23122  1  0  0  0
 24123  1  0  0  0
 24124  1  0  0  0
 24125  1  0  0  0
 25126  1  0  0  0
 26127  1  0  0  0
 29128  1  0  0  0
 29129  1  0  0  0
 30130  1  0  0  0
 30131  1  0  0  0
 31132  1  0  0  0
 31133  1  0  0  0
 32134  1  0  0  0
 34135  1  0  0  0
 35136  1  0  0  0
 35137  1  0  0  0
 36138  1  0  0  0
 37139  1  0  0  0
 40140  1  0  0  0
 40141  1  0  0  0
 43142  1  0  0  0
 44143  1  0  0  0
 46144  1  0  0  0
 47145  1  0  0  0
 50146  1  0  0  0
 50147  1  0  0  0
 51148  1  0  0  0
 52149  1  0  0  0
 53150  1  0  0  0
 56151  1  0  0  0
 56152  1  0  0  0
 57153  1  0  0  0
 57154  1  0  0  0
 58155  1  0  0  0
 58156  1  0  0  0
 59157  1  0  0  0
 59158  1  0  0  0
 60159  1  0  0  0
 60160  1  0  0  0
 60161  1  0  0  0
 61162  1  0  0  0
 62163  1  0  0  0
 65164  1  0  0  0
 66165  1  0  0  0
 67166  1  0  0  0
 67167  1  0  0  0
 67168  1  0  0  0
 68169  1  0  0  0
 69170  1  0  0  0
 72171  1  0  0  0
 72172  1  0  0  0
 73173  1  0  0  0
 73174  1  0  0  0
 74175  1  0  0  0
 74176  1  0  0  0
 75177  1  0  0  0
 75178  1  0  0  0
 76179  1  0  0  0
 76180  1  0  0  0
 76181  1  0  0  0
 77182  1  0  0  0
 78183  1  0  0  0
 81184  1  0  0  0
 81185  1  0  0  0
 84186  1  0  0  0
 85187  1  0  0  0
 87188  1  0  0  0
 88189  1  0  0  0
 90190  1  0  0  0
 91191  1  0  0  0
 91192  1  0  0  0
 92193  1  0  0  0
 93194  1  0  0  0
 93195  1  0  0  0
 93196  1  0  0  0
 94197  1  0  0  0
 94198  1  0  0  0
 94199  1  0  0  0
M  END
$$$$
