### 
### Created by X-TOOL on Mon Sep 10 21:13:34 2018
### 

@<TRIPOS>MOLECULE
5gg4_ligand
  202   203     1     0     0
SMALL
GAST_HUCK


@<TRIPOS>ATOM
      1 N          55.1090    7.8130   54.3860 N.4       1 GLY         0.2357
      2 CA         53.7720    7.2170   54.0810 C.3       1 GLY         0.0545
      3 C          53.6320    5.7880   54.5760 C.2       1 GLY         0.2236
      4 O          54.4560    4.9280   54.2530 O.2       1 GLY        -0.3910
      5 N          52.5840    5.5350   55.3570 N.am      1 ARG        -0.2613
      6 CA         52.3640    4.2230   55.9600 C.3       1 ARG         0.1312
      7 C          50.9290    3.7500   55.7810 C.2       1 ARG         0.2039
      8 O          50.0330    4.5350   55.4760 O.2       1 ARG        -0.3944
      9 CB         52.7120    4.2580   57.4520 C.3       1 ARG        -0.0092
     10 CG         54.1790    3.9740   57.7740 C.3       1 ARG        -0.0156
     11 CD         54.3360    3.4180   59.1870 C.3       1 ARG         0.0627
     12 NE         53.7650    2.0690   59.3040 N.pl3     1 ARG        -0.2723
     13 CZ         53.1380    1.5760   60.3770 C.cat     1 ARG         0.2882
     14 NH1        52.9670    2.3050   61.4820 N.pl3     1 ARG        -0.2849
     15 NH2        52.6620    0.3340   60.3380 N.pl3     1 ARG        -0.2849
     16 N          50.7300    2.4510   55.9740 N.am      1 LYS        -0.2637
     17 CA         49.4040    1.8550   55.9160 C.3       1 LYS         0.1310
     18 C          48.7200    1.9780   57.2690 C.2       1 LYS         0.2039
     19 O          49.3720    1.9080   58.3110 O.2       1 LYS        -0.3944
     20 CB         49.5000    0.3830   55.5320 C.3       1 LYS        -0.0122
     21 CG         50.0400    0.1500   54.1330 C.3       1 LYS        -0.0440
     22 CD         51.1500   -0.8880   54.1130 C.3       1 LYS        -0.0124
     23 CE         50.6200   -2.2790   54.3860 C.3       1 LYS        -0.0354
     24 NZ         51.7040   -3.2990   54.3330 N.4       1 LYS         0.2185
     25 N          47.4030    2.1680   57.2440 N.am      1 ARG        -0.2637
     26 CA         46.5930    2.1160   58.4500 C.3       1 ARG         0.1311
     27 C          46.5470    0.6960   58.9760 C.2       1 ARG         0.2040
     28 O          46.8680   -0.2480   58.2650 O.2       1 ARG        -0.3944
     29 CB         45.1720    2.6030   58.1740 C.3       1 ARG        -0.0092
     30 CG         44.9150    4.0430   58.5800 C.3       1 ARG        -0.0156
     31 CD         45.3960    5.0610   57.5610 C.3       1 ARG         0.0627
     32 NE         44.7910    6.3620   57.8510 N.pl3     1 ARG        -0.2723
     33 CZ         44.7550    7.4040   57.0200 C.cat     1 ARG         0.2882
     34 NH1        45.3030    7.3360   55.8090 N.pl3     1 ARG        -0.2849
     35 NH2        44.1630    8.5310   57.4120 N.pl3     1 ARG        -0.2849
     36 N          46.0180    0.5400   60.1750 N.am      1 HIS        -0.2625
     37 CA         45.8940   -0.7600   60.7880 C.3       1 HIS         0.1369
     38 C          44.4750   -1.2380   60.8490 C.2       1 HIS         0.2054
     39 O          44.2360   -2.4170   60.9040 O.2       1 HIS        -0.3942
     40 CB         46.3870   -0.7040   62.2110 C.3       1 HIS         0.0145
     41 CG         47.8610   -0.5480   62.3350 C.2       1 HIS        -0.0027
     42 ND1        48.7440   -1.5130   61.9240 N.2       1 HIS        -0.3252
     43 CD2        48.6060    0.4570   62.8340 C.2       1 HIS         0.0291
     44 CE1        49.9730   -1.1050   62.1540 C.2       1 HIS         0.0907
     45 NE2        49.9160    0.0890   62.7060 N.pl3     1 HIS        -0.2752
     46 N          43.5500   -0.2950   60.9320 N.am      1 CYS        -0.2628
     47 CA         42.1470   -0.6140   61.0990 C.3       1 CYS         0.1396
     48 C          41.3390    0.3990   60.3210 C.2       1 CYS         0.2047
     49 O          41.8100    1.5000   60.0370 O.2       1 CYS        -0.3944
     50 CB         41.7590   -0.5770   62.5780 C.3       1 CYS         0.0311
     51 SG         40.7080   -1.9490   63.1090 S.3       1 CYS        -0.1735
     52 N          40.1200    0.0220   59.9700 N.am      1 LYS        -0.2637
     53 CA         39.2870    0.8820   59.1610 C.3       1 LYS         0.1310
     54 C          38.4340    1.8190   59.9900 C.2       1 LYS         0.2040
     55 O          38.5190    1.8440   61.1970 O.2       1 LYS        -0.3944
     56 CB         38.4020    0.0340   58.2970 C.3       1 LYS        -0.0122
     57 CG         39.1700   -0.7410   57.2650 C.3       1 LYS        -0.0440
     58 CD         39.1480   -0.0480   55.9320 C.3       1 LYS        -0.0124
     59 CE         40.5090   -0.0730   55.2890 C.3       1 LYS        -0.0354
     60 NZ         40.4250    0.0530   53.8220 N.4       1 LYS         0.2185
     61 N          37.6230    2.6360   59.3420 N.am      1 THR        -0.2613
     62 CA         36.6950    3.5050   60.0550 C.3       1 THR         0.1565
     63 C          35.6780    4.2460   59.1570 C.2       1 THR         0.2065
     64 O          35.9540    5.2940   58.6270 O.2       1 THR        -0.3943
     65 CB         37.4270    4.4880   60.9730 C.3       1 THR         0.0924
     66 OG1        38.3440    3.7970   61.8180 O.3       1 THR        -0.3874
     67 CG2        36.4460    5.1550   61.8380 C.3       1 THR        -0.0346
     68 N          34.4950    3.6660   59.0180 N.am      1 LYS        -0.2637
     69 CA         33.3280    4.2450   58.3090 C.3       1 LYS         0.1310
     70 C          32.1680    3.2300   58.3690 C.2       1 LYS         0.2040
     71 O          31.8720    2.5270   57.4000 O.2       1 LYS        -0.3944
     72 CB         33.6750    4.6020   56.8650 C.3       1 LYS        -0.0122
     73 CG         32.5000    5.0240   55.9820 C.3       1 LYS        -0.0440
     74 CD         32.9000    6.1380   55.0330 C.3       1 LYS        -0.0124
     75 CE         34.1510    5.7680   54.2600 C.3       1 LYS        -0.0354
     76 NZ         34.9060    6.9640   53.8060 N.4       1 LYS         0.2185
     77 N          31.4930    3.2030   59.5140 N.am      1 HIS        -0.2625
     78 CA         30.8660    1.9830   60.0250 C.3       1 HIS         0.1369
     79 C          29.4200    1.6670   59.6820 C.2       1 HIS         0.2048
     80 O          28.6350    2.5430   59.3180 O.2       1 HIS        -0.3943
     81 CB         30.9590    1.9930   61.5430 C.3       1 HIS         0.0145
     82 CG         32.3580    2.0230   62.0540 C.2       1 HIS        -0.0027
     83 ND1        33.3790    1.3160   61.4600 N.2       1 HIS        -0.3252
     84 CD2        32.9040    2.6550   63.1180 C.2       1 HIS         0.0291
     85 CE1        34.4990    1.5230   62.1270 C.2       1 HIS         0.0907
     86 NE2        34.2380    2.3300   63.1390 N.pl3     1 HIS        -0.2752
     87 N          29.0980    0.3770   59.8320 N.am      1 LEU        -0.2694
     88 CA         27.7210   -0.1150   59.9040 C.3       1 LEU         0.0946
     89 C          27.3400   -0.1710   61.3720 C.2       1 LEU         0.0601
     90 O          28.0970   -0.7040   62.1810 O.co2     1 LEU        -0.5666
     91 CB         27.5850   -1.5230   59.3020 C.3       1 LEU        -0.0156
     92 CG         27.7070   -1.7340   57.7860 C.3       1 LEU        -0.0431
     93 CD1        27.5640   -3.2180   57.4740 C.3       1 LEU        -0.0625
     94 CD2        26.6880   -0.9300   56.9910 C.3       1 LEU        -0.0625
     95 OXT        26.2760    0.3170   61.7470 O.co2     1 LEU        -0.5666
     96 H1         55.1436    8.7575   54.0357 H         1 GLY         0.2012
     97 H2         55.8301    7.2643   53.9445 H         1 GLY         0.2012
     98 H3         55.2546    7.8191   55.3834 H         1 GLY         0.2012
     99 H4         53.6246    7.2263   52.9910 H         1 GLY         0.1061
    100 H5         52.9965    7.8317   54.5612 H         1 GLY         0.1061
    101 H6         51.9264    6.2666   55.5366 H         1 ARG         0.1884
    102 H7         53.0290    3.5019   55.4622 H         1 ARG         0.0800
    103 H8         52.0968    3.5040   57.9648 H         1 ARG         0.0313
    104 H9         52.4642    5.2578   57.8380 H         1 ARG         0.0313
    105 H10        54.7523    4.9091   57.6906 H         1 ARG         0.0301
    106 H11        54.5688    3.2394   57.0540 H         1 ARG         0.0301
    107 H12        53.8208    4.0861   59.8928 H         1 ARG         0.0689
    108 H13        55.4064    3.3755   59.4370 H         1 ARG         0.0689
    109 H14        53.8559    1.4483   58.4870 H         1 ARG         0.2642
    110 H15        52.4803    1.9013   62.2951 H         1 ARG         0.2615
    111 H16        53.3217    3.2712   61.5216 H         1 ARG         0.2615
    112 H17        52.7872   -0.2392   59.4914 H         1 ARG         0.2615
    113 H18        52.1683   -0.0542   61.1544 H         1 ARG         0.2615
    114 H19        51.5166    1.8639   56.1653 H         1 LYS         0.1883
    115 H20        48.8067    2.3855   55.1599 H         1 LYS         0.0800
    116 H21        48.4942   -0.0580   55.5936 H         1 LYS         0.0312
    117 H22        50.1655   -0.1200   56.2490 H         1 LYS         0.0312
    118 H23        50.4355    1.0994   53.7430 H         1 LYS         0.0269
    119 H24        49.2185   -0.1971   53.4891 H         1 LYS         0.0269
    120 H25        51.8919   -0.6316   54.8836 H         1 LYS         0.0317
    121 H26        51.6304   -0.8774   53.1235 H         1 LYS         0.0317
    122 H27        49.8601   -2.5262   53.6301 H         1 LYS         0.0813
    123 H28        50.1619   -2.2966   55.3859 H         1 LYS         0.0813
    124 H29        51.3167   -4.2109   54.5188 H         1 LYS         0.1994
    125 H30        52.4028   -3.0831   55.0266 H         1 LYS         0.1994
    126 H31        52.1261   -3.2935   53.4177 H         1 LYS         0.1994
    127 H32        46.9567    2.3523   56.3683 H         1 ARG         0.1883
    128 H33        47.0493    2.7661   59.2110 H         1 ARG         0.0800
    129 H34        44.4734    1.9590   58.7282 H         1 ARG         0.0313
    130 H35        44.9794    2.5098   57.0950 H         1 ARG         0.0313
    131 H36        45.4331    4.2331   59.5315 H         1 ARG         0.0301
    132 H37        43.8320    4.1764   58.7191 H         1 ARG         0.0301
    133 H38        45.1028    4.7367   56.5516 H         1 ARG         0.0689
    134 H39        46.4914    5.1454   57.6153 H         1 ARG         0.0689
    135 H40        44.3557    6.4829   58.7766 H         1 ARG         0.2642
    136 H41        45.2657    8.1510   55.1803 H         1 ARG         0.2615
    137 H42        45.7644    6.4683   55.5005 H         1 ARG         0.2615
    138 H43        43.7369    8.5904   58.3479 H         1 ARG         0.2615
    139 H44        44.1313    9.3431   56.7792 H         1 ARG         0.2615
    140 H45        45.6943    1.3450   60.6722 H         1 HIS         0.1885
    141 H46        46.4952   -1.4789   60.2120 H         1 HIS         0.0817
    142 H47        46.0943   -1.6367   62.7154 H         1 HIS         0.0420
    143 H48        45.9057    0.1497   62.7105 H         1 HIS         0.0420
    144 H49        48.2343    1.3880   63.2595 H         1 HIS         0.0729
    145 H50        50.8821   -1.6598   61.9268 H         1 HIS         0.1199
    146 H51        50.7273    0.6542   62.9946 H         1 HIS         0.2361
    147 H52        43.8274    0.6642   60.8779 H         1 CYS         0.1884
    148 H53        41.9515   -1.6214   60.7029 H         1 CYS         0.0808
    149 H54        41.2203    0.3629   62.7690 H         1 CYS         0.0422
    150 H55        42.6817   -0.5989   63.1764 H         1 CYS         0.0422
    151 H56        39.8506   -1.9385   62.5791 H         1 CYS         0.1019
    152 H57        39.7719   -0.8669   60.2676 H         1 LYS         0.1883
    153 H58        39.9398    1.4895   58.5170 H         1 LYS         0.0800
    154 H59        37.6819    0.6873   57.7826 H         1 LYS         0.0312
    155 H60        37.8596   -0.6760   58.9386 H         1 LYS         0.0312
    156 H61        38.7191   -1.7385   57.1574 H         1 LYS         0.0269
    157 H62        40.2134   -0.8441   57.5977 H         1 LYS         0.0269
    158 H63        38.8368    0.9973   56.0750 H         1 LYS         0.0317
    159 H64        38.4295   -0.5577   55.2733 H         1 LYS         0.0317
    160 H65        41.0023   -1.0245   55.5368 H         1 LYS         0.0813
    161 H66        41.1048    0.7628   55.6844 H         1 LYS         0.0813
    162 H67        41.3531    0.0322   53.4293 H         1 LYS         0.1994
    163 H68        39.9793    0.9254   53.5846 H         1 LYS         0.1994
    164 H69        39.8853   -0.7124   53.4493 H         1 LYS         0.1994
    165 H70        37.6462    2.6587   58.3425 H         1 THR         0.1884
    166 H71        36.1032    2.8448   60.7061 H         1 THR         0.0826
    167 H72        37.9647    5.2304   60.3650 H         1 THR         0.0639
    168 H73        38.9827    3.3400   61.2835 H         1 THR         0.2101
    169 H74        36.9638    5.8635   62.5012 H         1 THR         0.0257
    170 H75        35.9202    4.4027   62.4442 H         1 THR         0.0257
    171 H76        35.7191    5.6987   61.2167 H         1 THR         0.0257
    172 H77        34.3790    2.7604   59.4260 H         1 LYS         0.1883
    173 H78        33.0206    5.1657   58.8265 H         1 LYS         0.0800
    174 H79        34.1445    3.7209   56.4032 H         1 LYS         0.0312
    175 H80        34.3959    5.4326   56.8868 H         1 LYS         0.0312
    176 H81        31.6780    5.3761   56.6225 H         1 LYS         0.0269
    177 H82        32.1622    4.1569   55.3955 H         1 LYS         0.0269
    178 H83        33.0923    7.0530   55.6125 H         1 LYS         0.0317
    179 H84        32.0789    6.3190   54.3237 H         1 LYS         0.0317
    180 H85        33.8608    5.1771   53.3788 H         1 LYS         0.0813
    181 H86        34.8021    5.1636   54.9086 H         1 LYS         0.0813
    182 H87        35.7263    6.6709   53.2987 H         1 LYS         0.1994
    183 H88        35.1834    7.5101   54.6065 H         1 LYS         0.1994
    184 H89        34.3208    7.5225   53.2046 H         1 LYS         0.1994
    185 H90        31.4107    4.0463   60.0451 H         1 HIS         0.1885
    186 H91        31.4672    1.1468   59.6385 H         1 HIS         0.0817
    187 H92        30.4676    1.0872   61.9276 H         1 HIS         0.0420
    188 H93        30.4326    2.8831   61.9179 H         1 HIS         0.0420
    189 H94        32.3838    3.2999   63.8247 H         1 HIS         0.0729
    190 H95        35.4727    1.1002   61.8840 H         1 HIS         0.1199
    191 H96        34.9239    2.6620   63.8320 H         1 HIS         0.2361
    192 H97        29.8406   -0.2894   59.8988 H         1 LEU         0.1875
    193 H98        27.0549    0.5751   59.3655 H         1 LEU         0.0726
    194 H99        26.5925   -1.8968   59.5940 H         1 LEU         0.0308
    195 H100       28.3630   -2.1434   59.7708 H         1 LEU         0.0308
    196 H101       28.7103   -1.4059   57.4764 H         1 LEU         0.0297
    197 H102       27.6507   -3.3745   56.3886 H         1 LEU         0.0232
    198 H103       26.5810   -3.5720   57.8181 H         1 LEU         0.0232
    199 H104       28.3570   -3.7792   57.9898 H         1 LEU         0.0232
    200 H105       26.8013    0.1389   57.2248 H         1 LEU         0.0232
    201 H106       25.6727   -1.2582   57.2584 H         1 LEU         0.0232
    202 H107       26.8536   -1.0896   55.9153 H         1 LEU         0.0232
@<TRIPOS>BOND
     1    1    2 1  
     2    2    3 1  
     3    3    4 2  
     4    3    5 am 
     5    5    6 1  
     6    6    7 1  
     7    6    9 1  
     8    7    8 2  
     9    7   16 am 
    10    9   10 1  
    11   10   11 1  
    12   11   12 1  
    13   12   13 ar 
    14   13   14 ar 
    15   13   15 ar 
    16   16   17 1  
    17   17   18 1  
    18   17   20 1  
    19   18   19 2  
    20   18   25 am 
    21   20   21 1  
    22   21   22 1  
    23   22   23 1  
    24   23   24 1  
    25   25   26 1  
    26   26   27 1  
    27   26   29 1  
    28   27   28 2  
    29   27   36 am 
    30   29   30 1  
    31   30   31 1  
    32   31   32 1  
    33   32   33 ar 
    34   33   34 ar 
    35   33   35 ar 
    36   36   37 1  
    37   37   38 1  
    38   37   40 1  
    39   38   39 2  
    40   38   46 am 
    41   40   41 1  
    42   41   42 1  
    43   41   43 2  
    44   42   44 2  
    45   43   45 1  
    46   44   45 1  
    47   46   47 1  
    48   47   48 1  
    49   47   50 1  
    50   48   49 2  
    51   48   52 am 
    52   50   51 1  
    53   52   53 1  
    54   53   54 1  
    55   53   56 1  
    56   54   55 2  
    57   54   61 am 
    58   56   57 1  
    59   57   58 1  
    60   58   59 1  
    61   59   60 1  
    62   61   62 1  
    63   62   63 1  
    64   62   65 1  
    65   63   64 2  
    66   63   68 am 
    67   65   66 1  
    68   65   67 1  
    69   68   69 1  
    70   69   70 1  
    71   69   72 1  
    72   70   71 2  
    73   70   77 am 
    74   72   73 1  
    75   73   74 1  
    76   74   75 1  
    77   75   76 1  
    78   77   78 1  
    79   78   79 1  
    80   78   81 1  
    81   79   80 2  
    82   79   87 am 
    83   81   82 1  
    84   82   83 1  
    85   82   84 2  
    86   83   85 2  
    87   84   86 1  
    88   85   86 1  
    89   87   88 1  
    90   88   89 1  
    91   88   91 1  
    92   89   90 ar 
    93   89   95 ar 
    94   91   92 1  
    95   92   93 1  
    96   92   94 1  
    97    1   96 1  
    98    1   97 1  
    99    1   98 1  
   100    2   99 1  
   101    2  100 1  
   102    5  101 1  
   103    6  102 1  
   104    9  103 1  
   105    9  104 1  
   106   10  105 1  
   107   10  106 1  
   108   11  107 1  
   109   11  108 1  
   110   12  109 1  
   111   14  110 1  
   112   14  111 1  
   113   15  112 1  
   114   15  113 1  
   115   16  114 1  
   116   17  115 1  
   117   20  116 1  
   118   20  117 1  
   119   21  118 1  
   120   21  119 1  
   121   22  120 1  
   122   22  121 1  
   123   23  122 1  
   124   23  123 1  
   125   24  124 1  
   126   24  125 1  
   127   24  126 1  
   128   25  127 1  
   129   26  128 1  
   130   29  129 1  
   131   29  130 1  
   132   30  131 1  
   133   30  132 1  
   134   31  133 1  
   135   31  134 1  
   136   32  135 1  
   137   34  136 1  
   138   34  137 1  
   139   35  138 1  
   140   35  139 1  
   141   36  140 1  
   142   37  141 1  
   143   40  142 1  
   144   40  143 1  
   145   43  144 1  
   146   44  145 1  
   147   45  146 1  
   148   46  147 1  
   149   47  148 1  
   150   50  149 1  
   151   50  150 1  
   152   51  151 1  
   153   52  152 1  
   154   53  153 1  
   155   56  154 1  
   156   56  155 1  
   157   57  156 1  
   158   57  157 1  
   159   58  158 1  
   160   58  159 1  
   161   59  160 1  
   162   59  161 1  
   163   60  162 1  
   164   60  163 1  
   165   60  164 1  
   166   61  165 1  
   167   62  166 1  
   168   65  167 1  
   169   66  168 1  
   170   67  169 1  
   171   67  170 1  
   172   67  171 1  
   173   68  172 1  
   174   69  173 1  
   175   72  174 1  
   176   72  175 1  
   177   73  176 1  
   178   73  177 1  
   179   74  178 1  
   180   74  179 1  
   181   75  180 1  
   182   75  181 1  
   183   76  182 1  
   184   76  183 1  
   185   76  184 1  
   186   77  185 1  
   187   78  186 1  
   188   81  187 1  
   189   81  188 1  
   190   84  189 1  
   191   85  190 1  
   192   86  191 1  
   193   87  192 1  
   194   88  193 1  
   195   91  194 1  
   196   91  195 1  
   197   92  196 1  
   198   93  197 1  
   199   93  198 1  
   200   93  199 1  
   201   94  200 1  
   202   94  201 1  
   203   94  202 1  
@<TRIPOS>SUBSTRUCTURE
     1 GLY         1

