6bq0_ligand
  -I-interpret- 

 34 37  0  0  0  0  0  0  0  0999 V2000
  -16.2090  -13.1750  -18.1390 N   0  0  0  0  0
   -6.0760  -11.6500  -17.9250 C   0  0  0  0  0
  -10.8680  -12.2190  -18.1850 N   0  0  0  0  0
   -9.7110  -14.0170  -17.4690 C   0  0  0  0  0
   -8.4720  -11.8980  -18.0040 C   0  0  0  0  0
  -11.7290  -13.2100  -17.9850 C   0  0  0  0  0
  -15.4880  -12.0260  -17.5960 C   0  0  0  0  0
  -11.0230  -14.3790  -17.5220 C   0  0  0  0  0
   -8.5940  -10.5790  -18.4360 C   0  0  0  0  0
   -7.4640   -9.7980  -18.6160 C   0  0  0  0  0
   -6.2360  -10.3580  -18.3610 C   0  0  0  0  0
   -7.2070  -12.4280  -17.7440 C   0  0  0  0  0
   -9.6380  -12.7210  -17.8690 N   0  0  0  0  0
  -13.2030  -13.0650  -18.2640 C   0  0  0  0  0
  -14.1030  -14.0480  -17.5330 C   0  0  0  0  0
  -14.1380  -12.5990  -17.1600 C   0  0  0  0  0
  -15.4150  -14.3980  -18.2280 C   0  0  0  0  0
  -17.5000  -13.1450  -18.5390 C   0  0  0  0  0
  -18.1170  -12.1480  -18.8350 O   0  0  0  0  0
   -5.1250   -9.6030  -18.5710 F   0  0  0  0  0
   -5.0831  -12.0534  -17.7262 H   0  0  0  0  0
   -8.8768  -14.6484  -17.1632 H   0  0  0  0  0
  -16.0226  -11.5596  -16.7684 H   0  0  0  0  0
  -15.3773  -11.2270  -18.3291 H   0  0  0  0  0
  -11.4499  -15.3492  -17.2677 H   0  0  0  0  0
   -9.5810  -10.1605  -18.6328 H   0  0  0  0  0
   -7.5474   -8.7644  -18.9518 H   0  0  0  0  0
   -7.1094  -13.4569  -17.3976 H   0  0  0  0  0
  -13.0338  -12.7430  -19.2915 H   0  0  0  0  0
  -13.9012  -15.0076  -17.0570 H   0  0  0  0  0
  -13.9685  -11.9732  -16.2838 H   0  0  0  0  0
  -15.2610  -14.7127  -19.2602 H   0  0  0  0  0
  -15.9140  -15.2459  -17.7589 H   0  0  0  0  0
  -18.0276  -14.0968  -18.5996 H   0  0  0  0  0
  7  1  1  0  0  0
  1 17  1  0  0  0
  1 18  1  0  0  0
  2 11  4  0  0  0
 12  2  4  0  0  0
  6  3  4  0  0  0
  3 13  4  0  0  0
  8  4  4  0  0  0
  4 13  4  0  0  0
  5  9  4  0  0  0
  5 12  4  0  0  0
 13  5  1  0  0  0
  6  8  4  0  0  0
 14  6  1  0  0  0
 16  7  1  0  0  0
  9 10  4  0  0  0
 10 11  4  0  0  0
 11 20  1  0  0  0
 14 15  1  0  0  0
 14 16  1  0  0  0
 15 16  1  0  0  0
 15 17  1  0  0  0
 18 19  2  0  0  0
  2 21  1  0  0  0
  4 22  1  0  0  0
  7 23  1  0  0  0
  7 24  1  0  0  0
  8 25  1  0  0  0
  9 26  1  0  0  0
 10 27  1  0  0  0
 12 28  1  0  0  0
 14 29  1  0  0  0
 15 30  1  0  0  0
 16 31  1  0  0  0
 17 32  1  0  0  0
 17 33  1  0  0  0
 18 34  1  0  0  0
M  END
$$$$
