6ayo_ligand
  -I-interpret- 

 41 43  0  0  0  0  0  0  0  0999 V2000
  -31.7660    8.3470   94.6880 C   0  0  0  0  0
  -32.2620    9.5450   94.0330 C   0  0  0  0  0
  -31.9840   10.8090   94.7310 C   0  0  0  0  0
  -31.8780    5.7470   93.9840 C   0  0  0  0  0
  -35.0470    6.3220   97.2000 C   0  0  0  0  0
  -36.5780    6.4480   97.0540 C   0  0  0  0  0
  -32.8070    7.8130   92.7610 C   0  0  0  0  0
  -37.3640    6.3340   98.3510 C   0  0  0  0  0
  -33.0110    3.1510   97.1440 O   0  0  0  0  0
  -33.1700    4.5760   97.2090 C   0  0  0  0  0
  -32.0750    5.2040   96.3840 C   0  0  0  0  0
  -32.6110    5.0220   95.0200 N   0  3  0  0  0
  -34.0820    5.2460   95.0870 C   0  0  0  0  0
  -34.4620    5.0500   96.5550 C   0  0  0  0  0
  -32.1530    7.2230   93.8310 C   0  0  0  0  0
  -31.0970    8.3960   95.8660 N   0  0  0  0  0
  -32.8740    9.1690   92.9080 N   0  0  0  0  0
  -32.3990   11.9790   94.2030 N   0  0  0  0  0
  -31.3140   10.7530   95.9100 N   0  0  0  0  0
  -30.8850    9.5880   96.4410 C   0  0  0  0  0
  -32.1833    5.2945   93.0405 H   0  0  0  0  0
  -30.8275    5.6741   94.2654 H   0  0  0  0  0
  -34.8252    6.2768   98.2662 H   0  0  0  0  0
  -34.6010    7.1776   96.6930 H   0  0  0  0  0
  -36.9007    5.6229   96.4191 H   0  0  0  0  0
  -36.7734    7.4438   96.6562 H   0  0  0  0  0
  -33.2153    7.2653   91.9116 H   0  0  0  0  0
  -37.1740    5.3615   98.8052 H   0  0  0  0  0
  -37.0509    7.1231   99.0346 H   0  0  0  0  0
  -38.4284    6.4359   98.1395 H   0  0  0  0  0
  -33.6993    2.7293   97.6636 H   0  0  0  0  0
  -33.1586    4.8499   98.2640 H   0  0  0  0  0
  -31.0942    4.7535   96.5364 H   0  0  0  0  0
  -31.8687    6.2427   96.6420 H   0  0  0  0  0
  -32.4581    4.0665   94.6975 H   0  0  0  0  0
  -34.6202    4.5529   94.4404 H   0  0  0  0  0
  -34.3494    6.2427   94.7361 H   0  0  0  0  0
  -35.2684    4.3276   96.6815 H   0  0  0  0  0
  -32.9065   11.9878   93.3182 H   0  0  0  0  0
  -32.2053   12.8549   94.6885 H   0  0  0  0  0
  -30.3392    9.6185   97.3840 H   0  0  0  0  0
  1  2  4  0  0  0
 15  1  4  0  0  0
  1 16  4  0  0  0
  2  3  4  0  0  0
 17  2  4  0  0  0
  3 18  1  0  0  0
  3 19  4  0  0  0
 12  4  1  0  0  0
  4 15  1  0  0  0
  5  6  1  0  0  0
 14  5  1  0  0  0
  6  8  1  0  0  0
 15  7  4  0  0  0
  7 17  4  0  0  0
 10  9  1  0  0  0
 11 10  1  0  0  0
 10 14  1  0  0  0
 11 12  1  0  0  0
 12 13  1  0  0  0
 13 14  1  0  0  0
 16 20  4  0  0  0
 19 20  4  0  0  0
  4 21  1  0  0  0
  4 22  1  0  0  0
  5 23  1  0  0  0
  5 24  1  0  0  0
  6 25  1  0  0  0
  6 26  1  0  0  0
  7 27  1  0  0  0
  8 28  1  0  0  0
  8 29  1  0  0  0
  8 30  1  0  0  0
  9 31  1  0  0  0
 10 32  1  0  0  0
 11 33  1  0  0  0
 11 34  1  0  0  0
 12 35  1  0  0  0
 13 36  1  0  0  0
 13 37  1  0  0  0
 14 38  1  0  0  0
 18 39  1  0  0  0
 18 40  1  0  0  0
 20 41  1  0  0  0
M  END
$$$$
