### 
### Created by X-TOOL on Mon Sep 10 21:12:57 2018
### 

@<TRIPOS>MOLECULE
2z7h_ligand
   46    46     1     0     0
SMALL
GAST_HUCK


@<TRIPOS>ATOM
      1 C2         29.2020   47.4270    8.0120 C.3       1 GG3        -0.0267
      2 C6         30.9280   48.4100    9.3830 C.3       1 GG3        -0.0320
      3 C7         29.5880   46.1220    7.3130 C.3       1 GG3         0.0479
      4 C8         29.0040   46.1970    5.9010 C.3       1 GG3         0.2095
      5 O16        29.3100   43.5190    5.0770 O.co2     1 GG3        -0.5594
      6 P14        29.8630   44.9970    4.7620 P.3       1 GG3         0.1101
      7 O17        29.3340   45.4200    3.2990 O.co2     1 GG3        -0.5594
      8 O15        31.3390   45.0760    4.8520 O.co2     1 GG3        -0.5594
      9 P9         27.1620   45.8940    5.9230 P.3       1 GG3         0.1101
     10 O11        26.9240   44.3870    6.4390 O.co2     1 GG3        -0.5594
     11 O10        26.7150   45.9160    4.3750 O.co2     1 GG3        -0.5594
     12 O12        26.4210   46.9070    6.7080 O.co2     1 GG3        -0.5594
     13 O13        29.2630   47.5120    5.4030 O.3       1 GG3        -0.3593
     14 N13        29.7840   47.4880    9.3600 N.4       1 GG3         0.2332
     15 C21        28.7470   47.9660   10.2870 C.3       1 GG3        -0.0431
     16 C22        31.9130   48.0770    8.2590 C.3       1 GG3        -0.0107
     17 C26        33.2440   48.8010    8.4730 C.3       1 GG3        -0.0385
     18 C27        33.0650   50.3180    8.5670 C.3       1 GG3        -0.0190
     19 C28        34.4010   50.9860    8.9020 C.ar      1 GG3        -0.0430
     20 C33        34.5750   51.6120   10.1300 C.ar      1 GG3        -0.0603
     21 C32        35.8100   52.1600   10.4630 C.ar      1 GG3        -0.0686
     22 C31        36.8690   52.0840    9.5660 C.ar      1 GG3        -0.0687
     23 C30        36.6930   51.4630    8.3340 C.ar      1 GG3        -0.0686
     24 C29        35.4590   50.9150    8.0020 C.ar      1 GG3        -0.0603
     25 H1         28.1062   47.4845    8.0892 H         1 GG3         0.0816
     26 H2         29.5730   48.2767    7.4201 H         1 GG3         0.0816
     27 H3         31.4424   48.3234   10.3515 H         1 GG3         0.0814
     28 H4         30.5647   49.4399    9.2515 H         1 GG3         0.0814
     29 H5         29.1660   45.2620    7.8536 H         1 GG3         0.0375
     30 H6         30.6827   46.0249    7.2668 H         1 GG3         0.0375
     31 H7         28.9228   47.5874    4.5193 H         1 GG3         0.2133
     32 H8         30.0911   46.5688    9.6373 H         1 GG3         0.2030
     33 H9         27.8916   47.2746   10.2684 H         1 GG3         0.0777
     34 H10        28.4147   48.9687    9.9801 H         1 GG3         0.0777
     35 H11        29.1590   48.0121   11.3059 H         1 GG3         0.0777
     36 H12        31.4821   48.3907    7.2968 H         1 GG3         0.0318
     37 H13        32.0908   46.9916    8.2447 H         1 GG3         0.0318
     38 H14        33.9111   48.5742    7.6283 H         1 GG3         0.0289
     39 H15        33.6987   48.4389    9.4069 H         1 GG3         0.0289
     40 H16        32.3345   50.5499    9.3560 H         1 GG3         0.0426
     41 H17        32.6982   50.7014    7.6035 H         1 GG3         0.0426
     42 H18        33.7486   51.6736   10.8288 H         1 GG3         0.0557
     43 H19        35.9462   52.6463   11.4222 H         1 GG3         0.0599
     44 H20        37.8318   52.5086    9.8265 H         1 GG3         0.0559
     45 H21        37.5177   51.4062    7.6328 H         1 GG3         0.0599
     46 H22        35.3215   50.4322    7.0412 H         1 GG3         0.0557
@<TRIPOS>BOND
     1    1    3 1  
     2    1   14 1  
     3   14    2 1  
     4    2   16 1  
     5    3    4 1  
     6    4    6 1  
     7    4    9 1  
     8    4   13 1  
     9    6    5 ar 
    10    6    7 ar 
    11    6    8 ar 
    12    9   10 ar 
    13    9   11 ar 
    14    9   12 ar 
    15   14   15 1  
    16   16   17 1  
    17   17   18 1  
    18   18   19 1  
    19   19   20 ar 
    20   19   24 ar 
    21   20   21 ar 
    22   21   22 ar 
    23   22   23 ar 
    24   23   24 ar 
    25    1   25 1  
    26    1   26 1  
    27    2   27 1  
    28    2   28 1  
    29    3   29 1  
    30    3   30 1  
    31   13   31 1  
    32   14   32 1  
    33   15   33 1  
    34   15   34 1  
    35   15   35 1  
    36   16   36 1  
    37   16   37 1  
    38   17   38 1  
    39   17   39 1  
    40   18   40 1  
    41   18   41 1  
    42   20   42 1  
    43   21   43 1  
    44   22   44 1  
    45   23   45 1  
    46   24   46 1  
@<TRIPOS>SUBSTRUCTURE
     1 GG3         1

