2z7h_ligand
  -I-interpret- 

 50 50  0  0  0  0  0  0  0  0999 V2000
   29.2020   47.4270    8.0120 C   0  0  0  0  0
   30.9280   48.4100    9.3830 C   0  0  0  0  0
   29.5880   46.1220    7.3130 C   0  0  0  0  0
   29.0040   46.1970    5.9010 C   0  0  0  0  0
   29.3100   43.5190    5.0770 O   0  0  0  0  0
   29.8630   44.9970    4.7620 P   0  0  0  0  0
   29.3340   45.4200    3.2990 O   0  0  0  0  0
   31.3390   45.0760    4.8520 O   0  0  0  0  0
   27.1620   45.8940    5.9230 P   0  0  0  0  0
   26.9240   44.3870    6.4390 O   0  0  0  0  0
   26.7150   45.9160    4.3750 O   0  0  0  0  0
   26.4210   46.9070    6.7080 O   0  0  0  0  0
   29.2630   47.5120    5.4030 O   0  0  0  0  0
   29.7840   47.4880    9.3600 N   0  3  0  0  0
   28.7470   47.9660   10.2870 C   0  0  0  0  0
   31.9130   48.0770    8.2590 C   0  0  0  0  0
   33.2440   48.8010    8.4730 C   0  0  0  0  0
   33.0650   50.3180    8.5670 C   0  0  0  0  0
   34.4010   50.9860    8.9020 C   0  0  0  0  0
   34.5750   51.6120   10.1300 C   0  0  0  0  0
   35.8100   52.1600   10.4630 C   0  0  0  0  0
   36.8690   52.0840    9.5660 C   0  0  0  0  0
   36.6930   51.4630    8.3340 C   0  0  0  0  0
   35.4590   50.9150    8.0020 C   0  0  0  0  0
   28.1162   47.4736    8.0952 H   0  0  0  0  0
   29.5811   48.2649    7.4269 H   0  0  0  0  0
   31.4397   48.3133   10.3405 H   0  0  0  0  0
   30.5637   49.4277    9.2427 H   0  0  0  0  0
   29.1963   45.2595    7.8523 H   0  0  0  0  0
   30.6708   46.0013    7.2818 H   0  0  0  0  0
   28.3525   43.5152    5.0072 H   0  0  0  0  0
   28.3763   45.3576    3.2759 H   0  0  0  0  0
   27.4284   43.7796    5.8929 H   0  0  0  0  0
   27.2099   45.2511    3.8907 H   0  0  0  0  0
   30.2102   47.6679    5.3917 H   0  0  0  0  0
   30.1118   46.5623    9.6358 H   0  0  0  0  0
   29.1565   48.0113   11.2961 H   0  0  0  0  0
   28.4187   48.9596    9.9818 H   0  0  0  0  0
   27.9000   47.2802   10.2676 H   0  0  0  0  0
   31.4857   48.3992    7.3094 H   0  0  0  0  0
   32.0934   47.0020    8.2560 H   0  0  0  0  0
   33.8887   48.5867    7.6206 H   0  0  0  0  0
   33.6749   48.4506    9.4109 H   0  0  0  0  0
   32.3447   50.5450    9.3530 H   0  0  0  0  0
   32.7065   50.6958    7.6095 H   0  0  0  0  0
   33.7440   51.6739   10.8327 H   0  0  0  0  0
   35.9469   52.6490   11.4275 H   0  0  0  0  0
   37.8371   52.5109    9.8280 H   0  0  0  0  0
   37.5223   51.4059    7.6289 H   0  0  0  0  0
   35.3207   50.4295    7.0359 H   0  0  0  0  0
  1  3  1  0  0  0
  1 14  1  0  0  0
 14  2  1  0  0  0
  2 16  1  0  0  0
  3  4  1  0  0  0
  4  6  1  0  0  0
  4  9  1  0  0  0
  4 13  1  0  0  0
  6  5  1  0  0  0
  6  7  1  0  0  0
  6  8  2  0  0  0
  9 10  1  0  0  0
  9 11  1  0  0  0
  9 12  2  0  0  0
 14 15  1  0  0  0
 16 17  1  0  0  0
 17 18  1  0  0  0
 18 19  1  0  0  0
 19 20  4  0  0  0
 19 24  4  0  0  0
 20 21  4  0  0  0
 21 22  4  0  0  0
 22 23  4  0  0  0
 23 24  4  0  0  0
  1 25  1  0  0  0
  1 26  1  0  0  0
  2 27  1  0  0  0
  2 28  1  0  0  0
  3 29  1  0  0  0
  3 30  1  0  0  0
  5 31  1  0  0  0
  7 32  1  0  0  0
 10 33  1  0  0  0
 11 34  1  0  0  0
 13 35  1  0  0  0
 14 36  1  0  0  0
 15 37  1  0  0  0
 15 38  1  0  0  0
 15 39  1  0  0  0
 16 40  1  0  0  0
 16 41  1  0  0  0
 17 42  1  0  0  0
 17 43  1  0  0  0
 18 44  1  0  0  0
 18 45  1  0  0  0
 20 46  1  0  0  0
 21 47  1  0  0  0
 22 48  1  0  0  0
 23 49  1  0  0  0
 24 50  1  0  0  0
M  END
$$$$
