### 
### Created by X-TOOL on Mon Sep 10 21:13:20 2018
### 

@<TRIPOS>MOLECULE
4p4i_ligand
   43    43     1     0     0
SMALL
GAST_HUCK


@<TRIPOS>ATOM
      1 CAM        23.7450   48.2810   42.5480 C.ar      1 2G5        -0.0419
      2 CAK        24.8480   48.8640   41.8930 C.ar      1 2G5        -0.0562
      3 CAJ        25.3580   50.0960   42.3390 C.ar      1 2G5        -0.0575
      4 CAL        24.7850   50.7550   43.4360 C.ar      1 2G5        -0.0562
      5 CAN        23.6890   50.1810   44.0890 C.ar      1 2G5        -0.0419
      6 CAY        23.1720   48.9500   43.6360 C.ar      1 2G5         0.0499
      7 CAX        21.9860   48.3610   44.3890 C.2       1 2G5         0.2067
      8 OAD        21.6500   48.8640   45.4750 O.2       1 2G5        -0.3845
      9 NAR        21.3990   47.2750   43.8610 N.am      1 2G5        -0.2680
     10 CBA        20.2210   46.7040   44.5760 C.3       1 2G5         0.1224
     11 CAW        20.6420   46.1610   45.9480 C.2       1 2G5         0.0627
     12 OAH        19.9710   46.5030   46.9150 O.co2     1 2G5        -0.5665
     13 OAC        21.6710   45.4620   45.9990 O.co2     1 2G5        -0.5665
     14 CAQ        19.5750   45.5740   43.7870 C.3       1 2G5         0.1185
     15 OAT        18.6870   44.8620   44.6700 O.3       1 2G5        -0.2572
     16 PBB        17.6000   43.9430   43.9820 P.3       1 2G5         0.2034
     17 OAI        16.9110   43.2470   45.1220 O.co2     1 2G5        -0.6076
     18 OAE        18.2980   43.0360   42.9690 O.co2     1 2G5        -0.6076
     19 N          16.5440   44.9390   43.1840 N.am      1 2G5        -0.2605
     20 CA         16.0680   44.4150   41.8740 C.3       1 2G5         0.0893
     21 C          17.1230   44.5780   40.7590 C.2       1 2G5         0.0564
     22 OXT        16.9720   43.7930   39.7560 O.co2     1 2G5        -0.5670
     23 O          17.9990   45.4950   40.8780 O.co2     1 2G5        -0.5670
     24 CB         14.7480   45.1520   41.3790 C.3       1 2G5        -0.0099
     25 CG         14.9350   46.6850   41.3680 C.3       1 2G5         0.0034
     26 CD         13.8050   47.4700   40.6350 C.2       1 2G5         0.0350
     27 OE2        13.7740   48.7140   40.8240 O.co2     1 2G5        -0.5690
     28 OE1        13.0510   46.8430   39.8300 O.co2     1 2G5        -0.5690
     29 H1         23.3465   47.3296   42.2147 H         1 2G5         0.0669
     30 H2         25.3029   48.3631   41.0461 H         1 2G5         0.0629
     31 H3         26.2042   50.5417   41.8287 H         1 2G5         0.0653
     32 H4         25.1883   51.7022   43.7756 H         1 2G5         0.0629
     33 H5         23.2392   50.6805   44.9395 H         1 2G5         0.0669
     34 H6         21.7403   46.8626   43.0163 H         1 2G5         0.1870
     35 H7         19.4800   47.5044   44.7186 H         1 2G5         0.0753
     36 H8         20.3510   44.8920   43.4093 H         1 2G5         0.0666
     37 H9         19.0067   45.9875   42.9408 H         1 2G5         0.0666
     38 H10        16.2499   45.8210   43.5523 H         1 2G5         0.1677
     39 H11        15.8497   43.3443   42.0002 H         1 2G5         0.0681
     40 H12        13.9192   44.8965   42.0556 H         1 2G5         0.0319
     41 H13        14.5079   44.8126   40.3606 H         1 2G5         0.0319
     42 H14        15.8891   46.9110   40.8694 H         1 2G5         0.0432
     43 H15        14.9745   47.0336   42.4105 H         1 2G5         0.0432
@<TRIPOS>BOND
     1    1    2 ar 
     2    1    6 ar 
     3    2    3 ar 
     4    3    4 ar 
     5    4    5 ar 
     6    5    6 ar 
     7    6    7 1  
     8    7    8 2  
     9    7    9 am 
    10    9   10 1  
    11   10   11 1  
    12   10   14 1  
    13   11   12 ar 
    14   11   13 ar 
    15   14   15 1  
    16   15   16 1  
    17   16   17 ar 
    18   16   18 ar 
    19   16   19 am 
    20   19   20 1  
    21   20   21 1  
    22   20   24 1  
    23   21   22 ar 
    24   21   23 ar 
    25   24   25 1  
    26   25   26 1  
    27   26   27 ar 
    28   26   28 ar 
    29    1   29 1  
    30    2   30 1  
    31    3   31 1  
    32    4   32 1  
    33    5   33 1  
    34    9   34 1  
    35   10   35 1  
    36   14   36 1  
    37   14   37 1  
    38   19   38 1  
    39   20   39 1  
    40   24   40 1  
    41   24   41 1  
    42   25   42 1  
    43   25   43 1  
@<TRIPOS>SUBSTRUCTURE
     1 2G5         1

