4p4i_ligand
  -I-interpret- 

 47 47  0  0  0  0  0  0  0  0999 V2000
   23.7450   48.2810   42.5480 C   0  0  0  0  0
   24.8480   48.8640   41.8930 C   0  0  0  0  0
   25.3580   50.0960   42.3390 C   0  0  0  0  0
   24.7850   50.7550   43.4360 C   0  0  0  0  0
   23.6890   50.1810   44.0890 C   0  0  0  0  0
   23.1720   48.9500   43.6360 C   0  0  0  0  0
   21.9860   48.3610   44.3890 C   0  0  0  0  0
   21.6500   48.8640   45.4750 O   0  0  0  0  0
   21.3990   47.2750   43.8610 N   0  0  0  0  0
   20.2210   46.7040   44.5760 C   0  0  0  0  0
   20.6420   46.1610   45.9480 C   0  0  0  0  0
   19.9710   46.5030   46.9150 O   0  0  0  0  0
   21.6710   45.4620   45.9990 O   0  0  0  0  0
   19.5750   45.5740   43.7870 C   0  0  0  0  0
   18.6870   44.8620   44.6700 O   0  0  0  0  0
   17.6000   43.9430   43.9820 P   0  0  0  0  0
   16.9110   43.2470   45.1220 O   0  0  0  0  0
   18.2980   43.0360   42.9690 O   0  0  0  0  0
   16.5440   44.9390   43.1840 N   0  0  0  0  0
   16.0680   44.4150   41.8740 C   0  0  0  0  0
   17.1230   44.5780   40.7590 C   0  0  0  0  0
   16.9720   43.7930   39.7560 O   0  0  0  0  0
   17.9990   45.4950   40.8780 O   0  0  0  0  0
   14.7480   45.1520   41.3790 C   0  0  0  0  0
   14.9350   46.6850   41.3680 C   0  0  0  0  0
   13.8050   47.4700   40.6350 C   0  0  0  0  0
   13.7740   48.7140   40.8240 O   0  0  0  0  0
   13.0510   46.8430   39.8300 O   0  0  0  0  0
   23.3443   47.3243   42.2128 H   0  0  0  0  0
   25.3054   48.3604   41.0414 H   0  0  0  0  0
   26.2089   50.5441   41.8259 H   0  0  0  0  0
   25.1905   51.7074   43.7775 H   0  0  0  0  0
   23.2368   50.6832   44.9442 H   0  0  0  0  0
   21.7471   46.8544   42.9994 H   0  0  0  0  0
   19.4976   47.5109   44.6931 H   0  0  0  0  0
   22.0129   45.3326   45.1113 H   0  0  0  0  0
   20.3400   44.9006   43.4006 H   0  0  0  0  0
   19.0193   45.9770   42.9403 H   0  0  0  0  0
   18.7041   43.5743   42.2857 H   0  0  0  0  0
   16.2440   45.8386   43.5597 H   0  0  0  0  0
   15.8690   43.3579   42.0505 H   0  0  0  0  0
   16.2387   43.1969   39.9252 H   0  0  0  0  0
   13.9350   44.9056   42.0619 H   0  0  0  0  0
   14.5245   44.8215   40.3646 H   0  0  0  0  0
   15.8629   46.8890   40.8336 H   0  0  0  0  0
   14.9292   47.0141   42.4071 H   0  0  0  0  0
   13.2610   45.9067   39.8599 H   0  0  0  0  0
  1  2  4  0  0  0
  1  6  4  0  0  0
  2  3  4  0  0  0
  3  4  4  0  0  0
  4  5  4  0  0  0
  5  6  4  0  0  0
  6  7  1  0  0  0
  7  8  2  0  0  0
  7  9  1  0  0  0
  9 10  1  0  0  0
 10 11  1  0  0  0
 10 14  1  0  0  0
 11 12  2  0  0  0
 11 13  1  0  0  0
 14 15  1  0  0  0
 15 16  1  0  0  0
 16 17  2  0  0  0
 16 18  1  0  0  0
 16 19  1  0  0  0
 19 20  1  0  0  0
 20 21  1  0  0  0
 20 24  1  0  0  0
 21 22  1  0  0  0
 21 23  2  0  0  0
 24 25  1  0  0  0
 25 26  1  0  0  0
 26 27  2  0  0  0
 26 28  1  0  0  0
  1 29  1  0  0  0
  2 30  1  0  0  0
  3 31  1  0  0  0
  4 32  1  0  0  0
  5 33  1  0  0  0
  9 34  1  0  0  0
 10 35  1  0  0  0
 13 36  1  0  0  0
 14 37  1  0  0  0
 14 38  1  0  0  0
 18 39  1  0  0  0
 19 40  1  0  0  0
 20 41  1  0  0  0
 22 42  1  0  0  0
 24 43  1  0  0  0
 24 44  1  0  0  0
 25 45  1  0  0  0
 25 46  1  0  0  0
 28 47  1  0  0  0
M  END
$$$$
