1bty_ligand
  -I-interpret- 

 17 17  0  0  0  0  0  0  0  0999 V2000
   29.1530   14.9380   16.6130 C   0  0  0  0  0
   28.7170   15.5690   17.7790 C   0  0  0  0  0
   28.3690   14.8750   18.9190 C   0  0  0  0  0
   28.4450   13.5150   18.9280 C   0  0  0  0  0
   28.8680   12.8610   17.7990 C   0  0  0  0  0
   29.2190   13.5540   16.6600 C   0  0  0  0  0
   29.4980   15.6480   15.4570 C   0  0  0  0  0
   30.2210   15.0460   14.5320 N   0  0  0  0  0
   29.0940   16.8930   15.3220 N   0  0  0  0  0
   28.6486   16.6568   17.7892 H   0  0  0  0  0
   28.0352   15.4115   19.8072 H   0  0  0  0  0
   28.1730   12.9532   19.8216 H   0  0  0  0  0
   28.9278   11.7726   17.8024 H   0  0  0  0  0
   29.5544   13.0039   15.7808 H   0  0  0  0  0
   30.4821   15.5469   13.6827 H   0  0  0  0  0
   30.5189   14.0797   14.6662 H   0  0  0  0  0
   29.3388   17.4206   14.4841 H   0  0  0  0  0
  1  2  4  0  0  0
  1  6  4  0  0  0
  1  7  1  0  0  0
  2  3  4  0  0  0
  3  4  4  0  0  0
  4  5  4  0  0  0
  5  6  4  0  0  0
  7  8  1  0  0  0
  7  9  2  0  0  0
  2 10  1  0  0  0
  3 11  1  0  0  0
  4 12  1  0  0  0
  5 13  1  0  0  0
  6 14  1  0  0  0
  8 15  1  0  0  0
  8 16  1  0  0  0
  9 17  1  0  0  0
M  END
$$$$
