1nki_ligand
  -I-interpret- 

 10  9  0  0  0  0  0  0  0  0999 V2000
   36.7970   35.6310   17.3340 C   0  0  0  0  0
   35.4740   36.8030   15.4710 O   0  0  0  0  0
   37.4360   38.0660   16.2930 O   0  0  0  0  0
   35.4310   37.8150   17.7760 O   0  0  0  0  0
   37.5800   35.5780   18.3440 O   0  0  0  0  0
   36.3700   34.5430   16.8120 O   0  0  0  0  0
   36.2520   37.2150   16.6880 P   0  0  0  0  0
   36.0732   36.4281   14.8213 H   0  0  0  0  0
   37.9234   37.6282   15.5913 H   0  0  0  0  0
   35.7976   34.7488   16.0693 H   0  0  0  0  0
  1  5  2  0  0  0
  1  6  1  0  0  0
  1  7  1  0  0  0
  7  2  1  0  0  0
  7  3  1  0  0  0
  7  4  2  0  0  0
  2  8  1  0  0  0
  3  9  1  0  0  0
  6 10  1  0  0  0
M  END
$$$$
