5mgl_ligand
  -I-interpret- 

 18 18  0  0  0  0  0  0  0  0999 V2000
   61.4050   37.9850   -3.2700 C   0  0  0  0  0
   60.5610   39.0450   -3.6690 N   0  0  0  0  0
   61.0910   40.0920   -4.5070 C   0  0  0  0  0
   62.2640   40.0530   -4.8620 O   0  0  0  0  0
   60.1720   41.2170   -4.9270 C   0  0  0  0  0
   58.8780   40.9400   -5.0170 N   0  0  0  0  0
   57.9860   41.8470   -5.3750 C   0  0  0  0  0
   58.4050   43.1320   -5.6670 C   0  0  0  0  0
   59.7740   43.4730   -5.5840 C   0  0  0  0  0
   60.6880   42.4730   -5.2000 C   0  0  0  0  0
   60.3070   45.0930   -5.9510 Cl  0  0  0  0  0
   61.7745   37.4642   -4.1534 H   0  0  0  0  0
   62.2463   38.3853   -2.7042 H   0  0  0  0  0
   60.8432   37.2903   -2.6456 H   0  0  0  0  0
   59.5869   39.0696   -3.3675 H   0  0  0  0  0
   56.9300   41.5846   -5.4395 H   0  0  0  0  0
   57.6755   43.8860   -5.9628 H   0  0  0  0  0
   61.7555   42.6785   -5.1210 H   0  0  0  0  0
  1  2  1  0  0  0
  2  3  1  0  0  0
  3  4  2  0  0  0
  3  5  1  0  0  0
  5  6  4  0  0  0
  5 10  4  0  0  0
  6  7  4  0  0  0
  7  8  4  0  0  0
  8  9  4  0  0  0
  9 10  4  0  0  0
  9 11  1  0  0  0
  1 12  1  0  0  0
  1 13  1  0  0  0
  1 14  1  0  0  0
  2 15  1  0  0  0
  7 16  1  0  0  0
  8 17  1  0  0  0
 10 18  1  0  0  0
M  END
$$$$
