6cf5_ligand
  -I-interpret- 

 31 31  0  0  0  0  0  0  0  0999 V2000
   -7.8330  -10.2350   49.8000 C   0  0  0  0  0
   -9.0470  -11.1420   49.7770 C   0  0  0  0  0
   -8.8500  -12.2190   48.7210 C   0  0  0  0  0
   -7.6190  -13.0450   49.0800 C   0  0  0  0  0
  -10.0340  -13.0850   48.5870 N   0  3  0  0  0
  -11.2950  -12.3320   48.6810 C   0  0  0  0  0
  -12.1380  -12.8810   49.8340 C   0  0  0  0  0
  -12.6090  -14.6160   49.4880 S   0  0  0  0  0
  -13.8880  -14.6220   48.6500 O   0  0  0  0  0
  -11.4890  -15.3340   48.7230 O   0  0  0  0  0
  -12.8530  -15.3310   50.8160 O   0  0  0  0  0
   -6.3890  -12.1500   49.1460 C   0  0  0  0  0
   -6.6030  -11.0450   50.1720 C   0  0  0  0  0
   -7.9837   -9.4447   50.5354 H   0  0  0  0  0
   -7.6918   -9.7918   48.8142 H   0  0  0  0  0
   -9.9354  -10.5566   49.5398 H   0  0  0  0  0
   -9.1729  -11.6079   50.7543 H   0  0  0  0  0
   -8.7047  -11.7339   47.7558 H   0  0  0  0  0
   -7.4654  -13.8081   48.3170 H   0  0  0  0  0
   -7.7734  -13.5129   50.0523 H   0  0  0  0  0
  -10.0152  -13.7644   49.3476 H   0  0  0  0  0
   -9.9987  -13.5272   47.6685 H   0  0  0  0  0
  -11.8482  -12.4353   47.7475 H   0  0  0  0  0
  -11.0752  -11.2800   48.8628 H   0  0  0  0  0
  -13.0395  -12.2775   49.9401 H   0  0  0  0  0
  -11.5566  -12.8426   50.7552 H   0  0  0  0  0
  -10.6876  -15.3286   49.2515 H   0  0  0  0  0
   -6.2186  -11.7021   48.1670 H   0  0  0  0  0
   -5.5257  -12.7480   49.4379 H   0  0  0  0  0
   -6.7460  -11.4886   51.1573 H   0  0  0  0  0
   -5.7305  -10.3918   50.1879 H   0  0  0  0  0
  1  2  1  0  0  0
  1 13  1  0  0  0
  2  3  1  0  0  0
  3  4  1  0  0  0
  3  5  1  0  0  0
  4 12  1  0  0  0
  5  6  1  0  0  0
  6  7  1  0  0  0
  7  8  1  0  0  0
  8  9  2  0  0  0
  8 10  1  0  0  0
  8 11  2  0  0  0
 12 13  1  0  0  0
  1 14  1  0  0  0
  1 15  1  0  0  0
  2 16  1  0  0  0
  2 17  1  0  0  0
  3 18  1  0  0  0
  4 19  1  0  0  0
  4 20  1  0  0  0
  5 21  1  0  0  0
  5 22  1  0  0  0
  6 23  1  0  0  0
  6 24  1  0  0  0
  7 25  1  0  0  0
  7 26  1  0  0  0
 10 27  1  0  0  0
 12 28  1  0  0  0
 12 29  1  0  0  0
 13 30  1  0  0  0
 13 31  1  0  0  0
M  END
$$$$
