### 
### Created by X-TOOL on Sun Sep  9 21:50:36 2018
### 

@<TRIPOS>MOLECULE
2qbx_ligand
  191   194     1     0     0
SMALL
GAST_HUCK


@<TRIPOS>ATOM
      1 N          -8.0910   15.9390  -16.0130 N.4       1 NON         0.2396
      2 CA         -6.6430   15.6090  -16.1810 C.3       1 NON         0.0885
      3 C          -6.2790   14.3460  -15.4010 C.2       1 NON         0.2291
      4 O          -7.0830   13.8160  -14.6410 O.2       1 NON        -0.3906
      5 CB         -5.7390   16.8010  -15.7870 C.3       1 NON         0.1041
      6 OG         -5.9960   17.2450  -14.4640 O.3       1 NON        -0.3870
      7 N          -5.0890   13.8280  -15.6460 N.am      1 NON        -0.2588
      8 CA         -4.6450   12.6210  -14.9860 C.3       1 NON         0.1477
      9 C          -5.5390   11.3700  -15.2090 C.2       1 NON         0.2063
     10 O          -5.7980   10.6180  -14.2540 O.2       1 NON        -0.3942
     11 CB         -4.4280   12.9320  -13.5030 C.3       1 NON         0.0773
     12 CG         -3.2450   13.8200  -13.2970 C.2       1 NON         0.1780
     13 OD1        -2.2130   13.5770  -13.8830 O.2       1 NON        -0.3970
     14 ND2        -3.3740   14.8410  -12.4520 N.am      1 NON        -0.3007
     15 N          -5.9480   11.1260  -16.4650 N.am      1 NON        -0.2635
     16 CA         -6.8220   10.0070  -16.8160 C.3       1 NON         0.1325
     17 C          -6.0560    8.6950  -16.9180 C.2       1 NON         0.2041
     18 O          -6.6150    7.6540  -17.2380 O.2       1 NON        -0.3944
     19 CB         -7.5570   10.2580  -18.1500 C.3       1 NON        -0.0008
     20 CG         -8.5020   11.4480  -18.1410 C.3       1 NON         0.0044
     21 CD         -7.7830   12.8200  -18.1640 C.2       1 NON         0.0350
     22 OE1        -6.5610   12.9010  -18.4570 O.co2     1 NON        -0.5690
     23 OE2        -8.4580   13.8340  -17.9040 O.co2     1 NON        -0.5690
     24 N          -4.7670    8.7530  -16.6900 N.am      1 NON        -0.2627
     25 CA         -3.9210    7.5630  -16.6080 C.3       1 NON         0.1352
     26 C          -3.9910    6.8280  -15.2430 C.2       1 NON         0.2052
     27 O          -3.4020    5.7500  -15.1120 O.2       1 NON        -0.3942
     28 CB         -2.4640    7.9470  -16.8970 C.3       1 NON         0.0042
     29 CG         -1.9290    8.9540  -15.8900 C.2       1 NON        -0.0418
     30 CD1        -1.9960   10.3030  -15.9970 C.2       1 NON         0.0167
     31 CD2        -1.3010    8.6890  -14.6260 C.ar      1 NON        -0.0214
     32 NE1        -1.4220   10.8980  -14.9000 N.pl3     1 NON        -0.2890
     33 CE2        -0.9920    9.9380  -14.0420 C.ar      1 NON         0.0603
     34 CE3        -0.9470    7.5280  -13.9390 C.ar      1 NON        -0.0747
     35 CZ2        -0.3750   10.0550  -12.7870 C.ar      1 NON        -0.0443
     36 CZ3        -0.3060    7.6420  -12.7280 C.ar      1 NON        -0.0792
     37 CH2        -0.0270    8.9000  -12.1580 C.ar      1 NON        -0.0768
     38 N          -4.6560    7.4220  -14.2460 N.am      1 NON        -0.2634
     39 CA         -4.8270    6.7920  -12.9380 C.3       1 NON         0.1335
     40 C          -6.1170    5.9810  -12.9720 C.2       1 NON         0.2042
     41 O          -7.2140    6.5360  -13.0440 O.2       1 NON        -0.3944
     42 CB         -4.9600    7.8090  -11.7520 C.3       1 NON        -0.0037
     43 CG1        -3.7990    8.7950  -11.6990 C.3       1 NON        -0.0491
     44 CG2        -5.0410    7.0410  -10.4050 C.3       1 NON        -0.0582
     45 CD1        -3.9600    9.8460  -10.6740 C.3       1 NON        -0.0648
     46 N          -6.0010    4.6700  -12.8750 N.am      1 NON        -0.2636
     47 CA         -7.1660    3.8180  -13.1160 C.3       1 NON         0.1332
     48 C          -7.9840    3.6200  -11.8660 C.2       1 NON         0.2065
     49 O          -7.4200    3.3590  -10.8050 O.2       1 NON        -0.3942
     50 CB         -6.7080    2.4540  -13.6330 C.3       1 NON         0.0045
     51 CG         -5.7520    2.6070  -14.7900 C.3       1 NON         0.0412
     52 CD         -4.3360    2.2940  -14.4020 C.2       1 NON         0.1737
     53 OE1        -3.7610    2.8040  -13.3690 O.2       1 NON        -0.3973
     54 NE2        -3.7250    1.4500  -15.2380 N.am      1 NON        -0.3009
     55 N          -9.3110    3.7160  -11.9830 N.am      1 NON        -0.2498
     56 CA        -10.1190    3.3440  -10.8380 C.3       1 NON         0.1338
     57 C          -9.8400    1.9060  -10.4200 C.2       1 NON         0.2041
     58 O          -9.7110    1.0580  -11.2750 O.2       1 NON        -0.3944
     59 CB        -11.5370    3.4850  -11.3600 C.3       1 NON        -0.0104
     60 CG        -11.4060    4.4820  -12.4760 C.3       1 NON        -0.0281
     61 CD        -10.1430    4.1270  -13.1230 C.3       1 NON         0.0369
     62 N          -9.6800    1.6690   -9.1250 N.am      1 NON        -0.2637
     63 CA         -9.7720    0.3130   -8.5920 C.3       1 NON         0.1311
     64 C         -11.2130   -0.0430   -8.4770 C.2       1 NON         0.2039
     65 O         -12.0730    0.7780   -8.1010 O.2       1 NON        -0.3944
     66 CB         -9.1900    0.1370   -7.2010 C.3       1 NON        -0.0092
     67 CG         -7.7360    0.0060   -7.1650 C.3       1 NON        -0.0156
     68 CD         -7.1060    1.4010   -7.0600 C.3       1 NON         0.0627
     69 NE         -5.7360    1.4220   -7.5730 N.pl3     1 NON        -0.2723
     70 CZ         -4.6390    1.5090   -6.8300 C.cat     1 NON         0.2882
     71 NH1        -4.7250    1.5870   -5.5040 N.pl3     1 NON        -0.2849
     72 NH2        -3.4410    1.5290   -7.4450 N.pl3     1 NON        -0.2849
     73 N         -11.4680   -1.3130   -8.6800 N.am      1 NON        -0.2637
     74 CA        -12.7940   -1.8470   -8.8060 C.3       1 NON         0.1314
     75 C         -13.1330   -2.6480   -7.5700 C.2       1 NON         0.2064
     76 O         -12.2670   -3.3290   -7.0610 O.2       1 NON        -0.3942
     77 CB        -12.7320   -2.7840   -9.9570 C.3       1 NON        -0.0101
     78 CG        -13.8100   -2.8390  -10.9730 C.3       1 NON        -0.0425
     79 CD1       -13.3160   -1.9930  -12.0450 C.3       1 NON        -0.0625
     80 CD2       -13.8520   -4.2890  -11.3920 C.3       1 NON        -0.0625
     81 N         -14.3940   -2.5940   -7.1180 N.am      1 NON        -0.2498
     82 CA        -14.7850   -3.1440   -5.8010 C.3       1 NON         0.1338
     83 C         -14.4660   -4.6320   -5.6190 C.2       1 NON         0.2042
     84 O         -14.6800   -5.4580   -6.5450 O.2       1 NON        -0.3944
     85 CB        -16.2940   -2.8640   -5.7160 C.3       1 NON        -0.0104
     86 CG        -16.5180   -1.7330   -6.6580 C.3       1 NON        -0.0281
     87 CD        -15.5580   -1.9850   -7.7920 C.3       1 NON         0.0369
     88 N         -14.0230   -4.9410   -4.3900 N.am      1 NON        -0.2648
     89 CA        -12.9100   -5.8680   -4.1410 C.3       1 NON         0.1148
     90 C         -13.2170   -7.0700   -3.1930 C.2       1 NON         0.1246
     91 O         -13.8250   -6.9300   -2.1080 O.2       1 NON        -0.3725
     92 CB        -11.7440   -5.0120   -3.5940 C.3       1 NON         0.0032
     93 CG        -11.0380   -4.1750   -4.6630 C.3       1 NON         0.0413
     94 CD        -10.7970   -2.6960   -4.3000 C.2       1 NON         0.1737
     95 OE1       -11.7500   -1.9040   -4.2340 O.2       1 NON        -0.3973
     96 NE2        -9.5410   -2.3340   -4.0210 N.am      1 NON        -0.3009
     97 H1         -8.3081   16.7736  -16.5349 H         1 NON         0.2016
     98 H2         -8.2897   16.0920  -15.0367 H         1 NON         0.2016
     99 H3         -8.6518   15.1740  -16.3542 H         1 NON         0.2016
    100 H4         -6.4705   15.4025  -17.2476 H         1 NON         0.1122
    101 H5         -5.9232   17.6325  -16.4832 H         1 NON         0.0640
    102 H6         -4.6868   16.4885  -15.8592 H         1 NON         0.0640
    103 H7         -6.9020   17.5222  -14.3946 H         1 NON         0.2099
    104 H8         -4.4832   14.2797  -16.3010 H         1 NON         0.1886
    105 H9         -3.6633   12.3698  -15.4139 H         1 NON         0.0826
    106 H10        -4.2659   11.9892  -12.9601 H         1 NON         0.0551
    107 H11        -5.3240   13.4331  -13.1081 H         1 NON         0.0551
    108 H12        -2.6025   15.4562  -12.2896 H         1 NON         0.1814
    109 H13        -4.2424   14.9926  -11.9798 H         1 NON         0.1814
    110 H14        -5.6407   11.7378  -17.1939 H         1 NON         0.1883
    111 H15        -7.5740    9.9065  -16.0195 H         1 NON         0.0801
    112 H16        -8.1414    9.3585  -18.3936 H         1 NON         0.0330
    113 H17        -6.8011   10.4269  -18.9311 H         1 NON         0.0330
    114 H18        -9.1176   11.3947  -17.2309 H         1 NON         0.0433
    115 H19        -9.1507   11.3820  -19.0269 H         1 NON         0.0433
    116 H20        -4.3432    9.6503  -16.5667 H         1 NON         0.1884
    117 H21        -4.2592    6.8604  -17.3838 H         1 NON         0.0815
    118 H22        -2.4056    8.3864  -17.9037 H         1 NON         0.0397
    119 H23        -1.8430    7.0400  -16.8562 H         1 NON         0.0397
    120 H24        -2.4415   10.8392  -16.8336 H         1 NON         0.0795
    121 H25        -1.3320   11.9133  -14.7517 H         1 NON         0.2216
    122 H26        -1.1735    6.5521  -14.3529 H         1 NON         0.0540
    123 H27        -0.1841   11.0232  -12.3385 H         1 NON         0.0541
    124 H28        -0.0085    6.7435  -12.1996 H         1 NON         0.0510
    125 H29         0.4752    8.9485  -11.1986 H         1 NON         0.0530
    126 H30        -5.0497    8.3281  -14.4007 H         1 NON         0.1883
    127 H31        -3.9679    6.1317  -12.7482 H         1 NON         0.0803
    128 H32        -5.8905    8.3787  -11.8916 H         1 NON         0.0345
    129 H33        -3.7096    9.2797  -12.6824 H         1 NON         0.0267
    130 H34        -2.8775    8.2353  -11.4809 H         1 NON         0.0267
    131 H35        -5.8780    6.3281  -10.4392 H         1 NON         0.0235
    132 H36        -5.2015    7.7558   -9.5844 H         1 NON         0.0235
    133 H37        -4.1010    6.4950  -10.2371 H         1 NON         0.0235
    134 H38        -3.0878   10.5160  -10.6957 H         1 NON         0.0230
    135 H39        -4.0400    9.3803   -9.6807 H         1 NON         0.0230
    136 H40        -4.8720   10.4246  -10.8822 H         1 NON         0.0230
    137 H41        -5.1202    4.2603  -12.6377 H         1 NON         0.1883
    138 H42        -7.7981    4.2976  -13.8778 H         1 NON         0.0801
    139 H43        -7.5866    1.8820  -13.9658 H         1 NON         0.0337
    140 H44        -6.2040    1.9117  -12.8194 H         1 NON         0.0337
    141 H45        -5.7986    3.6443  -15.1530 H         1 NON         0.0504
    142 H46        -6.0580    1.9227  -15.5950 H         1 NON         0.0504
    143 H47        -2.7780    1.1768  -15.0690 H         1 NON         0.1814
    144 H48        -4.2146    1.0914  -16.0328 H         1 NON         0.1814
    145 H49        -9.9385    4.0184   -9.9880 H         1 NON         0.0802
    146 H50       -12.2090    3.8611  -10.5745 H         1 NON         0.0313
    147 H51       -11.9146    2.5226  -11.7357 H         1 NON         0.0313
    148 H52       -11.3678    5.5079  -12.0810 H         1 NON         0.0287
    149 H53       -12.2453    4.3916  -13.1813 H         1 NON         0.0287
    150 H54       -10.2792    3.2999  -13.8353 H         1 NON         0.0524
    151 H55        -9.7057    4.9915  -13.6440 H         1 NON         0.0524
    152 H56        -9.4935    2.4306   -8.5043 H         1 NON         0.1883
    153 H57        -9.2614   -0.3722   -9.2846 H         1 NON         0.0800
    154 H58        -9.6277   -0.7695   -6.7576 H         1 NON         0.0313
    155 H59        -9.4710    1.0127   -6.5976 H         1 NON         0.0313
    156 H60        -7.3881   -0.4864   -8.0850 H         1 NON         0.0301
    157 H61        -7.4424   -0.5968   -6.2930 H         1 NON         0.0301
    158 H62        -7.0946    1.7073   -6.0036 H         1 NON         0.0689
    159 H63        -7.7139    2.1102   -7.6409 H         1 NON         0.0689
    160 H64        -5.6124    1.3646   -8.5939 H         1 NON         0.2642
    161 H65        -3.8688    1.6542   -4.9355 H         1 NON         0.2615
    162 H66        -5.6478    1.5801   -5.0465 H         1 NON         0.2615
    163 H67        -3.3882    1.4679   -8.4718 H         1 NON         0.2615
    164 H68        -2.5776    1.6054   -6.8885 H         1 NON         0.2615
    165 H69       -10.6958   -1.9444   -8.7509 H         1 NON         0.1883
    166 H70       -13.5335   -1.0495   -8.9707 H         1 NON         0.0800
    167 H71       -12.6571   -3.7949   -9.5299 H         1 NON         0.0315
    168 H72       -11.8058   -2.5461  -10.5007 H         1 NON         0.0315
    169 H73       -14.7840   -2.4951  -10.5949 H         1 NON         0.0298
    170 H74       -14.0536   -1.9664  -12.8606 H         1 NON         0.0232
    171 H75       -12.3657   -2.3977  -12.4232 H         1 NON         0.0232
    172 H76       -13.1546   -0.9741  -11.6633 H         1 NON         0.0232
    173 H77       -14.2297   -4.9005  -10.5593 H         1 NON         0.0232
    174 H78       -12.8390   -4.6223  -11.6615 H         1 NON         0.0232
    175 H79       -14.5180   -4.4006  -12.2603 H         1 NON         0.0232
    176 H80       -14.2605   -2.5911   -5.0078 H         1 NON         0.0802
    177 H81       -16.5795   -2.5796   -4.6925 H         1 NON         0.0313
    178 H82       -16.8713   -3.7477   -6.0255 H         1 NON         0.0313
    179 H83       -16.2983   -0.7720   -6.1699 H         1 NON         0.0287
    180 H84       -17.5561   -1.7306   -7.0217 H         1 NON         0.0287
    181 H85       -15.9921   -2.6751   -8.5305 H         1 NON         0.0524
    182 H86       -15.2787   -1.0443   -8.2890 H         1 NON         0.0524
    183 H87       -14.4735   -4.5187   -3.6034 H         1 NON         0.1884
    184 H88       -12.6092   -6.2959   -5.1087 H         1 NON         0.0792
    185 H89       -12.8902   -8.0665   -3.4865 H         1 NON         0.1373
    186 H90       -11.0043   -5.6854   -3.1363 H         1 NON         0.0338
    187 H91       -12.1433   -4.3309   -2.8280 H         1 NON         0.0338
    188 H92       -11.6519   -4.2037   -5.5753 H         1 NON         0.0505
    189 H93       -10.0605   -4.6376   -4.8640 H         1 NON         0.0505
    190 H94        -9.3358   -1.3854   -3.7801 H         1 NON         0.1814
    191 H95        -8.8064   -3.0118   -4.0531 H         1 NON         0.1814
@<TRIPOS>BOND
     1    1    2 1  
     2    2    3 1  
     3    2    5 1  
     4    3    4 2  
     5    3    7 am 
     6    5    6 1  
     7    7    8 1  
     8    8    9 1  
     9    8   11 1  
    10    9   10 2  
    11    9   15 am 
    12   11   12 1  
    13   12   13 2  
    14   12   14 am 
    15   15   16 1  
    16   16   17 1  
    17   16   19 1  
    18   17   18 2  
    19   17   24 am 
    20   19   20 1  
    21   20   21 1  
    22   21   22 ar 
    23   21   23 ar 
    24   24   25 1  
    25   25   26 1  
    26   25   28 1  
    27   26   27 2  
    28   26   38 am 
    29   28   29 1  
    30   29   30 2  
    31   29   31 1  
    32   30   32 1  
    33   31   33 ar 
    34   31   34 ar 
    35   32   33 1  
    36   33   35 ar 
    37   34   36 ar 
    38   35   37 ar 
    39   36   37 ar 
    40   38   39 1  
    41   39   40 1  
    42   39   42 1  
    43   40   41 2  
    44   40   46 am 
    45   42   43 1  
    46   42   44 1  
    47   43   45 1  
    48   46   47 1  
    49   47   48 1  
    50   47   50 1  
    51   48   49 2  
    52   48   55 am 
    53   50   51 1  
    54   51   52 1  
    55   52   53 2  
    56   52   54 am 
    57   55   56 1  
    58   55   61 1  
    59   56   57 1  
    60   56   59 1  
    61   57   58 2  
    62   57   62 am 
    63   59   60 1  
    64   60   61 1  
    65   62   63 1  
    66   63   64 1  
    67   63   66 1  
    68   64   65 2  
    69   64   73 am 
    70   66   67 1  
    71   67   68 1  
    72   68   69 1  
    73   69   70 ar 
    74   70   71 ar 
    75   70   72 ar 
    76   73   74 1  
    77   74   75 1  
    78   74   77 1  
    79   75   76 2  
    80   75   81 am 
    81   77   78 1  
    82   78   79 1  
    83   78   80 1  
    84   81   82 1  
    85   81   87 1  
    86   82   83 1  
    87   82   85 1  
    88   83   84 2  
    89   83   88 am 
    90   85   86 1  
    91   86   87 1  
    92   88   89 1  
    93   89   90 1  
    94   89   92 1  
    95   90   91 2  
    96   92   93 1  
    97   93   94 1  
    98   94   95 2  
    99   94   96 am 
   100    1   97 1  
   101    1   98 1  
   102    1   99 1  
   103    2  100 1  
   104    5  101 1  
   105    5  102 1  
   106    6  103 1  
   107    7  104 1  
   108    8  105 1  
   109   11  106 1  
   110   11  107 1  
   111   14  108 1  
   112   14  109 1  
   113   15  110 1  
   114   16  111 1  
   115   19  112 1  
   116   19  113 1  
   117   20  114 1  
   118   20  115 1  
   119   24  116 1  
   120   25  117 1  
   121   28  118 1  
   122   28  119 1  
   123   30  120 1  
   124   32  121 1  
   125   34  122 1  
   126   35  123 1  
   127   36  124 1  
   128   37  125 1  
   129   38  126 1  
   130   39  127 1  
   131   42  128 1  
   132   43  129 1  
   133   43  130 1  
   134   44  131 1  
   135   44  132 1  
   136   44  133 1  
   137   45  134 1  
   138   45  135 1  
   139   45  136 1  
   140   46  137 1  
   141   47  138 1  
   142   50  139 1  
   143   50  140 1  
   144   51  141 1  
   145   51  142 1  
   146   54  143 1  
   147   54  144 1  
   148   56  145 1  
   149   59  146 1  
   150   59  147 1  
   151   60  148 1  
   152   60  149 1  
   153   61  150 1  
   154   61  151 1  
   155   62  152 1  
   156   63  153 1  
   157   66  154 1  
   158   66  155 1  
   159   67  156 1  
   160   67  157 1  
   161   68  158 1  
   162   68  159 1  
   163   69  160 1  
   164   71  161 1  
   165   71  162 1  
   166   72  163 1  
   167   72  164 1  
   168   73  165 1  
   169   74  166 1  
   170   77  167 1  
   171   77  168 1  
   172   78  169 1  
   173   79  170 1  
   174   79  171 1  
   175   79  172 1  
   176   80  173 1  
   177   80  174 1  
   178   80  175 1  
   179   82  176 1  
   180   85  177 1  
   181   85  178 1  
   182   86  179 1  
   183   86  180 1  
   184   87  181 1  
   185   87  182 1  
   186   88  183 1  
   187   89  184 1  
   188   90  185 1  
   189   92  186 1  
   190   92  187 1  
   191   93  188 1  
   192   93  189 1  
   193   96  190 1  
   194   96  191 1  
@<TRIPOS>SUBSTRUCTURE
     1 NON         1

