2qbx_ligand
  -I-interpret- 

190193  0  0  0  0  0  0  0  0999 V2000
   -8.0910   15.9390  -16.0130 N   0  3  0  0  0
   -6.6430   15.6090  -16.1810 C   0  0  0  0  0
   -6.2790   14.3460  -15.4010 C   0  0  0  0  0
   -7.0830   13.8160  -14.6410 O   0  0  0  0  0
   -5.7390   16.8010  -15.7870 C   0  0  0  0  0
   -5.9960   17.2450  -14.4640 O   0  0  0  0  0
   -5.0890   13.8280  -15.6460 N   0  0  0  0  0
   -4.6450   12.6210  -14.9860 C   0  0  0  0  0
   -5.5390   11.3700  -15.2090 C   0  0  0  0  0
   -5.7980   10.6180  -14.2540 O   0  0  0  0  0
   -4.4280   12.9320  -13.5030 C   0  0  0  0  0
   -3.2450   13.8200  -13.2970 C   0  0  0  0  0
   -2.2130   13.5770  -13.8830 O   0  0  0  0  0
   -3.3740   14.8410  -12.4520 N   0  0  0  0  0
   -5.9480   11.1260  -16.4650 N   0  0  0  0  0
   -6.8220   10.0070  -16.8160 C   0  0  0  0  0
   -6.0560    8.6950  -16.9180 C   0  0  0  0  0
   -6.6150    7.6540  -17.2380 O   0  0  0  0  0
   -7.5570   10.2580  -18.1500 C   0  0  0  0  0
   -8.5020   11.4480  -18.1410 C   0  0  0  0  0
   -7.7830   12.8200  -18.1640 C   0  0  0  0  0
   -6.5610   12.9010  -18.4570 O   0  0  0  0  0
   -8.4580   13.8340  -17.9040 O   0  0  0  0  0
   -4.7670    8.7530  -16.6900 N   0  0  0  0  0
   -3.9210    7.5630  -16.6080 C   0  0  0  0  0
   -3.9910    6.8280  -15.2430 C   0  0  0  0  0
   -3.4020    5.7500  -15.1120 O   0  0  0  0  0
   -2.4640    7.9470  -16.8970 C   0  0  0  0  0
   -1.9290    8.9540  -15.8900 C   0  0  0  0  0
   -1.9960   10.3030  -15.9970 C   0  0  0  0  0
   -1.3010    8.6890  -14.6260 C   0  0  0  0  0
   -1.4220   10.8980  -14.9000 N   0  0  0  0  0
   -0.9920    9.9380  -14.0420 C   0  0  0  0  0
   -0.9470    7.5280  -13.9390 C   0  0  0  0  0
   -0.3750   10.0550  -12.7870 C   0  0  0  0  0
   -0.3060    7.6420  -12.7280 C   0  0  0  0  0
   -0.0270    8.9000  -12.1580 C   0  0  0  0  0
   -4.6560    7.4220  -14.2460 N   0  0  0  0  0
   -4.8270    6.7920  -12.9380 C   0  0  0  0  0
   -6.1170    5.9810  -12.9720 C   0  0  0  0  0
   -7.2140    6.5360  -13.0440 O   0  0  0  0  0
   -4.9600    7.8090  -11.7520 C   0  0  0  0  0
   -3.7990    8.7950  -11.6990 C   0  0  0  0  0
   -5.0410    7.0410  -10.4050 C   0  0  0  0  0
   -3.9600    9.8460  -10.6740 C   0  0  0  0  0
   -6.0010    4.6700  -12.8750 N   0  0  0  0  0
   -7.1660    3.8180  -13.1160 C   0  0  0  0  0
   -7.9840    3.6200  -11.8660 C   0  0  0  0  0
   -7.4200    3.3590  -10.8050 O   0  0  0  0  0
   -6.7080    2.4540  -13.6330 C   0  0  0  0  0
   -5.7520    2.6070  -14.7900 C   0  0  0  0  0
   -4.3360    2.2940  -14.4020 C   0  0  0  0  0
   -3.7610    2.8040  -13.3690 O   0  0  0  0  0
   -3.7250    1.4500  -15.2380 N   0  0  0  0  0
   -9.3110    3.7160  -11.9830 N   0  0  0  0  0
  -10.1190    3.3440  -10.8380 C   0  0  0  0  0
   -9.8400    1.9060  -10.4200 C   0  0  0  0  0
   -9.7110    1.0580  -11.2750 O   0  0  0  0  0
  -11.5370    3.4850  -11.3600 C   0  0  0  0  0
  -11.4060    4.4820  -12.4760 C   0  0  0  0  0
  -10.1430    4.1270  -13.1230 C   0  0  0  0  0
   -9.6800    1.6690   -9.1250 N   0  0  0  0  0
   -9.7720    0.3130   -8.5920 C   0  0  0  0  0
  -11.2130   -0.0430   -8.4770 C   0  0  0  0  0
  -12.0730    0.7780   -8.1010 O   0  0  0  0  0
   -9.1900    0.1370   -7.2010 C   0  0  0  0  0
   -7.7360    0.0060   -7.1650 C   0  0  0  0  0
   -7.1060    1.4010   -7.0600 C   0  0  0  0  0
   -5.7360    1.4220   -7.5730 N   0  0  0  0  0
   -4.6390    1.5090   -6.8300 C   0  0  0  0  0
   -4.7250    1.5870   -5.5040 N   0  0  0  0  0
   -3.4410    1.5290   -7.4450 N   0  0  0  0  0
  -11.4680   -1.3130   -8.6800 N   0  0  0  0  0
  -12.7940   -1.8470   -8.8060 C   0  0  0  0  0
  -13.1330   -2.6480   -7.5700 C   0  0  0  0  0
  -12.2670   -3.3290   -7.0610 O   0  0  0  0  0
  -12.7320   -2.7840   -9.9570 C   0  0  0  0  0
  -13.8100   -2.8390  -10.9730 C   0  0  0  0  0
  -13.3160   -1.9930  -12.0450 C   0  0  0  0  0
  -13.8520   -4.2890  -11.3920 C   0  0  0  0  0
  -14.3940   -2.5940   -7.1180 N   0  0  0  0  0
  -14.7850   -3.1440   -5.8010 C   0  0  0  0  0
  -14.4660   -4.6320   -5.6190 C   0  0  0  0  0
  -14.6800   -5.4580   -6.5450 O   0  0  0  0  0
  -16.2940   -2.8640   -5.7160 C   0  0  0  0  0
  -16.5180   -1.7330   -6.6580 C   0  0  0  0  0
  -15.5580   -1.9850   -7.7920 C   0  0  0  0  0
  -14.0230   -4.9410   -4.3900 N   0  0  0  0  0
  -12.9100   -5.8680   -4.1410 C   0  0  0  0  0
  -13.2170   -7.0700   -3.1930 C   0  0  0  0  0
  -13.8250   -6.9300   -2.1080 O   0  0  0  0  0
  -11.7440   -5.0120   -3.5940 C   0  0  0  0  0
  -11.0380   -4.1750   -4.6630 C   0  0  0  0  0
  -10.7970   -2.6960   -4.3000 C   0  0  0  0  0
  -11.7500   -1.9040   -4.2340 O   0  0  0  0  0
   -9.5410   -2.3340   -4.0210 N   0  0  0  0  0
   -8.6555   15.1329  -16.2811 H   0  0  0  0  0
   -8.2739   16.1744  -15.0375 H   0  0  0  0  0
   -8.3283   16.7342  -16.6061 H   0  0  0  0  0
   -6.4667   15.4103  -17.2381 H   0  0  0  0  0
   -5.9434   17.6255  -16.4701 H   0  0  0  0  0
   -4.7003   16.4753  -15.8426 H   0  0  0  0  0
   -5.4177   17.9828  -14.2573 H   0  0  0  0  0
   -4.4711   14.2887  -16.3141 H   0  0  0  0  0
   -3.7057   12.3256  -15.4535 H   0  0  0  0  0
   -4.2517   11.9943  -12.9759 H   0  0  0  0  0
   -5.3132   13.4430  -13.1244 H   0  0  0  0  0
   -2.5824   15.4593  -12.2746 H   0  0  0  0  0
   -4.2644   15.0048  -11.9821 H   0  0  0  0  0
   -5.6345   11.7500  -17.2084 H   0  0  0  0  0
   -7.5509    9.9299  -16.0092 H   0  0  0  0  0
   -8.1625    9.3739  -18.3496 H   0  0  0  0  0
   -6.7927   10.4658  -18.8988 H   0  0  0  0  0
   -9.0770   11.3986  -17.2163 H   0  0  0  0  0
   -9.1107   11.3856  -19.0430 H   0  0  0  0  0
   -6.2141   12.0215  -18.6238 H   0  0  0  0  0
   -4.3347    9.6683  -16.5642 H   0  0  0  0  0
   -4.3046    6.8683  -17.3553 H   0  0  0  0  0
   -2.4212    8.4001  -17.8874 H   0  0  0  0  0
   -1.8550    7.0452  -16.8334 H   0  0  0  0  0
   -2.4419   10.8397  -16.8344 H   0  0  0  0  0
   -1.1747    6.5467  -14.3552 H   0  0  0  0  0
   -0.1830   11.0286  -12.3360 H   0  0  0  0  0
   -0.0068    6.7385  -12.1967 H   0  0  0  0  0
    0.4780    8.9488  -11.1933 H   0  0  0  0  0
   -5.0576    8.3463  -14.4038 H   0  0  0  0  0
   -3.9343    6.1918  -12.7618 H   0  0  0  0  0
   -5.8734    8.3796  -11.9198 H   0  0  0  0  0
   -3.7471    9.2902  -12.6686 H   0  0  0  0  0
   -2.9018    8.2293  -11.4480 H   0  0  0  0  0
   -5.9101    6.3832  -10.4150 H   0  0  0  0  0
   -4.1363    6.4478  -10.2715 H   0  0  0  0  0
   -5.1332    7.7547   -9.5863 H   0  0  0  0  0
   -4.8640   10.4186  -10.8814 H   0  0  0  0  0
   -4.0392    9.3833   -9.6903 H   0  0  0  0  0
   -3.0952   10.5091  -10.6965 H   0  0  0  0  0
   -5.1026    4.2521  -12.6329 H   0  0  0  0  0
   -7.7906    4.3166  -13.8572 H   0  0  0  0  0
   -7.5816    1.8976  -13.9727 H   0  0  0  0  0
   -6.1986    1.9274  -12.8260 H   0  0  0  0  0
   -5.7900    3.6432  -15.1262 H   0  0  0  0  0
   -6.0514    1.9086  -15.5715 H   0  0  0  0  0
   -2.7554    1.1804  -15.0721 H   0  0  0  0  0
   -4.2281    1.0752  -16.0422 H   0  0  0  0  0
   -9.9201    3.9538   -9.9567 H   0  0  0  0  0
  -12.2342    3.8124  -10.5887 H   0  0  0  0  0
  -11.9534    2.5355  -11.6964 H   0  0  0  0  0
  -11.4093    5.5100  -12.1135 H   0  0  0  0  0
  -12.2487    4.4420  -13.1661 H   0  0  0  0  0
  -10.2520    3.3476  -13.8772 H   0  0  0  0  0
   -9.7099    4.9467  -13.6963 H   0  0  0  0  0
   -9.4898    2.4458   -8.4919 H   0  0  0  0  0
   -9.2024   -0.3136   -9.2783 H   0  0  0  0  0
   -9.6036   -0.7869   -6.7967 H   0  0  0  0  0
   -9.4438    1.0323   -6.6334 H   0  0  0  0  0
   -7.3903   -0.4838   -8.0753 H   0  0  0  0  0
   -7.4440   -0.5930   -6.3024 H   0  0  0  0  0
   -7.0811    1.6861   -6.0082 H   0  0  0  0  0
   -7.7040    2.0913   -7.6550 H   0  0  0  0  0
   -5.6136    1.3652   -8.5840 H   0  0  0  0  0
   -5.6388    1.5802   -5.0509 H   0  0  0  0  0
   -2.5860    1.6046   -6.8939 H   0  0  0  0  0
   -3.3887    1.4685   -8.4619 H   0  0  0  0  0
  -10.6803   -1.9570   -8.7524 H   0  0  0  0  0
  -13.5352   -1.0586   -8.9367 H   0  0  0  0  0
  -12.7638   -3.7691   -9.4915 H   0  0  0  0  0
  -11.8620   -2.4460  -10.5200 H   0  0  0  0  0
  -14.8016   -2.5141  -10.6580 H   0  0  0  0  0
  -13.1564   -0.9838  -11.6655 H   0  0  0  0  0
  -12.3744   -2.3951  -12.4188 H   0  0  0  0  0
  -14.0477   -1.9674  -12.8525 H   0  0  0  0  0
  -12.8848   -4.5745  -11.8058 H   0  0  0  0  0
  -14.0752   -4.9102  -10.5246 H   0  0  0  0  0
  -14.6262   -4.4254  -12.1471 H   0  0  0  0  0
  -14.2141   -2.6766   -4.9986 H   0  0  0  0  0
  -16.6070   -2.6181   -4.7013 H   0  0  0  0  0
  -16.8871   -3.7393   -5.9808 H   0  0  0  0  0
  -16.3430   -0.7674   -6.1836 H   0  0  0  0  0
  -17.5514   -1.6883   -7.0019 H   0  0  0  0  0
  -15.9796   -2.6266   -8.5657 H   0  0  0  0  0
  -15.3013   -1.0760   -8.3361 H   0  0  0  0  0
  -14.4825   -4.5102   -3.5877 H   0  0  0  0  0
  -12.6720   -6.3614   -5.0833 H   0  0  0  0  0
  -12.8899   -8.0674   -3.4868 H   0  0  0  0  0
  -11.0056   -5.6969   -3.1772 H   0  0  0  0  0
  -12.1635   -4.3199   -2.8638 H   0  0  0  0  0
  -11.6889   -4.1769   -5.5373 H   0  0  0  0  0
  -10.0546   -4.6225   -4.8068 H   0  0  0  0  0
   -9.3370   -1.3746   -3.7412 H   0  0  0  0  0
   -8.7865   -3.0172   -4.0879 H   0  0  0  0  0
  1  2  1  0  0  0
  2  3  1  0  0  0
  2  5  1  0  0  0
  3  4  2  0  0  0
  3  7  1  0  0  0
  5  6  1  0  0  0
  7  8  1  0  0  0
  8  9  1  0  0  0
  8 11  1  0  0  0
  9 10  2  0  0  0
  9 15  1  0  0  0
 11 12  1  0  0  0
 12 13  2  0  0  0
 12 14  1  0  0  0
 15 16  1  0  0  0
 16 17  1  0  0  0
 16 19  1  0  0  0
 17 18  2  0  0  0
 17 24  1  0  0  0
 19 20  1  0  0  0
 20 21  1  0  0  0
 21 22  1  0  0  0
 21 23  2  0  0  0
 24 25  1  0  0  0
 25 26  1  0  0  0
 25 28  1  0  0  0
 26 27  2  0  0  0
 26 38  1  0  0  0
 28 29  1  0  0  0
 29 30  4  0  0  0
 29 31  4  0  0  0
 30 32  4  0  0  0
 31 33  4  0  0  0
 31 34  4  0  0  0
 32 33  4  0  0  0
 33 35  4  0  0  0
 34 36  4  0  0  0
 35 37  4  0  0  0
 36 37  4  0  0  0
 38 39  1  0  0  0
 39 40  1  0  0  0
 39 42  1  0  0  0
 40 41  2  0  0  0
 40 46  1  0  0  0
 42 43  1  0  0  0
 42 44  1  0  0  0
 43 45  1  0  0  0
 46 47  1  0  0  0
 47 48  1  0  0  0
 47 50  1  0  0  0
 48 49  2  0  0  0
 48 55  1  0  0  0
 50 51  1  0  0  0
 51 52  1  0  0  0
 52 53  2  0  0  0
 52 54  1  0  0  0
 55 56  1  0  0  0
 55 61  1  0  0  0
 56 57  1  0  0  0
 56 59  1  0  0  0
 57 58  2  0  0  0
 57 62  1  0  0  0
 59 60  1  0  0  0
 60 61  1  0  0  0
 62 63  1  0  0  0
 63 64  1  0  0  0
 63 66  1  0  0  0
 64 65  2  0  0  0
 64 73  1  0  0  0
 66 67  1  0  0  0
 67 68  1  0  0  0
 68 69  1  0  0  0
 69 70  1  0  0  0
 70 71  2  0  0  0
 70 72  1  0  0  0
 73 74  1  0  0  0
 74 75  1  0  0  0
 74 77  1  0  0  0
 75 76  2  0  0  0
 75 81  1  0  0  0
 77 78  1  0  0  0
 78 79  1  0  0  0
 78 80  1  0  0  0
 81 82  1  0  0  0
 81 87  1  0  0  0
 82 83  1  0  0  0
 82 85  1  0  0  0
 83 84  2  0  0  0
 83 88  1  0  0  0
 85 86  1  0  0  0
 86 87  1  0  0  0
 88 89  1  0  0  0
 89 90  1  0  0  0
 89 92  1  0  0  0
 90 91  2  0  0  0
 92 93  1  0  0  0
 93 94  1  0  0  0
 94 95  2  0  0  0
 94 96  1  0  0  0
  1 97  1  0  0  0
  1 98  1  0  0  0
  1 99  1  0  0  0
  2100  1  0  0  0
  5101  1  0  0  0
  5102  1  0  0  0
  6103  1  0  0  0
  7104  1  0  0  0
  8105  1  0  0  0
 11106  1  0  0  0
 11107  1  0  0  0
 14108  1  0  0  0
 14109  1  0  0  0
 15110  1  0  0  0
 16111  1  0  0  0
 19112  1  0  0  0
 19113  1  0  0  0
 20114  1  0  0  0
 20115  1  0  0  0
 22116  1  0  0  0
 24117  1  0  0  0
 25118  1  0  0  0
 28119  1  0  0  0
 28120  1  0  0  0
 30121  1  0  0  0
 34122  1  0  0  0
 35123  1  0  0  0
 36124  1  0  0  0
 37125  1  0  0  0
 38126  1  0  0  0
 39127  1  0  0  0
 42128  1  0  0  0
 43129  1  0  0  0
 43130  1  0  0  0
 44131  1  0  0  0
 44132  1  0  0  0
 44133  1  0  0  0
 45134  1  0  0  0
 45135  1  0  0  0
 45136  1  0  0  0
 46137  1  0  0  0
 47138  1  0  0  0
 50139  1  0  0  0
 50140  1  0  0  0
 51141  1  0  0  0
 51142  1  0  0  0
 54143  1  0  0  0
 54144  1  0  0  0
 56145  1  0  0  0
 59146  1  0  0  0
 59147  1  0  0  0
 60148  1  0  0  0
 60149  1  0  0  0
 61150  1  0  0  0
 61151  1  0  0  0
 62152  1  0  0  0
 63153  1  0  0  0
 66154  1  0  0  0
 66155  1  0  0  0
 67156  1  0  0  0
 67157  1  0  0  0
 68158  1  0  0  0
 68159  1  0  0  0
 69160  1  0  0  0
 71161  1  0  0  0
 72162  1  0  0  0
 72163  1  0  0  0
 73164  1  0  0  0
 74165  1  0  0  0
 77166  1  0  0  0
 77167  1  0  0  0
 78168  1  0  0  0
 79169  1  0  0  0
 79170  1  0  0  0
 79171  1  0  0  0
 80172  1  0  0  0
 80173  1  0  0  0
 80174  1  0  0  0
 82175  1  0  0  0
 85176  1  0  0  0
 85177  1  0  0  0
 86178  1  0  0  0
 86179  1  0  0  0
 87180  1  0  0  0
 87181  1  0  0  0
 88182  1  0  0  0
 89183  1  0  0  0
 90184  1  0  0  0
 92185  1  0  0  0
 92186  1  0  0  0
 93187  1  0  0  0
 93188  1  0  0  0
 96189  1  0  0  0
 96190  1  0  0  0
M  END
$$$$
