4y2q_ligand
  -I-interpret- 

 29 30  0  0  0  0  0  0  0  0999 V2000
  -16.8450  -11.4190   72.3960 C   0  0  0  0  0
  -17.1450  -12.3570   71.4340 C   0  0  0  0  0
  -16.7580  -10.1090   71.9750 C   0  0  0  0  0
  -17.3500  -11.9530   70.1290 C   0  0  0  0  0
  -17.2650  -10.6050   69.7830 C   0  0  0  0  0
  -18.8250  -10.3340   66.4660 C   0  0  0  0  0
  -16.8010   -8.9010   66.4800 C   0  0  0  0  0
  -18.8850  -10.2520   67.9870 C   0  0  0  0  0
  -16.8680   -8.9550   68.0140 C   0  0  0  0  0
  -17.6850  -13.0210   69.1390 C   0  0  0  0  0
  -16.9630   -9.6900   70.7150 N   0  0  0  0  0
  -18.0960   -9.1880   65.8510 N   0  3  0  0  0
  -17.4910  -10.2070   68.4170 N   0  0  0  0  0
  -17.2170  -14.2040   69.5560 F   0  0  0  0  0
  -19.0010  -13.2020   68.9220 F   0  0  0  0  0
  -17.2170  -12.8450   67.8820 F   0  0  0  0  0
  -16.6844  -11.6978   73.4374 H   0  0  0  0  0
  -17.2203  -13.4113   71.7002 H   0  0  0  0  0
  -16.5036   -9.3561   72.7210 H   0  0  0  0  0
  -19.8484  -10.3170   66.0912 H   0  0  0  0  0
  -18.2916  -11.2474   66.2028 H   0  0  0  0  0
  -16.0902   -9.6575   66.1473 H   0  0  0  0  0
  -16.5027   -7.8931   66.1914 H   0  0  0  0  0
  -19.4136  -11.1026   68.4173 H   0  0  0  0  0
  -19.4403   -9.3764   68.3232 H   0  0  0  0  0
  -17.4553   -8.1156   68.3861 H   0  0  0  0  0
  -15.8616   -8.8950   68.4283 H   0  0  0  0  0
  -18.6798   -8.3597   65.9667 H   0  0  0  0  0
  -17.9132   -9.4318   64.8776 H   0  0  0  0  0
  2  1  4  0  0  0
  3  1  4  0  0  0
  4  2  4  0  0  0
 11  3  4  0  0  0
  5  4  4  0  0  0
  4 10  1  0  0  0
  5 11  4  0  0  0
 13  5  1  0  0  0
  8  6  1  0  0  0
  6 12  1  0  0  0
  7  9  1  0  0  0
 12  7  1  0  0  0
  8 13  1  0  0  0
  9 13  1  0  0  0
 10 14  1  0  0  0
 10 15  1  0  0  0
 10 16  1  0  0  0
  1 17  1  0  0  0
  2 18  1  0  0  0
  3 19  1  0  0  0
  6 20  1  0  0  0
  6 21  1  0  0  0
  7 22  1  0  0  0
  7 23  1  0  0  0
  8 24  1  0  0  0
  8 25  1  0  0  0
  9 26  1  0  0  0
  9 27  1  0  0  0
 12 28  1  0  0  0
 12 29  1  0  0  0
M  END
$$$$
