### 
### Created by X-TOOL on Mon Sep 10 21:12:51 2018
### 

@<TRIPOS>MOLECULE
1xh3_ligand
  204   206     1     0     0
SMALL
GAST_HUCK


@<TRIPOS>ATOM
      1 N          13.0620   26.3560   18.3940 N.4       1 LEU         0.2379
      2 CA         11.9780   26.8800   17.5090 C.3       1 LEU         0.0654
      3 C          10.6180   26.5790   18.1040 C.2       1 LEU         0.2292
      4 O          10.4030   25.4380   18.4880 O.2       1 LEU        -0.3905
      5 CB         12.0450   26.1990   16.1350 C.3       1 LEU         0.0102
      6 CG         11.0340   26.6590   15.1020 C.3       1 LEU        -0.0394
      7 CD1        11.5480   27.9540   14.4920 C.3       1 LEU        -0.0623
      8 CD2        10.7620   25.5910   14.0150 C.3       1 LEU        -0.0623
      9 N           9.6870   27.5640   18.1450 N.am      1 PRO        -0.2471
     10 CA          8.3980   27.3240   18.7810 C.3       1 PRO         0.1339
     11 C           7.4430   26.4770   17.9530 C.2       1 PRO         0.2041
     12 O           7.7040   26.1980   16.7740 O.2       1 PRO        -0.3944
     13 CB          7.8260   28.7420   18.9670 C.3       1 PRO        -0.0104
     14 CG          8.3820   29.4820   17.7970 C.3       1 PRO        -0.0281
     15 CD          9.7850   28.9440   17.6440 C.3       1 PRO         0.0371
     16 N           6.3070   26.1190   18.5450 N.am      1 ALA        -0.2640
     17 CA          5.3070   25.2580   17.9130 C.3       1 ALA         0.1282
     18 C           4.3670   26.0470   17.0180 C.2       1 ALA         0.2036
     19 O           4.0230   27.1830   17.3350 O.2       1 ALA        -0.3944
     20 CB          4.4810   24.5830   18.9910 C.3       1 ALA        -0.0244
     21 N           3.8850   25.4190   15.9480 N.am      1 VAL        -0.2635
     22 CA          2.7300   25.9310   15.1980 C.3       1 VAL         0.1332
     23 C           1.7110   24.8040   15.0160 C.2       1 VAL         0.2042
     24 O           2.0130   23.7770   14.4100 O.2       1 VAL        -0.3944
     25 CB          3.1350   26.4800   13.8280 C.3       1 VAL        -0.0063
     26 CG1         1.9480   27.1410   13.1250 C.3       1 VAL        -0.0584
     27 CG2         4.2510   27.4570   13.9800 C.3       1 VAL        -0.0584
     28 N           0.5090   25.0430   15.5330 N.am      1 VAL        -0.2635
     29 CA         -0.5830   24.0790   15.5750 C.3       1 VAL         0.1332
     30 C          -1.7530   24.6350   14.7660 C.2       1 VAL         0.2039
     31 O          -1.6990   25.7650   14.2760 O.2       1 VAL        -0.3944
     32 CB         -1.0650   23.8980   17.0430 C.3       1 VAL        -0.0063
     33 CG1        -2.1780   22.8550   17.1590 C.3       1 VAL        -0.0584
     34 CG2         0.1010   23.5340   17.9400 C.3       1 VAL        -0.0584
     35 N          -2.7960   23.8310   14.6040 N.am      1 GLY        -0.2664
     36 CA         -4.1190   24.3450   14.3040 C.3       1 GLY         0.1201
     37 C          -4.4450   24.3450   12.8340 C.2       1 GLY         0.2007
     38 O          -3.5900   24.6490   11.9960 O.2       1 GLY        -0.3947
     39 N          -5.6950   23.9880   12.5450 N.am      1 LEU        -0.2640
     40 CA         -6.2810   24.0980   11.2130 C.3       1 LEU         0.1312
     41 C          -6.1130   25.5210   10.6880 C.2       1 LEU         0.2040
     42 O          -5.7750   25.7420    9.5100 O.2       1 LEU        -0.3944
     43 CB         -7.7820   23.7740   11.2670 C.3       1 LEU        -0.0101
     44 CG         -8.2260   22.3470   11.6160 C.3       1 LEU        -0.0425
     45 CD1        -9.7510   22.2520   11.6590 C.3       1 LEU        -0.0625
     46 CD2        -7.6620   21.3350   10.6210 C.3       1 LEU        -0.0625
     47 N          -6.3720   26.4710   11.5820 N.am      1 SER        -0.2616
     48 CA         -6.2640   27.8910   11.3030 C.3       1 SER         0.1541
     49 C          -5.8590   28.5860   12.6100 C.2       1 SER         0.2087
     50 O          -5.7870   27.9330   13.6640 O.2       1 SER        -0.3941
     51 CB         -7.6150   28.4010   10.7920 C.3       1 SER         0.0843
     52 OG         -7.7280   29.8160   10.8540 O.3       1 SER        -0.3903
     53 N          -5.5310   29.8910   12.5430 N.am      1 PRO        -0.2498
     54 CA         -5.5520   30.7100   13.7620 C.3       1 PRO         0.1338
     55 C          -6.7020   30.3450   14.7180 C.2       1 PRO         0.2039
     56 O          -6.4760   30.1960   15.9180 O.2       1 PRO        -0.3944
     57 CB         -5.7260   32.1370   13.2260 C.3       1 PRO        -0.0104
     58 CG         -5.3240   32.0820   11.7400 C.3       1 PRO        -0.0281
     59 CD         -5.0180   30.6470   11.3860 C.3       1 PRO         0.0369
     60 N          -7.9100   30.1760   14.1750 N.am      1 GLY        -0.2664
     61 CA         -9.0860   29.8050   14.9650 C.3       1 GLY         0.1201
     62 C          -8.9380   28.5310   15.7770 C.2       1 GLY         0.2007
     63 O          -9.3350   28.4830   16.9440 O.2       1 GLY        -0.3947
     64 N          -8.3610   27.4920   15.1670 N.am      1 GLU        -0.2639
     65 CA         -8.2180   26.1950   15.8490 C.3       1 GLU         0.1324
     66 C          -7.2020   26.1710   16.9830 C.2       1 GLU         0.2040
     67 O          -7.1650   25.2070   17.7620 O.2       1 GLU        -0.3944
     68 CB         -7.9060   25.0680   14.8520 C.3       1 GLU        -0.0008
     69 CG         -9.0930   24.1790   14.6410 C.3       1 GLU         0.0044
     70 CD        -10.3430   24.9670   14.3260 C.2       1 GLU         0.0350
     71 OE1       -10.2350   25.9600   13.5660 O.co2     1 GLU        -0.5690
     72 OE2       -11.4270   24.6070   14.8500 O.co2     1 GLU        -0.5690
     73 N          -6.3820   27.2170   17.0630 N.am      1 GLN        -0.2636
     74 CA         -5.4400   27.3720   18.1640 C.3       1 GLN         0.1330
     75 C          -6.1260   27.9120   19.4270 C.2       1 GLN         0.2040
     76 O          -5.5370   27.8800   20.5120 O.2       1 GLN        -0.3944
     77 CB         -4.2920   28.2860   17.7310 C.3       1 GLN         0.0045
     78 CG         -3.3920   27.6740   16.6340 C.3       1 GLN         0.0412
     79 CD         -2.5200   28.7080   15.8940 C.2       1 GLN         0.1737
     80 OE1        -2.3660   29.8550   16.3330 O.2       1 GLN        -0.3973
     81 NE2        -1.9230   28.2830   14.7760 N.am      1 GLN        -0.3009
     82 N          -7.3460   28.4300   19.3030 N.am      1 GLU        -0.2636
     83 CA         -8.0260   29.0160   20.4640 C.3       1 GLU         0.1324
     84 C          -8.3590   28.0180   21.5450 C.2       1 GLU         0.2036
     85 O          -8.7070   26.8690   21.2750 O.2       1 GLU        -0.3944
     86 CB         -9.3160   29.7450   20.0600 C.3       1 GLU        -0.0008
     87 CG         -9.0560   31.0110   19.2470 C.3       1 GLU         0.0044
     88 CD        -10.3240   31.7330   18.8490 C.2       1 GLU         0.0350
     89 OE1       -11.4090   31.4930   19.4320 O.co2     1 GLU        -0.5690
     90 OE2       -10.2120   32.5590   17.9230 O.co2     1 GLU        -0.5690
     91 N          -8.2770   28.4810   22.7850 N.am      1 TYR        -0.2679
     92 CA         -8.7850   27.7290   23.9210 C.3       1 TYR         0.1025
     93 C         -10.3100   27.7240   23.8930 C.2       1 TYR         0.0619
     94 O         -10.8890   28.5570   23.1670 O.co2     1 TYR        -0.5665
     95 CB         -8.2760   28.3450   25.2320 C.3       1 TYR         0.0108
     96 CG         -6.8040   28.1550   25.5370 C.ar      1 TYR        -0.0499
     97 CD1        -5.7900   28.6770   24.7070 C.ar      1 TYR        -0.0686
     98 CD2        -6.4200   27.4730   26.6710 C.ar      1 TYR        -0.0686
     99 CE1        -4.4600   28.5320   25.0070 C.ar      1 TYR        -0.0398
    100 CE2        -5.0710   27.3040   26.9740 C.ar      1 TYR        -0.0398
    101 CZ         -4.1040   27.8230   26.1480 C.ar      1 TYR         0.0805
    102 OH         -2.7650   27.6950   26.4530 O.3       1 TYR        -0.3376
    103 OXT       -10.9410   26.9690   24.6260 O.co2     1 TYR        -0.5665
    104 H1         13.9595   26.5638   17.9850 H         1 LEU         0.2015
    105 H2         12.9613   25.3580   18.4938 H         1 LEU         0.2015
    106 H3         12.9965   26.7927   19.3001 H         1 LEU         0.2015
    107 H4         12.0995   27.9670   17.3921 H         1 LEU         0.1098
    108 H5         11.8978   25.1199   16.2892 H         1 LEU         0.0348
    109 H6         13.0490   26.3769   15.7223 H         1 LEU         0.0348
    110 H7         10.0826   26.8645   15.6145 H         1 LEU         0.0299
    111 H8         10.8331   28.3126   13.7368 H         1 LEU         0.0232
    112 H9         12.5236   27.7737   14.0169 H         1 LEU         0.0232
    113 H10        11.6590   28.7123   15.2811 H         1 LEU         0.0232
    114 H11        10.3926   24.6702   14.4900 H         1 LEU         0.0232
    115 H12        11.6938   25.3749   13.4719 H         1 LEU         0.0232
    116 H13        10.0062   25.9688   13.3107 H         1 LEU         0.0232
    117 H14         8.5466   26.8336   19.7544 H         1 PRO         0.0802
    118 H15         8.1673   29.1853   19.9141 H         1 PRO         0.0313
    119 H16         6.7263   28.7315   18.9423 H         1 PRO         0.0313
    120 H17         8.3995   30.5642   17.9935 H         1 PRO         0.0287
    121 H18         7.7882   29.2830   16.8927 H         1 PRO         0.0287
    122 H19        10.0970   28.9570   16.5893 H         1 PRO         0.0524
    123 H20        10.4970   29.5294   18.2443 H         1 PRO         0.0524
    124 H21         6.1272   26.4555   19.4693 H         1 ALA         0.1883
    125 H22         5.8223   24.4956   17.3103 H         1 ALA         0.0797
    126 H23         3.7268   23.9338   18.5224 H         1 ALA         0.0277
    127 H24         3.9782   25.3481   19.6007 H         1 ALA         0.0277
    128 H25         5.1388   23.9774   19.6317 H         1 ALA         0.0277
    129 H26         4.3226   24.5724   15.6452 H         1 VAL         0.1883
    130 H27         2.2678   26.7438   15.7774 H         1 VAL         0.0802
    131 H28         3.4838   25.6420   13.2067 H         1 VAL         0.0343
    132 H29         2.2694   27.5249   12.1455 H         1 VAL         0.0234
    133 H30         1.5743   27.9728   13.7401 H         1 VAL         0.0234
    134 H31         1.1468   26.4007   12.9837 H         1 VAL         0.0234
    135 H32         5.0978   26.9705   14.4863 H         1 VAL         0.0234
    136 H33         3.9091   28.3140   14.5788 H         1 VAL         0.0234
    137 H34         4.5696   27.8072   12.9871 H         1 VAL         0.0234
    138 H35         0.3427   25.9496   15.9208 H         1 VAL         0.1883
    139 H36        -0.2524   23.1150   15.1611 H         1 VAL         0.0802
    140 H37        -1.4712   24.8615   17.3847 H         1 VAL         0.0343
    141 H38        -2.4851   22.7620   18.2112 H         1 VAL         0.0234
    142 H39        -1.8095   21.8837   16.7974 H         1 VAL         0.0234
    143 H40        -3.0398   23.1693   16.5520 H         1 VAL         0.0234
    144 H41         0.8897   24.2946   17.8428 H         1 VAL         0.0234
    145 H42         0.4995   22.5526   17.6433 H         1 VAL         0.0234
    146 H43        -0.2398   23.4907   18.9850 H         1 VAL         0.0234
    147 H44        -2.6665   22.8433   14.6911 H         1 GLY         0.1881
    148 H45        -4.1831   25.3787   14.6747 H         1 GLY         0.0763
    149 H46        -4.8609   23.7219   14.8250 H         1 GLY         0.0763
    150 H47        -6.2642   23.6240   13.2823 H         1 LEU         0.1883
    151 H48        -5.7768   23.3931   10.5356 H         1 LEU         0.0800
    152 H49        -8.1973   24.0066   10.2753 H         1 LEU         0.0315
    153 H50        -8.2287   24.4425   12.0177 H         1 LEU         0.0315
    154 H51        -7.8358   22.1015   12.6148 H         1 LEU         0.0298
    155 H52       -10.0473   21.2229   11.9104 H         1 LEU         0.0232
    156 H53       -10.1631   22.5223   10.6756 H         1 LEU         0.0232
    157 H54       -10.1400   22.9423   12.4220 H         1 LEU         0.0232
    158 H55        -6.5650   21.4138   10.5999 H         1 LEU         0.0232
    159 H56        -8.0639   21.5433    9.6185 H         1 LEU         0.0232
    160 H57        -7.9507   20.3189   10.9280 H         1 LEU         0.0232
    161 H58        -6.6574   26.1909   12.4986 H         1 SER         0.1884
    162 H59        -5.4949   28.0687   10.5369 H         1 SER         0.0823
    163 H60        -8.4131   27.9574   11.4054 H         1 SER         0.0606
    164 H61        -7.7375   28.0841    9.7458 H         1 SER         0.0606
    165 H62        -8.5803   30.0791   10.5272 H         1 SER         0.2097
    166 H63        -4.5987   30.6111   14.3019 H         1 PRO         0.0802
    167 H64        -5.0737   32.8334   13.7732 H         1 PRO         0.0313
    168 H65        -6.7730   32.4588   13.3274 H         1 PRO         0.0313
    169 H66        -4.4330   32.7048   11.5722 H         1 PRO         0.0287
    170 H67        -6.1519   32.4507   11.1166 H         1 PRO         0.0287
    171 H68        -5.5358   30.3509   10.4618 H         1 PRO         0.0524
    172 H69        -3.9354   30.4941   11.2649 H         1 PRO         0.0524
    173 H70        -8.0160   30.3080   13.1894 H         1 GLY         0.1881
    174 H71        -9.9327   29.6735   14.2753 H         1 GLY         0.0763
    175 H72        -9.3039   30.6292   15.6601 H         1 GLY         0.0763
    176 H73        -8.0209   27.5968   14.2325 H         1 GLU         0.1883
    177 H74        -9.1971   25.9734   16.2988 H         1 GLU         0.0801
    178 H75        -7.0728   24.4654   15.2427 H         1 GLU         0.0330
    179 H76        -7.6166   25.5128   13.8885 H         1 GLU         0.0330
    180 H77        -9.2643   23.5926   15.5557 H         1 GLU         0.0433
    181 H78        -8.8821   23.4982   13.8031 H         1 GLU         0.0433
    182 H79        -6.4134   27.9154   16.3479 H         1 GLN         0.1883
    183 H80        -5.0236   26.3821   18.4019 H         1 GLN         0.0801
    184 H81        -3.6687   28.5019   18.6113 H         1 GLN         0.0337
    185 H82        -4.7203   29.2233   17.3462 H         1 GLN         0.0337
    186 H83        -4.0364   27.1731   15.8966 H         1 GLN         0.0504
    187 H84        -2.7279   26.9335   17.1037 H         1 GLN         0.0504
    188 H85        -1.3440   28.9063   14.2504 H         1 GLN         0.1814
    189 H86        -2.0554   27.3418   14.4652 H         1 GLN         0.1814
    190 H87        -7.8020   28.4198   18.4131 H         1 GLU         0.1883
    191 H88        -7.3385   29.7573   20.8972 H         1 GLU         0.0801
    192 H89        -9.8634   30.0212   20.9733 H         1 GLU         0.0330
    193 H90        -9.9309   29.0611   19.4566 H         1 GLU         0.0330
    194 H91        -8.5097   30.7340   18.3333 H         1 GLU         0.0433
    195 H92        -8.4394   31.6936   19.8502 H         1 GLU         0.0433
    196 H93        -7.8536   29.3730   22.9433 H         1 TYR         0.1877
    197 H94        -8.4242   26.6921   23.8530 H         1 TYR         0.0747
    198 H95        -8.8495   27.8976   26.0572 H         1 TYR         0.0446
    199 H96        -8.4730   29.4265   25.1926 H         1 TYR         0.0446
    200 H97        -6.0706   29.2087   23.8050 H         1 TYR         0.0530
    201 H98        -7.1746   27.0643   27.3333 H         1 TYR         0.0530
    202 H99        -3.6997   28.9627   24.3656 H         1 TYR         0.0525
    203 H100       -4.7828   26.7601   27.8663 H         1 TYR         0.0525
    204 H101       -2.5400   26.7736   26.5054 H         1 TYR         0.2458
@<TRIPOS>BOND
     1    1    2 1  
     2    2    3 1  
     3    2    5 1  
     4    3    4 2  
     5    3    9 am 
     6    5    6 1  
     7    6    7 1  
     8    6    8 1  
     9    9   10 1  
    10    9   15 1  
    11   10   11 1  
    12   10   13 1  
    13   11   12 2  
    14   11   16 am 
    15   13   14 1  
    16   14   15 1  
    17   16   17 1  
    18   17   18 1  
    19   17   20 1  
    20   18   19 2  
    21   18   21 am 
    22   21   22 1  
    23   22   23 1  
    24   22   25 1  
    25   23   24 2  
    26   23   28 am 
    27   25   26 1  
    28   25   27 1  
    29   28   29 1  
    30   29   30 1  
    31   29   32 1  
    32   30   31 2  
    33   30   35 am 
    34   32   33 1  
    35   32   34 1  
    36   35   36 1  
    37   36   37 1  
    38   37   38 2  
    39   37   39 am 
    40   39   40 1  
    41   40   41 1  
    42   40   43 1  
    43   41   42 2  
    44   41   47 am 
    45   43   44 1  
    46   44   45 1  
    47   44   46 1  
    48   47   48 1  
    49   48   49 1  
    50   48   51 1  
    51   49   50 2  
    52   49   53 am 
    53   51   52 1  
    54   53   54 1  
    55   53   59 1  
    56   54   55 1  
    57   54   57 1  
    58   55   56 2  
    59   55   60 am 
    60   57   58 1  
    61   58   59 1  
    62   60   61 1  
    63   61   62 1  
    64   62   63 2  
    65   62   64 am 
    66   64   65 1  
    67   65   66 1  
    68   65   68 1  
    69   66   67 2  
    70   66   73 am 
    71   68   69 1  
    72   69   70 1  
    73   70   71 ar 
    74   70   72 ar 
    75   73   74 1  
    76   74   75 1  
    77   74   77 1  
    78   75   76 2  
    79   75   82 am 
    80   77   78 1  
    81   78   79 1  
    82   79   80 2  
    83   79   81 am 
    84   82   83 1  
    85   83   84 1  
    86   83   86 1  
    87   84   85 2  
    88   84   91 am 
    89   86   87 1  
    90   87   88 1  
    91   88   89 ar 
    92   88   90 ar 
    93   91   92 1  
    94   92   93 1  
    95   92   95 1  
    96   93   94 ar 
    97   93  103 ar 
    98   95   96 1  
    99   96   97 ar 
   100   96   98 ar 
   101   97   99 ar 
   102   98  100 ar 
   103   99  101 ar 
   104  100  101 ar 
   105  101  102 1  
   106    1  104 1  
   107    1  105 1  
   108    1  106 1  
   109    2  107 1  
   110    5  108 1  
   111    5  109 1  
   112    6  110 1  
   113    7  111 1  
   114    7  112 1  
   115    7  113 1  
   116    8  114 1  
   117    8  115 1  
   118    8  116 1  
   119   10  117 1  
   120   13  118 1  
   121   13  119 1  
   122   14  120 1  
   123   14  121 1  
   124   15  122 1  
   125   15  123 1  
   126   16  124 1  
   127   17  125 1  
   128   20  126 1  
   129   20  127 1  
   130   20  128 1  
   131   21  129 1  
   132   22  130 1  
   133   25  131 1  
   134   26  132 1  
   135   26  133 1  
   136   26  134 1  
   137   27  135 1  
   138   27  136 1  
   139   27  137 1  
   140   28  138 1  
   141   29  139 1  
   142   32  140 1  
   143   33  141 1  
   144   33  142 1  
   145   33  143 1  
   146   34  144 1  
   147   34  145 1  
   148   34  146 1  
   149   35  147 1  
   150   36  148 1  
   151   36  149 1  
   152   39  150 1  
   153   40  151 1  
   154   43  152 1  
   155   43  153 1  
   156   44  154 1  
   157   45  155 1  
   158   45  156 1  
   159   45  157 1  
   160   46  158 1  
   161   46  159 1  
   162   46  160 1  
   163   47  161 1  
   164   48  162 1  
   165   51  163 1  
   166   51  164 1  
   167   52  165 1  
   168   54  166 1  
   169   57  167 1  
   170   57  168 1  
   171   58  169 1  
   172   58  170 1  
   173   59  171 1  
   174   59  172 1  
   175   60  173 1  
   176   61  174 1  
   177   61  175 1  
   178   64  176 1  
   179   65  177 1  
   180   68  178 1  
   181   68  179 1  
   182   69  180 1  
   183   69  181 1  
   184   73  182 1  
   185   74  183 1  
   186   77  184 1  
   187   77  185 1  
   188   78  186 1  
   189   78  187 1  
   190   81  188 1  
   191   81  189 1  
   192   82  190 1  
   193   83  191 1  
   194   86  192 1  
   195   86  193 1  
   196   87  194 1  
   197   87  195 1  
   198   91  196 1  
   199   92  197 1  
   200   95  198 1  
   201   95  199 1  
   202   97  200 1  
   203   98  201 1  
   204   99  202 1  
   205  100  203 1  
   206  102  204 1  
@<TRIPOS>SUBSTRUCTURE
     1 LEU         1

