1xh3_ligand
  -I-interpret- 

207209  0  0  0  0  0  0  0  0999 V2000
   13.0620   26.3560   18.3940 N   0  3  0  0  0
   11.9780   26.8800   17.5090 C   0  0  0  0  0
   10.6180   26.5790   18.1040 C   0  0  0  0  0
   10.4030   25.4380   18.4880 O   0  0  0  0  0
   12.0450   26.1990   16.1350 C   0  0  0  0  0
   11.0340   26.6590   15.1020 C   0  0  0  0  0
   11.5480   27.9540   14.4920 C   0  0  0  0  0
   10.7620   25.5910   14.0150 C   0  0  0  0  0
    9.6870   27.5640   18.1450 N   0  0  0  0  0
    8.3980   27.3240   18.7810 C   0  0  0  0  0
    7.4430   26.4770   17.9530 C   0  0  0  0  0
    7.7040   26.1980   16.7740 O   0  0  0  0  0
    7.8260   28.7420   18.9670 C   0  0  0  0  0
    8.3820   29.4820   17.7970 C   0  0  0  0  0
    9.7850   28.9440   17.6440 C   0  0  0  0  0
    6.3070   26.1190   18.5450 N   0  0  0  0  0
    5.3070   25.2580   17.9130 C   0  0  0  0  0
    4.3670   26.0470   17.0180 C   0  0  0  0  0
    4.0230   27.1830   17.3350 O   0  0  0  0  0
    4.4810   24.5830   18.9910 C   0  0  0  0  0
    3.8850   25.4190   15.9480 N   0  0  0  0  0
    2.7300   25.9310   15.1980 C   0  0  0  0  0
    1.7110   24.8040   15.0160 C   0  0  0  0  0
    2.0130   23.7770   14.4100 O   0  0  0  0  0
    3.1350   26.4800   13.8280 C   0  0  0  0  0
    1.9480   27.1410   13.1250 C   0  0  0  0  0
    4.2510   27.4570   13.9800 C   0  0  0  0  0
    0.5090   25.0430   15.5330 N   0  0  0  0  0
   -0.5830   24.0790   15.5750 C   0  0  0  0  0
   -1.7530   24.6350   14.7660 C   0  0  0  0  0
   -1.6990   25.7650   14.2760 O   0  0  0  0  0
   -1.0650   23.8980   17.0430 C   0  0  0  0  0
   -2.1780   22.8550   17.1590 C   0  0  0  0  0
    0.1010   23.5340   17.9400 C   0  0  0  0  0
   -2.7960   23.8310   14.6040 N   0  0  0  0  0
   -4.1190   24.3450   14.3040 C   0  0  0  0  0
   -4.4450   24.3450   12.8340 C   0  0  0  0  0
   -3.5900   24.6490   11.9960 O   0  0  0  0  0
   -5.6950   23.9880   12.5450 N   0  0  0  0  0
   -6.2810   24.0980   11.2130 C   0  0  0  0  0
   -6.1130   25.5210   10.6880 C   0  0  0  0  0
   -5.7750   25.7420    9.5100 O   0  0  0  0  0
   -7.7820   23.7740   11.2670 C   0  0  0  0  0
   -8.2260   22.3470   11.6160 C   0  0  0  0  0
   -9.7510   22.2520   11.6590 C   0  0  0  0  0
   -7.6620   21.3350   10.6210 C   0  0  0  0  0
   -6.3720   26.4710   11.5820 N   0  0  0  0  0
   -6.2640   27.8910   11.3030 C   0  0  0  0  0
   -5.8590   28.5860   12.6100 C   0  0  0  0  0
   -5.7870   27.9330   13.6640 O   0  0  0  0  0
   -7.6150   28.4010   10.7920 C   0  0  0  0  0
   -7.7280   29.8160   10.8540 O   0  0  0  0  0
   -5.5310   29.8910   12.5430 N   0  0  0  0  0
   -5.5520   30.7100   13.7620 C   0  0  0  0  0
   -6.7020   30.3450   14.7180 C   0  0  0  0  0
   -6.4760   30.1960   15.9180 O   0  0  0  0  0
   -5.7260   32.1370   13.2260 C   0  0  0  0  0
   -5.3240   32.0820   11.7400 C   0  0  0  0  0
   -5.0180   30.6470   11.3860 C   0  0  0  0  0
   -7.9100   30.1760   14.1750 N   0  0  0  0  0
   -9.0860   29.8050   14.9650 C   0  0  0  0  0
   -8.9380   28.5310   15.7770 C   0  0  0  0  0
   -9.3350   28.4830   16.9440 O   0  0  0  0  0
   -8.3610   27.4920   15.1670 N   0  0  0  0  0
   -8.2180   26.1950   15.8490 C   0  0  0  0  0
   -7.2020   26.1710   16.9830 C   0  0  0  0  0
   -7.1650   25.2070   17.7620 O   0  0  0  0  0
   -7.9060   25.0680   14.8520 C   0  0  0  0  0
   -9.0930   24.1790   14.6410 C   0  0  0  0  0
  -10.3430   24.9670   14.3260 C   0  0  0  0  0
  -10.2350   25.9600   13.5660 O   0  0  0  0  0
  -11.4270   24.6070   14.8500 O   0  0  0  0  0
   -6.3820   27.2170   17.0630 N   0  0  0  0  0
   -5.4400   27.3720   18.1640 C   0  0  0  0  0
   -6.1260   27.9120   19.4270 C   0  0  0  0  0
   -5.5370   27.8800   20.5120 O   0  0  0  0  0
   -4.2920   28.2860   17.7310 C   0  0  0  0  0
   -3.3920   27.6740   16.6340 C   0  0  0  0  0
   -2.5200   28.7080   15.8940 C   0  0  0  0  0
   -2.3660   29.8550   16.3330 O   0  0  0  0  0
   -1.9230   28.2830   14.7760 N   0  0  0  0  0
   -7.3460   28.4300   19.3030 N   0  0  0  0  0
   -8.0260   29.0160   20.4640 C   0  0  0  0  0
   -8.3590   28.0180   21.5450 C   0  0  0  0  0
   -8.7070   26.8690   21.2750 O   0  0  0  0  0
   -9.3160   29.7450   20.0600 C   0  0  0  0  0
   -9.0560   31.0110   19.2470 C   0  0  0  0  0
  -10.3240   31.7330   18.8490 C   0  0  0  0  0
  -11.4090   31.4930   19.4320 O   0  0  0  0  0
  -10.2120   32.5590   17.9230 O   0  0  0  0  0
   -8.2770   28.4810   22.7850 N   0  0  0  0  0
   -8.7850   27.7290   23.9210 C   0  0  0  0  0
  -10.3100   27.7240   23.8930 C   0  0  0  0  0
  -10.8890   28.5570   23.1670 O   0  0  0  0  0
   -8.2760   28.3450   25.2320 C   0  0  0  0  0
   -6.8040   28.1550   25.5370 C   0  0  0  0  0
   -5.7900   28.6770   24.7070 C   0  0  0  0  0
   -6.4200   27.4730   26.6710 C   0  0  0  0  0
   -4.4600   28.5320   25.0070 C   0  0  0  0  0
   -5.0710   27.3040   26.9740 C   0  0  0  0  0
   -4.1040   27.8230   26.1480 C   0  0  0  0  0
   -2.7650   27.6950   26.4530 O   0  0  0  0  0
  -10.9410   26.9690   24.6260 O   0  0  0  0  0
   13.0083   26.8147   19.3034 H   0  0  0  0  0
   12.9460   25.3495   18.5122 H   0  0  0  0  0
   13.9690   26.5473   17.9684 H   0  0  0  0  0
   12.1176   27.9566   17.4115 H   0  0  0  0  0
   11.8381   25.1434   16.3108 H   0  0  0  0  0
   13.0260   26.4405   15.7258 H   0  0  0  0  0
   10.0739   26.8232   15.5912 H   0  0  0  0  0
   12.4780   27.7586   13.9581 H   0  0  0  0  0
   10.8050   28.3474   13.7982 H   0  0  0  0  0
   11.7281   28.6808   15.2841 H   0  0  0  0  0
   10.0131   25.9666   13.3178 H   0  0  0  0  0
   11.6861   25.3779   13.4776 H   0  0  0  0  0
   10.3960   24.6791   14.4869 H   0  0  0  0  0
    8.5208   26.7568   19.7037 H   0  0  0  0  0
    8.1044   29.1888   19.9215 H   0  0  0  0  0
    6.7366   28.7580   18.9990 H   0  0  0  0  0
    8.3720   30.5608   17.9526 H   0  0  0  0  0
    7.7857   29.3321   16.8969 H   0  0  0  0  0
   10.1366   28.9878   16.6132 H   0  0  0  0  0
   10.5185   29.5343   18.1932 H   0  0  0  0  0
    6.1236   26.4623   19.4878 H   0  0  0  0  0
    5.8366   24.5268   17.3023 H   0  0  0  0  0
    5.1339   23.9834   19.6252 H   0  0  0  0  0
    3.9834   25.3422   19.5945 H   0  0  0  0  0
    3.7341   23.9400   18.5254 H   0  0  0  0  0
    4.3314   24.5554   15.6391 H   0  0  0  0  0
    2.2948   26.7522   15.7675 H   0  0  0  0  0
    3.4696   25.6452   13.2122 H   0  0  0  0  0
    1.1549   26.4064   12.9857 H   0  0  0  0  0
    1.5787   27.9650   13.7355 H   0  0  0  0  0
    2.2677   27.5209   12.1547 H   0  0  0  0  0
    3.9268   28.2809   14.6157 H   0  0  0  0  0
    5.1076   26.9602   14.4355 H   0  0  0  0  0
    4.5316   27.8416   12.9995 H   0  0  0  0  0
    0.3394   25.9677   15.9286 H   0  0  0  0  0
   -0.2408   23.1261   15.1714 H   0  0  0  0  0
   -1.4810   24.8511   17.3694 H   0  0  0  0  0
   -3.0313   23.1676   16.5571 H   0  0  0  0  0
   -1.8116   21.8931   16.8004 H   0  0  0  0  0
   -2.4814   22.7638   18.2019 H   0  0  0  0  0
    0.5465   22.6012   17.5941 H   0  0  0  0  0
    0.8462   24.3287   17.9055 H   0  0  0  0  0
   -0.2540   23.4111   18.9632 H   0  0  0  0  0
   -2.6639   22.8235   14.6929 H   0  0  0  0  0
   -4.1540   25.3790   14.6471 H   0  0  0  0  0
   -4.8420   23.6972   14.7997 H   0  0  0  0  0
   -6.2756   23.6168   13.2970 H   0  0  0  0  0
   -5.7736   23.3931   10.5544 H   0  0  0  0  0
   -8.1403   23.9378   10.2507 H   0  0  0  0  0
   -8.1732   24.3939   12.0737 H   0  0  0  0  0
   -7.8322   22.1089   12.6041 H   0  0  0  0  0
  -10.1352   22.9364   12.4153 H   0  0  0  0  0
  -10.1581   22.5201   10.6841 H   0  0  0  0  0
  -10.0433   21.2319   11.9081 H   0  0  0  0  0
   -8.0176   21.5755    9.6191 H   0  0  0  0  0
   -6.5730   21.3759   10.6410 H   0  0  0  0  0
   -7.9943   20.3338   10.8953 H   0  0  0  0  0
   -6.6631   26.1853   12.5169 H   0  0  0  0  0
   -5.5171   28.0989   10.5369 H   0  0  0  0  0
   -8.3937   27.9757   11.4251 H   0  0  0  0  0
   -7.7109   28.1037    9.7477 H   0  0  0  0  0
   -8.5893   30.0819   10.5237 H   0  0  0  0  0
   -4.6502   30.5657   14.3570 H   0  0  0  0  0
   -5.1070   32.8448   13.7773 H   0  0  0  0  0
   -6.7531   32.4819   13.3454 H   0  0  0  0  0
   -4.4471   32.7056   11.5661 H   0  0  0  0  0
   -6.1374   32.4557   11.1181 H   0  0  0  0  0
   -5.4803   30.3401   10.4478 H   0  0  0  0  0
   -3.9554   30.4765   11.2131 H   0  0  0  0  0
   -8.0181   30.3107   13.1697 H   0  0  0  0  0
   -9.8986   29.6352   14.2587 H   0  0  0  0  0
   -9.2549   30.6135   15.6763 H   0  0  0  0  0
   -8.0141   27.5989   14.2138 H   0  0  0  0  0
   -9.1911   26.0292   16.3113 H   0  0  0  0  0
   -7.0908   24.4665   15.2542 H   0  0  0  0  0
   -7.6361   25.5170   13.8961 H   0  0  0  0  0
   -9.2663   23.6188   15.5598 H   0  0  0  0  0
   -8.8816   23.5238   13.7959 H   0  0  0  0  0
  -11.2767   23.8279   15.3904 H   0  0  0  0  0
   -6.4141   27.9293   16.3336 H   0  0  0  0  0
   -5.0403   26.3897   18.4157 H   0  0  0  0  0
   -3.6664   28.4610   18.6063 H   0  0  0  0  0
   -4.7346   29.1938   17.3210 H   0  0  0  0  0
   -4.0482   27.2145   15.8948 H   0  0  0  0  0
   -2.7175   26.9708   17.1225 H   0  0  0  0  0
   -1.3148   28.9121   14.2518 H   0  0  0  0  0
   -2.0757   27.3296   14.4471 H   0  0  0  0  0
   -7.8111   28.4195   18.3953 H   0  0  0  0  0
   -7.3045   29.7241   20.8717 H   0  0  0  0  0
   -9.8324   30.0376   20.9742 H   0  0  0  0  0
   -9.9008   29.0660   19.4394 H   0  0  0  0  0
   -8.5419   30.7167   18.3320 H   0  0  0  0  0
   -8.4707   31.6887   19.8684 H   0  0  0  0  0
  -11.2668   30.8273   20.1089 H   0  0  0  0  0
   -7.8451   29.3908   22.9465 H   0  0  0  0  0
   -8.4269   26.7013   23.8601 H   0  0  0  0  0
  -10.2361   29.0542   22.6689 H   0  0  0  0  0
   -8.8189   27.8438   26.0334 H   0  0  0  0  0
   -8.4307   29.4202   25.1420 H   0  0  0  0  0
   -6.0722   29.2116   23.8000 H   0  0  0  0  0
   -7.1787   27.0620   27.3370 H   0  0  0  0  0
   -3.6955   28.9651   24.3620 H   0  0  0  0  0
   -4.7812   26.7571   27.8712 H   0  0  0  0  0
   -2.6693   27.1853   27.2609 H   0  0  0  0  0
  1  2  1  0  0  0
  2  3  1  0  0  0
  2  5  1  0  0  0
  3  4  2  0  0  0
  3  9  1  0  0  0
  5  6  1  0  0  0
  6  7  1  0  0  0
  6  8  1  0  0  0
  9 10  1  0  0  0
  9 15  1  0  0  0
 10 11  1  0  0  0
 10 13  1  0  0  0
 11 12  2  0  0  0
 11 16  1  0  0  0
 13 14  1  0  0  0
 14 15  1  0  0  0
 16 17  1  0  0  0
 17 18  1  0  0  0
 17 20  1  0  0  0
 18 19  2  0  0  0
 18 21  1  0  0  0
 21 22  1  0  0  0
 22 23  1  0  0  0
 22 25  1  0  0  0
 23 24  2  0  0  0
 23 28  1  0  0  0
 25 26  1  0  0  0
 25 27  1  0  0  0
 28 29  1  0  0  0
 29 30  1  0  0  0
 29 32  1  0  0  0
 30 31  2  0  0  0
 30 35  1  0  0  0
 32 33  1  0  0  0
 32 34  1  0  0  0
 35 36  1  0  0  0
 36 37  1  0  0  0
 37 38  2  0  0  0
 37 39  1  0  0  0
 39 40  1  0  0  0
 40 41  1  0  0  0
 40 43  1  0  0  0
 41 42  2  0  0  0
 41 47  1  0  0  0
 43 44  1  0  0  0
 44 45  1  0  0  0
 44 46  1  0  0  0
 47 48  1  0  0  0
 48 49  1  0  0  0
 48 51  1  0  0  0
 49 50  2  0  0  0
 49 53  1  0  0  0
 51 52  1  0  0  0
 53 54  1  0  0  0
 53 59  1  0  0  0
 54 55  1  0  0  0
 54 57  1  0  0  0
 55 56  2  0  0  0
 55 60  1  0  0  0
 57 58  1  0  0  0
 58 59  1  0  0  0
 60 61  1  0  0  0
 61 62  1  0  0  0
 62 63  2  0  0  0
 62 64  1  0  0  0
 64 65  1  0  0  0
 65 66  1  0  0  0
 65 68  1  0  0  0
 66 67  2  0  0  0
 66 73  1  0  0  0
 68 69  1  0  0  0
 69 70  1  0  0  0
 70 71  2  0  0  0
 70 72  1  0  0  0
 73 74  1  0  0  0
 74 75  1  0  0  0
 74 77  1  0  0  0
 75 76  2  0  0  0
 75 82  1  0  0  0
 77 78  1  0  0  0
 78 79  1  0  0  0
 79 80  2  0  0  0
 79 81  1  0  0  0
 82 83  1  0  0  0
 83 84  1  0  0  0
 83 86  1  0  0  0
 84 85  2  0  0  0
 84 91  1  0  0  0
 86 87  1  0  0  0
 87 88  1  0  0  0
 88 89  1  0  0  0
 88 90  2  0  0  0
 91 92  1  0  0  0
 92 93  1  0  0  0
 92 95  1  0  0  0
 93 94  1  0  0  0
 93103  2  0  0  0
 95 96  1  0  0  0
 96 97  4  0  0  0
 96 98  4  0  0  0
 97 99  4  0  0  0
 98100  4  0  0  0
 99101  4  0  0  0
100101  4  0  0  0
101102  1  0  0  0
  1104  1  0  0  0
  1105  1  0  0  0
  1106  1  0  0  0
  2107  1  0  0  0
  5108  1  0  0  0
  5109  1  0  0  0
  6110  1  0  0  0
  7111  1  0  0  0
  7112  1  0  0  0
  7113  1  0  0  0
  8114  1  0  0  0
  8115  1  0  0  0
  8116  1  0  0  0
 10117  1  0  0  0
 13118  1  0  0  0
 13119  1  0  0  0
 14120  1  0  0  0
 14121  1  0  0  0
 15122  1  0  0  0
 15123  1  0  0  0
 16124  1  0  0  0
 17125  1  0  0  0
 20126  1  0  0  0
 20127  1  0  0  0
 20128  1  0  0  0
 21129  1  0  0  0
 22130  1  0  0  0
 25131  1  0  0  0
 26132  1  0  0  0
 26133  1  0  0  0
 26134  1  0  0  0
 27135  1  0  0  0
 27136  1  0  0  0
 27137  1  0  0  0
 28138  1  0  0  0
 29139  1  0  0  0
 32140  1  0  0  0
 33141  1  0  0  0
 33142  1  0  0  0
 33143  1  0  0  0
 34144  1  0  0  0
 34145  1  0  0  0
 34146  1  0  0  0
 35147  1  0  0  0
 36148  1  0  0  0
 36149  1  0  0  0
 39150  1  0  0  0
 40151  1  0  0  0
 43152  1  0  0  0
 43153  1  0  0  0
 44154  1  0  0  0
 45155  1  0  0  0
 45156  1  0  0  0
 45157  1  0  0  0
 46158  1  0  0  0
 46159  1  0  0  0
 46160  1  0  0  0
 47161  1  0  0  0
 48162  1  0  0  0
 51163  1  0  0  0
 51164  1  0  0  0
 52165  1  0  0  0
 54166  1  0  0  0
 57167  1  0  0  0
 57168  1  0  0  0
 58169  1  0  0  0
 58170  1  0  0  0
 59171  1  0  0  0
 59172  1  0  0  0
 60173  1  0  0  0
 61174  1  0  0  0
 61175  1  0  0  0
 64176  1  0  0  0
 65177  1  0  0  0
 68178  1  0  0  0
 68179  1  0  0  0
 69180  1  0  0  0
 69181  1  0  0  0
 72182  1  0  0  0
 73183  1  0  0  0
 74184  1  0  0  0
 77185  1  0  0  0
 77186  1  0  0  0
 78187  1  0  0  0
 78188  1  0  0  0
 81189  1  0  0  0
 81190  1  0  0  0
 82191  1  0  0  0
 83192  1  0  0  0
 86193  1  0  0  0
 86194  1  0  0  0
 87195  1  0  0  0
 87196  1  0  0  0
 89197  1  0  0  0
 91198  1  0  0  0
 92199  1  0  0  0
 94200  1  0  0  0
 95201  1  0  0  0
 95202  1  0  0  0
 97203  1  0  0  0
 98204  1  0  0  0
 99205  1  0  0  0
100206  1  0  0  0
102207  1  0  0  0
M  END
$$$$
