4c6x_ligand
  -I-interpret- 

 28 28  0  0  0  0  0  0  0  0999 V2000
   -5.0700  -21.2760    8.1500 S   0  0  0  0  0
   -5.0680  -23.0880    7.9740 C   0  0  0  0  0
   -6.0730  -23.4770    7.0080 C   0  0  0  0  0
   -6.7650  -22.4580    6.4870 C   0  0  0  0  0
   -6.3780  -21.0140    6.8400 C   0  0  0  0  0
   -7.5250  -20.2430    7.3420 C   0  0  0  0  0
   -7.5440  -19.0680    8.0120 C   0  0  0  0  0
   -8.8020  -18.5330    8.5710 C   0  0  0  0  0
   -8.8860  -17.3130    9.0820 C   0  0  0  0  0
   -4.3000  -23.8410    8.5290 O   0  0  0  0  0
   -6.3220  -24.9220    6.6890 C   0  0  0  0  0
   -7.8120  -22.6040    5.6860 O   0  0  0  0  0
   -5.6560  -20.4310    5.6400 C   0  0  0  0  0
   -6.2710  -18.3260    8.3180 C   0  0  0  0  0
   -8.5029  -20.6825    7.1455 H   0  0  0  0  0
   -9.6915  -19.1629    8.5630 H   0  0  0  0  0
   -8.0077  -16.6677    9.0992 H   0  0  0  0  0
   -9.8334  -16.9550    9.4850 H   0  0  0  0  0
   -7.3425  -25.1839    6.9686 H   0  0  0  0  0
   -6.1833  -25.0860    5.6204 H   0  0  0  0  0
   -5.6205  -25.5421    7.2471 H   0  0  0  0  0
   -8.1462  -21.7391    5.4372 H   0  0  0  0  0
   -6.3517  -20.3456    4.8052 H   0  0  0  0  0
   -5.2690  -19.4443    5.8945 H   0  0  0  0  0
   -4.8303  -21.0856    5.3611 H   0  0  0  0  0
   -5.6233  -18.9548    8.9288 H   0  0  0  0  0
   -5.7639  -18.0772    7.3858 H   0  0  0  0  0
   -6.5070  -17.4104    8.8603 H   0  0  0  0  0
  1  2  1  0  0  0
  1  5  1  0  0  0
  2  3  1  0  0  0
  2 10  2  0  0  0
  3  4  2  0  0  0
  3 11  1  0  0  0
  4  5  1  0  0  0
  4 12  1  0  0  0
  5  6  1  0  0  0
  5 13  1  0  0  0
  6  7  2  0  0  0
  7  8  1  0  0  0
  7 14  1  0  0  0
  8  9  2  0  0  0
  6 15  1  0  0  0
  8 16  1  0  0  0
  9 17  1  0  0  0
  9 18  1  0  0  0
 11 19  1  0  0  0
 11 20  1  0  0  0
 11 21  1  0  0  0
 12 22  1  0  0  0
 13 23  1  0  0  0
 13 24  1  0  0  0
 13 25  1  0  0  0
 14 26  1  0  0  0
 14 27  1  0  0  0
 14 28  1  0  0  0
M  END
$$$$
