5ows_ligand
  -I-interpret- 

 40 43  0  0  0  0  0  0  0  0999 V2000
    5.2040   37.4320    3.6440 O   0  0  0  0  0
    5.9460   37.8700    4.5220 C   0  0  0  0  0
    7.2670   37.8680    4.4180 N   0  0  0  0  0
    7.8540   38.4500    5.6230 C   0  0  0  0  0
    5.4940   38.3970    5.6580 N   0  0  0  0  0
    6.6430   38.9290    6.3950 C   0  0  0  0  0
    6.4480   40.4390    6.1830 C   0  0  0  0  0
    6.7090   38.5650    7.8020 C   0  0  0  0  0
    6.1220   37.3740    8.2730 C   0  0  0  0  0
    6.1840   36.9980    9.6350 C   0  0  0  0  0
    7.3410   39.3890    8.7420 C   0  0  0  0  0
    7.3810   39.0430   10.1100 C   0  0  0  0  0
    6.8380   37.8250   10.5830 C   0  0  0  0  0
    6.8360   37.4990   11.9660 C   0  0  0  0  0
    7.6060   38.2200   12.8900 N   0  0  0  0  0
    7.5820   37.9710   14.2530 C   0  0  0  0  0
    8.3220   38.6370   14.9740 O   0  0  0  0  0
    6.0140   36.5540   12.4590 N   0  0  0  0  0
    5.9610   36.2670   13.7890 C   0  0  0  0  0
    6.6920   36.9940   14.7410 C   0  0  0  0  0
    5.0870   35.2660   14.2060 C   0  0  0  0  0
    4.9770   34.9480   15.5580 C   0  0  0  0  0
    5.7340   35.6570   16.5050 C   0  0  0  0  0
    6.6070   36.6820   16.0920 C   0  0  0  0  0
    7.7935   37.5144    3.6192 H   0  0  0  0  0
    8.5595   39.2516    5.4043 H   0  0  0  0  0
    8.4583   37.7377    6.1848 H   0  0  0  0  0
    4.5206   38.4253    5.9614 H   0  0  0  0  0
    5.5170   40.7536    6.6545 H   0  0  0  0  0
    7.2833   40.9782    6.6298 H   0  0  0  0  0
    6.4059   40.6522    5.1149 H   0  0  0  0  0
    5.6052   36.7236    7.5674 H   0  0  0  0  0
    5.7248   36.0640    9.9588 H   0  0  0  0  0
    7.8109   40.3151    8.4109 H   0  0  0  0  0
    7.8414   39.7309   10.8192 H   0  0  0  0  0
    8.2124   38.9628   12.5424 H   0  0  0  0  0
    4.4866   34.7292   13.4716 H   0  0  0  0  0
    4.3058   34.1517   15.8797 H   0  0  0  0  0
    5.6455   35.4130   17.5636 H   0  0  0  0  0
    7.2080   37.2233   16.8227 H   0  0  0  0  0
  1  2  2  0  0  0
  2  3  1  0  0  0
  2  5  1  0  0  0
  3  4  1  0  0  0
  4  6  1  0  0  0
  5  6  1  0  0  0
  6  7  1  0  0  0
  6  8  1  0  0  0
  8  9  4  0  0  0
  8 11  4  0  0  0
  9 10  4  0  0  0
 10 13  4  0  0  0
 11 12  4  0  0  0
 12 13  4  0  0  0
 13 14  1  0  0  0
 14 15  1  0  0  0
 14 18  2  0  0  0
 15 16  1  0  0  0
 16 17  2  0  0  0
 16 20  1  0  0  0
 18 19  1  0  0  0
 19 20  4  0  0  0
 19 21  4  0  0  0
 20 24  4  0  0  0
 21 22  4  0  0  0
 22 23  4  0  0  0
 23 24  4  0  0  0
  3 25  1  0  0  0
  4 26  1  0  0  0
  4 27  1  0  0  0
  5 28  1  0  0  0
  7 29  1  0  0  0
  7 30  1  0  0  0
  7 31  1  0  0  0
  9 32  1  0  0  0
 10 33  1  0  0  0
 11 34  1  0  0  0
 12 35  1  0  0  0
 15 36  1  0  0  0
 21 37  1  0  0  0
 22 38  1  0  0  0
 23 39  1  0  0  0
 24 40  1  0  0  0
M  END
$$$$
