2rku_ligand
  -I-interpret- 

 78 82  0  0  0  0  0  0  0  0999 V2000
  -42.7990   11.9460   18.0890 N   0  0  0  0  0
  -44.0660   13.8570   14.7150 N   0  0  0  0  0
  -41.8640   12.4240   17.2470 C   0  0  0  0  0
  -43.0960   14.3700   13.7230 C   0  0  0  0  0
  -41.6760   14.2910   14.1160 C   0  0  0  0  0
  -46.3230   11.5110   18.7200 C   0  0  0  0  0
  -45.5350   13.9590   14.5600 C   0  0  0  0  0
  -42.8550   11.8550   12.8690 C   0  0  0  0  0
  -47.3450   14.9390   13.3030 C   0  0  0  0  0
  -46.3390   12.7770   14.0340 C   0  0  0  0  0
  -48.2690   10.5240   19.7090 C   0  0  0  0  0
  -47.1180   12.2960   17.8890 C   0  0  0  0  0
  -50.5580   11.0550   19.0150 C   0  0  0  0  0
  -52.7790   10.9790   18.1120 C   0  0  0  0  0
  -54.9580   12.0160   17.5680 C   0  0  0  0  0
  -54.5930    9.7410   16.8070 C   0  0  0  0  0
  -50.9800   10.6510   20.0970 O   0  0  0  0  0
  -51.3460   11.2340   17.9720 N   0  0  0  0  0
  -53.0940    9.8630   17.1200 C   0  0  0  0  0
  -55.2150   11.0440   16.4880 N   0  3  0  0  0
  -56.6790   10.8900   16.4050 C   0  0  0  0  0
  -53.4540   12.2600   17.6620 C   0  0  0  0  0
  -49.0750   11.2810   18.8710 C   0  0  0  0  0
  -46.8900   10.6250   19.6330 C   0  0  0  0  0
  -46.0520    9.8690   20.4330 O   0  0  0  0  0
  -46.4850    8.7790   21.2670 C   0  0  0  0  0
  -48.5230   12.1720   17.9390 C   0  0  0  0  0
  -44.9550   11.5360   18.7390 N   0  0  0  0  0
  -44.1150   12.0470   17.8240 C   0  0  0  0  0
  -44.5370   12.6780   16.7250 N   0  0  0  0  0
  -43.6260   13.2120   15.8720 C   0  0  0  0  0
  -47.5600   13.4390   13.4150 C   0  0  0  0  0
  -45.9180   15.1950   13.7660 C   0  0  0  0  0
  -43.1500   13.3440   12.5470 C   0  0  0  0  0
  -40.8350   14.8060   13.3360 O   0  0  0  0  0
  -41.2990   13.6610   15.2350 N   0  0  0  0  0
  -39.8810   13.5230   15.6240 C   0  0  0  0  0
  -42.2670   13.0880   16.1130 C   0  0  0  0  0
  -40.8041   12.2867   17.4610 H   0  0  0  0  0
  -43.3638   15.4110   13.5420 H   0  0  0  0  0
  -45.8264   14.0012   15.6095 H   0  0  0  0  0
  -41.8491   11.7657   13.2793 H   0  0  0  0  0
  -43.5796   11.4917   13.5978 H   0  0  0  0  0
  -42.9298   11.2653   11.9553 H   0  0  0  0  0
  -48.0622   15.4870   13.9141 H   0  0  0  0  0
  -47.4956   15.2837   12.2800 H   0  0  0  0  0
  -46.5976   12.0621   14.8151 H   0  0  0  0  0
  -45.7805   12.1715   13.3202 H   0  0  0  0  0
  -48.7238    9.8460   20.4312 H   0  0  0  0  0
  -46.6563   13.0047   17.2014 H   0  0  0  0  0
  -53.0957   10.7014   19.1173 H   0  0  0  0  0
  -55.3285   11.6230   18.5148 H   0  0  0  0  0
  -55.4716   12.9528   17.3519 H   0  0  0  0  0
  -55.0888    9.3401   17.6911 H   0  0  0  0  0
  -54.7023    9.0949   15.9360 H   0  0  0  0  0
  -50.9609   11.5459   17.0805 H   0  0  0  0  0
  -52.7709    8.9223   17.5659 H   0  0  0  0  0
  -52.5784   10.0931   16.1876 H   0  0  0  0  0
  -54.8206   11.3679   15.6049 H   0  0  0  0  0
  -57.0592   10.5238   17.3587 H   0  0  0  0  0
  -57.1323   11.8550   16.1781 H   0  0  0  0  0
  -56.9240   10.1777   15.6171 H   0  0  0  0  0
  -53.0666   12.5595   16.6882 H   0  0  0  0  0
  -53.2528   13.0555   18.3794 H   0  0  0  0  0
  -47.2094    9.1453   21.9944 H   0  0  0  0  0
  -46.9472    8.0105   20.6474 H   0  0  0  0  0
  -45.6252    8.3585   21.7886 H   0  0  0  0  0
  -49.1610   12.7522   17.2723 H   0  0  0  0  0
  -44.5154   11.1107   19.5553 H   0  0  0  0  0
  -47.7223   13.0269   12.4190 H   0  0  0  0  0
  -48.4272   13.2496   14.0476 H   0  0  0  0  0
  -45.2440   15.3601   12.9254 H   0  0  0  0  0
  -45.8450   16.1007   14.3681 H   0  0  0  0  0
  -42.3651   13.6525   11.8565 H   0  0  0  0  0
  -44.1798   13.3652   12.1905 H   0  0  0  0  0
  -39.7225   14.0014   16.5905 H   0  0  0  0  0
  -39.6261   12.4656   15.6944 H   0  0  0  0  0
  -39.2515   14.0006   14.8732 H   0  0  0  0  0
  1  3  4  0  0  0
 29  1  4  0  0  0
  2  4  1  0  0  0
  2  7  1  0  0  0
 31  2  1  0  0  0
  3 38  4  0  0  0
  4  5  1  0  0  0
  4 34  1  0  0  0
  5 35  2  0  0  0
  5 36  1  0  0  0
  6 12  4  0  0  0
  6 24  4  0  0  0
 28  6  1  0  0  0
  7 10  1  0  0  0
  7 33  1  0  0  0
 34  8  1  0  0  0
  9 32  1  0  0  0
 33  9  1  0  0  0
 10 32  1  0  0  0
 11 23  4  0  0  0
 24 11  4  0  0  0
 12 27  4  0  0  0
 13 17  2  0  0  0
 13 18  1  0  0  0
 23 13  1  0  0  0
 18 14  1  0  0  0
 14 19  1  0  0  0
 14 22  1  0  0  0
 15 20  1  0  0  0
 22 15  1  0  0  0
 19 16  1  0  0  0
 16 20  1  0  0  0
 20 21  1  0  0  0
 27 23  4  0  0  0
 24 25  1  0  0  0
 25 26  1  0  0  0
 29 28  1  0  0  0
 30 29  4  0  0  0
 30 31  4  0  0  0
 31 38  4  0  0  0
 36 37  1  0  0  0
 36 38  1  0  0  0
  3 39  1  0  0  0
  4 40  1  0  0  0
  7 41  1  0  0  0
  8 42  1  0  0  0
  8 43  1  0  0  0
  8 44  1  0  0  0
  9 45  1  0  0  0
  9 46  1  0  0  0
 10 47  1  0  0  0
 10 48  1  0  0  0
 11 49  1  0  0  0
 12 50  1  0  0  0
 14 51  1  0  0  0
 15 52  1  0  0  0
 15 53  1  0  0  0
 16 54  1  0  0  0
 16 55  1  0  0  0
 18 56  1  0  0  0
 19 57  1  0  0  0
 19 58  1  0  0  0
 20 59  1  0  0  0
 21 60  1  0  0  0
 21 61  1  0  0  0
 21 62  1  0  0  0
 22 63  1  0  0  0
 22 64  1  0  0  0
 26 65  1  0  0  0
 26 66  1  0  0  0
 26 67  1  0  0  0
 27 68  1  0  0  0
 28 69  1  0  0  0
 32 70  1  0  0  0
 32 71  1  0  0  0
 33 72  1  0  0  0
 33 73  1  0  0  0
 34 74  1  0  0  0
 34 75  1  0  0  0
 37 76  1  0  0  0
 37 77  1  0  0  0
 37 78  1  0  0  0
M  END
$$$$
