2ooh_ligand
  -I-interpret- 

 35 36  0  0  0  0  0  0  0  0999 V2000
  -50.1040   23.0020   33.6280 C   0  0  0  0  0
  -48.7710   22.8570   33.7920 O   0  0  0  0  0
  -50.9770   21.9120   33.8680 C   0  0  0  0  0
  -52.3760   22.0640   33.6820 C   0  0  0  0  0
  -52.8970   23.3090   33.2550 C   0  0  0  0  0
  -52.0230   24.4020   33.0230 C   0  0  0  0  0
  -50.6300   24.2540   33.2080 C   0  0  0  0  0
  -54.2250   23.6290   32.8910 C   0  0  0  0  0
  -54.7850   24.0620   31.7960 N   0  0  0  0  0
  -54.1130   24.3510   30.6250 O   0  0  0  0  0
  -54.0400   25.6480   30.1510 C   0  0  0  0  0
  -52.9840   26.0790   29.7830 O   0  0  0  0  0
  -55.2960   26.5050   30.1080 C   0  0  0  0  0
  -56.4040   25.7710   29.2900 C   0  0  0  0  0
  -57.6840   26.6400   29.2690 C   0  0  0  0  0
  -57.3810   28.0010   28.6130 C   0  0  0  0  0
  -56.2910   28.7340   29.4090 C   0  0  0  0  0
  -54.9970   27.8840   29.4340 C   0  0  0  0  0
  -48.3326   23.6865   33.5888 H   0  0  0  0  0
  -50.5732   20.9543   34.1963 H   0  0  0  0  0
  -53.0467   21.2250   33.8673 H   0  0  0  0  0
  -52.4282   25.3611   32.7003 H   0  0  0  0  0
  -49.9616   25.0963   33.0294 H   0  0  0  0  0
  -54.9365   23.4815   33.7035 H   0  0  0  0  0
  -55.6346   26.6725   31.1304 H   0  0  0  0  0
  -56.6233   24.8093   29.7537 H   0  0  0  0  0
  -56.0568   25.6079   28.2697 H   0  0  0  0  0
  -58.0267   26.8012   30.2911 H   0  0  0  0  0
  -58.4574   26.1283   28.6961 H   0  0  0  0  0
  -58.2878   28.6057   28.6043 H   0  0  0  0  0
  -57.0334   27.8388   27.5927 H   0  0  0  0  0
  -56.6368   28.8934   30.4303 H   0  0  0  0  0
  -56.0826   29.6931   28.9350 H   0  0  0  0  0
  -54.6469   27.7230   28.4144 H   0  0  0  0  0
  -54.2278   28.4078   30.0014 H   0  0  0  0  0
  1  2  1  0  0  0
  1  3  4  0  0  0
  1  7  4  0  0  0
  3  4  4  0  0  0
  4  5  4  0  0  0
  5  6  4  0  0  0
  5  8  1  0  0  0
  6  7  4  0  0  0
  8  9  2  0  0  0
  9 10  1  0  0  0
 10 11  1  0  0  0
 11 12  2  0  0  0
 11 13  1  0  0  0
 13 14  1  0  0  0
 13 18  1  0  0  0
 14 15  1  0  0  0
 15 16  1  0  0  0
 16 17  1  0  0  0
 17 18  1  0  0  0
  2 19  1  0  0  0
  3 20  1  0  0  0
  4 21  1  0  0  0
  6 22  1  0  0  0
  7 23  1  0  0  0
  8 24  1  0  0  0
 13 25  1  0  0  0
 14 26  1  0  0  0
 14 27  1  0  0  0
 15 28  1  0  0  0
 15 29  1  0  0  0
 16 30  1  0  0  0
 16 31  1  0  0  0
 17 32  1  0  0  0
 17 33  1  0  0  0
 18 34  1  0  0  0
 18 35  1  0  0  0
M  END
$$$$
