6idz_ligand
  -I-interpret- 

 88 90  0  0  0  0  0  0  0  0999 V2000
   13.1430   23.4700   13.9470 C   0  0  0  0  0
   12.6620   23.3300   12.4430 C   0  0  0  0  0
   13.7650   23.4400   11.3880 C   0  0  0  0  0
   14.7530   22.2790   11.4540 C   0  0  0  0  0
   14.0240   20.9360   11.3530 C   0  0  0  0  0
   12.7890   20.8610   12.2910 C   0  0  0  0  0
   11.8240   19.7260   11.8640 C   0  0  0  0  0
   10.5680   19.6680   12.7650 C   0  0  0  0  0
   10.0440   18.2400   12.8770 C   0  0  0  0  0
   15.0280   18.6490   11.1250 C   0  0  0  0  0
   16.0810   17.7270   11.7330 C   0  0  0  0  0
   14.9410   19.8630   11.7220 N   0  0  0  0  0
   14.0940   24.2900   14.0690 O   0  0  0  0  0
   12.5530   22.7950   14.8200 O   0  0  0  0  0
   15.7080   22.3240   10.3790 O   0  0  0  0  0
   11.9920   22.0380   12.2500 O   0  0  0  0  0
   11.4820   19.8760   10.4920 O   0  0  0  0  0
   10.8520   20.2350   14.0450 O   0  0  0  0  0
    8.6300   18.2620   13.0840 O   0  0  0  0  0
   14.3340   18.2860   10.1770 O   0  0  0  0  0
    8.0740   25.1590   12.4140 C   0  0  0  0  0
    9.2820   24.6420   11.6420 C   0  0  0  0  0
   10.4780   24.4480   12.5660 C   0  0  0  0  0
   10.7120   25.6870   13.4210 C   0  0  0  0  0
    9.4200   26.1390   14.0900 C   0  0  0  0  0
    9.6350   27.4180   14.8900 C   0  0  0  0  0
    8.9530   23.3960   11.0190 O   0  0  0  0  0
   11.6480   24.1780   11.7850 O   0  0  0  0  0
   11.2190   26.7450   12.5990 O   0  0  0  0  0
    8.4230   26.3630   13.0950 O   0  0  0  0  0
    8.3670   27.9480   15.2920 O   0  0  0  0  0
    3.3070   26.8930   11.4550 C   0  0  0  0  0
    4.1680   27.2670   12.6560 C   0  0  0  0  0
    5.6450   27.0280   12.3630 C   0  0  0  0  0
    5.8690   25.6360   11.7870 C   0  0  0  0  0
    4.9050   25.3550   10.6410 C   0  0  0  0  0
    5.0770   23.9320   10.1220 C   0  0  0  0  0
    3.6170   29.0150   14.2460 C   0  0  0  0  0
    4.5790   29.9340   14.9380 C   0  0  0  0  0
    3.9500   28.6560   13.0090 N   0  0  0  0  0
    1.9240   27.0420   11.7940 O   0  0  0  0  0
    6.4000   27.1730   13.5710 O   0  0  0  0  0
    7.2160   25.5270   11.3150 O   0  0  0  0  0
    3.5640   25.5390   11.0910 O   0  0  0  0  0
    3.9050   23.5420    9.3970 O   0  0  0  0  0
    2.5950   28.6210   14.7820 O   0  0  0  0  0
   14.3163   24.3621   11.5721 H   0  0  0  0  0
   13.2936   23.4256   10.4053 H   0  0  0  0  0
   15.2665   22.3738   12.4108 H   0  0  0  0  0
   13.6794   20.8322   10.3241 H   0  0  0  0  0
   13.2124   20.7042   13.2831 H   0  0  0  0  0
   12.3362   18.7723   11.9914 H   0  0  0  0  0
    9.7777   20.2624   12.3066 H   0  0  0  0  0
   10.5253   17.7430   13.7193 H   0  0  0  0  0
   10.2666   17.6997   11.9569 H   0  0  0  0  0
   15.5992   16.8228   12.1051 H   0  0  0  0  0
   16.8140   17.4623   10.9709 H   0  0  0  0  0
   16.5794   18.2396   12.5558 H   0  0  0  0  0
   15.5749   20.0427   12.5007 H   0  0  0  0  0
   14.3228   24.6436   13.2063 H   0  0  0  0  0
   16.1857   23.1561   10.4114 H   0  0  0  0  0
   12.2839   19.9081    9.9651 H   0  0  0  0  0
   10.0656   20.1930   14.5940 H   0  0  0  0  0
    8.3039   17.3618   13.1540 H   0  0  0  0  0
    7.6665   24.4588   13.1432 H   0  0  0  0  0
    9.5478   25.3787   10.8839 H   0  0  0  0  0
   10.2704   23.6063   13.2267 H   0  0  0  0  0
   11.4352   25.4392   14.1980 H   0  0  0  0  0
    9.0952   25.3557   14.7749 H   0  0  0  0  0
   10.1555   28.1499   14.2723 H   0  0  0  0  0
   10.2335   27.1975   15.7739 H   0  0  0  0  0
    9.7147   23.0715   10.5331 H   0  0  0  0  0
   11.3662   27.5253   13.1385 H   0  0  0  0  0
    8.5034   28.7537   15.7959 H   0  0  0  0  0
    3.5476   27.5471   10.6169 H   0  0  0  0  0
    3.8792   26.6337   13.4949 H   0  0  0  0  0
    5.9743   27.7618   11.6273 H   0  0  0  0  0
    5.6885   24.9046   12.5747 H   0  0  0  0  0
    5.1225   26.0480    9.8283 H   0  0  0  0  0
    5.2257   23.2546   10.9629 H   0  0  0  0  0
    5.9432   23.8888    9.4618 H   0  0  0  0  0
    4.0695   30.8615   15.1991 H   0  0  0  0  0
    4.9501   29.4544   15.8437 H   0  0  0  0  0
    5.4142   30.1517   14.2723 H   0  0  0  0  0
    4.0543   29.3745   12.2926 H   0  0  0  0  0
    1.3829   26.8062   11.0369 H   0  0  0  0  0
    7.3299   27.0224   13.3859 H   0  0  0  0  0
    4.0152   22.6458    9.0710 H   0  0  0  0  0
  2  1  1  0  0  0
  1 13  1  0  0  0
  1 14  2  0  0  0
  2  3  1  0  0  0
  2 16  1  0  0  0
 28  2  1  0  0  0
  3  4  1  0  0  0
  4  5  1  0  0  0
  4 15  1  0  0  0
  6  5  1  0  0  0
  5 12  1  0  0  0
  6  7  1  0  0  0
 16  6  1  0  0  0
  7  8  1  0  0  0
  7 17  1  0  0  0
  8  9  1  0  0  0
  8 18  1  0  0  0
  9 19  1  0  0  0
 10 11  1  0  0  0
 12 10  1  0  0  0
 10 20  2  0  0  0
 21 22  1  0  0  0
 21 30  1  0  0  0
 43 21  1  0  0  0
 22 23  1  0  0  0
 22 27  1  0  0  0
 23 24  1  0  0  0
 23 28  1  0  0  0
 25 24  1  0  0  0
 24 29  1  0  0  0
 25 26  1  0  0  0
 30 25  1  0  0  0
 26 31  1  0  0  0
 33 32  1  0  0  0
 32 41  1  0  0  0
 32 44  1  0  0  0
 33 34  1  0  0  0
 40 33  1  0  0  0
 34 35  1  0  0  0
 34 42  1  0  0  0
 35 36  1  0  0  0
 35 43  1  0  0  0
 36 37  1  0  0  0
 44 36  1  0  0  0
 37 45  1  0  0  0
 38 39  1  0  0  0
 38 40  1  0  0  0
 38 46  2  0  0  0
  3 47  1  0  0  0
  3 48  1  0  0  0
  4 49  1  0  0  0
  5 50  1  0  0  0
  6 51  1  0  0  0
  7 52  1  0  0  0
  8 53  1  0  0  0
  9 54  1  0  0  0
  9 55  1  0  0  0
 11 56  1  0  0  0
 11 57  1  0  0  0
 11 58  1  0  0  0
 12 59  1  0  0  0
 13 60  1  0  0  0
 15 61  1  0  0  0
 17 62  1  0  0  0
 18 63  1  0  0  0
 19 64  1  0  0  0
 21 65  1  0  0  0
 22 66  1  0  0  0
 23 67  1  0  0  0
 24 68  1  0  0  0
 25 69  1  0  0  0
 26 70  1  0  0  0
 26 71  1  0  0  0
 27 72  1  0  0  0
 29 73  1  0  0  0
 31 74  1  0  0  0
 32 75  1  0  0  0
 33 76  1  0  0  0
 34 77  1  0  0  0
 35 78  1  0  0  0
 36 79  1  0  0  0
 37 80  1  0  0  0
 37 81  1  0  0  0
 39 82  1  0  0  0
 39 83  1  0  0  0
 39 84  1  0  0  0
 40 85  1  0  0  0
 41 86  1  0  0  0
 42 87  1  0  0  0
 45 88  1  0  0  0
M  END
$$$$
