1uym_ligand
  -I-interpret- 

 52 54  0  0  0  0  0  0  0  0999 V2000
    8.4640   10.0760   22.9460 C   0  0  0  0  0
    8.3440   11.2560   23.7340 O   0  0  0  0  0
    6.9910   11.6300   24.0410 C   0  0  0  0  0
    5.7600   11.0910   23.3580 C   0  0  0  0  0
    6.7610   12.9230   24.7240 C   0  0  0  0  0
    7.8080   13.5830   25.4380 O   0  0  0  0  0
    8.3080   14.6680   24.6630 C   0  0  0  0  0
    5.3520   13.3220   25.0060 C   0  0  0  0  0
    5.2000   14.5000   25.8540 O   0  0  0  0  0
    4.4290   15.6400   25.5330 C   0  0  0  0  0
    4.3980   12.6900   24.4120 C   0  0  0  0  0
    4.5540   11.6470   23.6670 C   0  0  0  0  0
    3.3500   10.9700   23.0240 C   0  0  0  0  0
    2.1830   10.7420   23.9560 C   0  0  0  0  0
    0.9210   11.2490   23.7430 N   0  0  0  0  0
    0.1450   10.8330   24.7520 C   0  0  0  0  0
   -1.2660   11.0070   25.1640 C   0  0  0  0  0
   -2.1020   11.7400   24.4230 N   0  0  0  0  0
    1.0160   10.0430   25.5830 C   0  0  0  0  0
    0.5640    9.4680   26.7350 N   0  0  0  0  0
   -0.8260    9.6280   27.1630 C   0  0  0  0  0
   -1.6180   10.4520   26.2380 N   0  0  0  0  0
    2.2420    9.9970   25.0830 N   0  0  0  0  0
    3.3880    9.2670   25.6110 C   0  0  0  0  0
    3.2360    7.8460   25.0520 C   0  0  0  0  0
    4.5380    7.0580   24.9490 C   0  0  0  0  0
    5.2630    7.3030   23.6400 C   0  0  0  0  0
    8.0149    9.2377   23.4786 H   0  0  0  0  0
    7.9503   10.2215   21.9957 H   0  0  0  0  0
    9.5183    9.8688   22.7626 H   0  0  0  0  0
    5.8321   10.2778   22.6358 H   0  0  0  0  0
    8.6975   14.2888   23.7182 H   0  0  0  0  0
    7.5018   15.3751   24.4675 H   0  0  0  0  0
    9.1060   15.1677   25.2121 H   0  0  0  0  0
    4.8096   16.0877   24.6150 H   0  0  0  0  0
    3.3891   15.3456   25.3912 H   0  0  0  0  0
    4.4957   16.3629   26.3461 H   0  0  0  0  0
    3.3835   13.0643   24.5490 H   0  0  0  0  0
    3.6813    9.9889   22.6839 H   0  0  0  0  0
    2.9993   11.6313   22.2317 H   0  0  0  0  0
   -1.7692   12.1841   23.5672 H   0  0  0  0  0
   -3.0730   11.8555   24.7132 H   0  0  0  0  0
   -1.2316    9.1832   28.0717 H   0  0  0  0  0
    3.4084    9.2752   26.7008 H   0  0  0  0  0
    4.3325    9.7223   25.3131 H   0  0  0  0  0
    2.8438    7.9439   24.0397 H   0  0  0  0  0
    2.5898    7.3019   25.7408 H   0  0  0  0  0
    4.2943    5.9971   25.0050 H   0  0  0  0  0
    5.1909    7.3797   25.7604 H   0  0  0  0  0
    4.6227    7.0043   22.8100 H   0  0  0  0  0
    5.5034    8.3625   23.5521 H   0  0  0  0  0
    6.1823    6.7177   23.6202 H   0  0  0  0  0
  1  2  1  0  0  0
  2  3  1  0  0  0
  3  4  4  0  0  0
  3  5  4  0  0  0
  4 12  4  0  0  0
  5  6  1  0  0  0
  5  8  4  0  0  0
  6  7  1  0  0  0
  8  9  1  0  0  0
  8 11  4  0  0  0
  9 10  1  0  0  0
 11 12  4  0  0  0
 12 13  1  0  0  0
 13 14  1  0  0  0
 14 15  4  0  0  0
 14 23  4  0  0  0
 15 16  4  0  0  0
 16 17  4  0  0  0
 16 19  4  0  0  0
 17 18  1  0  0  0
 17 22  4  0  0  0
 19 20  4  0  0  0
 19 23  4  0  0  0
 20 21  4  0  0  0
 21 22  4  0  0  0
 23 24  1  0  0  0
 24 25  1  0  0  0
 25 26  1  0  0  0
 26 27  1  0  0  0
  1 28  1  0  0  0
  1 29  1  0  0  0
  1 30  1  0  0  0
  4 31  1  0  0  0
  7 32  1  0  0  0
  7 33  1  0  0  0
  7 34  1  0  0  0
 10 35  1  0  0  0
 10 36  1  0  0  0
 10 37  1  0  0  0
 11 38  1  0  0  0
 13 39  1  0  0  0
 13 40  1  0  0  0
 18 41  1  0  0  0
 18 42  1  0  0  0
 21 43  1  0  0  0
 24 44  1  0  0  0
 24 45  1  0  0  0
 25 46  1  0  0  0
 25 47  1  0  0  0
 26 48  1  0  0  0
 26 49  1  0  0  0
 27 50  1  0  0  0
 27 51  1  0  0  0
 27 52  1  0  0  0
M  END
$$$$
