4eol_ligand
  -I-interpret- 

 39 42  0  0  0  0  0  0  0  0999 V2000
  -10.1800  -24.6290   22.5730 O   0  0  0  0  0
  -10.2940  -23.5270   21.9600 C   0  0  0  0  0
   -9.3420  -23.2860   21.1050 N   0  0  0  0  0
   -9.5370  -22.1110   20.5270 C   0  0  0  0  0
   -8.5620  -21.8120   19.6480 N   0  0  0  0  0
   -7.5300  -22.8320   19.3530 C   0  0  0  0  0
   -7.0790  -23.6790   20.5410 C   0  0  0  0  0
   -7.2080  -25.0250   20.8820 C   0  0  0  0  0
   -6.6350  -25.3640   22.1160 C   0  0  0  0  0
   -6.0310  -24.3240   22.8170 C   0  0  0  0  0
   -6.2250  -22.9070   21.8380 S   0  0  0  0  0
  -10.9830  -21.2380   21.0160 S   0  0  0  0  0
  -11.3840  -22.5400   22.1230 C   0  0  0  0  0
  -12.5540  -22.6340   23.0510 C   0  0  0  0  0
  -12.6900  -23.8740   23.8700 C   0  0  0  0  0
  -13.9300  -24.2840   24.3580 C   0  0  0  0  0
  -14.0710  -25.4710   25.0930 C   0  0  0  0  0
  -12.9750  -26.2900   25.3440 C   0  0  0  0  0
  -13.0660  -27.4430   26.0500 N   0  0  0  0  0
  -11.9830  -28.2090   26.2700 C   0  0  0  0  0
  -10.7190  -27.8470   25.7850 C   0  0  0  0  0
  -10.5450  -26.6770   25.0450 C   0  0  0  0  0
  -11.6580  -25.8730   24.8130 C   0  0  0  0  0
  -11.5770  -24.6830   24.1090 C   0  0  0  0  0
   -8.5347  -20.8993   19.1935 H   0  0  0  0  0
   -6.6495  -22.2900   19.0079 H   0  0  0  0  0
   -7.9727  -23.5203   18.6330 H   0  0  0  0  0
   -7.7112  -25.7514   20.2439 H   0  0  0  0  0
   -6.6610  -26.3824   22.5037 H   0  0  0  0  0
   -5.5360  -24.3879   23.7860 H   0  0  0  0  0
  -12.2932  -22.5983   22.7214 H   0  0  0  0  0
  -13.4367  -22.6076   22.4120 H   0  0  0  0  0
  -12.4243  -21.8231   23.7678 H   0  0  0  0  0
  -14.8090  -23.6692   24.1644 H   0  0  0  0  0
  -15.0526  -25.7551   25.4724 H   0  0  0  0  0
  -12.0907  -29.1327   26.8386 H   0  0  0  0  0
   -9.8609  -28.4876   25.9885 H   0  0  0  0  0
   -9.5641  -26.3998   24.6589 H   0  0  0  0  0
  -10.6069  -24.3656   23.7266 H   0  0  0  0  0
  1  2  2  0  0  0
  2  3  1  0  0  0
  2 13  1  0  0  0
  3  4  2  0  0  0
  4  5  1  0  0  0
  4 12  1  0  0  0
  5  6  1  0  0  0
  6  7  1  0  0  0
  7  8  4  0  0  0
  7 11  4  0  0  0
  8  9  4  0  0  0
  9 10  4  0  0  0
 10 11  4  0  0  0
 12 13  1  0  0  0
 13 14  1  0  0  0
 14 15  1  0  0  0
 15 16  4  0  0  0
 15 24  4  0  0  0
 16 17  4  0  0  0
 17 18  4  0  0  0
 18 19  4  0  0  0
 18 23  4  0  0  0
 19 20  4  0  0  0
 20 21  4  0  0  0
 21 22  4  0  0  0
 22 23  4  0  0  0
 23 24  4  0  0  0
  5 25  1  0  0  0
  6 26  1  0  0  0
  6 27  1  0  0  0
  8 28  1  0  0  0
  9 29  1  0  0  0
 10 30  1  0  0  0
 13 31  1  0  0  0
 14 32  1  0  0  0
 14 33  1  0  0  0
 16 34  1  0  0  0
 17 35  1  0  0  0
 20 36  1  0  0  0
 21 37  1  0  0  0
 22 38  1  0  0  0
 24 39  1  0  0  0
M  END
$$$$
