4cjr_ligand
  -I-interpret- 

 65 68  0  0  0  0  0  0  0  0999 V2000
    9.4420   32.7650    3.6590 C   0  0  0  0  0
    9.6320   33.6940    2.6610 C   0  0  0  0  0
    6.8260   36.7580    0.6860 C   0  0  0  0  0
    7.1730   34.7590   -0.5700 C   0  0  0  0  0
    9.8840   31.4740    3.4790 C   0  0  0  0  0
    6.4700   36.0030    1.7810 C   0  0  0  0  0
    6.8170   33.9950    0.5240 C   0  0  0  0  0
   10.9900   36.0450   -4.0150 C   0  0  0  0  0
   13.1630   35.1090   -2.4920 C   0  0  0  0  0
   11.0650   36.2470   -2.6500 C   0  0  0  0  0
   10.7030   32.0490    1.2840 C   0  0  0  0  0
    7.1770   36.1390   -0.4930 C   0  0  0  0  0
   10.2540   33.3480    1.4760 C   0  0  0  0  0
   12.1270   35.7930   -1.8900 C   0  0  0  0  0
   12.0350   35.3610   -4.5880 C   0  0  0  0  0
   13.0840   34.9100   -3.8510 C   0  0  0  0  0
    6.4610   34.6270    1.7010 C   0  0  0  0  0
   10.5090   31.1270    2.2980 C   0  0  0  0  0
    9.9720   36.9730   -2.0010 C   0  0  0  0  0
   11.3710   31.6330    0.0160 C   0  0  0  0  0
   13.3740   34.3050   -5.8930 C   0  0  0  0  0
   12.4950   35.0400    1.7530 C   0  0  0  0  0
    5.9770   32.5440    2.5300 C   0  0  0  0  0
   10.9180   29.1300    3.3410 C   0  0  0  0  0
    7.5550   36.9800   -1.6680 C   0  0  0  0  0
   10.4340   34.4190    0.4460 C   0  0  0  0  0
   12.1660   36.0380   -0.4190 C   0  0  0  0  0
    8.7370   36.4730   -2.3030 N   0  0  0  0  0
   11.8720   34.8460    0.4180 N   0  3  0  0  0
   11.0800   30.4730   -0.4230 O   0  0  0  0  0
   10.2070   37.9250   -1.2700 O   0  0  0  0  0
   12.1340   32.4630   -0.5580 O   0  0  0  0  0
   12.1540   35.0550   -5.9220 O   0  0  0  0  0
   14.0140   34.2520   -4.6110 O   0  0  0  0  0
    6.0900   33.9300    2.8460 O   0  0  0  0  0
   10.9690   29.8380    2.1100 O   0  0  0  0  0
    8.9446   33.0501    4.5860 H   0  0  0  0  0
    9.2869   34.7175    2.8074 H   0  0  0  0  0
    6.8300   37.8460    0.7524 H   0  0  0  0  0
    7.4533   34.2693   -1.5026 H   0  0  0  0  0
    9.7415   30.7308    4.2635 H   0  0  0  0  0
    6.1945   36.4949    2.7139 H   0  0  0  0  0
    6.8167   32.9069    0.4603 H   0  0  0  0  0
   10.1483   36.4082   -4.6047 H   0  0  0  0  0
   14.0105   34.7409   -1.9138 H   0  0  0  0  0
   14.0670   34.7998   -6.5735 H   0  0  0  0  0
   13.1229   33.2798   -6.1650 H   0  0  0  0  0
   11.9501   35.8106    2.2983 H   0  0  0  0  0
   12.4572   34.1036    2.3097 H   0  0  0  0  0
   13.5331   35.3475    1.6269 H   0  0  0  0  0
    5.2212   32.4095    1.7562 H   0  0  0  0  0
    6.9374   32.1753    2.1697 H   0  0  0  0  0
    5.6863   31.9915    3.4235 H   0  0  0  0  0
   11.5447   29.6356    4.0757 H   0  0  0  0  0
    9.8889   29.0996    3.6988 H   0  0  0  0  0
   11.2815   28.1136    3.1894 H   0  0  0  0  0
    7.7510   37.9953   -1.3232 H   0  0  0  0  0
    6.7366   36.9638   -2.3878 H   0  0  0  0  0
    9.8051   35.2736    0.6955 H   0  0  0  0  0
   10.1492   34.0341   -0.5332 H   0  0  0  0  0
   11.3950   36.7768   -0.2002 H   0  0  0  0  0
   13.1811   36.3526   -0.1769 H   0  0  0  0  0
    8.6540   35.7258   -2.9924 H   0  0  0  0  0
   12.3000   34.0333   -0.0256 H   0  0  0  0  0
   10.4843   30.0394    0.1924 H   0  0  0  0  0
  2  1  4  0  0  0
  1  5  4  0  0  0
 13  2  4  0  0  0
  3  6  4  0  0  0
 12  3  4  0  0  0
  4  7  4  0  0  0
 12  4  4  0  0  0
 18  5  4  0  0  0
  6 17  4  0  0  0
  7 17  4  0  0  0
 10  8  4  0  0  0
  8 15  4  0  0  0
 14  9  4  0  0  0
  9 16  4  0  0  0
 14 10  4  0  0  0
 10 19  1  0  0  0
 13 11  4  0  0  0
 11 18  4  0  0  0
 11 20  1  0  0  0
 25 12  1  0  0  0
 26 13  1  0  0  0
 27 14  1  0  0  0
 16 15  4  0  0  0
 15 33  1  0  0  0
 16 34  1  0  0  0
 17 35  1  0  0  0
 18 36  1  0  0  0
 19 28  1  0  0  0
 19 31  2  0  0  0
 20 30  1  0  0  0
 20 32  2  0  0  0
 33 21  1  0  0  0
 34 21  1  0  0  0
 29 22  1  0  0  0
 35 23  1  0  0  0
 36 24  1  0  0  0
 28 25  1  0  0  0
 29 26  1  0  0  0
 27 29  1  0  0  0
  1 37  1  0  0  0
  2 38  1  0  0  0
  3 39  1  0  0  0
  4 40  1  0  0  0
  5 41  1  0  0  0
  6 42  1  0  0  0
  7 43  1  0  0  0
  8 44  1  0  0  0
  9 45  1  0  0  0
 21 46  1  0  0  0
 21 47  1  0  0  0
 22 48  1  0  0  0
 22 49  1  0  0  0
 22 50  1  0  0  0
 23 51  1  0  0  0
 23 52  1  0  0  0
 23 53  1  0  0  0
 24 54  1  0  0  0
 24 55  1  0  0  0
 24 56  1  0  0  0
 25 57  1  0  0  0
 25 58  1  0  0  0
 26 59  1  0  0  0
 26 60  1  0  0  0
 27 61  1  0  0  0
 27 62  1  0  0  0
 28 63  1  0  0  0
 29 64  1  0  0  0
 30 65  1  0  0  0
M  END
$$$$
