4rad_ligand
  -I-interpret- 

 54 55  0  0  0  0  0  0  0  0999 V2000
   69.0770  -17.5270   12.7480 O   0  0  0  0  0
   67.8380  -16.7320   13.0860 P   0  0  0  0  0
   68.2390  -15.4680   13.8200 O   0  0  0  0  0
   66.9470  -17.5670   13.9790 O   0  0  0  0  0
   66.9210  -16.2900   11.5570 C   0  0  0  0  0
   67.8030  -16.3330   10.3010 C   0  0  0  0  0
   67.3120  -17.3480    9.3970 O   0  0  0  0  0
   68.3410  -17.8100    8.4930 C   0  0  0  0  0
   67.7490  -18.3470    7.1830 C   0  0  0  0  0
   66.5720  -19.1670    7.4180 N   0  3  0  0  0
   65.5300  -18.8990    6.4320 C   0  0  0  0  0
   65.9130  -19.2820    4.9960 C   0  0  0  0  0
   64.5370  -18.9240    3.8040 P   0  0  0  0  0
   64.1580  -17.4590    3.8830 O   0  0  0  0  0
   63.3390  -19.7780    4.1680 O   0  0  0  0  0
   64.9740  -19.2640    2.3840 O   0  0  0  0  0
   66.9510  -20.6000    7.5320 C   0  0  0  0  0
   65.8360  -21.4440    8.2180 C   0  0  0  0  0
   66.0750  -22.8630    7.8920 N   0  0  0  0  0
   67.0330  -23.6320    8.4710 C   0  0  0  0  0
   67.9710  -23.4440    9.4150 N   0  0  0  0  0
   68.7910  -24.4330    9.7850 C   0  0  0  0  0
   69.7680  -24.1840   10.7940 N   0  0  0  0  0
   68.7300  -25.6580    9.2430 N   0  0  0  0  0
   67.8360  -25.9460    8.2950 C   0  0  0  0  0
   67.7740  -27.2500    7.7190 O   0  0  0  0  0
   66.9390  -24.9170    7.8710 C   0  0  0  0  0
   65.9210  -24.8420    6.9550 N   0  0  0  0  0
   65.4110  -23.6050    6.9680 C   0  0  0  0  0
   67.4526  -14.9614   14.0357 H   0  0  0  0  0
   66.1570  -17.0675   14.1980 H   0  0  0  0  0
   66.5526  -15.2705   11.6715 H   0  0  0  0  0
   66.1190  -17.0166   11.4268 H   0  0  0  0  0
   68.8282  -16.5684   10.5868 H   0  0  0  0  0
   67.7743  -15.3626    9.8054 H   0  0  0  0  0
   68.8867  -18.6185    8.9793 H   0  0  0  0  0
   68.9917  -16.9684    8.2555 H   0  0  0  0  0
   68.5033  -18.9631    6.6936 H   0  0  0  0  0
   67.4568  -17.4975    6.5657 H   0  0  0  0  0
   66.1585  -18.9121    8.3149 H   0  0  0  0  0
   65.3459  -17.8247    6.4411 H   0  0  0  0  0
   64.6638  -19.5011    6.7063 H   0  0  0  0  0
   66.1228  -20.3513    4.9689 H   0  0  0  0  0
   66.7836  -18.6950    4.7035 H   0  0  0  0  0
   63.5814  -20.7055    4.1173 H   0  0  0  0  0
   65.2133  -20.1925    2.3377 H   0  0  0  0  0
   67.8530  -20.6672    8.1402 H   0  0  0  0  0
   67.1071  -20.9928    6.5273 H   0  0  0  0  0
   64.8543  -21.1347    7.8593 H   0  0  0  0  0
   65.8609  -21.2956    9.2976 H   0  0  0  0  0
   69.8342  -23.2610   11.2231 H   0  0  0  0  0
   70.4004  -24.9289   11.0865 H   0  0  0  0  0
   69.3765  -26.3804    9.5600 H   0  0  0  0  0
   64.5947  -23.2501    6.3389 H   0  0  0  0  0
  1  2  2  0  0  0
  2  3  1  0  0  0
  2  4  1  0  0  0
  2  5  1  0  0  0
  5  6  1  0  0  0
  6  7  1  0  0  0
  7  8  1  0  0  0
  8  9  1  0  0  0
  9 10  1  0  0  0
 10 11  1  0  0  0
 10 17  1  0  0  0
 11 12  1  0  0  0
 12 13  1  0  0  0
 13 14  2  0  0  0
 13 15  1  0  0  0
 13 16  1  0  0  0
 17 18  1  0  0  0
 18 19  1  0  0  0
 19 20  4  0  0  0
 19 29  4  0  0  0
 20 21  1  0  0  0
 20 27  4  0  0  0
 21 22  2  0  0  0
 22 23  1  0  0  0
 22 24  1  0  0  0
 24 25  1  0  0  0
 25 26  2  0  0  0
 25 27  1  0  0  0
 27 28  4  0  0  0
 28 29  4  0  0  0
  3 30  1  0  0  0
  4 31  1  0  0  0
  5 32  1  0  0  0
  5 33  1  0  0  0
  6 34  1  0  0  0
  6 35  1  0  0  0
  8 36  1  0  0  0
  8 37  1  0  0  0
  9 38  1  0  0  0
  9 39  1  0  0  0
 10 40  1  0  0  0
 11 41  1  0  0  0
 11 42  1  0  0  0
 12 43  1  0  0  0
 12 44  1  0  0  0
 15 45  1  0  0  0
 16 46  1  0  0  0
 17 47  1  0  0  0
 17 48  1  0  0  0
 18 49  1  0  0  0
 18 50  1  0  0  0
 23 51  1  0  0  0
 23 52  1  0  0  0
 24 53  1  0  0  0
 29 54  1  0  0  0
M  END
$$$$
