### 
### Created by X-TOOL on Mon Sep 10 21:13:24 2018
### 

@<TRIPOS>MOLECULE
4rad_ligand
   50    51     1     0     0
SMALL
GAST_HUCK


@<TRIPOS>ATOM
      1 OAE        69.0770  -17.5270   12.7480 O.co2     1 3L5        -0.5622
      2 PBB        67.8380  -16.7320   13.0860 P.3       1 3L5         0.0600
      3 OAF        68.2390  -15.4680   13.8200 O.co2     1 3L5        -0.5622
      4 OAC        66.9470  -17.5670   13.9790 O.co2     1 3L5        -0.5622
      5 CAP        66.9210  -16.2900   11.5570 C.3       1 3L5         0.0430
      6 CAK        67.8030  -16.3330   10.3010 C.3       1 3L5         0.0628
      7 OAU        67.3120  -17.3480    9.3970 O.3       1 3L5        -0.3731
      8 CAJ        68.3410  -17.8100    8.4930 C.3       1 3L5         0.0876
      9 CAL        67.7490  -18.3470    7.1830 C.3       1 3L5        -0.0078
     10 NAZ        66.5720  -19.1670    7.4180 N.4       1 3L5         0.2398
     11 CAN        65.5300  -18.8990    6.4320 C.3       1 3L5        -0.0164
     12 CAQ        65.9130  -19.2820    4.9960 C.3       1 3L5         0.0596
     13 PBC        64.5370  -18.9240    3.8040 P.3       1 3L5         0.0628
     14 OAG        64.1580  -17.4590    3.8830 O.co2     1 3L5        -0.5621
     15 OAH        63.3390  -19.7780    4.1680 O.co2     1 3L5        -0.5621
     16 OAD        64.9740  -19.2640    2.3840 O.co2     1 3L5        -0.5621
     17 CAM        66.9510  -20.6000    7.5320 C.3       1 3L5        -0.0035
     18 CAO        65.8360  -21.4440    8.2180 C.3       1 3L5         0.0981
     19 N9         66.0750  -22.8630    7.8920 N.pl3     1 3L5        -0.2340
     20 C4         67.0330  -23.6320    8.4710 C.2       1 3L5         0.1136
     21 N3         67.9710  -23.4440    9.4150 N.2       1 3L5        -0.2765
     22 C2         68.7910  -24.4330    9.7850 C.2       1 3L5         0.2340
     23 N2         69.7680  -24.1840   10.7940 N.pl3     1 3L5        -0.2807
     24 N1         68.7300  -25.6580    9.2430 N.am      1 3L5        -0.1839
     25 C6         67.8360  -25.9460    8.2950 C.2       1 3L5         0.2135
     26 O6         67.7740  -27.2500    7.7190 O.2       1 3L5        -0.4091
     27 C5         66.9390  -24.9170    7.8710 C.2       1 3L5         0.0925
     28 N7         65.9210  -24.8420    6.9550 N.2       1 3L5        -0.3236
     29 C8         65.4110  -23.6050    6.9680 C.2       1 3L5         0.0934
     30 H1         66.5195  -15.2721   11.6698 H         1 3L5         0.0474
     31 H2         66.0905  -16.9996   11.4277 H         1 3L5         0.0474
     32 H3         68.8381  -16.5691   10.5887 H         1 3L5         0.0574
     33 H4         67.7757  -15.3536    9.8010 H         1 3L5         0.0574
     34 H5         68.9103  -18.6140    8.9824 H         1 3L5         0.0613
     35 H6         69.0148  -16.9717    8.2620 H         1 3L5         0.0613
     36 H7         68.5098  -18.9548    6.6713 H         1 3L5         0.0837
     37 H8         67.4685  -17.4966    6.5442 H         1 3L5         0.0837
     38 H9         66.1944  -18.8966    8.3126 H         1 3L5         0.2036
     39 H10        65.3025  -17.8230    6.4535 H         1 3L5         0.0828
     40 H11        64.6326  -19.4693    6.7139 H         1 3L5         0.0828
     41 H12        66.1436  -20.3570    4.9626 H         1 3L5         0.0504
     42 H13        66.8021  -18.7068    4.6981 H         1 3L5         0.0504
     43 H14        67.8726  -20.6776    8.1275 H         1 3L5         0.0842
     44 H15        67.1310  -21.0014    6.5238 H         1 3L5         0.0842
     45 H16        64.8493  -21.1354    7.8422 H         1 3L5         0.0669
     46 H17        65.8750  -21.2994    9.3077 H         1 3L5         0.0669
     47 H18        69.8357  -23.2516   11.2264 H         1 3L5         0.1897
     48 H19        70.4058  -24.9366   11.0902 H         1 3L5         0.1897
     49 H20        69.3639  -26.3663    9.5538 H         1 3L5         0.2515
     50 H21        64.5955  -23.2504    6.3394 H         1 3L5         0.1178
@<TRIPOS>BOND
     1    1    2 ar 
     2    2    3 ar 
     3    2    4 ar 
     4    2    5 1  
     5    5    6 1  
     6    6    7 1  
     7    7    8 1  
     8    8    9 1  
     9    9   10 1  
    10   10   11 1  
    11   10   17 1  
    12   11   12 1  
    13   12   13 1  
    14   13   14 ar 
    15   13   15 ar 
    16   13   16 ar 
    17   17   18 1  
    18   18   19 1  
    19   19   20 1  
    20   19   29 1  
    21   20   21 1  
    22   20   27 2  
    23   21   22 2  
    24   22   23 1  
    25   22   24 am 
    26   24   25 am 
    27   25   26 2  
    28   25   27 1  
    29   27   28 1  
    30   28   29 2  
    31    5   30 1  
    32    5   31 1  
    33    6   32 1  
    34    6   33 1  
    35    8   34 1  
    36    8   35 1  
    37    9   36 1  
    38    9   37 1  
    39   10   38 1  
    40   11   39 1  
    41   11   40 1  
    42   12   41 1  
    43   12   42 1  
    44   17   43 1  
    45   17   44 1  
    46   18   45 1  
    47   18   46 1  
    48   23   47 1  
    49   23   48 1  
    50   24   49 1  
    51   29   50 1  
@<TRIPOS>SUBSTRUCTURE
     1 3L5         1

