3d52_ligand
  -I-interpret- 

 39 40  0  0  0  0  0  0  0  0999 V2000
   30.5980   65.1430   10.0330 C   0  0  0  0  0
   29.6260   65.8060    9.2940 N   0  0  0  0  0
   29.6950   65.9730    7.8240 C   0  0  0  0  0
   28.5110   65.3100    7.1290 C   0  0  0  0  0
   27.3290   65.7390    7.7610 O   0  0  0  0  0
   31.0410   65.5370    7.1970 C   0  0  0  0  0
   31.3380   66.4650    6.1820 O   0  0  0  0  0
   32.1680   65.4450    8.2060 C   0  0  0  0  0
   33.3090   64.9260    7.5660 O   0  0  0  0  0
   31.7360   64.4680    9.2740 C   0  0  0  0  0
   32.8110   64.1350   10.1190 O   0  0  0  0  0
   30.5570   65.0900   11.3650 N   0  0  0  0  0
   31.3950   67.9590   17.8590 Cl  0  0  0  0  0
   30.5630   67.8750   16.3350 C   0  0  0  0  0
   31.2040   67.3920   15.2100 C   0  0  0  0  0
   30.5600   67.3110   13.9940 C   0  0  0  0  0
   29.2390   68.2830   16.2240 C   0  0  0  0  0
   28.5820   68.2050   14.9960 C   0  0  0  0  0
   29.2410   67.7200   13.8780 C   0  0  0  0  0
   28.5980   67.6440   12.7150 N   0  0  0  0  0
   28.7600   66.6360   11.8400 C   0  0  0  0  0
   28.0840   66.6080   10.8170 O   0  0  0  0  0
   29.6010   65.6130   12.1990 O   0  0  0  0  0
   28.8245   66.1974    9.7888 H   0  0  0  0  0
   29.6346   67.0479    7.6535 H   0  0  0  0  0
   28.5980   64.2256    7.1964 H   0  0  0  0  0
   28.4930   65.5882    6.0752 H   0  0  0  0  0
   26.5727   65.3297    7.3343 H   0  0  0  0  0
   30.9436   64.5280    6.7965 H   0  0  0  0  0
   30.6080   66.5014    5.5596 H   0  0  0  0  0
   32.3924   66.4238    8.6299 H   0  0  0  0  0
   33.5968   65.5362    6.8831 H   0  0  0  0  0
   31.4002   63.5254    8.8418 H   0  0  0  0  0
   32.5110   63.5145   10.7872 H   0  0  0  0  0
   32.2419   67.0679   15.2859 H   0  0  0  0  0
   31.0888   66.9248   13.1226 H   0  0  0  0  0
   28.7127   68.6649   17.0988 H   0  0  0  0  0
   27.5439   68.5276   14.9155 H   0  0  0  0  0
   27.9468   68.3913   12.4744 H   0  0  0  0  0
  1  2  1  0  0  0
  1 10  1  0  0  0
 12  1  2  0  0  0
  2  3  1  0  0  0
  3  4  1  0  0  0
  3  6  1  0  0  0
  4  5  1  0  0  0
  6  7  1  0  0  0
  8  6  1  0  0  0
  8  9  1  0  0  0
 10  8  1  0  0  0
 10 11  1  0  0  0
 23 12  1  0  0  0
 14 13  1  0  0  0
 15 14  4  0  0  0
 17 14  4  0  0  0
 16 15  4  0  0  0
 19 16  4  0  0  0
 18 17  4  0  0  0
 19 18  4  0  0  0
 20 19  1  0  0  0
 21 20  1  0  0  0
 21 22  2  0  0  0
 21 23  1  0  0  0
  2 24  1  0  0  0
  3 25  1  0  0  0
  4 26  1  0  0  0
  4 27  1  0  0  0
  5 28  1  0  0  0
  6 29  1  0  0  0
  7 30  1  0  0  0
  8 31  1  0  0  0
  9 32  1  0  0  0
 10 33  1  0  0  0
 11 34  1  0  0  0
 15 35  1  0  0  0
 16 36  1  0  0  0
 17 37  1  0  0  0
 18 38  1  0  0  0
 20 39  1  0  0  0
M  END
$$$$
