6p5v_ligand
  -I-interpret- 

 63 67  0  0  0  0  0  0  0  0999 V2000
   15.2970  -10.1290   -7.3840 N   0  0  0  0  0
   14.9980   -9.6360   -8.7600 C   0  0  0  0  0
   13.7090   -9.1770   -8.9720 C   0  0  0  0  0
   12.9280   -9.0830   -8.0160 O   0  0  0  0  0
   15.7550  -10.3500   -9.9080 C   0  0  0  0  0
   15.4830  -11.7300   -9.9240 C   0  0  0  0  0
   16.6170  -12.5570   -9.8120 C   0  0  0  0  0
   14.2360  -12.3200   -9.8860 C   0  0  0  0  0
   16.4840  -13.9430   -9.7670 C   0  0  0  0  0
   14.1010  -13.7020   -9.8350 C   0  0  0  0  0
   15.2230  -14.5140   -9.7700 C   0  0  0  0  0
   10.9840   -9.8560  -10.5000 C   0  0  0  0  0
   11.8290   -8.6170  -10.3330 C   0  0  0  0  0
   16.4900  -10.1600   -6.7820 C   0  0  0  0  0
   16.5070  -10.6720   -5.4790 C   0  0  0  0  0
   15.4470  -11.3580   -4.8890 C   0  0  0  0  0
   15.4920  -11.7470   -3.5530 C   0  0  0  0  0
   16.5280  -11.3220   -2.7290 C   0  0  0  0  0
   17.5380  -10.5530   -3.2850 C   0  0  0  0  0
   17.5110  -10.1930   -4.6310 C   0  0  0  0  0
   14.4660  -12.5240   -3.0200 C   0  0  0  0  0
   15.2780   -9.7190  -11.1430 C   0  0  0  0  0
   14.0300   -9.2710  -11.3150 C   0  0  0  0  0
   15.7230   -9.6550  -12.3730 C   0  0  0  0  0
   17.0430  -10.2250  -12.8700 C   0  0  0  0  0
   13.0020   -8.1130  -13.1850 C   0  0  0  0  0
   13.0200   -6.6940  -13.0760 C   0  0  0  0  0
   11.9940   -5.8710  -13.5500 C   0  0  0  0  0
   10.8150   -6.4430  -13.9680 C   0  0  0  0  0
   10.6920   -7.8120  -13.9020 C   0  0  0  0  0
   11.7160   -8.5310  -13.3110 C   0  0  0  0  0
   15.0790  -15.8370   -9.7310 F   0  0  0  0  0
   13.2600   -9.0050  -10.2280 N   0  0  0  0  0
   13.8740   -8.4710  -12.3490 N   0  0  0  0  0
   14.8490   -8.9870  -13.1210 N   0  0  0  0  0
   17.5300   -9.9740   -7.4000 O   0  0  0  0  0
   14.5058  -10.4802   -6.8445 H   0  0  0  0  0
   15.5049   -8.6729   -8.8192 H   0  0  0  0  0
   16.8340  -10.2536   -9.7874 H   0  0  0  0  0
   17.6090  -12.1082   -9.7600 H   0  0  0  0  0
   13.3444  -11.6930   -9.8961 H   0  0  0  0  0
   17.3705  -14.5761   -9.7295 H   0  0  0  0  0
   13.1075  -14.1503   -9.8462 H   0  0  0  0  0
   11.2865  -10.3812  -11.4060 H   0  0  0  0  0
   11.1225  -10.5077   -9.6373 H   0  0  0  0  0
    9.9347   -9.5710  -10.5770 H   0  0  0  0  0
   11.5275   -8.0904   -9.4275 H   0  0  0  0  0
   11.6915   -7.9640  -11.1949 H   0  0  0  0  0
   14.5656  -11.5946   -5.4851 H   0  0  0  0  0
   16.5454  -11.5871   -1.6719 H   0  0  0  0  0
   18.3675  -10.2242   -2.6590 H   0  0  0  0  0
   18.2808   -9.5308   -5.0274 H   0  0  0  0  0
   13.5219  -11.9864   -3.1075 H   0  0  0  0  0
   14.4022  -13.4644   -3.5675 H   0  0  0  0  0
   14.6740  -12.7271   -1.9695 H   0  0  0  0  0
   17.8657   -9.7582  -12.3284 H   0  0  0  0  0
   17.0592  -11.3016  -12.7005 H   0  0  0  0  0
   17.1465  -10.0221  -13.9359 H   0  0  0  0  0
   13.8793   -6.2240  -12.5976 H   0  0  0  0  0
   12.1267   -4.7898  -13.5878 H   0  0  0  0  0
    9.9977   -5.8267  -14.3425 H   0  0  0  0  0
    9.8129   -8.3157  -14.3039 H   0  0  0  0  0
   11.4698   -9.5155  -12.9132 H   0  0  0  0  0
  2  1  1  0  0  0
  1 14  1  0  0  0
  3  2  1  0  0  0
  5  2  1  0  0  0
  3  4  2  0  0  0
 33  3  1  0  0  0
  5  6  1  0  0  0
 22  5  1  0  0  0
  6  7  4  0  0  0
  6  8  4  0  0  0
  7  9  4  0  0  0
  8 10  4  0  0  0
  9 11  4  0  0  0
 10 11  4  0  0  0
 11 32  1  0  0  0
 13 12  1  0  0  0
 33 13  1  0  0  0
 14 15  1  0  0  0
 14 36  2  0  0  0
 15 16  4  0  0  0
 15 20  4  0  0  0
 16 17  4  0  0  0
 17 18  4  0  0  0
 17 21  1  0  0  0
 19 18  4  0  0  0
 20 19  4  0  0  0
 23 22  4  0  0  0
 22 24  4  0  0  0
 23 33  1  0  0  0
 34 23  4  0  0  0
 24 25  1  0  0  0
 24 35  4  0  0  0
 26 27  4  0  0  0
 26 31  4  0  0  0
 26 34  1  0  0  0
 27 28  4  0  0  0
 28 29  4  0  0  0
 29 30  4  0  0  0
 30 31  4  0  0  0
 34 35  4  0  0  0
  1 37  1  0  0  0
  2 38  1  0  0  0
  5 39  1  0  0  0
  7 40  1  0  0  0
  8 41  1  0  0  0
  9 42  1  0  0  0
 10 43  1  0  0  0
 12 44  1  0  0  0
 12 45  1  0  0  0
 12 46  1  0  0  0
 13 47  1  0  0  0
 13 48  1  0  0  0
 16 49  1  0  0  0
 18 50  1  0  0  0
 19 51  1  0  0  0
 20 52  1  0  0  0
 21 53  1  0  0  0
 21 54  1  0  0  0
 21 55  1  0  0  0
 25 56  1  0  0  0
 25 57  1  0  0  0
 25 58  1  0  0  0
 27 59  1  0  0  0
 28 60  1  0  0  0
 29 61  1  0  0  0
 30 62  1  0  0  0
 31 63  1  0  0  0
M  END
$$$$
