5y8c_ligand
  -I-interpret- 

 40 42  0  0  0  0  0  0  0  0999 V2000
   13.9240    9.2300    4.1560 C   0  0  0  0  0
   12.8530    9.3460    3.1850 O   0  0  0  0  0
   12.7990    8.4270    2.1770 C   0  0  0  0  0
   13.8020    7.5040    1.8770 C   0  0  0  0  0
   13.6210    6.6680    0.8570 C   0  0  0  0  0
   14.5090    5.7090    0.4030 O   0  0  0  0  0
   13.7710    5.0460   -0.7060 N   0  0  0  0  0
   12.6060    5.6820   -0.8120 C   0  0  0  0  0
   11.5710    5.2980   -1.8550 C   0  0  0  0  0
   12.4770    6.6340    0.1120 C   0  0  0  0  0
   11.4880    7.5340    0.3520 C   0  0  0  0  0
   11.6210    8.4410    1.4190 C   0  0  0  0  0
   10.7180    9.4150    1.7420 N   0  0  0  0  0
    9.1690    9.0100    2.2470 S   0  0  0  0  0
    8.6480    8.0150    1.2900 O   0  0  0  0  0
    8.3640   10.2430    2.4030 O   0  0  0  0  0
    9.3320    8.2300    3.7880 C   0  0  0  0  0
    8.9510    6.9030    3.9070 C   0  0  0  0  0
    9.0860    6.2660    5.1140 C   0  0  0  0  0
    8.6040    4.6550    5.2440 Cl  0  0  0  0  0
    9.5990    6.9190    6.2220 C   0  0  0  0  0
    9.9900    8.2380    6.1120 C   0  0  0  0  0
    9.8680    8.9040    4.8810 C   0  0  0  0  0
   10.2070   10.2210    4.6930 O   0  0  0  0  0
   10.7980   10.9660    5.7740 C   0  0  0  0  0
   13.8562    8.2639    4.6562 H   0  0  0  0  0
   14.8845    9.3104    3.6470 H   0  0  0  0  0
   13.8334   10.0288    4.8921 H   0  0  0  0  0
   14.7175    7.4683    2.4675 H   0  0  0  0  0
   12.0013    5.4096   -2.8502 H   0  0  0  0  0
   11.2701    4.2616   -1.7020 H   0  0  0  0  0
   10.7015    5.9482   -1.7587 H   0  0  0  0  0
   10.5983    7.5531   -0.2774 H   0  0  0  0  0
   10.9877   10.3965    1.6756 H   0  0  0  0  0
    8.5467    6.3690    3.0470 H   0  0  0  0  0
    9.6933    6.3955    7.1734 H   0  0  0  0  0
   10.3928    8.7621    6.9787 H   0  0  0  0  0
   10.1101   10.9849    6.6193 H   0  0  0  0  0
   11.7314   10.4898    6.0741 H   0  0  0  0  0
   10.9984   11.9854    5.4441 H   0  0  0  0  0
  1  2  1  0  0  0
  2  3  1  0  0  0
  3  4  4  0  0  0
  3 12  4  0  0  0
  4  5  4  0  0  0
  5  6  4  0  0  0
  5 10  4  0  0  0
  6  7  4  0  0  0
  7  8  4  0  0  0
  8  9  1  0  0  0
  8 10  4  0  0  0
 10 11  4  0  0  0
 11 12  4  0  0  0
 12 13  1  0  0  0
 13 14  1  0  0  0
 14 15  2  0  0  0
 14 16  2  0  0  0
 14 17  1  0  0  0
 17 18  4  0  0  0
 17 23  4  0  0  0
 18 19  4  0  0  0
 19 20  1  0  0  0
 19 21  4  0  0  0
 21 22  4  0  0  0
 22 23  4  0  0  0
 23 24  1  0  0  0
 24 25  1  0  0  0
  1 26  1  0  0  0
  1 27  1  0  0  0
  1 28  1  0  0  0
  4 29  1  0  0  0
  9 30  1  0  0  0
  9 31  1  0  0  0
  9 32  1  0  0  0
 11 33  1  0  0  0
 13 34  1  0  0  0
 18 35  1  0  0  0
 21 36  1  0  0  0
 22 37  1  0  0  0
 25 38  1  0  0  0
 25 39  1  0  0  0
 25 40  1  0  0  0
M  END
$$$$
