5ax3_ligand
  -I-interpret- 

 33 35  0  0  0  0  0  0  0  0999 V2000
   14.5350   -5.4730  -21.0110 O   0  0  0  0  0
   14.6140   -5.1020  -19.6420 C   0  0  0  0  0
   16.0220   -4.7270  -19.2520 C   0  0  0  0  0
   16.0420   -4.2530  -17.8780 O   0  0  0  0  0
   17.2180   -4.6950  -17.2320 C   0  0  0  0  0
   16.8320   -5.6230  -16.1510 N   0  0  0  0  0
   15.5630   -5.7720  -15.7050 C   0  0  0  0  0
   15.6450   -6.7120  -14.7050 C   0  0  0  0  0
   17.0270   -7.1620  -14.5220 C   0  0  0  0  0
   17.6940   -8.0560  -13.7020 C   0  0  0  0  0
   19.0280   -8.1880  -13.8500 N   0  0  0  0  0
   19.6780   -7.4650  -14.7730 C   0  0  0  0  0
   19.0440   -6.5980  -15.5710 N   0  0  0  0  0
   17.7040   -6.4160  -15.4720 C   0  0  0  0  0
   17.0230   -8.7780  -12.7720 N   0  0  0  0  0
   18.0890   -5.3750  -18.2850 C   0  0  0  0  0
   18.9220   -4.3930  -18.8840 O   0  0  0  0  0
   17.0370   -5.8600  -19.2690 C   0  0  0  0  0
   17.5510   -6.1250  -20.5610 O   0  0  0  0  0
   13.9880   -7.4380  -13.5540 I   0  0  0  0  0
   13.6288   -5.7052  -21.2267 H   0  0  0  0  0
   14.3021   -5.9520  -19.0351 H   0  0  0  0  0
   13.9690   -4.2383  -19.4803 H   0  0  0  0  0
   16.3021   -3.9867  -20.0014 H   0  0  0  0  0
   17.7813   -3.8756  -16.7855 H   0  0  0  0  0
   14.6700   -5.2584  -16.0612 H   0  0  0  0  0
   20.7562   -7.5872  -14.8766 H   0  0  0  0  0
   16.0143   -8.6661  -12.6698 H   0  0  0  0  0
   17.5266   -9.4333  -12.1742 H   0  0  0  0  0
   18.7431   -6.1660  -17.9181 H   0  0  0  0  0
   19.5783   -4.1003  -18.2475 H   0  0  0  0  0
   16.6105   -6.8234  -18.9897 H   0  0  0  0  0
   16.8400   -6.4260  -21.1315 H   0  0  0  0  0
  1  2  1  0  0  0
  2  3  1  0  0  0
  3  4  1  0  0  0
  3 18  1  0  0  0
  4  5  1  0  0  0
  5  6  1  0  0  0
  5 16  1  0  0  0
  6  7  4  0  0  0
  6 14  4  0  0  0
  7  8  4  0  0  0
  8  9  4  0  0  0
  8 20  1  0  0  0
  9 10  4  0  0  0
  9 14  4  0  0  0
 10 11  4  0  0  0
 10 15  1  0  0  0
 11 12  4  0  0  0
 12 13  4  0  0  0
 13 14  4  0  0  0
 16 17  1  0  0  0
 16 18  1  0  0  0
 18 19  1  0  0  0
  1 21  1  0  0  0
  2 22  1  0  0  0
  2 23  1  0  0  0
  3 24  1  0  0  0
  5 25  1  0  0  0
  7 26  1  0  0  0
 12 27  1  0  0  0
 15 28  1  0  0  0
 15 29  1  0  0  0
 16 30  1  0  0  0
 17 31  1  0  0  0
 18 32  1  0  0  0
 19 33  1  0  0  0
M  END
$$$$
