### 
### Created by X-TOOL on Mon Sep 10 21:13:24 2018
### 

@<TRIPOS>MOLECULE
4yp1_ligand
   66    72     1     0     0
SMALL
GAST_HUCK


@<TRIPOS>ATOM
      1 P         -14.2980    4.7810  -23.3840 P.3       1 2BA         0.2557
      2 O1P       -13.2580    4.1720  -22.6140 O.co2     1 2BA        -0.6177
      3 O2P       -14.0160    6.1730  -23.4740 O.co2     1 2BA        -0.6177
      4 O5'       -15.5500    4.8330  -22.5950 O.3       1 2BA        -0.2514
      5 C5'       -16.1410    3.6600  -22.3930 C.3       1 2BA         0.1128
      6 C4'       -17.5130    3.9020  -21.9370 C.3       1 2BA         0.1242
      7 O4'       -17.4320    5.0150  -21.1960 O.3       1 2BA        -0.3360
      8 C3'       -18.3170    4.4090  -23.0300 C.3       1 2BA         0.1540
      9 O3'       -18.8090    3.4130  -23.8220 O.3       1 2BA        -0.2453
     10 C2'       -19.3650    4.8150  -22.2580 C.3       1 2BA         0.1439
     11 O2'       -19.9560    3.6900  -21.8330 O.3       1 2BA        -0.3832
     12 C1'       -18.7240    5.4330  -21.1210 C.3       1 2BA         0.2014
     13 N9        -18.5710    6.7540  -21.4700 N.pl3     1 2BA        -0.1919
     14 C8        -17.5060    7.1860  -21.9470 C.2       1 2BA         0.1123
     15 N7        -17.5340    8.3570  -22.1960 N.2       1 2BA        -0.2958
     16 C5        -18.6370    8.9190  -21.9210 C.ar      1 2BA         0.1045
     17 C6        -19.1450   10.1620  -22.0130 C.ar      1 2BA         0.1298
     18 N6        -18.4350   11.1540  -22.5130 N.pl3     1 2BA        -0.3152
     19 N1        -20.3630   10.3990  -21.6050 N.ar      1 2BA        -0.2698
     20 C2        -21.0850    9.4000  -21.1230 C.ar      1 2BA         0.0533
     21 N3        -20.6440    8.1500  -21.0100 N.ar      1 2BA        -0.2714
     22 C4        -19.4210    7.8580  -21.4080 C.ar      1 2BA         0.1613
     23 P1        -18.7710    3.5890  -25.3110 P.3       1 2BA         0.2557
     24 O1P1      -19.4880    2.5040  -25.8810 O.co2     1 2BA        -0.6177
     25 O2P1      -19.5140    4.7740  -25.4990 O.co2     1 2BA        -0.6177
     26 O5'1      -17.6070    3.9020  -26.1610 O.3       1 2BA        -0.2514
     27 C5'1      -16.5880    3.0470  -26.0970 C.3       1 2BA         0.1128
     28 C4'1      -15.4090    3.6890  -26.6600 C.3       1 2BA         0.1242
     29 O4'1      -15.9630    4.4920  -27.6640 O.3       1 2BA        -0.3360
     30 C3'1      -14.9560    4.7170  -25.7790 C.3       1 2BA         0.1540
     31 O3'1      -14.1160    4.2650  -24.8020 O.3       1 2BA        -0.2453
     32 C2'1      -14.1770    5.4520  -26.7210 C.3       1 2BA         0.1439
     33 O2'1      -13.0870    4.7310  -26.9500 O.3       1 2BA        -0.3832
     34 C1'1      -14.9900    5.4230  -27.9230 C.3       1 2BA         0.2014
     35 N91       -15.6910    6.6010  -27.7880 N.pl3     1 2BA        -0.1919
     36 C81       -16.8730    6.6090  -27.4130 C.2       1 2BA         0.1123
     37 N71       -17.3530    7.7030  -27.3460 N.2       1 2BA        -0.2958
     38 C51       -16.5670    8.6360  -27.6760 C.ar      1 2BA         0.1045
     39 C61       -16.5860    9.9740  -27.7690 C.ar      1 2BA         0.1298
     40 N61       -17.6910   10.6510  -27.4440 N.pl3     1 2BA        -0.3152
     41 N11       -15.5560   10.6510  -28.1730 N.ar      1 2BA        -0.2698
     42 C21       -14.4500   10.0040  -28.4880 C.ar      1 2BA         0.0533
     43 N31       -14.3640    8.6800  -28.4030 N.ar      1 2BA        -0.2714
     44 C41       -15.3770    7.9530  -27.9910 C.ar      1 2BA         0.1613
     45 H1        -15.5901    3.0941  -21.6274 H         1 2BA         0.0647
     46 H2        -16.1578    3.0866  -23.3316 H         1 2BA         0.0647
     47 H3        -17.9527    3.0327  -21.4262 H         1 2BA         0.0655
     48 H4        -17.8263    5.1998  -23.6164 H         1 2BA         0.0712
     49 H5        -20.0608    5.4883  -22.7799 H         1 2BA         0.0680
     50 H6        -20.2518    3.1865  -22.5823 H         1 2BA         0.2101
     51 H7        -19.2267    5.2537  -20.1592 H         1 2BA         0.0996
     52 H8        -16.6325    6.5594  -22.1213 H         1 2BA         0.1349
     53 H9        -18.8417   12.0983  -22.5750 H         1 2BA         0.1820
     54 H10       -17.4736   10.9847  -22.8417 H         1 2BA         0.1820
     55 H11       -22.0977    9.6134  -20.8006 H         1 2BA         0.0996
     56 H12       -16.8274    2.1409  -26.6728 H         1 2BA         0.0647
     57 H13       -16.3971    2.7753  -25.0483 H         1 2BA         0.0647
     58 H14       -14.6273    2.9839  -26.9789 H         1 2BA         0.0655
     59 H15       -15.7843    5.2938  -25.3419 H         1 2BA         0.0712
     60 H16       -13.9407    6.4731  -26.3871 H         1 2BA         0.0680
     61 H17       -12.6121    4.6098  -26.1362 H         1 2BA         0.2101
     62 H18       -14.4417    5.2859  -28.8667 H         1 2BA         0.0996
     63 H19       -17.4242    5.7026  -27.1670 H         1 2BA         0.1349
     64 H20       -17.7052   11.6784  -27.5155 H         1 2BA         0.1820
     65 H21       -18.5286   10.1455  -27.1219 H         1 2BA         0.1820
     66 H22       -13.5877   10.5676  -28.8254 H         1 2BA         0.0996
@<TRIPOS>BOND
     1    1    2 ar 
     2    1    3 ar 
     3    1    4 1  
     4    1   31 1  
     5    4    5 1  
     6    5    6 1  
     7    6    7 1  
     8    6    8 1  
     9    7   12 1  
    10    8    9 1  
    11    8   10 1  
    12    9   23 1  
    13   10   11 1  
    14   10   12 1  
    15   12   13 1  
    16   13   14 1  
    17   13   22 1  
    18   14   15 2  
    19   15   16 1  
    20   16   17 ar 
    21   16   22 ar 
    22   17   18 1  
    23   17   19 ar 
    24   19   20 ar 
    25   20   21 ar 
    26   21   22 ar 
    27   23   24 ar 
    28   23   25 ar 
    29   23   26 1  
    30   26   27 1  
    31   27   28 1  
    32   28   29 1  
    33   28   30 1  
    34   29   34 1  
    35   30   31 1  
    36   30   32 1  
    37   32   33 1  
    38   32   34 1  
    39   34   35 1  
    40   35   36 1  
    41   35   44 1  
    42   36   37 2  
    43   37   38 1  
    44   38   39 ar 
    45   38   44 ar 
    46   39   40 1  
    47   39   41 ar 
    48   41   42 ar 
    49   42   43 ar 
    50   43   44 ar 
    51    5   45 1  
    52    5   46 1  
    53    6   47 1  
    54    8   48 1  
    55   10   49 1  
    56   11   50 1  
    57   12   51 1  
    58   14   52 1  
    59   18   53 1  
    60   18   54 1  
    61   20   55 1  
    62   27   56 1  
    63   27   57 1  
    64   28   58 1  
    65   30   59 1  
    66   32   60 1  
    67   33   61 1  
    68   34   62 1  
    69   36   63 1  
    70   40   64 1  
    71   40   65 1  
    72   42   66 1  
@<TRIPOS>SUBSTRUCTURE
     1 2BA         1

