4yp1_ligand
  -I-interpret- 

 68 74  0  0  0  0  0  0  0  0999 V2000
  -14.2980    4.7810  -23.3840 P   0  0  0  0  0
  -13.2580    4.1720  -22.6140 O   0  0  0  0  0
  -14.0160    6.1730  -23.4740 O   0  0  0  0  0
  -15.5500    4.8330  -22.5950 O   0  0  0  0  0
  -16.1410    3.6600  -22.3930 C   0  0  0  0  0
  -17.5130    3.9020  -21.9370 C   0  0  0  0  0
  -17.4320    5.0150  -21.1960 O   0  0  0  0  0
  -18.3170    4.4090  -23.0300 C   0  0  0  0  0
  -18.8090    3.4130  -23.8220 O   0  0  0  0  0
  -19.3650    4.8150  -22.2580 C   0  0  0  0  0
  -19.9560    3.6900  -21.8330 O   0  0  0  0  0
  -18.7240    5.4330  -21.1210 C   0  0  0  0  0
  -18.5710    6.7540  -21.4700 N   0  0  0  0  0
  -17.5060    7.1860  -21.9470 C   0  0  0  0  0
  -17.5340    8.3570  -22.1960 N   0  0  0  0  0
  -18.6370    8.9190  -21.9210 C   0  0  0  0  0
  -19.1450   10.1620  -22.0130 C   0  0  0  0  0
  -18.4350   11.1540  -22.5130 N   0  0  0  0  0
  -20.3630   10.3990  -21.6050 N   0  0  0  0  0
  -21.0850    9.4000  -21.1230 C   0  0  0  0  0
  -20.6440    8.1500  -21.0100 N   0  0  0  0  0
  -19.4210    7.8580  -21.4080 C   0  0  0  0  0
  -18.7710    3.5890  -25.3110 P   0  0  0  0  0
  -19.4880    2.5040  -25.8810 O   0  0  0  0  0
  -19.5140    4.7740  -25.4990 O   0  0  0  0  0
  -17.6070    3.9020  -26.1610 O   0  0  0  0  0
  -16.5880    3.0470  -26.0970 C   0  0  0  0  0
  -15.4090    3.6890  -26.6600 C   0  0  0  0  0
  -15.9630    4.4920  -27.6640 O   0  0  0  0  0
  -14.9560    4.7170  -25.7790 C   0  0  0  0  0
  -14.1160    4.2650  -24.8020 O   0  0  0  0  0
  -14.1770    5.4520  -26.7210 C   0  0  0  0  0
  -13.0870    4.7310  -26.9500 O   0  0  0  0  0
  -14.9900    5.4230  -27.9230 C   0  0  0  0  0
  -15.6910    6.6010  -27.7880 N   0  0  0  0  0
  -16.8730    6.6090  -27.4130 C   0  0  0  0  0
  -17.3530    7.7030  -27.3460 N   0  0  0  0  0
  -16.5670    8.6360  -27.6760 C   0  0  0  0  0
  -16.5860    9.9740  -27.7690 C   0  0  0  0  0
  -17.6910   10.6510  -27.4440 N   0  0  0  0  0
  -15.5560   10.6510  -28.1730 N   0  0  0  0  0
  -14.4500   10.0040  -28.4880 C   0  0  0  0  0
  -14.3640    8.6800  -28.4030 N   0  0  0  0  0
  -15.3770    7.9530  -27.9910 C   0  0  0  0  0
  -13.4266    3.2299  -22.5391 H   0  0  0  0  0
  -15.5936    3.0926  -21.6403 H   0  0  0  0  0
  -16.1529    3.0853  -23.3191 H   0  0  0  0  0
  -17.9072    2.9947  -21.4793 H   0  0  0  0  0
  -17.8042    5.1076  -23.6911 H   0  0  0  0  0
  -20.0787    5.4713  -22.7560 H   0  0  0  0  0
  -20.7078    3.9142  -21.2797 H   0  0  0  0  0
  -19.2505    5.2407  -20.1862 H   0  0  0  0  0
  -16.6317    6.5589  -22.1214 H   0  0  0  0  0
  -17.4830   10.9864  -22.8385 H   0  0  0  0  0
  -18.8377   12.0891  -22.5744 H   0  0  0  0  0
  -22.1033    9.6146  -20.7988 H   0  0  0  0  0
  -18.9897    1.6927  -25.7578 H   0  0  0  0  0
  -16.8243    2.1442  -26.6603 H   0  0  0  0  0
  -16.4004    2.7693  -25.0598 H   0  0  0  0  0
  -14.6431    2.9539  -26.9071 H   0  0  0  0  0
  -15.7582    5.2262  -25.2449 H   0  0  0  0  0
  -13.9109    6.4600  -26.4030 H   0  0  0  0  0
  -12.5287    5.1892  -27.5824 H   0  0  0  0  0
  -14.4421    5.2596  -28.8510 H   0  0  0  0  0
  -17.4247    5.7017  -27.1668 H   0  0  0  0  0
  -18.5205   10.1504  -27.1250 H   0  0  0  0  0
  -17.7051   11.6684  -27.5148 H   0  0  0  0  0
  -13.5829   10.5707  -28.8273 H   0  0  0  0  0
  1  2  1  0  0  0
  1  3  2  0  0  0
  1  4  1  0  0  0
  1 31  1  0  0  0
  4  5  1  0  0  0
  5  6  1  0  0  0
  6  7  1  0  0  0
  6  8  1  0  0  0
  7 12  1  0  0  0
  8  9  1  0  0  0
  8 10  1  0  0  0
  9 23  1  0  0  0
 10 11  1  0  0  0
 10 12  1  0  0  0
 12 13  1  0  0  0
 13 14  4  0  0  0
 13 22  4  0  0  0
 14 15  4  0  0  0
 15 16  4  0  0  0
 16 17  4  0  0  0
 16 22  4  0  0  0
 17 18  1  0  0  0
 17 19  4  0  0  0
 19 20  4  0  0  0
 20 21  4  0  0  0
 21 22  4  0  0  0
 23 24  1  0  0  0
 23 25  2  0  0  0
 23 26  1  0  0  0
 26 27  1  0  0  0
 27 28  1  0  0  0
 28 29  1  0  0  0
 28 30  1  0  0  0
 29 34  1  0  0  0
 30 31  1  0  0  0
 30 32  1  0  0  0
 32 33  1  0  0  0
 32 34  1  0  0  0
 34 35  1  0  0  0
 35 36  4  0  0  0
 35 44  4  0  0  0
 36 37  4  0  0  0
 37 38  4  0  0  0
 38 39  4  0  0  0
 38 44  4  0  0  0
 39 40  1  0  0  0
 39 41  4  0  0  0
 41 42  4  0  0  0
 42 43  4  0  0  0
 43 44  4  0  0  0
  2 45  1  0  0  0
  5 46  1  0  0  0
  5 47  1  0  0  0
  6 48  1  0  0  0
  8 49  1  0  0  0
 10 50  1  0  0  0
 11 51  1  0  0  0
 12 52  1  0  0  0
 14 53  1  0  0  0
 18 54  1  0  0  0
 18 55  1  0  0  0
 20 56  1  0  0  0
 24 57  1  0  0  0
 27 58  1  0  0  0
 27 59  1  0  0  0
 28 60  1  0  0  0
 30 61  1  0  0  0
 32 62  1  0  0  0
 33 63  1  0  0  0
 34 64  1  0  0  0
 36 65  1  0  0  0
 40 66  1  0  0  0
 40 67  1  0  0  0
 42 68  1  0  0  0
M  END
$$$$
