5awj_ligand
  -I-interpret- 

 83 85  0  0  0  0  0  0  0  0999 V2000
   16.3430  -20.5030  -26.9700 O   0  0  0  0  0
   17.1620  -21.6240  -26.6310 C   0  0  0  0  0
   17.5580  -22.3670  -27.9000 C   0  0  0  0  0
   18.8060  -23.2160  -27.6940 C   0  0  0  0  0
   19.4820  -23.4790  -29.0310 C   0  0  0  0  0
   20.3430  -22.2870  -29.4240 C   0  0  0  0  0
   21.4890  -22.6990  -30.3340 C   0  0  0  0  0
   21.6980  -21.6700  -31.4360 C   0  0  0  0  0
   22.7000  -20.6090  -31.0020 C   0  0  0  0  0
   24.1150  -21.0610  -31.2820 C   0  0  0  0  0
   18.4900  -24.5240  -26.9860 C   0  0  0  0  0
   17.5750  -25.3970  -27.8320 C   0  0  0  0  0
   19.7700  -25.2710  -26.6350 C   0  0  0  0  0
   19.5130  -26.6150  -25.9770 C   0  0  0  0  0
   18.4350  -26.4810  -24.9070 C   0  0  0  0  0
   19.1830  -27.7490  -26.9270 C   0  0  0  0  0
   19.0520  -29.0510  -26.1420 C   0  0  0  0  0
   20.2510  -29.3630  -25.2420 C   0  0  0  0  0
   20.7370  -28.1270  -24.5200 C   0  0  0  0  0
   20.8620  -26.9030  -25.3650 C   0  0  0  0  0
   21.2950  -25.5930  -24.7340 C   0  0  0  0  0
   20.6600  -24.5320  -25.6350 C   0  0  0  0  0
   21.0250  -28.1400  -23.2080 C   0  0  0  0  0
   20.8640  -29.3820  -22.4550 C   0  0  0  0  0
   20.5510  -29.4070  -21.1530 C   0  0  0  0  0
   20.3880  -30.7420  -20.4590 C   0  0  0  0  0
   21.0510  -30.7690  -19.0870 C   0  0  0  0  0
   22.4660  -30.8000  -19.2540 O   0  0  0  0  0
   20.6870  -29.5450  -18.3100 C   0  0  0  0  0
   20.1700  -29.6580  -17.1030 C   0  0  0  0  0
   20.9310  -28.2090  -18.9510 C   0  0  0  0  0
   20.3610  -27.1740  -18.1510 O   0  0  0  0  0
   20.3500  -28.1320  -20.3640 C   0  0  0  0  0
   16.0944  -20.0359  -26.1690 H   0  0  0  0  0
   16.6060  -22.2949  -25.9762 H   0  0  0  0  0
   18.0593  -21.2763  -26.1190 H   0  0  0  0  0
   17.7692  -21.6309  -28.6757 H   0  0  0  0  0
   16.7373  -23.0274  -28.1800 H   0  0  0  0  0
   19.4881  -22.6589  -27.0518 H   0  0  0  0  0
   18.7189  -23.6364  -29.7933 H   0  0  0  0  0
   20.1129  -24.3637  -28.9454 H   0  0  0  0  0
   20.7631  -21.8521  -28.5171 H   0  0  0  0  0
   19.7178  -21.5728  -29.9599 H   0  0  0  0  0
   21.2490  -23.6595  -30.7899 H   0  0  0  0  0
   22.4010  -22.7707  -29.7414 H   0  0  0  0  0
   20.7450  -21.1865  -31.6508 H   0  0  0  0  0
   22.0833  -22.1762  -32.3211 H   0  0  0  0  0
   22.5906  -20.4393  -29.9309 H   0  0  0  0  0
   22.5064  -19.6932  -31.5605 H   0  0  0  0  0
   24.3165  -21.9810  -30.7333 H   0  0  0  0  0
   24.2330  -21.2406  -32.3506 H   0  0  0  0  0
   24.8123  -20.2862  -30.9633 H   0  0  0  0  0
   17.9670  -24.2852  -26.0600 H   0  0  0  0  0
   18.0878  -25.6724  -28.7536 H   0  0  0  0  0
   17.3173  -26.2978  -27.2750 H   0  0  0  0  0
   16.6667  -24.8440  -28.0714 H   0  0  0  0  0
   20.2547  -25.3714  -27.6061 H   0  0  0  0  0
   18.7634  -25.7695  -24.1493 H   0  0  0  0  0
   17.5121  -26.1256  -25.3653 H   0  0  0  0  0
   18.2616  -27.4525  -24.4441 H   0  0  0  0  0
   19.9801  -27.8484  -27.6638 H   0  0  0  0  0
   18.2422  -27.5351  -27.4341 H   0  0  0  0  0
   18.9762  -29.8594  -26.8693 H   0  0  0  0  0
   18.1808  -28.9506  -25.4946 H   0  0  0  0  0
   21.0618  -29.7406  -25.8650 H   0  0  0  0  0
   19.9432  -30.0987  -24.4990 H   0  0  0  0  0
   21.6726  -27.1773  -26.0401 H   0  0  0  0  0
   22.3792  -25.4964  -24.6767 H   0  0  0  0  0
   20.9743  -25.5044  -23.6960 H   0  0  0  0  0
   20.0751  -23.8253  -25.0463 H   0  0  0  0  0
   21.4269  -23.9560  -26.1528 H   0  0  0  0  0
   21.3746  -27.2350  -22.7110 H   0  0  0  0  0
   21.0048  -30.3292  -22.9756 H   0  0  0  0  0
   20.8626  -31.5036  -21.0777 H   0  0  0  0  0
   19.3219  -30.9225  -20.3217 H   0  0  0  0  0
   20.7101  -31.6526  -18.5474 H   0  0  0  0  0
   22.8885  -30.8171  -18.3921 H   0  0  0  0  0
   20.0073  -30.6450  -16.6700 H   0  0  0  0  0
   19.9051  -28.7645  -16.5377 H   0  0  0  0  0
   22.0107  -28.0784  -19.0241 H   0  0  0  0  0
   20.5214  -26.3241  -18.5676 H   0  0  0  0  0
   19.2772  -27.9615  -20.2742 H   0  0  0  0  0
   20.8640  -27.3289  -20.8922 H   0  0  0  0  0
  1  2  1  0  0  0
  2  3  1  0  0  0
  3  4  1  0  0  0
  4  5  1  0  0  0
  4 11  1  0  0  0
  5  6  1  0  0  0
  6  7  1  0  0  0
  7  8  1  0  0  0
  8  9  1  0  0  0
  9 10  1  0  0  0
 11 12  1  0  0  0
 11 13  1  0  0  0
 13 14  1  0  0  0
 13 22  1  0  0  0
 14 15  1  0  0  0
 14 16  1  0  0  0
 14 20  1  0  0  0
 16 17  1  0  0  0
 17 18  1  0  0  0
 18 19  1  0  0  0
 19 20  1  0  0  0
 19 23  2  0  0  0
 20 21  1  0  0  0
 21 22  1  0  0  0
 23 24  1  0  0  0
 24 25  2  0  0  0
 25 26  1  0  0  0
 25 33  1  0  0  0
 26 27  1  0  0  0
 27 28  1  0  0  0
 27 29  1  0  0  0
 29 30  2  0  0  0
 29 31  1  0  0  0
 31 32  1  0  0  0
 31 33  1  0  0  0
  1 34  1  0  0  0
  2 35  1  0  0  0
  2 36  1  0  0  0
  3 37  1  0  0  0
  3 38  1  0  0  0
  4 39  1  0  0  0
  5 40  1  0  0  0
  5 41  1  0  0  0
  6 42  1  0  0  0
  6 43  1  0  0  0
  7 44  1  0  0  0
  7 45  1  0  0  0
  8 46  1  0  0  0
  8 47  1  0  0  0
  9 48  1  0  0  0
  9 49  1  0  0  0
 10 50  1  0  0  0
 10 51  1  0  0  0
 10 52  1  0  0  0
 11 53  1  0  0  0
 12 54  1  0  0  0
 12 55  1  0  0  0
 12 56  1  0  0  0
 13 57  1  0  0  0
 15 58  1  0  0  0
 15 59  1  0  0  0
 15 60  1  0  0  0
 16 61  1  0  0  0
 16 62  1  0  0  0
 17 63  1  0  0  0
 17 64  1  0  0  0
 18 65  1  0  0  0
 18 66  1  0  0  0
 20 67  1  0  0  0
 21 68  1  0  0  0
 21 69  1  0  0  0
 22 70  1  0  0  0
 22 71  1  0  0  0
 23 72  1  0  0  0
 24 73  1  0  0  0
 26 74  1  0  0  0
 26 75  1  0  0  0
 27 76  1  0  0  0
 28 77  1  0  0  0
 30 78  1  0  0  0
 30 79  1  0  0  0
 31 80  1  0  0  0
 32 81  1  0  0  0
 33 82  1  0  0  0
 33 83  1  0  0  0
M  END
$$$$
