4e3h_ligand
  -I-interpret- 

 14 14  0  0  0  0  0  0  0  0999 V2000
   14.6240    4.4170   17.5990 C   0  0  0  0  0
   14.8040    3.1160   18.1840 C   0  0  0  0  0
   15.3400    2.1050   17.3950 C   0  0  0  0  0
   15.4900    0.8050   17.9200 O   0  0  0  0  0
   15.6690    2.3990   16.0370 C   0  0  0  0  0
   15.5180    3.6700   15.4700 C   0  0  0  0  0
   15.0070    4.6970   16.2810 C   0  0  0  0  0
   14.8730    6.0060   15.7680 O   0  0  0  0  0
   14.1761    5.2091   18.1990 H   0  0  0  0  0
   14.5268    2.9271   19.2211 H   0  0  0  0  0
   15.8715    0.2327   17.2503 H   0  0  0  0  0
   16.0565    1.5948   15.4115 H   0  0  0  0  0
   15.7887    3.8571   14.4309 H   0  0  0  0  0
   15.1786    6.0247   14.8581 H   0  0  0  0  0
  1  2  4  0  0  0
  1  7  4  0  0  0
  2  3  4  0  0  0
  3  4  1  0  0  0
  3  5  4  0  0  0
  5  6  4  0  0  0
  6  7  4  0  0  0
  7  8  1  0  0  0
  1  9  1  0  0  0
  2 10  1  0  0  0
  4 11  1  0  0  0
  5 12  1  0  0  0
  6 13  1  0  0  0
  8 14  1  0  0  0
M  END
$$$$
