5TG7_LIGAND
  -I-interpret- 

 30 31  0  0  0  0  0  0  0  0999 V2000
    1.6920   31.3210  -17.9340 O   0  0  0  0  0
    2.8070   31.3730  -17.3990 C   0  0  0  0  0
    2.6610   31.2880  -15.8960 C   0  0  0  0  0
    1.4460   30.7200  -15.3300 C   0  0  0  0  0
    1.1990   30.6400  -13.9260 C   0  0  0  0  0
   -0.1110   30.0680  -13.2500 B   0  0  0  0  0
   -0.3050   30.5560  -11.8430 O   0  0  0  0  0
   -1.3690   30.0740  -14.0750 O   0  0  0  0  0
    2.2280   31.1850  -13.1290 C   0  0  0  0  0
    3.3930   31.7930  -13.6990 C   0  0  0  0  0
    3.6520   31.8550  -15.0750 C   0  0  0  0  0
    3.9710   31.6010  -18.0820 N   0  0  0  0  0
    3.9530   31.7260  -19.5480 C   0  0  0  0  0
    5.1340   32.2590  -20.3580 C   0  0  0  0  0
    5.0890   33.5340  -20.9520 O   0  0  0  0  0
    5.6760   33.4790  -22.2110 C   0  0  0  0  0
    6.1110   32.1720  -22.4150 C   0  0  0  0  0
    5.7920   31.4260  -21.2840 C   0  0  0  0  0
    0.6870   30.3367  -16.0120 H   0  0  0  0  0
    0.5335   30.5255  -11.3765 H   0  0  0  0  0
   -1.1729   29.7520  -14.9579 H   0  0  0  0  0
    2.1332   31.1419  -12.0440 H   0  0  0  0  0
    4.1231   32.2347  -13.0208 H   0  0  0  0  0
    4.5562   32.3098  -15.4795 H   0  0  0  0  0
    4.8517   31.6843  -17.5743 H   0  0  0  0  0
    3.1782   32.4727  -19.7219 H   0  0  0  0  0
    3.8720   30.6917  -19.8823 H   0  0  0  0  0
    5.7773   34.3082  -22.9112 H   0  0  0  0  0
    6.6144   31.7977  -23.3064 H   0  0  0  0  0
    6.0151   30.3690  -21.1385 H   0  0  0  0  0
  1  2  2  0  0  0
  2  3  1  0  0  0
  2 12  1  0  0  0
  3  4  4  0  0  0
  3 11  4  0  0  0
  4  5  4  0  0  0
  5  6  1  0  0  0
  5  9  4  0  0  0
  6  7  1  0  0  0
  6  8  1  0  0  0
  9 10  4  0  0  0
 10 11  4  0  0  0
 12 13  1  0  0  0
 13 14  1  0  0  0
 14 15  4  0  0  0
 14 18  4  0  0  0
 15 16  4  0  0  0
 16 17  4  0  0  0
 17 18  4  0  0  0
  4 19  1  0  0  0
  7 20  1  0  0  0
  8 21  1  0  0  0
  9 22  1  0  0  0
 10 23  1  0  0  0
 11 24  1  0  0  0
 12 25  1  0  0  0
 13 26  1  0  0  0
 13 27  1  0  0  0
 16 28  1  0  0  0
 17 29  1  0  0  0
 18 30  1  0  0  0
M  END
$$$$
