### 
### Created by X-TOOL on Mon Sep 10 21:13:33 2018
### 

@<TRIPOS>MOLECULE
5TG7_LIGAND
   30    31     1     0     0
SMALL
GAST_HUCK


@<TRIPOS>ATOM
      1 O19         1.6920   31.3210  -17.9340 O.2       1 JW3        -0.4589
      2 C10         2.8070   31.3730  -17.3990 C.2       1 JW3         0.1108
      3 C6          2.6610   31.2880  -15.8960 C.ar      1 JW3        -0.0712
      4 C5          1.4460   30.7200  -15.3300 C.ar      1 JW3        -0.1307
      5 C4          1.1990   30.6400  -13.9260 C.ar      1 JW3        -0.1198
      6 B7         -0.1110   30.0680  -13.2500 B         1 JW3         3.0000
      7 O9         -0.3050   30.5560  -11.8430 O.3       1 JW3        -0.8710
      8 O8         -1.3690   30.0740  -14.0750 O.3       1 JW3        -0.8710
      9 C3          2.2280   31.1850  -13.1290 C.ar      1 JW3        -0.1460
     10 C2          3.3930   31.7930  -13.6990 C.ar      1 JW3        -0.1417
     11 C1          3.6520   31.8550  -15.0750 C.ar      1 JW3        -0.1354
     12 N11         3.9710   31.6010  -18.0820 N.am      1 JW3        -0.2953
     13 C12         3.9530   31.7260  -19.5480 C.3       1 JW3         0.0887
     14 C13         5.1340   32.2590  -20.3580 C.2       1 JW3         0.1164
     15 O18         5.0890   33.5340  -20.9520 O.3       1 JW3        -0.2668
     16 C15         5.6760   33.4790  -22.2110 C.2       1 JW3         0.0669
     17 C16         6.1110   32.1720  -22.4150 C.2       1 JW3        -0.0808
     18 C17         5.7920   31.4260  -21.2840 C.2       1 JW3        -0.0686
     19 H           0.6870   30.3367  -16.0120 H         1 JW3         0.0249
     20 H          -0.9420   29.9942  -11.3956 H         1 JW3        -0.1290
     21 H          -2.0230   29.5044  -13.6633 H         1 JW3        -0.1290
     22 H           2.1332   31.1419  -12.0440 H         1 JW3        -0.0079
     23 H           4.1231   32.2347  -13.0208 H         1 JW3         0.0332
     24 H           4.5562   32.3098  -15.4795 H         1 JW3         0.0246
     25 H           4.8517   31.6843  -17.5743 H         1 JW3         0.1800
     26 H           3.1782   32.4727  -19.7219 H         1 JW3         0.0705
     27 H           3.8720   30.6917  -19.8823 H         1 JW3         0.0705
     28 H           5.7773   34.3082  -22.9112 H         1 JW3         0.0854
     29 H           6.6144   31.7977  -23.3064 H         1 JW3         0.0296
     30 H           6.0151   30.3690  -21.1385 H         1 JW3         0.0219
@<TRIPOS>BOND
     1    1    2 2  
     2    2    3 1  
     3    2   12 am 
     4    3    4 ar 
     5    3   11 ar 
     6    4    5 ar 
     7    5    6 1  
     8    5    9 ar 
     9    6    7 1  
    10    6    8 1  
    11    9   10 ar 
    12   10   11 ar 
    13   12   13 1  
    14   13   14 1  
    15   14   15 1  
    16   14   18 2  
    17   15   16 1  
    18   16   17 2  
    19   17   18 1  
    20    4   19 1  
    21    7   20 1  
    22    8   21 1  
    23    9   22 1  
    24   10   23 1  
    25   11   24 1  
    26   12   25 1  
    27   13   26 1  
    28   13   27 1  
    29   16   28 1  
    30   17   29 1  
    31   18   30 1  
@<TRIPOS>SUBSTRUCTURE
     1 JW3         1

