3k5i_ligand
  -I-interpret- 

 33 34  0  0  0  0  0  0  0  0999 V2000
  -22.5420    8.7420   44.9130 N   0  0  0  0  0
  -23.4360    8.6950   43.8910 C   0  0  0  0  0
  -24.3140    7.6920   43.8960 N   0  0  0  0  0
  -23.8520    7.0000   44.9900 C   0  0  0  0  0
  -22.7520    7.5670   45.5830 C   0  0  0  0  0
  -22.1000    7.1250   46.6810 N   0  0  0  0  0
  -21.6450    9.7990   45.3900 C   0  0  0  0  0
  -21.9520   11.1660   44.7920 C   0  0  0  0  0
  -22.7320   11.7760   45.9650 C   0  0  0  0  0
  -21.8770   11.3090   47.1290 C   0  0  0  0  0
  -21.8290    9.9080   46.7720 O   0  0  0  0  0
  -20.6550   11.7830   44.7510 O   0  0  0  0  0
  -22.7080   13.2030   45.9470 O   0  0  0  0  0
  -22.2140   11.6620   48.5650 C   0  0  0  0  0
  -21.8090   10.6380   49.5190 O   0  0  0  0  0
  -22.0790   10.8100   51.1170 P   0  0  0  0  0
  -21.9460   12.3180   51.6380 O   0  0  0  0  0
  -21.0710   10.0330   51.9220 O   0  0  0  0  0
  -23.4480   10.3230   51.5600 O   0  0  0  0  0
  -23.4353    9.4456   43.1006 H   0  0  0  0  0
  -24.3172    6.0838   45.3536 H   0  0  0  0  0
  -21.3604    7.6908   47.0973 H   0  0  0  0  0
  -22.3475    6.2256   47.0935 H   0  0  0  0  0
  -20.6305    9.5259   45.0998 H   0  0  0  0  0
  -22.4604   11.2262   43.8297 H   0  0  0  0  0
  -23.7841   11.4911   45.9746 H   0  0  0  0  0
  -20.9325   11.8465   47.2129 H   0  0  0  0  0
  -20.7336   12.6664   44.3836 H   0  0  0  0  0
  -23.2061   13.5398   46.6954 H   0  0  0  0  0
  -23.2968   11.7671   48.6335 H   0  0  0  0  0
  -21.6764   12.5767   48.8148 H   0  0  0  0  0
  -22.5665   12.8754   51.1628 H   0  0  0  0  0
  -24.1273   10.7930   51.0709 H   0  0  0  0  0
  1  2  4  0  0  0
  1  5  4  0  0  0
  1  7  1  0  0  0
  2  3  4  0  0  0
  3  4  4  0  0  0
  4  5  4  0  0  0
  5  6  1  0  0  0
  7  8  1  0  0  0
  7 11  1  0  0  0
  8  9  1  0  0  0
  8 12  1  0  0  0
  9 10  1  0  0  0
  9 13  1  0  0  0
 10 11  1  0  0  0
 10 14  1  0  0  0
 14 15  1  0  0  0
 15 16  1  0  0  0
 16 17  1  0  0  0
 16 18  2  0  0  0
 16 19  1  0  0  0
  2 20  1  0  0  0
  4 21  1  0  0  0
  6 22  1  0  0  0
  6 23  1  0  0  0
  7 24  1  0  0  0
  8 25  1  0  0  0
  9 26  1  0  0  0
 10 27  1  0  0  0
 12 28  1  0  0  0
 13 29  1  0  0  0
 14 30  1  0  0  0
 14 31  1  0  0  0
 17 32  1  0  0  0
 19 33  1  0  0  0
M  END
$$$$
