### 
### Created by X-TOOL on Mon Sep 10 21:13:05 2018
### 

@<TRIPOS>MOLECULE
3art_ligand
   74    77     1     0     0
SMALL
GAST_HUCK


@<TRIPOS>ATOM
      1 C1         -2.4120    7.4870   19.2270 C.ar      1 DEQ        -0.0451
      2 C2         -1.1240    7.1780   18.7170 C.ar      1 DEQ        -0.0760
      3 C3         -0.3210    6.2000   19.3190 C.ar      1 DEQ        -0.0772
      4 C4         -0.8240    5.5370   20.4400 C.ar      1 DEQ        -0.0670
      5 C5         -2.9280    6.8220   20.3680 C.ar      1 DEQ         0.0511
      6 C6         -2.1090    5.8350   20.9600 C.ar      1 DEQ         0.0103
      7 C7         -2.5700    5.1540   22.0860 C.2       1 DEQ         0.0200
      8 C8         -3.8280    5.4390   22.6370 C.2       1 DEQ        -0.0597
      9 C9         -4.6940    6.4060   22.0950 C.3       1 DEQ         0.0472
     10 N1         -4.2450    7.1440   20.9220 N.pl3     1 DEQ        -0.2992
     11 C10        -1.9670    7.7730   24.7270 C.ar      1 DEQ         0.0292
     12 C11        -3.0900    8.6410   24.5710 C.ar      1 DEQ         0.1003
     13 N2         -3.1800    9.4950   23.3740 N.pl3     1 DEQ        -0.2256
     14 C12        -2.1420    9.4150   22.3980 C.2       1 DEQ         0.0813
     15 C13        -1.0540    8.5630   22.6020 C.2       1 DEQ        -0.0200
     16 C14        -0.9620    7.7470   23.7290 C.2       1 DEQ        -0.0207
     17 C15        -1.8370    6.9450   25.8710 C.ar      1 DEQ        -0.0513
     18 C16        -2.8060    6.9580   26.8710 C.ar      1 DEQ        -0.0642
     19 C17        -3.9210    7.8100   26.7230 C.ar      1 DEQ        -0.0631
     20 C18        -4.0660    8.6390   25.5950 C.ar      1 DEQ        -0.0250
     21 C19        -4.3070   10.4630   23.0130 C.3       1 DEQ         0.0611
     22 C20        -4.9740   11.2930   24.1250 C.3       1 DEQ        -0.0256
     23 C21        -6.4120   11.6990   23.7400 C.3       1 DEQ        -0.0506
     24 C22        -6.5120   12.9560   22.8400 C.3       1 DEQ        -0.0530
     25 C23        -6.7580   12.5960   21.3570 C.3       1 DEQ        -0.0531
     26 C24        -8.1680   12.0080   21.1080 C.3       1 DEQ        -0.0531
     27 C25        -8.1810   10.5130   20.6580 C.3       1 DEQ        -0.0530
     28 C26        -6.8340   10.0140   20.0770 C.3       1 DEQ        -0.0512
     29 C27        -6.2620    8.8630   20.9260 C.3       1 DEQ        -0.0329
     30 C28        -5.0570    8.2200   20.1990 C.3       1 DEQ         0.0293
     31 C30        -6.0710    6.6030   22.8140 C.3       1 DEQ        -0.0376
     32 C29        -2.1710   10.2710   21.0990 C.3       1 DEQ         0.0131
     33 N4         -1.7960    4.2210   22.6500 N.pl3     1 DEQ        -0.3493
     34 N3          0.1260    6.9470   23.8250 N.2       1 DEQ        -0.4434
     35 H1         -3.0117    8.2446   18.7356 H         1 DEQ         0.0505
     36 H2         -0.7549    7.7079   17.8464 H         1 DEQ         0.0562
     37 H3          0.6616    5.9652   18.9260 H         1 DEQ         0.0502
     38 H4         -0.2192    4.7782   20.9232 H         1 DEQ         0.0560
     39 H5         -4.1475    4.8889   23.5209 H         1 DEQ         0.0334
     40 H6         -5.1538    5.6566   21.4340 H         1 DEQ         0.0646
     41 H7         -0.2563    8.5353   21.8611 H         1 DEQ         0.0323
     42 H8         -0.9746    6.2954   25.9680 H         1 DEQ         0.0648
     43 H9         -2.7057    6.3260   27.7460 H         1 DEQ         0.0556
     44 H10        -4.6822    7.8264   27.4946 H         1 DEQ         0.0640
     45 H11        -4.9342    9.2824   25.5100 H         1 DEQ         0.0572
     46 H12        -5.1005    9.8682   22.5371 H         1 DEQ         0.0609
     47 H13        -3.8958   11.1762   22.2834 H         1 DEQ         0.0609
     48 H14        -4.3798   12.2024   24.2980 H         1 DEQ         0.0291
     49 H15        -5.0061   10.6948   25.0476 H         1 DEQ         0.0291
     50 H16        -6.9719   11.8956   24.6662 H         1 DEQ         0.0266
     51 H17        -6.8738   10.8566   23.2041 H         1 DEQ         0.0266
     52 H18        -5.5714   13.5213   22.9157 H         1 DEQ         0.0265
     53 H19        -7.3448   13.5805   23.1954 H         1 DEQ         0.0265
     54 H20        -6.0079   11.8537   21.0465 H         1 DEQ         0.0265
     55 H21        -6.6452   13.5070   20.7509 H         1 DEQ         0.0265
     56 H22        -8.6552   12.6061   20.3238 H         1 DEQ         0.0265
     57 H23        -8.7432   12.0897   22.0420 H         1 DEQ         0.0265
     58 H24        -8.9558   10.3914   19.8867 H         1 DEQ         0.0265
     59 H25        -8.4317    9.8920   21.5306 H         1 DEQ         0.0265
     60 H26        -6.1151   10.8465   20.0680 H         1 DEQ         0.0266
     61 H27        -6.9952    9.6575   19.0489 H         1 DEQ         0.0266
     62 H28        -7.0415    8.1028   21.0822 H         1 DEQ         0.0284
     63 H29        -5.9331    9.2563   21.8992 H         1 DEQ         0.0284
     64 H30        -5.4428    7.7662   19.2742 H         1 DEQ         0.0518
     65 H31        -4.3614    9.0336   19.9458 H         1 DEQ         0.0518
     66 H32        -6.1404    5.9136   23.6684 H         1 DEQ         0.0269
     67 H33        -6.8872    6.3938   22.1068 H         1 DEQ         0.0269
     68 H34        -6.1527    7.6399   23.1720 H         1 DEQ         0.0269
     69 H35        -1.2785   10.0509   20.4949 H         1 DEQ         0.0515
     70 H36        -2.1805   11.3387   21.3635 H         1 DEQ         0.0515
     71 H37        -3.0744   10.0286   20.5202 H         1 DEQ         0.0515
     72 H38        -0.8714    4.0079   22.2494 H         1 DEQ         0.1661
     73 H39        -2.1244    3.7154   23.4851 H         1 DEQ         0.1661
     74 H40         0.2362    6.3395   24.6218 H         1 DEQ         0.0426
@<TRIPOS>BOND
     1    1    2 ar 
     2    5    1 ar 
     3    2    3 ar 
     4    4    3 ar 
     5    6    4 ar 
     6    5    6 ar 
     7   10    5 1  
     8    6    7 1  
     9    8    7 2  
    10    7   33 1  
    11    9    8 1  
    12   10    9 1  
    13    9   31 1  
    14   30   10 1  
    15   12   11 ar 
    16   11   16 1  
    17   11   17 ar 
    18   13   12 1  
    19   12   20 ar 
    20   13   14 1  
    21   21   13 1  
    22   14   15 2  
    23   14   32 1  
    24   15   16 1  
    25   16   34 2  
    26   17   18 ar 
    27   19   18 ar 
    28   20   19 ar 
    29   22   21 1  
    30   23   22 1  
    31   24   23 1  
    32   25   24 1  
    33   26   25 1  
    34   27   26 1  
    35   28   27 1  
    36   29   28 1  
    37   29   30 1  
    38    1   35 1  
    39    2   36 1  
    40    3   37 1  
    41    4   38 1  
    42    8   39 1  
    43    9   40 1  
    44   15   41 1  
    45   17   42 1  
    46   18   43 1  
    47   19   44 1  
    48   20   45 1  
    49   21   46 1  
    50   21   47 1  
    51   22   48 1  
    52   22   49 1  
    53   23   50 1  
    54   23   51 1  
    55   24   52 1  
    56   24   53 1  
    57   25   54 1  
    58   25   55 1  
    59   26   56 1  
    60   26   57 1  
    61   27   58 1  
    62   27   59 1  
    63   28   60 1  
    64   28   61 1  
    65   29   62 1  
    66   29   63 1  
    67   30   64 1  
    68   30   65 1  
    69   31   66 1  
    70   31   67 1  
    71   31   68 1  
    72   32   69 1  
    73   32   70 1  
    74   32   71 1  
    75   33   72 1  
    76   33   73 1  
    77   34   74 1  
@<TRIPOS>SUBSTRUCTURE
     1 DEQ         1

