3art_ligand
  -I-interpret- 

 74 77  0  0  0  0  0  0  0  0999 V2000
   -2.4120    7.4870   19.2270 C   0  0  0  0  0
   -1.1240    7.1780   18.7170 C   0  0  0  0  0
   -0.3210    6.2000   19.3190 C   0  0  0  0  0
   -0.8240    5.5370   20.4400 C   0  0  0  0  0
   -2.9280    6.8220   20.3680 C   0  0  0  0  0
   -2.1090    5.8350   20.9600 C   0  0  0  0  0
   -2.5700    5.1540   22.0860 C   0  0  0  0  0
   -3.8280    5.4390   22.6370 C   0  0  0  0  0
   -4.6940    6.4060   22.0950 C   0  0  0  0  0
   -4.2450    7.1440   20.9220 N   0  0  0  0  0
   -1.9670    7.7730   24.7270 C   0  0  0  0  0
   -3.0900    8.6410   24.5710 C   0  0  0  0  0
   -3.1800    9.4950   23.3740 N   0  0  0  0  0
   -2.1420    9.4150   22.3980 C   0  0  0  0  0
   -1.0540    8.5630   22.6020 C   0  0  0  0  0
   -0.9620    7.7470   23.7290 C   0  0  0  0  0
   -1.8370    6.9450   25.8710 C   0  0  0  0  0
   -2.8060    6.9580   26.8710 C   0  0  0  0  0
   -3.9210    7.8100   26.7230 C   0  0  0  0  0
   -4.0660    8.6390   25.5950 C   0  0  0  0  0
   -4.3070   10.4630   23.0130 C   0  0  0  0  0
   -4.9740   11.2930   24.1250 C   0  0  0  0  0
   -6.4120   11.6990   23.7400 C   0  0  0  0  0
   -6.5120   12.9560   22.8400 C   0  0  0  0  0
   -6.7580   12.5960   21.3570 C   0  0  0  0  0
   -8.1680   12.0080   21.1080 C   0  0  0  0  0
   -8.1810   10.5130   20.6580 C   0  0  0  0  0
   -6.8340   10.0140   20.0770 C   0  0  0  0  0
   -6.2620    8.8630   20.9260 C   0  0  0  0  0
   -5.0570    8.2200   20.1990 C   0  0  0  0  0
   -6.0710    6.6030   22.8140 C   0  0  0  0  0
   -2.1710   10.2710   21.0990 C   0  0  0  0  0
   -1.7960    4.2210   22.6500 N   0  0  0  0  0
    0.1260    6.9470   23.8250 N   0  0  0  0  0
   -3.0150    8.2488   18.7329 H   0  0  0  0  0
   -0.7529    7.7109   17.8415 H   0  0  0  0  0
    0.6670    5.9639   18.9238 H   0  0  0  0  0
   -0.2159    4.7740   20.9258 H   0  0  0  0  0
   -4.1478    4.8884   23.5217 H   0  0  0  0  0
   -5.2929    7.1473   21.5659 H   0  0  0  0  0
   -0.2556    8.5353   21.8604 H   0  0  0  0  0
   -0.9698    6.2918   25.9685 H   0  0  0  0  0
   -2.7051    6.3225   27.7508 H   0  0  0  0  0
   -4.6864    7.8264   27.4989 H   0  0  0  0  0
   -4.9390    9.2860   25.5095 H   0  0  0  0  0
   -5.1036    9.8291   22.6236 H   0  0  0  0  0
   -3.8416   11.1994   22.3578 H   0  0  0  0  0
   -4.3882   12.1992   24.2788 H   0  0  0  0  0
   -5.0162   10.6876   25.0304 H   0  0  0  0  0
   -6.9349   11.9312   24.6678 H   0  0  0  0  0
   -6.8346   10.8692   23.1735 H   0  0  0  0  0
   -5.5670   13.4953   22.9053 H   0  0  0  0  0
   -7.3539   13.5550   23.1872 H   0  0  0  0  0
   -6.0262   11.8404   21.0712 H   0  0  0  0  0
   -6.6704   13.5118   20.7724 H   0  0  0  0  0
   -8.6149   12.5867   20.2996 H   0  0  0  0  0
   -8.7049   12.0590   22.0552 H   0  0  0  0  0
   -8.9263   10.4210   19.8679 H   0  0  0  0  0
   -8.3924    9.9123   21.5426 H   0  0  0  0  0
   -6.1228   10.8400   20.0816 H   0  0  0  0  0
   -7.0024    9.6515   19.0629 H   0  0  0  0  0
   -7.0348    8.1092   21.0765 H   0  0  0  0  0
   -5.9334    9.2553   21.8884 H   0  0  0  0  0
   -5.4871    7.7145   19.3343 H   0  0  0  0  0
   -4.3567    9.0392   20.0363 H   0  0  0  0  0
   -6.6264    5.6653   22.7956 H   0  0  0  0  0
   -5.9000    6.9053   23.8472 H   0  0  0  0  0
   -6.6417    7.3750   22.2979 H   0  0  0  0  0
   -1.2956   10.9199   21.0734 H   0  0  0  0  0
   -2.1618    9.6120   20.2308 H   0  0  0  0  0
   -3.0758   10.8787   21.0860 H   0  0  0  0  0
   -2.1212    3.7203   23.4770 H   0  0  0  0  0
   -0.8803    4.0099   22.2533 H   0  0  0  0  0
    0.2411    6.3377   24.6349 H   0  0  0  0  0
  1  2  4  0  0  0
  5  1  4  0  0  0
  2  3  4  0  0  0
  4  3  4  0  0  0
  6  4  4  0  0  0
  5  6  4  0  0  0
 10  5  1  0  0  0
  6  7  1  0  0  0
  8  7  2  0  0  0
  7 33  1  0  0  0
  9  8  1  0  0  0
 10  9  1  0  0  0
  9 31  1  0  0  0
 30 10  1  0  0  0
 12 11  4  0  0  0
 11 16  1  0  0  0
 11 17  4  0  0  0
 13 12  1  0  0  0
 12 20  4  0  0  0
 13 14  1  0  0  0
 21 13  1  0  0  0
 14 15  2  0  0  0
 14 32  1  0  0  0
 15 16  1  0  0  0
 16 34  2  0  0  0
 17 18  4  0  0  0
 19 18  4  0  0  0
 20 19  4  0  0  0
 22 21  1  0  0  0
 23 22  1  0  0  0
 24 23  1  0  0  0
 25 24  1  0  0  0
 26 25  1  0  0  0
 27 26  1  0  0  0
 28 27  1  0  0  0
 29 28  1  0  0  0
 29 30  1  0  0  0
  1 35  1  0  0  0
  2 36  1  0  0  0
  3 37  1  0  0  0
  4 38  1  0  0  0
  8 39  1  0  0  0
  9 40  1  0  0  0
 15 41  1  0  0  0
 17 42  1  0  0  0
 18 43  1  0  0  0
 19 44  1  0  0  0
 20 45  1  0  0  0
 21 46  1  0  0  0
 21 47  1  0  0  0
 22 48  1  0  0  0
 22 49  1  0  0  0
 23 50  1  0  0  0
 23 51  1  0  0  0
 24 52  1  0  0  0
 24 53  1  0  0  0
 25 54  1  0  0  0
 25 55  1  0  0  0
 26 56  1  0  0  0
 26 57  1  0  0  0
 27 58  1  0  0  0
 27 59  1  0  0  0
 28 60  1  0  0  0
 28 61  1  0  0  0
 29 62  1  0  0  0
 29 63  1  0  0  0
 30 64  1  0  0  0
 30 65  1  0  0  0
 31 66  1  0  0  0
 31 67  1  0  0  0
 31 68  1  0  0  0
 32 69  1  0  0  0
 32 70  1  0  0  0
 32 71  1  0  0  0
 33 72  1  0  0  0
 33 73  1  0  0  0
 34 74  1  0  0  0
M  END
$$$$
