2o4z_ligand
  -I-interpret- 

 10  9  0  0  0  0  0  0  0  0999 V2000
   -4.4550    1.4950   14.3290 O   0  0  0  0  0
   -4.3820    1.8330   15.7780 N   0  0  0  0  0
   -5.4800    0.9060   16.5510 S   0  0  0  0  0
   -6.8610    1.4130   16.2970 O   0  0  0  0  0
   -5.2560    0.9630   18.0350 O   0  0  0  0  0
   -5.2830   -0.6210   16.0470 N   0  0  0  0  0
   -3.8182    2.0261   13.8452 H   0  0  0  0  0
   -3.7601    2.5178   16.2078 H   0  0  0  0  0
   -6.0602   -1.1191   15.6131 H   0  0  0  0  0
   -4.3818   -1.0843   16.1636 H   0  0  0  0  0
  1  2  1  0  0  0
  2  3  1  0  0  0
  3  4  2  0  0  0
  3  5  2  0  0  0
  3  6  1  0  0  0
  1  7  1  0  0  0
  2  8  1  0  0  0
  6  9  1  0  0  0
  6 10  1  0  0  0
M  END
$$$$
