1npa_ligand
  -I-interpret- 

 85 90  0  0  0  0  0  0  0  0999 V2000
    8.2490   28.8630    3.7620 O   0  0  0  0  0
    7.8180   27.9180    4.3650 C   0  0  0  0  0
    8.5760   27.2840    5.2550 O   0  0  0  0  0
    8.1890   26.1200    6.0240 C   0  0  0  0  0
    7.4440   26.6540    7.2600 C   0  0  0  0  0
    8.6370   27.1610    8.0100 C   0  0  0  0  0
    8.6320   28.1110    9.0310 C   0  0  0  0  0
    9.8220   28.3700    9.6880 C   0  0  0  0  0
   11.0070   27.7100    9.3180 C   0  0  0  0  0
   11.0110   26.7750    8.2760 C   0  0  0  0  0
    9.8170   26.5070    7.6230 C   0  0  0  0  0
    9.5250   25.5000    6.5350 C   0  0  0  0  0
   10.5560   25.2870    5.4780 C   0  0  0  0  0
   10.9040   23.9890    4.9990 C   0  0  0  0  0
   10.5420   22.9290    5.4510 O   0  0  0  0  0
   11.9120   24.1240    3.8330 C   0  0  0  0  0
   12.1730   25.5640    3.8210 N   0  0  0  0  0
   11.2700   26.1570    4.7970 C   0  0  0  0  0
   11.2700   23.5450    2.5540 C   0  0  0  0  0
    9.8450   24.0490    2.3930 C   0  0  0  0  0
    9.6550   25.2680    1.7570 C   0  0  0  0  0
    8.4140   25.7910    1.5750 C   0  0  0  0  0
    7.3390   25.1140    2.0520 C   0  0  0  0  0
    7.5240   23.8880    2.6860 C   0  0  0  0  0
    8.7640   23.3480    2.8700 C   0  0  0  0  0
   13.2080   23.3510    4.2340 C   0  0  0  0  0
   13.9690   24.0870    5.4140 C   0  0  0  0  0
   14.9650   24.8220    4.6790 O   0  0  0  0  0
   14.6830   23.1010    6.3600 C   0  0  0  0  0
   15.5800   22.1280    5.6740 N   0  0  0  0  0
   15.2890   20.8480    5.2260 C   0  0  0  0  0
   14.2150   20.3330    5.1510 O   0  0  0  0  0
   16.3590   20.2300    4.8580 O   0  0  0  0  0
   16.3970   19.1880    3.9240 C   0  0  0  0  0
   17.5580   18.2690    3.8740 C   0  0  0  0  0
   17.8440   18.4280    2.5150 O   0  0  0  0  0
   16.6140   18.4100    1.7530 C   0  0  0  0  0
   15.5140   18.8350    2.7580 C   0  0  0  0  0
   15.4810   23.7500    7.4900 C   0  0  0  0  0
   16.0460   22.6460    8.4050 C   0  0  0  0  0
   15.1370   21.8960    9.1690 C   0  0  0  0  0
   15.5790   20.7920    9.9160 C   0  0  0  0  0
   16.9330   20.4340    9.9640 C   0  0  0  0  0
   17.8570   21.2140    9.2590 C   0  0  0  0  0
   17.4120   22.3100    8.4810 C   0  0  0  0  0
    6.5480   27.5570    4.3160 N   0  0  0  0  0
    7.5856   25.4099    5.4586 H   0  0  0  0  0
    6.8273   25.9278    7.7895 H   0  0  0  0  0
    6.6647   27.3894    7.0601 H   0  0  0  0  0
    7.7160   28.6350    9.3039 H   0  0  0  0  0
    9.8409   29.0944   10.5022 H   0  0  0  0  0
   11.9336   27.9289    9.8487 H   0  0  0  0  0
   11.9315   26.2692    7.9845 H   0  0  0  0  0
    9.4944   24.4694    6.8887 H   0  0  0  0  0
   12.8540   26.0557    3.2423 H   0  0  0  0  0
   11.1920   27.2333    4.9508 H   0  0  0  0  0
   11.2529   22.4577    2.6293 H   0  0  0  0  0
   11.8556   23.8620    1.6911 H   0  0  0  0  0
   10.5226   25.8194    1.3946 H   0  0  0  0  0
    8.2841   26.7396    1.0540 H   0  0  0  0  0
    6.3367   25.5274    1.9396 H   0  0  0  0  0
    6.6517   23.3428    3.0464 H   0  0  0  0  0
    8.8923   22.3924    3.3785 H   0  0  0  0  0
   13.8686   23.3045    3.3682 H   0  0  0  0  0
   12.9289   22.3518    4.5684 H   0  0  0  0  0
   13.3026   24.6727    6.0472 H   0  0  0  0  0
   15.5076   25.3239    5.2916 H   0  0  0  0  0
   13.8328   22.5716    6.7901 H   0  0  0  0  0
   16.5356   22.4460    5.5124 H   0  0  0  0  0
   15.6484   19.6758    4.5483 H   0  0  0  0  0
   17.3742   17.2477    4.2077 H   0  0  0  0  0
   18.3730   18.4901    4.5632 H   0  0  0  0  0
   16.4156   17.4256    1.3291 H   0  0  0  0  0
   16.6597   19.0819    0.8959 H   0  0  0  0  0
   14.8577   19.6350    2.4153 H   0  0  0  0  0
   14.7567   18.0783    2.9630 H   0  0  0  0  0
   14.8316   24.4084    8.0669 H   0  0  0  0  0
   16.3000   24.3353    7.0720 H   0  0  0  0  0
   14.0827   22.1723    9.1822 H   0  0  0  0  0
   14.8519   20.1997   10.4715 H   0  0  0  0  0
   17.2596   19.5668   10.5380 H   0  0  0  0  0
   18.9199   20.9775    9.3090 H   0  0  0  0  0
   18.1403   22.9053    7.9303 H   0  0  0  0  0
    5.8881   28.0889    3.7485 H   0  0  0  0  0
    6.2274   26.7464    4.8457 H   0  0  0  0  0
  1  2  2  0  0  0
  2  3  1  0  0  0
  2 46  1  0  0  0
  3  4  1  0  0  0
  4  5  1  0  0  0
  4 12  1  0  0  0
  5  6  1  0  0  0
  6  7  4  0  0  0
  6 11  4  0  0  0
  7  8  4  0  0  0
  8  9  4  0  0  0
  9 10  4  0  0  0
 10 11  4  0  0  0
 11 12  1  0  0  0
 12 13  1  0  0  0
 13 14  1  0  0  0
 13 18  2  0  0  0
 14 15  2  0  0  0
 14 16  1  0  0  0
 16 17  1  0  0  0
 16 19  1  0  0  0
 16 26  1  0  0  0
 17 18  1  0  0  0
 19 20  1  0  0  0
 20 21  4  0  0  0
 20 25  4  0  0  0
 21 22  4  0  0  0
 22 23  4  0  0  0
 23 24  4  0  0  0
 24 25  4  0  0  0
 26 27  1  0  0  0
 27 28  1  0  0  0
 27 29  1  0  0  0
 29 30  1  0  0  0
 29 39  1  0  0  0
 30 31  1  0  0  0
 31 32  2  0  0  0
 31 33  1  0  0  0
 33 34  1  0  0  0
 34 35  1  0  0  0
 34 38  1  0  0  0
 35 36  1  0  0  0
 36 37  1  0  0  0
 37 38  1  0  0  0
 39 40  1  0  0  0
 40 41  4  0  0  0
 40 45  4  0  0  0
 41 42  4  0  0  0
 42 43  4  0  0  0
 43 44  4  0  0  0
 44 45  4  0  0  0
  4 47  1  0  0  0
  5 48  1  0  0  0
  5 49  1  0  0  0
  7 50  1  0  0  0
  8 51  1  0  0  0
  9 52  1  0  0  0
 10 53  1  0  0  0
 12 54  1  0  0  0
 17 55  1  0  0  0
 18 56  1  0  0  0
 19 57  1  0  0  0
 19 58  1  0  0  0
 21 59  1  0  0  0
 22 60  1  0  0  0
 23 61  1  0  0  0
 24 62  1  0  0  0
 25 63  1  0  0  0
 26 64  1  0  0  0
 26 65  1  0  0  0
 27 66  1  0  0  0
 28 67  1  0  0  0
 29 68  1  0  0  0
 30 69  1  0  0  0
 34 70  1  0  0  0
 35 71  1  0  0  0
 35 72  1  0  0  0
 37 73  1  0  0  0
 37 74  1  0  0  0
 38 75  1  0  0  0
 38 76  1  0  0  0
 39 77  1  0  0  0
 39 78  1  0  0  0
 41 79  1  0  0  0
 42 80  1  0  0  0
 43 81  1  0  0  0
 44 82  1  0  0  0
 45 83  1  0  0  0
 46 84  1  0  0  0
 46 85  1  0  0  0
M  END
$$$$
