5pzn_ligand
  -I-interpret- 

 58 61  0  0  0  0  0  0  0  0999 V2000
   23.2340    8.0220   14.9430 C   0  0  0  0  0
   23.0420    6.9310   15.7960 C   0  0  0  0  0
   20.6550    7.2510   15.7200 C   0  0  0  0  0
   17.2690    9.1690   13.5390 C   0  0  0  0  0
   21.7620    6.5520   16.1810 C   0  0  0  0  0
   17.5590    9.6560   12.1210 C   0  0  0  0  0
   16.1460    8.1340   13.5150 C   0  0  0  0  0
   16.8750   10.3480   14.4270 C   0  0  0  0  0
   30.0600   11.0360   15.0810 C   0  0  0  0  0
   28.2200    9.4160   17.3340 C   0  0  0  0  0
   20.8190    8.3200   14.8400 C   0  0  0  0  0
   29.7430    8.5230   19.0220 C   0  0  0  0  0
   24.5960    8.4730   14.5410 C   0  0  0  0  0
   24.8540    8.8900   13.2260 C   0  0  0  0  0
   26.0550    9.4790   12.8640 C   0  0  0  0  0
   27.0010    9.6580   13.8540 C   0  0  0  0  0
   26.8080    9.2330   15.1610 C   0  0  0  0  0
   25.6030    8.6230   15.5040 C   0  0  0  0  0
   28.2130   10.3150   13.7280 O   0  0  0  0  0
   28.8000   10.2940   14.9810 C   0  0  0  0  0
   28.0040    9.6490   15.8850 C   0  0  0  0  0
   19.7050    9.1150   14.2190 C   0  0  0  0  0
   18.4930    8.5300   14.0900 N   0  0  0  0  0
   22.1090    8.7060   14.4730 C   0  0  0  0  0
   19.9000   10.2650   13.8270 O   0  0  0  0  0
   27.4460    9.8860   18.1670 O   0  0  0  0  0
   29.2890    8.6880   17.6470 N   0  0  0  0  0
   30.8230   11.3250   13.9470 C   0  0  0  0  0
   31.9800   12.0800   14.0450 C   0  0  0  0  0
   32.3570   12.5350   15.2820 C   0  0  0  0  0
   31.6640   12.2430   16.4250 C   0  0  0  0  0
   30.5030   11.5020   16.3210 C   0  0  0  0  0
   33.4030   13.3930   15.3670 F   0  0  0  0  0
   23.9038    6.3730   16.1621 H   0  0  0  0  0
   19.6555    6.9637   16.0466 H   0  0  0  0  0
   21.6264    5.7012   16.8487 H   0  0  0  0  0
   18.3733   10.3802   12.1463 H   0  0  0  0  0
   17.8443    8.8081   11.4983 H   0  0  0  0  0
   16.6657   10.1261   11.7098 H   0  0  0  0  0
   15.9627    7.7751   14.5278 H   0  0  0  0  0
   15.2391    8.5928   13.1210 H   0  0  0  0  0
   16.4376    7.2981   12.8791 H   0  0  0  0  0
   16.6784    9.9902   15.4377 H   0  0  0  0  0
   17.6888   11.0728   14.4486 H   0  0  0  0  0
   15.9776   10.8192   14.0261 H   0  0  0  0  0
   29.9840    9.4990   19.4433 H   0  0  0  0  0
   28.9529    8.0568   19.6107 H   0  0  0  0  0
   30.6304    7.8902   19.0368 H   0  0  0  0  0
   24.0860    8.7461   12.4660 H   0  0  0  0  0
   26.2458    9.7893   11.8367 H   0  0  0  0  0
   25.4438    8.2628   16.5204 H   0  0  0  0  0
   18.4109    7.5614   14.3991 H   0  0  0  0  0
   22.2421    9.5581   13.8064 H   0  0  0  0  0
   29.8087    8.2295   16.8986 H   0  0  0  0  0
   30.5041   10.9520   12.9737 H   0  0  0  0  0
   32.5758   12.3067   13.1608 H   0  0  0  0  0
   32.0201   12.5874   17.3959 H   0  0  0  0  0
   29.9253   11.2781   17.2178 H   0  0  0  0  0
  1  2  4  0  0  0
  1 13  1  0  0  0
 24  1  4  0  0  0
  5  2  4  0  0  0
  3  5  4  0  0  0
 11  3  4  0  0  0
  4  6  1  0  0  0
  4  7  1  0  0  0
  4  8  1  0  0  0
 23  4  1  0  0  0
 20  9  1  0  0  0
  9 28  4  0  0  0
  9 32  4  0  0  0
 21 10  1  0  0  0
 10 26  2  0  0  0
 10 27  1  0  0  0
 22 11  1  0  0  0
 11 24  4  0  0  0
 27 12  1  0  0  0
 13 14  4  0  0  0
 13 18  4  0  0  0
 14 15  4  0  0  0
 15 16  4  0  0  0
 17 16  4  0  0  0
 16 19  4  0  0  0
 18 17  4  0  0  0
 17 21  4  0  0  0
 20 19  4  0  0  0
 21 20  4  0  0  0
 22 23  1  0  0  0
 22 25  2  0  0  0
 28 29  4  0  0  0
 29 30  4  0  0  0
 30 31  4  0  0  0
 30 33  1  0  0  0
 31 32  4  0  0  0
  2 34  1  0  0  0
  3 35  1  0  0  0
  5 36  1  0  0  0
  6 37  1  0  0  0
  6 38  1  0  0  0
  6 39  1  0  0  0
  7 40  1  0  0  0
  7 41  1  0  0  0
  7 42  1  0  0  0
  8 43  1  0  0  0
  8 44  1  0  0  0
  8 45  1  0  0  0
 12 46  1  0  0  0
 12 47  1  0  0  0
 12 48  1  0  0  0
 14 49  1  0  0  0
 15 50  1  0  0  0
 18 51  1  0  0  0
 23 52  1  0  0  0
 24 53  1  0  0  0
 27 54  1  0  0  0
 28 55  1  0  0  0
 29 56  1  0  0  0
 31 57  1  0  0  0
 32 58  1  0  0  0
M  END
$$$$
