6dya_ligand
  -I-interpret- 

 39 41  0  0  0  0  0  0  0  0999 V2000
   16.8220   18.2600   27.8210 C   0  0  0  0  0
   14.5890   18.8710   26.5510 C   0  0  0  0  0
   15.3710   18.7350   27.8510 C   0  0  0  0  0
    9.6780   16.6370   22.5000 C   0  0  0  0  0
    9.7080   17.1770   21.0740 C   0  0  0  0  0
   10.4980   18.4400   20.7440 C   0  0  0  0  0
   11.2560   19.1740   21.8420 C   0  0  0  0  0
   11.2270   18.6280   23.2660 C   0  0  0  0  0
   10.4400   17.3660   23.6000 C   0  0  0  0  0
   11.9950   19.3520   24.3630 C   0  0  0  0  0
   12.4110   18.6330   25.5510 N   0  0  0  0  0
   12.2530   20.4990   24.2390 O   0  0  0  0  0
   13.1420   19.3420   26.5820 C   0  0  0  0  0
   10.5190   18.9760   19.3150 C   0  0  0  0  0
   11.7550   18.5930   18.6540 N   0  0  0  0  0
   12.7840   19.3760   18.4220 C   0  0  0  0  0
   13.7310   18.6410   17.7800 C   0  0  0  0  0
   13.2700   17.4230   17.6290 N   0  0  0  0  0
   12.0410   17.3760   18.1660 C   0  0  0  0  0
   15.2470   18.5340   25.2190 C   0  0  0  0  0
   16.6970   18.0580   25.1850 C   0  0  0  0  0
   17.4870   17.9210   26.4870 C   0  0  0  0  0
   17.7410   18.1020   29.3400 Cl  0  0  0  0  0
   17.4730   17.6610   23.6310 Cl  0  0  0  0  0
   14.8955   18.9764   28.8016 H   0  0  0  0  0
    9.1139   15.7335   22.7313 H   0  0  0  0  0
    9.1621   16.6578   20.2862 H   0  0  0  0  0
   11.8144   20.0815   21.6124 H   0  0  0  0  0
   10.4224   16.9865   24.6217 H   0  0  0  0  0
   12.1924   17.6426   25.6596 H   0  0  0  0  0
   13.0943   20.4161   26.4029 H   0  0  0  0  0
   12.7032   19.1385   27.5588 H   0  0  0  0  0
   10.4501   20.0635   19.3406 H   0  0  0  0  0
    9.6757   18.5586   18.7648 H   0  0  0  0  0
   12.8644   20.4280   18.6955 H   0  0  0  0  0
   14.7046   19.0019   17.4484 H   0  0  0  0  0
   11.3895   16.5028   18.1999 H   0  0  0  0  0
   14.6831   18.6326   24.2914 H   0  0  0  0  0
   18.5227   17.5821   26.4639 H   0  0  0  0  0
  3  1  4  0  0  0
  1 22  4  0  0  0
  1 23  1  0  0  0
  2  3  4  0  0  0
 13  2  1  0  0  0
  2 20  4  0  0  0
  4  5  4  0  0  0
  9  4  4  0  0  0
  6  5  4  0  0  0
  7  6  4  0  0  0
  6 14  1  0  0  0
  8  7  4  0  0  0
  8  9  4  0  0  0
 10  8  1  0  0  0
 11 10  1  0  0  0
 10 12  2  0  0  0
 11 13  1  0  0  0
 14 15  1  0  0  0
 15 16  4  0  0  0
 15 19  4  0  0  0
 16 17  4  0  0  0
 17 18  4  0  0  0
 18 19  4  0  0  0
 20 21  4  0  0  0
 21 22  4  0  0  0
 21 24  1  0  0  0
  3 25  1  0  0  0
  4 26  1  0  0  0
  5 27  1  0  0  0
  7 28  1  0  0  0
  9 29  1  0  0  0
 11 30  1  0  0  0
 13 31  1  0  0  0
 13 32  1  0  0  0
 14 33  1  0  0  0
 14 34  1  0  0  0
 16 35  1  0  0  0
 17 36  1  0  0  0
 19 37  1  0  0  0
 20 38  1  0  0  0
 22 39  1  0  0  0
M  END
$$$$
