4kcg_ligand
  -I-interpret- 

 62 64  0  0  0  0  0  0  0  0999 V2000
  -38.1030    9.6770    2.8670 C   0  0  0  0  0
  -37.5630    8.2960    1.8620 S   0  0  0  0  0
  -38.3940    7.0420    2.1690 O   0  0  0  0  0
  -36.0740    8.0760    2.2020 O   0  0  0  0  0
  -37.7380    8.5840    0.1760 N   0  0  0  0  0
  -36.7120    7.8740   -0.6390 C   0  0  0  0  0
  -35.9050    8.8500   -1.5350 C   0  0  0  0  0
  -36.7830    9.9060   -1.9520 O   0  0  0  0  0
  -36.3040   10.8000   -2.8340 C   0  0  0  0  0
  -34.9490   11.0830   -2.9360 C   0  0  0  0  0
  -37.2560   11.4350   -3.6260 C   0  0  0  0  0
  -38.5510   11.0670   -3.4250 O   0  0  0  0  0
  -39.4930   11.6540   -4.3440 C   0  0  0  0  0
  -36.8540   12.3750   -4.5560 C   0  0  0  0  0
  -35.4920   12.6550   -4.6610 C   0  0  0  0  0
  -34.5320   12.0110   -3.8740 C   0  0  0  0  0
  -33.2290   12.3200   -3.9820 C   0  0  0  0  0
  -32.2640   11.9720   -3.1230 N   0  0  0  0  0
  -32.5780   13.2320   -5.1530 S   0  0  0  0  0
  -31.0510   13.1860   -4.5880 C   0  0  0  0  0
  -29.8120   13.8750   -5.2420 C   0  0  0  0  0
  -29.9690   15.4050   -5.2940 C   0  0  0  0  0
  -29.6140   16.0480   -3.9300 C   0  0  0  0  0
  -31.0490   12.4460   -3.4640 C   0  0  0  0  0
  -29.7730   12.1500   -2.6430 C   0  0  0  0  0
  -28.9190   10.5720   -3.0760 S   0  0  0  0  0
  -27.2300   11.0230   -3.4750 C   0  0  0  0  0
  -26.2620   10.0970   -3.6080 N   0  0  0  0  0
  -26.9230   12.2990   -3.6400 N   0  0  0  0  0
  -25.6790   12.6930   -3.9210 C   0  0  0  0  0
  -25.4920   14.0010   -4.0780 N   0  0  0  0  0
  -24.6320   11.7600   -4.0620 C   0  0  0  0  0
  -24.9810   10.4290   -3.8730 C   0  0  0  0  0
  -24.0620    9.4840   -3.9640 N   0  0  0  0  0
  -39.1515    9.8890    2.6576 H   0  0  0  0  0
  -37.9853    9.4256    3.9211 H   0  0  0  0  0
  -37.4996   10.5538    2.6317 H   0  0  0  0  0
  -38.4656    9.1769   -0.2234 H   0  0  0  0  0
  -37.2236    7.1612   -1.2858 H   0  0  0  0  0
  -36.0170    7.3817    0.0412 H   0  0  0  0  0
  -35.5132    8.3230   -2.4050 H   0  0  0  0  0
  -35.0630    9.2608   -0.9779 H   0  0  0  0  0
  -34.2272   10.5838   -2.2896 H   0  0  0  0  0
  -39.4559   12.7398   -4.2562 H   0  0  0  0  0
  -39.2359   11.3615   -5.3621 H   0  0  0  0  0
  -40.4973   11.3031   -4.1065 H   0  0  0  0  0
  -37.5810   12.8831   -5.1895 H   0  0  0  0  0
  -35.1637   13.4030   -5.3827 H   0  0  0  0  0
  -29.7144   13.5060   -6.2630 H   0  0  0  0  0
  -28.9334   13.6413   -4.6408 H   0  0  0  0  0
  -31.0060   15.6416   -5.5321 H   0  0  0  0  0
  -29.2929   15.7997   -6.0525 H   0  0  0  0  0
  -30.2781   15.6545   -3.1604 H   0  0  0  0  0
  -28.5808   15.8111   -3.6760 H   0  0  0  0  0
  -29.7342   17.1293   -3.9972 H   0  0  0  0  0
  -30.0807   12.0666   -1.6007 H   0  0  0  0  0
  -29.0699   12.9566   -2.8508 H   0  0  0  0  0
  -26.2782   14.6437   -3.9823 H   0  0  0  0  0
  -24.5624   14.3610   -4.2940 H   0  0  0  0  0
  -23.6135   12.0636   -4.3039 H   0  0  0  0  0
  -24.3214    8.5061   -3.8341 H   0  0  0  0  0
  -23.0932    9.7324   -4.1642 H   0  0  0  0  0
  1  2  1  0  0  0
  2  3  2  0  0  0
  2  4  2  0  0  0
  2  5  1  0  0  0
  5  6  1  0  0  0
  6  7  1  0  0  0
  7  8  1  0  0  0
  8  9  1  0  0  0
  9 10  4  0  0  0
  9 11  4  0  0  0
 10 16  4  0  0  0
 11 12  1  0  0  0
 11 14  4  0  0  0
 12 13  1  0  0  0
 14 15  4  0  0  0
 15 16  4  0  0  0
 16 17  1  0  0  0
 17 18  4  0  0  0
 17 19  4  0  0  0
 18 24  4  0  0  0
 19 20  4  0  0  0
 20 21  1  0  0  0
 20 24  4  0  0  0
 21 22  1  0  0  0
 22 23  1  0  0  0
 24 25  1  0  0  0
 25 26  1  0  0  0
 26 27  1  0  0  0
 27 28  4  0  0  0
 27 29  4  0  0  0
 28 33  4  0  0  0
 29 30  4  0  0  0
 30 31  1  0  0  0
 30 32  4  0  0  0
 32 33  4  0  0  0
 33 34  1  0  0  0
  1 35  1  0  0  0
  1 36  1  0  0  0
  1 37  1  0  0  0
  5 38  1  0  0  0
  6 39  1  0  0  0
  6 40  1  0  0  0
  7 41  1  0  0  0
  7 42  1  0  0  0
 10 43  1  0  0  0
 13 44  1  0  0  0
 13 45  1  0  0  0
 13 46  1  0  0  0
 14 47  1  0  0  0
 15 48  1  0  0  0
 21 49  1  0  0  0
 21 50  1  0  0  0
 22 51  1  0  0  0
 22 52  1  0  0  0
 23 53  1  0  0  0
 23 54  1  0  0  0
 23 55  1  0  0  0
 25 56  1  0  0  0
 25 57  1  0  0  0
 31 58  1  0  0  0
 31 59  1  0  0  0
 32 60  1  0  0  0
 34 61  1  0  0  0
 34 62  1  0  0  0
M  END
$$$$
