4b9z_ligand
  -I-interpret- 

 88 91  0  0  0  0  0  0  0  0999 V2000
   29.7750   79.8540   34.7220 C   0  0  0  0  0
   28.2370   79.7440   34.6840 C   0  0  0  0  0
   27.5730   80.2720   35.9640 C   0  0  0  0  0
   27.9980   79.4030   37.1360 C   0  0  0  0  0
   29.4860   79.1140   37.1050 C   0  0  0  0  0
   30.1970   78.7740   38.3930 C   0  0  0  0  0
   30.2180   79.1280   35.9730 C   0  0  0  0  0
   27.6770   80.3170   33.4950 O   0  0  0  0  0
   26.1290   80.2210   35.8860 O   0  0  0  0  0
   27.6640   80.0930   38.3450 O   0  0  0  0  0
   30.1070   77.3610   38.5920 O   0  0  0  0  0
   34.6270   82.2180   34.6140 C   0  0  0  0  0
   34.1050   81.1390   33.6640 C   0  0  0  0  0
   32.5950   81.2660   33.4360 C   0  0  0  0  0
   31.8780   81.2620   34.7780 C   0  0  0  0  0
   32.4240   82.4660   35.5500 C   0  0  0  0  0
   31.7050   82.6840   36.8840 C   0  0  0  0  0
   30.4100   81.1840   34.6340 N   0  3  0  0  0
   34.7710   81.2690   32.4030 O   0  0  0  0  0
   32.1330   80.1780   32.6250 O   0  0  0  0  0
   33.8310   82.2740   35.8080 O   0  0  0  0  0
   36.6320   86.7240   33.1410 C   0  0  0  0  0
   37.2720   85.5150   32.4890 C   0  0  0  0  0
   36.1740   84.4580   32.5290 C   0  0  0  0  0
   35.7500   84.2240   33.9800 C   0  0  0  0  0
   35.5650   85.5120   34.7860 C   0  0  0  0  0
   35.5350   85.1860   36.2780 C   0  0  0  0  0
   37.6800   85.7910   31.1480 O   0  0  0  0  0
   36.6270   83.2080   32.0070 O   0  0  0  0  0
   34.5300   83.4850   33.9670 O   0  0  0  0  0
   36.6210   86.4500   34.5350 O   0  0  0  0  0
   34.8980   86.2420   36.9930 O   0  0  0  0  0
   35.7440   91.0270   30.6720 C   0  0  0  0  0
   36.5930   90.0870   29.8290 C   0  0  0  0  0
   37.0620   88.8820   30.6390 C   0  0  0  0  0
   36.4180   88.7470   32.0210 C   0  0  0  0  0
   36.1560   90.0660   32.7490 C   0  0  0  0  0
   36.9340   90.1840   34.0570 C   0  0  0  0  0
   35.6130   92.2840   30.0000 O   0  0  0  0  0
   35.8630   89.6380   28.6800 O   0  0  0  0  0
   36.7620   87.7040   29.8780 O   0  0  0  0  0
   37.2710   87.9540   32.8420 O   0  0  0  0  0
   36.4270   91.1850   31.9100 O   0  0  0  0  0
   36.1400   89.7050   35.1480 O   0  0  0  0  0
   30.1203   79.4137   33.7866 H   0  0  0  0  0
   28.0093   78.6787   34.6462 H   0  0  0  0  0
   27.8847   81.3088   36.0907 H   0  0  0  0  0
   27.4788   78.4464   37.0774 H   0  0  0  0  0
   29.7340   79.3006   39.2275 H   0  0  0  0  0
   31.2419   79.0791   38.3366 H   0  0  0  0  0
   31.1682   78.5942   35.9586 H   0  0  0  0  0
   28.1242   79.9562   32.7260 H   0  0  0  0  0
   25.8300   80.7627   35.1520 H   0  0  0  0  0
   26.7212   80.2733   38.3592 H   0  0  0  0  0
   30.5543   77.1248   39.4079 H   0  0  0  0  0
   35.6584   81.9803   34.8746 H   0  0  0  0  0
   34.3029   80.1668   34.1154 H   0  0  0  0  0
   32.3822   82.2024   32.9203 H   0  0  0  0  0
   32.0808   80.3622   35.3588 H   0  0  0  0  0
   32.2555   83.3473   34.9310 H   0  0  0  0  0
   30.6446   82.8561   36.6998 H   0  0  0  0  0
   31.8276   81.8002   37.5100 H   0  0  0  0  0
   32.1328   83.5503   37.3885 H   0  0  0  0  0
   30.0324   81.7166   35.4177 H   0  0  0  0  0
   30.2125   81.5163   33.6901 H   0  0  0  0  0
   34.4483   80.5945   31.8009 H   0  0  0  0  0
   31.1870   80.2633   32.4859 H   0  0  0  0  0
   35.6263   86.8672   32.7457 H   0  0  0  0  0
   38.1812   85.1991   33.0006 H   0  0  0  0  0
   35.3455   84.8229   31.9220 H   0  0  0  0  0
   36.5525   83.6771   34.4749 H   0  0  0  0  0
   34.6225   85.9634   34.4762 H   0  0  0  0  0
   36.5562   85.0709   36.6413 H   0  0  0  0  0
   34.9795   84.2610   36.4327 H   0  0  0  0  0
   38.0797   85.0051   30.7681 H   0  0  0  0  0
   35.9127   82.5679   32.0473 H   0  0  0  0  0
   34.8832   86.0297   37.9291 H   0  0  0  0  0
   34.7407   90.6333   30.8346 H   0  0  0  0  0
   37.4694   90.6466   29.5022 H   0  0  0  0  0
   38.1283   89.0183   30.8194 H   0  0  0  0  0
   35.4420   88.2932   31.8491 H   0  0  0  0  0
   35.0958   90.0657   33.0023 H   0  0  0  0  0
   37.1850   91.2305   34.2302 H   0  0  0  0  0
   37.8429   89.5865   33.9872 H   0  0  0  0  0
   35.0772   92.8761   30.5328 H   0  0  0  0  0
   36.4150   89.0473   28.1623 H   0  0  0  0  0
   37.0475   86.9280   30.3658 H   0  0  0  0  0
   36.6390   89.7840   35.9643 H   0  0  0  0  0
  1  2  1  0  0  0
  1  7  1  0  0  0
 18  1  1  0  0  0
  2  3  1  0  0  0
  2  8  1  0  0  0
  3  4  1  0  0  0
  3  9  1  0  0  0
  5  4  1  0  0  0
  4 10  1  0  0  0
  5  6  1  0  0  0
  7  5  2  0  0  0
  6 11  1  0  0  0
 12 13  1  0  0  0
 12 21  1  0  0  0
 30 12  1  0  0  0
 13 14  1  0  0  0
 13 19  1  0  0  0
 14 15  1  0  0  0
 14 20  1  0  0  0
 16 15  1  0  0  0
 15 18  1  0  0  0
 16 17  1  0  0  0
 21 16  1  0  0  0
 22 23  1  0  0  0
 22 31  1  0  0  0
 42 22  1  0  0  0
 23 24  1  0  0  0
 23 28  1  0  0  0
 24 25  1  0  0  0
 24 29  1  0  0  0
 26 25  1  0  0  0
 25 30  1  0  0  0
 26 27  1  0  0  0
 31 26  1  0  0  0
 27 32  1  0  0  0
 34 33  1  0  0  0
 33 39  1  0  0  0
 33 43  1  0  0  0
 35 34  1  0  0  0
 34 40  1  0  0  0
 36 35  1  0  0  0
 35 41  1  0  0  0
 36 37  1  0  0  0
 36 42  1  0  0  0
 37 38  1  0  0  0
 37 43  1  0  0  0
 38 44  1  0  0  0
  1 45  1  0  0  0
  2 46  1  0  0  0
  3 47  1  0  0  0
  4 48  1  0  0  0
  6 49  1  0  0  0
  6 50  1  0  0  0
  7 51  1  0  0  0
  8 52  1  0  0  0
  9 53  1  0  0  0
 10 54  1  0  0  0
 11 55  1  0  0  0
 12 56  1  0  0  0
 13 57  1  0  0  0
 14 58  1  0  0  0
 15 59  1  0  0  0
 16 60  1  0  0  0
 17 61  1  0  0  0
 17 62  1  0  0  0
 17 63  1  0  0  0
 18 64  1  0  0  0
 18 65  1  0  0  0
 19 66  1  0  0  0
 20 67  1  0  0  0
 22 68  1  0  0  0
 23 69  1  0  0  0
 24 70  1  0  0  0
 25 71  1  0  0  0
 26 72  1  0  0  0
 27 73  1  0  0  0
 27 74  1  0  0  0
 28 75  1  0  0  0
 29 76  1  0  0  0
 32 77  1  0  0  0
 33 78  1  0  0  0
 34 79  1  0  0  0
 35 80  1  0  0  0
 36 81  1  0  0  0
 37 82  1  0  0  0
 38 83  1  0  0  0
 38 84  1  0  0  0
 39 85  1  0  0  0
 40 86  1  0  0  0
 41 87  1  0  0  0
 44 88  1  0  0  0
M  END
$$$$
