2xx2_ligand
  -I-interpret- 

 45 46  0  0  0  0  0  0  0  0999 V2000
   12.0590   15.1390    6.2820 C   0  0  0  0  0
   11.3010   15.8100    5.1330 C   0  0  0  0  0
   11.1010   17.1880    5.1920 C   0  0  0  0  0
   10.4330   17.8550    4.1680 C   0  0  0  0  0
    9.9590   17.1010    3.0910 C   0  0  0  0  0
   10.1630   15.7260    3.0370 C   0  0  0  0  0
   10.8330   15.0680    4.0560 C   0  0  0  0  0
   11.0300   13.5430    3.9620 C   0  0  0  0  0
    9.7690   12.6610    4.0870 C   0  0  0  0  0
    9.8710   11.1480    3.8670 C   0  0  0  0  0
    9.9940   10.4700    5.2490 C   0  0  0  0  0
    8.6040   10.4170    5.9120 C   0  0  0  0  0
    8.7750   10.3980    7.4420 C   0  0  0  0  0
    9.3350   11.7410    7.9450 C   0  0  0  0  0
   10.6830   11.8000    8.5260 C   0  0  0  0  0
   11.1370   13.0330    9.3340 C   0  0  0  0  0
   12.0720   13.9120    8.4790 C   0  0  0  0  0
   13.2480   15.2980    6.3700 O   0  0  0  0  0
   11.6070   17.8900    6.3150 O   0  0  0  0  0
    9.2670   17.7310    2.0230 O   0  0  0  0  0
    9.5770   14.8320    1.6510 Cl  0  0  0  0  0
   11.3500   14.3310    7.2690 N   0  0  0  0  0
    8.7090   13.1460    4.3860 O   0  0  0  0  0
   10.2842   18.9341    4.2055 H   0  0  0  0  0
   11.6650   13.2736    4.8060 H   0  0  0  0  0
   11.4246   13.3561    2.9633 H   0  0  0  0  0
   10.7425   10.9150    3.2552 H   0  0  0  0  0
    8.9853   10.7832    3.3469 H   0  0  0  0  0
   10.6777   11.0409    5.8773 H   0  0  0  0  0
   10.3803    9.4581    5.1272 H   0  0  0  0  0
    8.0790    9.5174    5.5908 H   0  0  0  0  0
    8.0247   11.2926    5.6190 H   0  0  0  0  0
    9.4726    9.6040    7.7083 H   0  0  0  0  0
    7.8020   10.2278    7.9028 H   0  0  0  0  0
    8.6721   12.0249    8.7624 H   0  0  0  0  0
    9.3942   12.3642    7.0527 H   0  0  0  0  0
   11.3474   11.7870    7.6620 H   0  0  0  0  0
   10.6980   10.9854    9.2501 H   0  0  0  0  0
   11.6727   12.7006   10.2232 H   0  0  0  0  0
   10.2612   13.6154    9.6202 H   0  0  0  0  0
   12.9612   13.3457    8.2019 H   0  0  0  0  0
   12.3791   14.7889    9.0490 H   0  0  0  0  0
   11.4004   18.8234    6.2272 H   0  0  0  0  0
    9.0142   17.0709    1.3734 H   0  0  0  0  0
   10.3767   14.0634    7.1228 H   0  0  0  0  0
  1  2  1  0  0  0
  1 18  2  0  0  0
  1 22  1  0  0  0
  2  3  4  0  0  0
  2  7  4  0  0  0
  3  4  4  0  0  0
  3 19  1  0  0  0
  4  5  4  0  0  0
  5  6  4  0  0  0
  5 20  1  0  0  0
  6  7  4  0  0  0
  6 21  1  0  0  0
  7  8  1  0  0  0
  8  9  1  0  0  0
  9 10  1  0  0  0
  9 23  2  0  0  0
 10 11  1  0  0  0
 11 12  1  0  0  0
 12 13  1  0  0  0
 13 14  1  0  0  0
 14 15  1  0  0  0
 15 16  1  0  0  0
 16 17  1  0  0  0
 17 22  1  0  0  0
  4 24  1  0  0  0
  8 25  1  0  0  0
  8 26  1  0  0  0
 10 27  1  0  0  0
 10 28  1  0  0  0
 11 29  1  0  0  0
 11 30  1  0  0  0
 12 31  1  0  0  0
 12 32  1  0  0  0
 13 33  1  0  0  0
 13 34  1  0  0  0
 14 35  1  0  0  0
 14 36  1  0  0  0
 15 37  1  0  0  0
 15 38  1  0  0  0
 16 39  1  0  0  0
 16 40  1  0  0  0
 17 41  1  0  0  0
 17 42  1  0  0  0
 19 43  1  0  0  0
 20 44  1  0  0  0
 22 45  1  0  0  0
M  END
$$$$
