3sk2_ligand
  -I-interpret- 

 33 35  0  0  0  0  0  0  0  0999 V2000
    4.1670   82.6450   25.9790 C   0  0  0  0  0
    3.9240   88.8940   22.6010 O   0  0  0  0  0
   -3.3060   84.7210   25.3720 O   0  0  0  0  0
    4.0820   86.9570   23.7980 O   0  0  0  0  0
   -0.0420   89.3320   23.2260 C   0  0  0  0  0
    1.3100   89.1380   23.0430 C   0  0  0  0  0
   -0.1960   83.0250   26.7020 C   0  0  0  0  0
    1.1810   82.8550   26.4850 C   0  0  0  0  0
   -0.7790   88.3390   23.8160 C   0  0  0  0  0
   -2.3720   84.3180   26.4640 C   0  0  0  0  0
   -0.8160   86.1890   24.8850 N   0  0  0  0  0
    1.8510   85.8350   24.5040 N   0  0  0  0  0
    3.2460   83.6670   25.4630 O   0  0  0  0  0
    3.3670   87.9180   23.2640 C   0  0  0  0  0
   -0.8750   84.1410   26.1650 C   0  0  0  0  0
    1.8780   83.8040   25.7140 C   0  0  0  0  0
    1.9290   87.9870   23.4750 C   0  0  0  0  0
   -0.1390   87.1750   24.2810 C   0  0  0  0  0
   -0.1880   85.0860   25.4150 C   0  0  0  0  0
    1.2310   86.9790   24.0840 C   0  0  0  0  0
    1.1890   84.9040   25.1970 C   0  0  0  0  0
    4.1878   82.6929   27.0677 H   0  0  0  0  0
    3.8266   81.6586   25.6639 H   0  0  0  0  0
    5.1674   82.8280   25.5868 H   0  0  0  0  0
   -4.1972   84.7868   25.7228 H   0  0  0  0  0
    3.5002   86.3354   24.2416 H   0  0  0  0  0
   -0.5170   90.2597   22.9068 H   0  0  0  0  0
    1.8995   89.9095   22.5475 H   0  0  0  0  0
   -0.7454   82.2896   27.2897 H   0  0  0  0  0
    1.7041   81.9978   26.9089 H   0  0  0  0  0
   -1.8578   88.4502   23.9249 H   0  0  0  0  0
   -2.7107   83.3254   26.7610 H   0  0  0  0  0
   -2.4129   85.1418   27.1766 H   0  0  0  0  0
 13  1  1  0  0  0
 14  2  2  0  0  0
 10  3  1  0  0  0
 14  4  1  0  0  0
  5  6  4  0  0  0
  9  5  4  0  0  0
  6 17  4  0  0  0
  8  7  4  0  0  0
  7 15  4  0  0  0
 16  8  4  0  0  0
 18  9  4  0  0  0
 15 10  1  0  0  0
 11 18  4  0  0  0
 19 11  4  0  0  0
 12 20  4  0  0  0
 21 12  4  0  0  0
 16 13  1  0  0  0
 17 14  1  0  0  0
 15 19  4  0  0  0
 16 21  4  0  0  0
 17 20  4  0  0  0
 18 20  4  0  0  0
 19 21  4  0  0  0
  1 22  1  0  0  0
  1 23  1  0  0  0
  1 24  1  0  0  0
  3 25  1  0  0  0
  4 26  1  0  0  0
  5 27  1  0  0  0
  6 28  1  0  0  0
  7 29  1  0  0  0
  8 30  1  0  0  0
  9 31  1  0  0  0
 10 32  1  0  0  0
 10 33  1  0  0  0
M  END
$$$$
