4k66_ligand
  -I-interpret- 

 61 62  0  0  0  0  0  0  0  0999 V2000
    6.8630   15.3930   33.9100 C   0  0  0  0  0
    6.7860   15.7260   35.3770 C   0  0  0  0  0
    6.1180   14.5770   36.1240 C   0  0  0  0  0
    6.9580   13.3090   36.0380 C   0  0  0  0  0
    8.4110   13.5900   36.4020 C   0  0  0  0  0
    8.9410   14.7990   35.6410 C   0  0  0  0  0
   10.3680   15.1270   36.0640 C   0  0  0  0  0
   10.8140   16.4660   35.4880 C   0  0  0  0  0
   12.3080   16.6800   35.6970 C   0  0  0  0  0
   10.2880   12.1220   36.8580 C   0  0  0  0  0
   11.1920   11.0640   36.2970 C   0  0  0  0  0
    9.2280   12.4260   36.1160 N   0  0  0  0  0
    6.1930   14.4290   33.4800 O   0  0  0  0  0
    7.5960   16.0930   33.1770 O   0  0  0  0  0
    6.4250   12.3220   36.9280 O   0  0  0  0  0
    8.1010   15.9240   35.8900 O   0  0  0  0  0
   10.4430   15.1740   37.4930 O   0  0  0  0  0
   10.5180   16.5050   34.0870 O   0  0  0  0  0
   13.0390   15.9560   34.7010 O   0  0  0  0  0
   10.5110   12.6670   37.9270 O   0  0  0  0  0
    4.6670   19.4900   33.1740 C   0  0  0  0  0
    4.8180   18.0980   33.8390 C   0  0  0  0  0
    5.3410   18.0780   35.2680 C   0  0  0  0  0
    6.3010   19.1990   35.6560 C   0  0  0  0  0
    5.7920   20.5160   35.0560 C   0  0  0  0  0
    6.6600   21.7540   35.4970 C   0  0  0  0  0
    4.8080   19.4310   31.7430 O   0  0  0  0  0
    3.5750   17.4090   34.0990 O   0  0  0  0  0
    5.7590   16.7280   35.5680 O   0  0  0  0  0
    7.6160   18.8830   35.2900 O   0  0  0  0  0
    5.6320   20.3790   33.6480 O   0  0  0  0  0
    7.7940   22.1330   34.6520 O   0  0  0  0  0
    5.1455   14.3838   35.6712 H   0  0  0  0  0
    6.0119   14.8560   37.1723 H   0  0  0  0  0
    6.9247   12.9426   35.0120 H   0  0  0  0  0
    8.4593   13.8104   37.4684 H   0  0  0  0  0
    8.9417   14.5633   34.5768 H   0  0  0  0  0
   11.0288   14.3493   35.6811 H   0  0  0  0  0
   10.2761   17.2603   36.0055 H   0  0  0  0  0
   12.5909   16.3218   36.6868 H   0  0  0  0  0
   12.5374   17.7424   35.6148 H   0  0  0  0  0
   12.1898   11.4788   36.1542 H   0  0  0  0  0
   11.2418   10.2251   36.9911 H   0  0  0  0  0
   10.7988   10.7222   35.3396 H   0  0  0  0  0
    8.9834   11.8271   35.3274 H   0  0  0  0  0
    8.0172   16.7750   33.7053 H   0  0  0  0  0
    5.5098   12.1459   36.6977 H   0  0  0  0  0
   10.1620   14.3304   37.8550 H   0  0  0  0  0
   10.7992   17.3485   33.7250 H   0  0  0  0  0
   13.9799   16.0920   34.8343 H   0  0  0  0  0
    3.6637   19.8313   33.4291 H   0  0  0  0  0
    5.4809   17.6576   33.0942 H   0  0  0  0  0
    4.5273   18.3423   35.9434 H   0  0  0  0  0
    6.3276   19.3204   36.7389 H   0  0  0  0  0
    4.8044   20.7322   35.4635 H   0  0  0  0  0
    7.0946   21.4756   36.4571 H   0  0  0  0  0
    5.9819   22.6070   35.4712 H   0  0  0  0  0
    4.7074   20.3124   31.3761 H   0  0  0  0  0
    3.7602   16.5610   34.5090 H   0  0  0  0  0
    8.1992   19.6019   35.5441 H   0  0  0  0  0
    8.2338   22.8969   35.0323 H   0  0  0  0  0
  2  1  1  0  0  0
  1 13  2  0  0  0
  1 14  1  0  0  0
  2  3  1  0  0  0
  2 16  1  0  0  0
 29  2  1  0  0  0
  3  4  1  0  0  0
  4  5  1  0  0  0
  4 15  1  0  0  0
  6  5  1  0  0  0
  5 12  1  0  0  0
  6  7  1  0  0  0
 16  6  1  0  0  0
  7  8  1  0  0  0
  7 17  1  0  0  0
  8  9  1  0  0  0
  8 18  1  0  0  0
  9 19  1  0  0  0
 10 11  1  0  0  0
 12 10  1  0  0  0
 10 20  2  0  0  0
 22 21  1  0  0  0
 21 27  1  0  0  0
 21 31  1  0  0  0
 23 22  1  0  0  0
 22 28  1  0  0  0
 23 24  1  0  0  0
 23 29  1  0  0  0
 24 25  1  0  0  0
 24 30  1  0  0  0
 25 26  1  0  0  0
 25 31  1  0  0  0
 26 32  1  0  0  0
  3 33  1  0  0  0
  3 34  1  0  0  0
  4 35  1  0  0  0
  5 36  1  0  0  0
  6 37  1  0  0  0
  7 38  1  0  0  0
  8 39  1  0  0  0
  9 40  1  0  0  0
  9 41  1  0  0  0
 11 42  1  0  0  0
 11 43  1  0  0  0
 11 44  1  0  0  0
 12 45  1  0  0  0
 14 46  1  0  0  0
 15 47  1  0  0  0
 17 48  1  0  0  0
 18 49  1  0  0  0
 19 50  1  0  0  0
 21 51  1  0  0  0
 22 52  1  0  0  0
 23 53  1  0  0  0
 24 54  1  0  0  0
 25 55  1  0  0  0
 26 56  1  0  0  0
 26 57  1  0  0  0
 27 58  1  0  0  0
 28 59  1  0  0  0
 30 60  1  0  0  0
 32 61  1  0  0  0
M  END
$$$$
