8a3h_ligand
  -I-interpret- 

 47 49  0  0  0  0  0  0  0  0999 V2000
   60.7210   46.8410   36.9070 C   0  0  0  0  0
   61.0520   48.2560   36.5130 C   0  0  0  0  0
   60.4620   49.2150   37.5340 C   0  0  0  0  0
   58.9580   48.9890   37.6380 C   0  0  0  0  0
   58.7260   47.5060   38.0050 C   0  0  0  0  0
   57.2960   47.0880   38.0840 C   0  0  0  0  0
   62.4950   48.3600   36.4680 O   0  0  0  0  0
   60.6970   50.5800   37.1370 O   0  0  0  0  0
   58.4120   49.8290   38.6670 O   0  0  0  0  0
   59.3050   46.6870   36.9510 O   0  0  0  0  0
   56.6540   47.2650   36.8140 O   0  0  0  0  0
   61.6240   41.9130   36.4280 C   0  0  0  0  0
   60.5480   42.3120   35.4530 C   0  0  0  0  0
   60.6870   43.7830   35.0390 C   0  0  0  0  0
   61.1990   44.5900   36.2520 C   0  0  0  0  0
   62.6230   44.1860   36.5810 C   0  0  0  0  0
   63.2620   44.9630   37.7590 C   0  0  0  0  0
   60.4970   41.4310   34.3250 O   0  0  0  0  0
   59.4320   44.2030   34.6000 O   0  0  0  0  0
   61.1810   45.9910   35.8830 O   0  0  0  0  0
   62.5550   42.7540   36.9350 N   0  3  0  0  0
   62.4410   44.8280   38.9460 O   0  0  0  0  0
   61.7790   40.7160   36.9890 N   0  0  0  0  0
   62.8540   40.7640   37.8690 C   0  0  0  0  0
   63.3150   42.0400   37.8410 C   0  0  0  0  0
   61.1716   46.6112   37.8725 H   0  0  0  0  0
   60.6326   48.5116   35.5399 H   0  0  0  0  0
   60.9388   49.0308   38.4967 H   0  0  0  0  0
   58.4713   49.2307   36.6931 H   0  0  0  0  0
   59.1715   47.3794   38.9917 H   0  0  0  0  0
   56.7871   47.7007   38.8281 H   0  0  0  0  0
   57.2482   46.0354   38.3629 H   0  0  0  0  0
   62.8389   47.7446   35.8164 H   0  0  0  0  0
   61.6421   50.7339   37.0682 H   0  0  0  0  0
   58.5570   50.7498   38.4373 H   0  0  0  0  0
   55.7359   46.9924   36.8801 H   0  0  0  0  0
   59.5899   42.2142   35.9634 H   0  0  0  0  0
   61.4051   43.9299   34.2323 H   0  0  0  0  0
   60.5700   44.4019   37.1221 H   0  0  0  0  0
   63.2529   44.4079   35.7195 H   0  0  0  0  0
   63.3378   46.0175   37.4937 H   0  0  0  0  0
   64.2532   44.5567   37.9606 H   0  0  0  0  0
   59.8014   41.7169   33.7283 H   0  0  0  0  0
   59.4797   45.1234   34.3312 H   0  0  0  0  0
   62.8448   45.3124   39.6698 H   0  0  0  0  0
   63.2485   39.9400   38.4636 H   0  0  0  0  0
   64.1423   42.4336   38.4315 H   0  0  0  0  0
  1  2  1  0  0  0
  1 10  1  0  0  0
 20  1  1  0  0  0
  2  3  1  0  0  0
  2  7  1  0  0  0
  3  4  1  0  0  0
  3  8  1  0  0  0
  5  4  1  0  0  0
  4  9  1  0  0  0
  5  6  1  0  0  0
 10  5  1  0  0  0
  6 11  1  0  0  0
 13 12  1  0  0  0
 14 13  1  0  0  0
 13 18  1  0  0  0
 15 14  1  0  0  0
 14 19  1  0  0  0
 15 16  1  0  0  0
 20 15  1  0  0  0
 16 17  1  0  0  0
 16 21  1  0  0  0
 17 22  1  0  0  0
 21 12  4  0  0  0
 21 25  4  0  0  0
 12 23  4  0  0  0
 23 24  4  0  0  0
 24 25  4  0  0  0
  1 26  1  0  0  0
  2 27  1  0  0  0
  3 28  1  0  0  0
  4 29  1  0  0  0
  5 30  1  0  0  0
  6 31  1  0  0  0
  6 32  1  0  0  0
  7 33  1  0  0  0
  8 34  1  0  0  0
  9 35  1  0  0  0
 11 36  1  0  0  0
 13 37  1  0  0  0
 14 38  1  0  0  0
 15 39  1  0  0  0
 16 40  1  0  0  0
 17 41  1  0  0  0
 17 42  1  0  0  0
 18 43  1  0  0  0
 19 44  1  0  0  0
 22 45  1  0  0  0
 24 46  1  0  0  0
 25 47  1  0  0  0
M  END
$$$$
