4pku_ligand
  -I-interpret- 

 46 47  0  0  0  0  0  0  0  0999 V2000
    7.8790   15.3600   23.7160 C   0  0  0  0  0
    8.5540   16.1190   24.6670 C   0  0  0  0  0
    7.0110   14.3520   24.1190 C   0  0  0  0  0
    6.8200   14.1030   25.4720 C   0  0  0  0  0
    7.4980   14.8600   26.4210 C   0  0  0  0  0
    8.3630   15.8750   26.0260 C   0  0  0  0  0
    9.0880   16.6640   27.1040 C   0  0  0  0  0
    9.6320   17.9530   26.6850 N   0  0  0  0  0
   11.0800   18.0170   26.4680 C   0  0  0  0  0
   11.6330   16.7410   25.8390 C   0  0  0  0  0
   11.8620   18.2820   27.7240 C   0  0  0  0  0
   12.7340   19.2920   27.7560 N   0  0  0  0  0
   13.6340   19.2970   28.7510 O   0  0  0  0  0
   11.7550   17.4750   28.9290 O   0  0  0  0  0
    8.7490   19.1810   26.5210 S   0  0  0  0  0
    7.4860   18.7790   25.9690 O   0  0  0  0  0
    9.3930   20.1220   25.6510 O   0  0  0  0  0
    8.5230   19.8740   27.9430 C   0  0  0  0  0
    9.2340   21.0240   28.2680 C   0  0  0  0  0
    9.0470   21.6340   29.5020 C   0  0  0  0  0
    8.1490   21.0920   30.4150 C   0  0  0  0  0
    7.9630   21.6810   31.6090 F   0  0  0  0  0
    7.4400   19.9470   30.0940 C   0  0  0  0  0
    7.6270   19.3350   28.8590 C   0  0  0  0  0
    6.4680   19.3640   31.0850 C   0  0  0  0  0
    8.0780   15.6210   22.2640 N   0  0  0  0  0
    9.2351   16.9079   24.3478 H   0  0  0  0  0
    6.4811   13.7579   23.3745 H   0  0  0  0  0
    6.1385   13.3140   25.7899 H   0  0  0  0  0
    7.3506   14.6566   27.4817 H   0  0  0  0  0
    9.9377   16.0557   27.4140 H   0  0  0  0  0
    8.3523   16.8761   27.8798 H   0  0  0  0  0
   11.2060   18.8572   25.7852 H   0  0  0  0  0
   11.4282   15.8955   26.4957 H   0  0  0  0  0
   11.1550   16.5768   24.8733 H   0  0  0  0  0
   12.7094   16.8427   25.7004 H   0  0  0  0  0
   12.7168   20.0303   27.0524 H   0  0  0  0  0
   14.2000   20.0676   28.6651 H   0  0  0  0  0
    9.9394   21.4476   27.5531 H   0  0  0  0  0
    9.6036   22.5366   29.7543 H   0  0  0  0  0
    7.0704   18.4318   28.6092 H   0  0  0  0  0
    6.9984   19.0999   31.9999 H   0  0  0  0  0
    5.6959   20.0996   31.3106 H   0  0  0  0  0
    6.0084   18.4719   30.6595 H   0  0  0  0  0
    8.7123   16.3600   21.9609 H   0  0  0  0  0
    7.5800   15.0608   21.5722 H   0  0  0  0  0
  1  2  4  0  0  0
  1  3  4  0  0  0
  1 26  1  0  0  0
  2  6  4  0  0  0
  3  4  4  0  0  0
  4  5  4  0  0  0
  5  6  4  0  0  0
  6  7  1  0  0  0
  7  8  1  0  0  0
  8  9  1  0  0  0
  8 15  1  0  0  0
  9 10  1  0  0  0
  9 11  1  0  0  0
 11 12  1  0  0  0
 11 14  2  0  0  0
 12 13  1  0  0  0
 15 16  2  0  0  0
 15 17  2  0  0  0
 15 18  1  0  0  0
 18 19  4  0  0  0
 18 24  4  0  0  0
 19 20  4  0  0  0
 20 21  4  0  0  0
 21 22  1  0  0  0
 21 23  4  0  0  0
 23 24  4  0  0  0
 23 25  1  0  0  0
  2 27  1  0  0  0
  3 28  1  0  0  0
  4 29  1  0  0  0
  5 30  1  0  0  0
  7 31  1  0  0  0
  7 32  1  0  0  0
  9 33  1  0  0  0
 10 34  1  0  0  0
 10 35  1  0  0  0
 10 36  1  0  0  0
 12 37  1  0  0  0
 13 38  1  0  0  0
 19 39  1  0  0  0
 20 40  1  0  0  0
 24 41  1  0  0  0
 25 42  1  0  0  0
 25 43  1  0  0  0
 25 44  1  0  0  0
 26 45  1  0  0  0
 26 46  1  0  0  0
M  END
$$$$
