4qn7_ligand
  -I-interpret- 

 47 47  0  0  0  0  0  0  0  0999 V2000
    1.6790   88.9300  130.3660 C   0  0  0  0  0
    2.2360   87.8760  129.9010 O   0  0  0  0  0
    2.1170   90.0780  130.1750 O   0  0  0  0  0
    0.4020   88.7680  131.2470 C   0  0  0  0  0
   -0.4200   87.5140  130.9720 C   0  0  0  0  0
   -1.3520   87.3080  132.1810 C   0  0  0  0  0
   -2.2820   88.4960  132.3510 C   0  0  0  0  0
   -3.0770   88.2870  133.5230 N   0  0  0  0  0
   -4.4880   87.9530  133.3630 C   0  0  0  0  0
   -4.9720   87.8510  132.2450 O   0  0  0  0  0
   -5.3620   87.7310  134.6040 C   0  0  0  0  0
   -1.5320   89.8350  132.4420 C   0  0  0  0  0
   -0.5200   90.0000  131.3100 C   0  0  0  0  0
   -2.4410   90.8880  132.3190 O   0  0  0  0  0
   -2.7800   91.5690  133.5300 C   0  0  0  0  0
   -3.9050   92.5350  133.1900 C   0  0  0  0  0
   -1.5720   92.2460  134.1040 C   0  0  0  0  0
   -1.0050   93.3290  133.1740 C   0  0  0  0  0
   -5.1930   91.7960  132.8520 C   0  0  0  0  0
   -2.1250   86.1130  132.0110 N   0  3  0  0  0
    1.7321   87.1042  130.1693 H   0  0  0  0  0
    0.8495   88.6542  132.2344 H   0  0  0  0  0
    0.2306   86.6500  130.8365 H   0  0  0  0  0
   -0.9988   87.6271  130.0553 H   0  0  0  0  0
   -0.7347   87.2149  133.0745 H   0  0  0  0  0
   -2.9128   88.5626  131.4646 H   0  0  0  0  0
   -2.6647   88.3700  134.4523 H   0  0  0  0  0
   -6.1795   88.4520  134.6048 H   0  0  0  0  0
   -5.7679   86.7196  134.5847 H   0  0  0  0  0
   -4.7574   87.8642  135.5011 H   0  0  0  0  0
   -1.0171   89.8446  133.4027 H   0  0  0  0  0
   -1.0521   90.0994  130.3639 H   0  0  0  0  0
    0.0818   90.8903  131.4928 H   0  0  0  0  0
   -3.1216   90.8817  134.3039 H   0  0  0  0  0
   -3.6055   93.1214  132.3214 H   0  0  0  0  0
   -4.0887   93.1696  134.0570 H   0  0  0  0  0
   -0.8003   91.4899  134.2484 H   0  0  0  0  0
   -1.8677   92.7259  135.0370 H   0  0  0  0  0
   -0.7170   92.8768  132.2250 H   0  0  0  0  0
   -1.7651   94.0904  132.9993 H   0  0  0  0  0
   -0.1319   93.7856  133.6401 H   0  0  0  0  0
   -5.0234   91.1472  131.9927 H   0  0  0  0  0
   -5.5007   91.1949  133.7076 H   0  0  0  0  0
   -5.9735   92.5188  132.6146 H   0  0  0  0  0
   -1.4975   85.3169  131.8971 H   0  0  0  0  0
   -2.7123   85.9697  132.8325 H   0  0  0  0  0
   -2.7133   86.2050  131.1828 H   0  0  0  0  0
  1  2  1  0  0  0
  1  3  2  0  0  0
  1  4  1  0  0  0
  4  5  1  0  0  0
  4 13  1  0  0  0
  5  6  1  0  0  0
  6  7  1  0  0  0
  6 20  1  0  0  0
  7  8  1  0  0  0
  7 12  1  0  0  0
  8  9  1  0  0  0
  9 10  2  0  0  0
  9 11  1  0  0  0
 12 13  1  0  0  0
 12 14  1  0  0  0
 14 15  1  0  0  0
 15 16  1  0  0  0
 15 17  1  0  0  0
 16 19  1  0  0  0
 17 18  1  0  0  0
  2 21  1  0  0  0
  4 22  1  0  0  0
  5 23  1  0  0  0
  5 24  1  0  0  0
  6 25  1  0  0  0
  7 26  1  0  0  0
  8 27  1  0  0  0
 11 28  1  0  0  0
 11 29  1  0  0  0
 11 30  1  0  0  0
 12 31  1  0  0  0
 13 32  1  0  0  0
 13 33  1  0  0  0
 15 34  1  0  0  0
 16 35  1  0  0  0
 16 36  1  0  0  0
 17 37  1  0  0  0
 17 38  1  0  0  0
 18 39  1  0  0  0
 18 40  1  0  0  0
 18 41  1  0  0  0
 19 42  1  0  0  0
 19 43  1  0  0  0
 19 44  1  0  0  0
 20 45  1  0  0  0
 20 46  1  0  0  0
 20 47  1  0  0  0
M  END
$$$$
