6ez6_ligand
  -I-interpret- 

 67 71  0  0  0  0  0  0  0  0999 V2000
  -12.8120  -29.8090   22.3230 C   0  0  0  0  0
  -14.8590  -28.5990   22.2220 C   0  0  0  0  0
   -8.9920  -30.2820   24.0600 C   0  0  0  0  0
   -8.2410  -31.4560   23.9050 C   0  0  0  0  0
   -6.9390  -31.5820   24.4040 C   0  0  0  0  0
  -11.9560  -33.7980   20.4530 C   0  0  0  0  0
  -11.4310  -32.4670   20.1990 O   0  0  0  0  0
  -12.2690  -31.4630   20.4450 C   0  0  0  0  0
  -13.2410  -31.2600   19.7840 O   0  0  0  0  0
  -11.9210  -30.6920   21.6780 C   0  0  0  0  0
  -10.6590  -30.8380   22.2700 C   0  0  0  0  0
  -10.3480  -30.1660   23.4520 C   0  0  0  0  0
  -11.3190  -29.3210   23.9720 C   0  0  0  0  0
  -12.5430  -29.1710   23.4500 N   0  0  0  0  0
  -14.0260  -29.6550   21.7460 O   0  0  0  0  0
   -6.2610  -32.8760   24.2440 C   0  0  0  0  0
   -6.7370  -33.9560   23.7070 N   0  0  0  0  0
   -5.7060  -34.8610   23.7640 C   0  0  0  0  0
   -4.6410  -34.3210   24.3420 C   0  0  0  0  0
   -3.2690  -34.8000   24.6700 C   0  0  0  0  0
   -2.3290  -34.8050   23.5510 N   0  3  0  0  0
   -2.3630  -33.5370   22.8130 C   0  0  0  0  0
   -1.4380  -33.5920   21.6060 C   0  0  0  0  0
   -0.0500  -33.8600   22.0470 N   0  3  0  0  0
   -0.0190  -35.1310   22.8030 C   0  0  0  0  0
   -0.9570  -35.0770   23.9960 C   0  0  0  0  0
    0.9410  -33.8190   20.9220 C   0  0  0  0  0
    0.6780  -32.6760   19.9570 C   0  0  0  0  0
    2.3840  -33.7750   21.4160 C   0  0  0  0  0
   -4.9610  -33.0110   24.6490 O   0  0  0  0  0
   -6.3360  -30.4670   25.0200 C   0  0  0  0  0
   -5.0660  -30.1600   25.5600 C   0  0  0  0  0
   -5.0340  -28.9120   25.9830 N   0  0  0  0  0
   -6.2600  -28.3720   25.6960 N   0  0  0  0  0
   -7.0620  -29.2680   25.0700 C   0  0  0  0  0
   -8.3850  -29.1660   24.6520 C   0  0  0  0  0
  -15.0629  -28.7486   23.2822 H   0  0  0  0  0
  -14.3513  -27.6451   22.0794 H   0  0  0  0  0
  -15.7969  -28.5994   21.6667 H   0  0  0  0  0
   -8.6863  -32.2997   23.3778 H   0  0  0  0  0
  -12.2371  -33.8821   21.5028 H   0  0  0  0  0
  -12.8316  -33.9675   19.8264 H   0  0  0  0  0
  -11.1917  -34.5393   20.2197 H   0  0  0  0  0
   -9.9142  -31.4822   21.8027 H   0  0  0  0  0
  -11.0692  -28.7429   24.8617 H   0  0  0  0  0
   -5.7557  -35.8823   23.3864 H   0  0  0  0  0
   -3.3686  -35.8340   25.0003 H   0  0  0  0  0
   -2.8667  -34.1128   25.4143 H   0  0  0  0  0
   -2.6246  -35.5563   22.9276 H   0  0  0  0  0
   -2.0325  -32.7357   23.4739 H   0  0  0  0  0
   -3.3814  -33.3571   22.4685 H   0  0  0  0  0
   -1.4711  -32.6359   21.0836 H   0  0  0  0  0
   -1.7640  -34.3902   20.9392 H   0  0  0  0  0
    0.2457  -33.1069   22.6681 H   0  0  0  0  0
    0.9959  -35.2992   23.1632 H   0  0  0  0  0
   -0.3378  -35.9382   22.1435 H   0  0  0  0  0
   -0.9332  -36.0368   24.5120 H   0  0  0  0  0
   -0.6352  -34.2804   24.6668 H   0  0  0  0  0
    0.8024  -34.7536   20.3785 H   0  0  0  0  0
   -0.3165  -32.7883   19.5252 H   0  0  0  0  0
    0.7381  -31.7287   20.4928 H   0  0  0  0  0
    1.4244  -32.6936   19.1628 H   0  0  0  0  0
    2.5308  -32.8838   22.0261 H   0  0  0  0  0
    2.5896  -34.6635   22.0130 H   0  0  0  0  0
    3.0588  -33.7464   20.5605 H   0  0  0  0  0
   -4.2304  -30.8575   25.6184 H   0  0  0  0  0
   -8.9387  -28.2362   24.7824 H   0  0  0  0  0
 10  1  4  0  0  0
  1 14  4  0  0  0
  1 15  1  0  0  0
 15  2  1  0  0  0
  3  4  4  0  0  0
 12  3  1  0  0  0
  3 36  4  0  0  0
  4  5  4  0  0  0
  5 16  1  0  0  0
  5 31  4  0  0  0
  7  6  1  0  0  0
  8  7  1  0  0  0
  8  9  2  0  0  0
 10  8  1  0  0  0
 11 10  4  0  0  0
 11 12  4  0  0  0
 12 13  4  0  0  0
 13 14  4  0  0  0
 16 17  4  0  0  0
 16 30  4  0  0  0
 17 18  4  0  0  0
 18 19  4  0  0  0
 19 20  1  0  0  0
 19 30  4  0  0  0
 20 21  1  0  0  0
 21 22  1  0  0  0
 21 26  1  0  0  0
 22 23  1  0  0  0
 23 24  1  0  0  0
 24 25  1  0  0  0
 24 27  1  0  0  0
 25 26  1  0  0  0
 27 28  1  0  0  0
 27 29  1  0  0  0
 31 32  4  0  0  0
 31 35  4  0  0  0
 32 33  4  0  0  0
 33 34  4  0  0  0
 34 35  4  0  0  0
 35 36  4  0  0  0
  2 37  1  0  0  0
  2 38  1  0  0  0
  2 39  1  0  0  0
  4 40  1  0  0  0
  6 41  1  0  0  0
  6 42  1  0  0  0
  6 43  1  0  0  0
 11 44  1  0  0  0
 13 45  1  0  0  0
 18 46  1  0  0  0
 20 47  1  0  0  0
 20 48  1  0  0  0
 21 49  1  0  0  0
 22 50  1  0  0  0
 22 51  1  0  0  0
 23 52  1  0  0  0
 23 53  1  0  0  0
 24 54  1  0  0  0
 25 55  1  0  0  0
 25 56  1  0  0  0
 26 57  1  0  0  0
 26 58  1  0  0  0
 27 59  1  0  0  0
 28 60  1  0  0  0
 28 61  1  0  0  0
 28 62  1  0  0  0
 29 63  1  0  0  0
 29 64  1  0  0  0
 29 65  1  0  0  0
 32 66  1  0  0  0
 36 67  1  0  0  0
M  END
$$$$
