3dkg_ligand
  -I-interpret- 

 39 43  0  0  0  0  0  0  0  0999 V2000
   16.1870   16.5270   60.1180 C   0  0  0  0  0
   15.3670   15.6630   60.7380 C   0  0  0  0  0
   11.6460   12.1020   62.8620 C   0  0  0  0  0
   12.8660   12.3510   62.1220 N   0  0  0  0  0
   15.4430   14.2210   60.3410 C   0  0  0  0  0
   14.6700   11.8950   61.1400 C   0  0  0  0  0
   14.5330   13.3040   61.0180 C   0  0  0  0  0
   13.3360   13.5550   61.6710 C   0  0  0  0  0
   13.6660   11.3240   61.8060 N   0  0  0  0  0
   16.2420   13.7300   59.4300 N   0  0  0  0  0
   17.0620   14.6850   58.8530 N   0  0  0  0  0
   17.0690   16.0540   59.1200 C   0  0  0  0  0
   18.0170   14.5340   57.8720 C   0  0  0  0  0
   18.5470   15.7090   57.5700 N   0  0  0  0  0
   17.9340   16.6740   58.3420 N   0  0  0  0  0
   18.4010   13.0120   57.1090 S   0  0  0  0  0
   19.3050   12.1180   58.3550 C   0  0  0  0  0
   18.6930   11.0310   58.9870 C   0  0  0  0  0
   19.4020   10.3110   59.9720 C   0  0  0  0  0
   20.7340   10.6720   60.3160 C   0  0  0  0  0
   21.3290   11.7570   59.6640 C   0  0  0  0  0
   20.6250   12.4810   58.6820 C   0  0  0  0  0
   18.8220    9.2190   60.6460 C   0  0  0  0  0
   19.5430    8.5210   61.6170 C   0  0  0  0  0
   20.8300    8.9410   61.8790 C   0  0  0  0  0
   21.4290    9.9810   61.2490 N   0  0  0  0  0
   16.1725   17.5844   60.3822 H   0  0  0  0  0
   14.6693   16.0000   61.5047 H   0  0  0  0  0
   11.6720   12.6564   63.8001 H   0  0  0  0  0
   10.7906   12.4273   62.2699 H   0  0  0  0  0
   11.5605   11.0356   63.0709 H   0  0  0  0  0
   15.5117   11.3368   60.7301 H   0  0  0  0  0
   12.8595   14.5267   61.8007 H   0  0  0  0  0
   17.6762   10.7421   58.7208 H   0  0  0  0  0
   22.3488   12.0455   59.9186 H   0  0  0  0  0
   21.1016   13.3208   58.1763 H   0  0  0  0  0
   17.8023    8.9163   60.4079 H   0  0  0  0  0
   19.1049    7.6759   62.1479 H   0  0  0  0  0
   21.3996    8.4047   62.6380 H   0  0  0  0  0
  2  1  4  0  0  0
  1 12  4  0  0  0
  5  2  4  0  0  0
  4  3  1  0  0  0
  4  8  4  0  0  0
  9  4  4  0  0  0
  7  5  1  0  0  0
  5 10  4  0  0  0
  6  7  4  0  0  0
  6  9  4  0  0  0
  7  8  4  0  0  0
 10 11  4  0  0  0
 11 12  4  0  0  0
 11 13  4  0  0  0
 12 15  4  0  0  0
 13 14  4  0  0  0
 13 16  1  0  0  0
 14 15  4  0  0  0
 16 17  1  0  0  0
 17 18  4  0  0  0
 17 22  4  0  0  0
 18 19  4  0  0  0
 19 20  4  0  0  0
 19 23  4  0  0  0
 20 21  4  0  0  0
 20 26  4  0  0  0
 21 22  4  0  0  0
 23 24  4  0  0  0
 24 25  4  0  0  0
 25 26  4  0  0  0
  1 27  1  0  0  0
  2 28  1  0  0  0
  3 29  1  0  0  0
  3 30  1  0  0  0
  3 31  1  0  0  0
  6 32  1  0  0  0
  8 33  1  0  0  0
 18 34  1  0  0  0
 21 35  1  0  0  0
 22 36  1  0  0  0
 23 37  1  0  0  0
 24 38  1  0  0  0
 25 39  1  0  0  0
M  END
$$$$
