6md6_ligand
  -I-interpret- 

 48 49  0  0  0  0  0  0  0  0999 V2000
   24.9210   34.2420   33.6190 O   0  0  0  0  0
   25.4540   32.8600   33.5930 C   0  0  0  0  0
   24.3390   31.8190   33.2250 C   0  0  0  0  0
   24.0530   32.1130   31.8400 O   0  0  0  0  0
   24.7160   30.3180   33.4390 C   0  0  0  0  0
   23.6380   29.2880   33.3990 O   0  0  0  0  0
   25.3850   30.1680   34.8390 C   0  0  0  0  0
   25.8110   28.7500   35.1160 C   0  0  0  0  0
   26.3050   28.6830   36.5050 O   0  0  0  0  0
   26.4790   31.1070   34.9300 O   0  0  0  0  0
   26.0420   32.4740   34.9450 C   0  0  0  0  0
   27.4780   33.5510   35.2640 S   0  0  0  0  0
   28.4480   33.5630   33.7620 C   0  0  0  0  0
   28.4160   34.9180   32.9750 C   0  0  0  0  0
   27.1410   35.3090   32.4320 O   0  0  0  0  0
   27.0780   36.5940   31.7950 C   0  0  0  0  0
   29.4350   34.9320   31.9270 O   0  0  0  0  0
   29.9200   33.2990   34.1750 C   0  0  0  0  0
   30.0980   32.0840   34.9430 O   0  0  0  0  0
   30.9380   33.3830   33.0120 C   0  0  0  0  0
   32.2750   33.0870   33.4640 O   0  0  0  0  0
   30.8350   34.7670   32.3260 C   0  0  0  0  0
   31.8850   34.9370   31.1650 C   0  0  0  0  0
   31.4370   35.8760   30.1740 O   0  0  0  0  0
   24.5574   34.4598   32.7576 H   0  0  0  0  0
   26.2328   32.8416   32.8306 H   0  0  0  0  0
   23.4833   31.9255   33.8917 H   0  0  0  0  0
   23.8266   33.0417   31.7513 H   0  0  0  0  0
   25.3463   30.1130   32.5737 H   0  0  0  0  0
   23.1861   29.3320   32.5532 H   0  0  0  0  0
   24.6564   30.4007   35.6156 H   0  0  0  0  0
   26.5974   28.4516   34.4227 H   0  0  0  0  0
   24.9680   28.0718   34.9838 H   0  0  0  0  0
   26.5821   27.7852   36.7019 H   0  0  0  0  0
   25.2844   32.5903   35.7200 H   0  0  0  0  0
   28.0246   32.8084   33.0991 H   0  0  0  0  0
   28.6319   35.6680   33.7359 H   0  0  0  0  0
   27.3439   37.3683   32.5146 H   0  0  0  0  0
   27.7766   36.6181   30.9586 H   0  0  0  0  0
   26.0658   36.7678   31.4298 H   0  0  0  0  0
   30.1486   34.1340   34.8372 H   0  0  0  0  0
   31.0261   31.9804   35.1653 H   0  0  0  0  0
   30.6952   32.6240   32.2683 H   0  0  0  0  0
   32.8826   33.1467   32.7232 H   0  0  0  0  0
   31.1019   35.5757   33.0064 H   0  0  0  0  0
   32.0224   33.9692   30.6827 H   0  0  0  0  0
   32.8143   35.3102   31.5953 H   0  0  0  0  0
   32.1007   35.9531   29.4847 H   0  0  0  0  0
  1  2  1  0  0  0
  2  3  1  0  0  0
  2 11  1  0  0  0
  3  4  1  0  0  0
  3  5  1  0  0  0
  5  6  1  0  0  0
  5  7  1  0  0  0
  7  8  1  0  0  0
  7 10  1  0  0  0
  8  9  1  0  0  0
 10 11  1  0  0  0
 11 12  1  0  0  0
 12 13  1  0  0  0
 13 14  1  0  0  0
 13 18  1  0  0  0
 14 15  1  0  0  0
 14 17  1  0  0  0
 15 16  1  0  0  0
 17 22  1  0  0  0
 18 19  1  0  0  0
 18 20  1  0  0  0
 20 21  1  0  0  0
 20 22  1  0  0  0
 22 23  1  0  0  0
 23 24  1  0  0  0
  1 25  1  0  0  0
  2 26  1  0  0  0
  3 27  1  0  0  0
  4 28  1  0  0  0
  5 29  1  0  0  0
  6 30  1  0  0  0
  7 31  1  0  0  0
  8 32  1  0  0  0
  8 33  1  0  0  0
  9 34  1  0  0  0
 11 35  1  0  0  0
 13 36  1  0  0  0
 14 37  1  0  0  0
 16 38  1  0  0  0
 16 39  1  0  0  0
 16 40  1  0  0  0
 18 41  1  0  0  0
 19 42  1  0  0  0
 20 43  1  0  0  0
 21 44  1  0  0  0
 22 45  1  0  0  0
 23 46  1  0  0  0
 23 47  1  0  0  0
 24 48  1  0  0  0
M  END
$$$$
