5iu6_ligand
  -I-interpret- 

 14 15  0  0  0  0  0  0  0  0999 V2000
  -19.8530   45.1150   20.5480 O   0  0  0  0  0
  -19.6940   44.1220   21.2760 C   0  0  0  0  0
  -20.6830   43.5380   22.0130 N   0  0  0  0  0
  -20.4480   42.4570   22.8050 C   0  0  0  0  0
  -19.2130   41.9120   22.9160 N   0  0  0  0  0
  -18.1420   42.4220   22.2210 C   0  0  0  0  0
  -18.3260   43.5820   21.3360 C   0  0  0  0  0
  -16.8190   42.1390   22.0800 N   0  0  0  0  0
  -16.1660   43.0080   21.2150 C   0  0  0  0  0
  -17.0770   43.9220   20.7320 C   0  0  0  0  0
  -21.6264   43.9234   21.9688 H   0  0  0  0  0
  -21.2744   42.0185   23.3643 H   0  0  0  0  0
  -15.1068   42.9726   20.9602 H   0  0  0  0  0
  -16.8844   44.7362   20.0334 H   0  0  0  0  0
  1  2  2  0  0  0
  2  3  1  0  0  0
  2  7  1  0  0  0
  3  4  1  0  0  0
  4  5  2  0  0  0
  5  6  1  0  0  0
  6  7  4  0  0  0
  6  8  4  0  0  0
  7 10  4  0  0  0
  8  9  4  0  0  0
  9 10  4  0  0  0
  3 11  1  0  0  0
  4 12  1  0  0  0
  9 13  1  0  0  0
 10 14  1  0  0  0
M  END
$$$$
