### 
### Created by X-TOOL on Mon Sep 10 21:13:34 2018
### 

@<TRIPOS>MOLECULE
5w1w_ligand
  152   152     1     0     0
SMALL
GAST_HUCK


@<TRIPOS>ATOM
      1 N          83.0450  289.4830   58.2790 N.4       1 VAL         0.2381
      2 CA         83.6590  290.1210   57.1150 C.3       1 VAL         0.0673
      3 C          82.5710  290.6010   56.1470 C.2       1 VAL         0.2270
      4 O          81.5350  289.9450   56.0330 O.2       1 VAL        -0.3907
      5 CB         84.7230  289.2270   56.4050 C.3       1 VAL         0.0139
      6 CG1        85.9340  288.9910   57.2880 C.3       1 VAL        -0.0553
      7 CG2        84.1400  287.9000   55.9480 C.3       1 VAL        -0.0553
      8 N          82.7900  291.7330   55.4600 N.am      1 MET        -0.2610
      9 CA         81.8230  292.2390   54.4790 C.3       1 MET         0.1318
     10 C          81.9170  291.4070   53.1950 C.2       1 MET         0.2039
     11 O          82.8960  290.6720   53.0150 O.2       1 MET        -0.3944
     12 CB         82.0230  293.7450   54.1970 C.3       1 MET        -0.0034
     13 CG         83.3610  294.1050   53.5610 C.3       1 MET        -0.0024
     14 SD         83.3750  295.7600   52.8300 S.3       1 MET        -0.1639
     15 CE         82.4080  295.4990   51.3610 C.3       1 MET        -0.0181
     16 N          80.9090  291.5240   52.3110 N.am      1 ALA        -0.2640
     17 CA         80.8640  290.8060   51.0380 C.3       1 ALA         0.1284
     18 C          82.0480  291.2020   50.1440 C.2       1 ALA         0.2061
     19 O          82.2560  292.3910   49.8940 O.2       1 ALA        -0.3942
     20 CB         79.5460  291.0670   50.3290 C.3       1 ALA        -0.0244
     21 N          82.8650  290.2150   49.7030 N.am      1 PRO        -0.2498
     22 CA         84.0600  290.5360   48.8830 C.3       1 PRO         0.1338
     23 C          83.7730  291.0350   47.4700 C.2       1 PRO         0.2041
     24 O          84.6640  291.5890   46.8250 O.2       1 PRO        -0.3944
     25 CB         84.7980  289.2060   48.8230 C.3       1 PRO        -0.0104
     26 CG         83.6980  288.1770   48.9620 C.3       1 PRO        -0.0281
     27 CD         82.7480  288.7620   49.9470 C.3       1 PRO         0.0369
     28 N          82.5460  290.8000   46.9820 N.am      1 ARG        -0.2637
     29 CA         82.0990  291.1750   45.6540 C.3       1 ARG         0.1311
     30 C          80.7300  291.8710   45.7420 C.2       1 ARG         0.2040
     31 O          79.8620  291.4470   46.5080 O.2       1 ARG        -0.3944
     32 CB         82.0390  289.9260   44.7550 C.3       1 ARG        -0.0092
     33 CG         81.7140  290.2330   43.3060 C.3       1 ARG        -0.0156
     34 CD         81.4140  288.9890   42.5090 C.3       1 ARG         0.0627
     35 NE         82.4580  288.7460   41.5170 N.pl3     1 ARG        -0.2723
     36 CZ         82.3720  289.0960   40.2420 C.cat     1 ARG         0.2882
     37 NH1        81.2680  289.6530   39.7720 N.pl3     1 ARG        -0.2849
     38 NH2        83.3860  288.8590   39.4160 N.pl3     1 ARG        -0.2849
     39 N          80.5600  292.9420   44.9450 N.am      1 THR        -0.2613
     40 CA         79.3440  293.7390   44.8170 C.3       1 THR         0.1565
     41 C          78.7910  293.6150   43.3970 C.2       1 THR         0.2065
     42 O          79.1890  292.7030   42.6700 O.2       1 THR        -0.3943
     43 CB         79.5790  295.1870   45.2880 C.3       1 THR         0.0924
     44 OG1        78.3170  295.8550   45.3430 O.3       1 THR        -0.3874
     45 CG2        80.5900  295.9710   44.4270 C.3       1 THR        -0.0346
     46 N          77.8860  294.5200   42.9970 N.am      1 LEU        -0.2636
     47 CA         77.3020  294.4920   41.6690 C.3       1 LEU         0.1312
     48 C          77.7100  295.6750   40.8260 C.2       1 LEU         0.2039
     49 O          77.7910  296.7950   41.3310 O.2       1 LEU        -0.3944
     50 CB         75.7780  294.4630   41.7660 C.3       1 LEU        -0.0101
     51 CG         75.1360  293.1650   42.1830 C.3       1 LEU        -0.0425
     52 CD1        73.6930  293.3770   42.4710 C.3       1 LEU        -0.0625
     53 CD2        75.2230  292.1620   41.0950 C.3       1 LEU        -0.0625
     54 N          77.9410  295.4200   39.5280 N.am      1 VAL        -0.2635
     55 CA         78.2060  296.4500   38.5300 C.3       1 VAL         0.1332
     56 C          76.8490  296.6290   37.8700 C.2       1 VAL         0.2036
     57 O          76.4630  295.8540   36.9820 O.2       1 VAL        -0.3944
     58 CB         79.3270  296.1080   37.5150 C.3       1 VAL        -0.0063
     59 CG1        79.5020  297.2300   36.4930 C.3       1 VAL        -0.0584
     60 CG2        80.6400  295.8420   38.2350 C.3       1 VAL        -0.0584
     61 N          76.0860  297.5880   38.3950 N.am      1 LEU        -0.2695
     62 CA         74.7460  297.9230   37.9260 C.3       1 LEU         0.0946
     63 C          74.8640  298.7150   36.6160 C.2       1 LEU         0.0601
     64 O          73.8620  298.7630   35.8680 O.co2     1 LEU        -0.5666
     65 CB         73.9940  298.7600   38.9850 C.3       1 LEU        -0.0156
     66 CG         74.2610  298.4580   40.4510 C.3       1 LEU        -0.0431
     67 CD1        74.0870  299.6940   41.2790 C.3       1 LEU        -0.0625
     68 CD2        73.4020  297.3180   40.9450 C.3       1 LEU        -0.0625
     69 OXT        75.9540  299.2890   36.3570 O.co2     1 LEU        -0.5666
     70 H1         82.3708  290.1101   58.6892 H         1 VAL         0.2015
     71 H2         83.7577  289.2652   58.9577 H         1 VAL         0.2015
     72 H3         82.5832  288.6341   57.9923 H         1 VAL         0.2015
     73 H4         84.1900  291.0129   57.4790 H         1 VAL         0.1101
     74 H5         85.0618  289.7684   55.5094 H         1 VAL         0.0376
     75 H6         86.6591  288.3588   56.7545 H         1 VAL         0.0236
     76 H7         85.6200  288.4873   58.2141 H         1 VAL         0.0236
     77 H8         86.4010  289.9557   57.5355 H         1 VAL         0.0236
     78 H9         83.2637  288.0850   55.3094 H         1 VAL         0.0236
     79 H10        83.8360  287.3112   56.8260 H         1 VAL         0.0236
     80 H11        84.8982  287.3433   55.3778 H         1 VAL         0.0236
     81 H12        83.6339  292.2448   55.6208 H         1 MET         0.1884
     82 H13        80.8138  292.1097   54.8971 H         1 MET         0.0800
     83 H14        81.9416  294.2855   55.1516 H         1 MET         0.0320
     84 H15        81.2222  294.0754   53.5191 H         1 MET         0.0320
     85 H16        83.5824  293.3715   52.7717 H         1 MET         0.0378
     86 H17        84.1410  294.0574   54.3351 H         1 MET         0.0378
     87 H18        82.3291  296.4428   50.8015 H         1 MET         0.0340
     88 H19        81.4019  295.1535   51.6409 H         1 MET         0.0340
     89 H20        82.8947  294.7393   50.7317 H         1 MET         0.0340
     90 H21        80.1501  292.1347   52.5369 H         1 ALA         0.1883
     91 H22        80.9364  289.7285   51.2471 H         1 ALA         0.0797
     92 H23        79.5286  290.5204   49.3746 H         1 ALA         0.0277
     93 H24        79.4405  292.1448   50.1362 H         1 ALA         0.0277
     94 H25        78.7146  290.7248   50.9628 H         1 ALA         0.0277
     95 H26        84.6669  291.2948   49.3986 H         1 PRO         0.0802
     96 H27        85.5206  289.1211   49.6480 H         1 PRO         0.0313
     97 H28        85.3225  289.0917   47.8629 H         1 PRO         0.0313
     98 H29        84.1037  287.2248   49.3343 H         1 PRO         0.0287
     99 H30        83.1996  288.0104   47.9957 H         1 PRO         0.0287
    100 H31        81.7218  288.4118   49.7619 H         1 PRO         0.0524
    101 H32        83.0415  288.5095   50.9766 H         1 PRO         0.0524
    102 H33        81.8920  290.3324   47.5767 H         1 ARG         0.1883
    103 H34        82.8226  291.8819   45.2219 H         1 ARG         0.0800
    104 H35        81.2648  289.2513   45.1491 H         1 ARG         0.0313
    105 H36        83.0169  289.4237   44.7926 H         1 ARG         0.0313
    106 H37        82.5751  290.7448   42.8514 H         1 ARG         0.0301
    107 H38        80.8354  290.8940   43.2733 H         1 ARG         0.0301
    108 H39        80.4496  289.1136   41.9948 H         1 ARG         0.0689
    109 H40        81.3572  288.1281   43.1914 H         1 ARG         0.0689
    110 H41        83.3173  288.2715   41.8290 H         1 ARG         0.2642
    111 H42        81.2092  289.9222   38.7795 H         1 ARG         0.2615
    112 H43        80.4672  289.8175   40.3985 H         1 ARG         0.2615
    113 H44        84.2499  288.4257   39.7721 H         1 ARG         0.2615
    114 H45        83.3079  289.1087   38.4198 H         1 ARG         0.2615
    115 H46        81.3422  293.2184   44.3867 H         1 THR         0.1884
    116 H47        78.5908  293.3066   45.4921 H         1 THR         0.0826
    117 H48        79.9889  295.1432   46.3078 H         1 THR         0.0639
    118 H49        78.4463  296.7505   45.6324 H         1 THR         0.2101
    119 H50        80.7005  296.9895   44.8275 H         1 THR         0.0257
    120 H51        80.2265  296.0222   43.3901 H         1 THR         0.0257
    121 H52        81.5641  295.4606   44.4493 H         1 THR         0.0257
    122 H53        77.6045  295.2373   43.6344 H         1 LEU         0.1883
    123 H54        77.6435  293.5752   41.1662 H         1 LEU         0.0800
    124 H55        75.3789  294.7255   40.7751 H         1 LEU         0.0315
    125 H56        75.4789  295.2290   42.4965 H         1 LEU         0.0315
    126 H57        75.6440  292.7835   43.0810 H         1 LEU         0.0298
    127 H58        73.2357  292.4236   42.7740 H         1 LEU         0.0232
    128 H59        73.1904  293.7541   41.5681 H         1 LEU         0.0232
    129 H60        73.5852  294.1101   43.2840 H         1 LEU         0.0232
    130 H61        76.2794  291.9763   40.8512 H         1 LEU         0.0232
    131 H62        74.7023  292.5418   40.2036 H         1 LEU         0.0232
    132 H63        74.7520  291.2236   41.4228 H         1 LEU         0.0232
    133 H64        77.9307  294.4663   39.2275 H         1 VAL         0.1883
    134 H65        78.4977  297.3810   39.0381 H         1 VAL         0.0802
    135 H66        79.0359  295.1938   36.9770 H         1 VAL         0.0343
    136 H67        80.3017  296.9614   35.7870 H         1 VAL         0.0234
    137 H68        79.7698  298.1614   37.0133 H         1 VAL         0.0234
    138 H69        78.5606  297.3750   35.9428 H         1 VAL         0.0234
    139 H70        80.4994  295.0329   38.9669 H         1 VAL         0.0234
    140 H71        80.9642  296.7551   38.7556 H         1 VAL         0.0234
    141 H72        81.4059  295.5455   37.5033 H         1 VAL         0.0234
    142 H73        76.4570  298.1126   39.1613 H         1 LEU         0.1875
    143 H74        74.1853  296.9950   37.7404 H         1 LEU         0.0726
    144 H75        72.9172  298.6165   38.8118 H         1 LEU         0.0308
    145 H76        74.2554  299.8149   38.8150 H         1 LEU         0.0308
    146 H77        75.3107  298.1420   40.5420 H         1 LEU         0.0297
    147 H78        74.2836  299.4583   42.3353 H         1 LEU         0.0232
    148 H79        73.0571  300.0653   41.1717 H         1 LEU         0.0232
    149 H80        74.7925  300.4660   40.9382 H         1 LEU         0.0232
    150 H81        73.5628  296.4353   40.3086 H         1 LEU         0.0232
    151 H82        72.3429  297.6121   40.9032 H         1 LEU         0.0232
    152 H83        73.6748  297.0763   41.9829 H         1 LEU         0.0232
@<TRIPOS>BOND
     1    1    2 1  
     2    2    3 1  
     3    2    5 1  
     4    3    4 2  
     5    3    8 am 
     6    5    6 1  
     7    5    7 1  
     8    8    9 1  
     9    9   10 1  
    10    9   12 1  
    11   10   11 2  
    12   10   16 am 
    13   12   13 1  
    14   13   14 1  
    15   14   15 1  
    16   16   17 1  
    17   17   18 1  
    18   17   20 1  
    19   18   19 2  
    20   18   21 am 
    21   21   22 1  
    22   21   27 1  
    23   22   23 1  
    24   22   25 1  
    25   23   24 2  
    26   23   28 am 
    27   25   26 1  
    28   26   27 1  
    29   28   29 1  
    30   29   30 1  
    31   29   32 1  
    32   30   31 2  
    33   30   39 am 
    34   32   33 1  
    35   33   34 1  
    36   34   35 1  
    37   35   36 ar 
    38   36   37 ar 
    39   36   38 ar 
    40   39   40 1  
    41   40   41 1  
    42   40   43 1  
    43   41   42 2  
    44   41   46 am 
    45   43   44 1  
    46   43   45 1  
    47   46   47 1  
    48   47   48 1  
    49   47   50 1  
    50   48   49 2  
    51   48   54 am 
    52   50   51 1  
    53   51   52 1  
    54   51   53 1  
    55   54   55 1  
    56   55   56 1  
    57   55   58 1  
    58   56   57 2  
    59   56   61 am 
    60   58   59 1  
    61   58   60 1  
    62   61   62 1  
    63   62   63 1  
    64   62   65 1  
    65   63   64 ar 
    66   63   69 ar 
    67   65   66 1  
    68   66   67 1  
    69   66   68 1  
    70    1   70 1  
    71    1   71 1  
    72    1   72 1  
    73    2   73 1  
    74    5   74 1  
    75    6   75 1  
    76    6   76 1  
    77    6   77 1  
    78    7   78 1  
    79    7   79 1  
    80    7   80 1  
    81    8   81 1  
    82    9   82 1  
    83   12   83 1  
    84   12   84 1  
    85   13   85 1  
    86   13   86 1  
    87   15   87 1  
    88   15   88 1  
    89   15   89 1  
    90   16   90 1  
    91   17   91 1  
    92   20   92 1  
    93   20   93 1  
    94   20   94 1  
    95   22   95 1  
    96   25   96 1  
    97   25   97 1  
    98   26   98 1  
    99   26   99 1  
   100   27  100 1  
   101   27  101 1  
   102   28  102 1  
   103   29  103 1  
   104   32  104 1  
   105   32  105 1  
   106   33  106 1  
   107   33  107 1  
   108   34  108 1  
   109   34  109 1  
   110   35  110 1  
   111   37  111 1  
   112   37  112 1  
   113   38  113 1  
   114   38  114 1  
   115   39  115 1  
   116   40  116 1  
   117   43  117 1  
   118   44  118 1  
   119   45  119 1  
   120   45  120 1  
   121   45  121 1  
   122   46  122 1  
   123   47  123 1  
   124   50  124 1  
   125   50  125 1  
   126   51  126 1  
   127   52  127 1  
   128   52  128 1  
   129   52  129 1  
   130   53  130 1  
   131   53  131 1  
   132   53  132 1  
   133   54  133 1  
   134   55  134 1  
   135   58  135 1  
   136   59  136 1  
   137   59  137 1  
   138   59  138 1  
   139   60  139 1  
   140   60  140 1  
   141   60  141 1  
   142   61  142 1  
   143   62  143 1  
   144   65  144 1  
   145   65  145 1  
   146   66  146 1  
   147   67  147 1  
   148   67  148 1  
   149   67  149 1  
   150   68  150 1  
   151   68  151 1  
   152   68  152 1  
@<TRIPOS>SUBSTRUCTURE
     1 VAL         1

