5w1w_ligand
  -I-interpret- 

152152  0  0  0  0  0  0  0  0999 V2000
   83.0450  289.4830   58.2790 N   0  3  0  0  0
   83.6590  290.1210   57.1150 C   0  0  0  0  0
   82.5710  290.6010   56.1470 C   0  0  0  0  0
   81.5350  289.9450   56.0330 O   0  0  0  0  0
   84.7230  289.2270   56.4050 C   0  0  0  0  0
   85.9340  288.9910   57.2880 C   0  0  0  0  0
   84.1400  287.9000   55.9480 C   0  0  0  0  0
   82.7900  291.7330   55.4600 N   0  0  0  0  0
   81.8230  292.2390   54.4790 C   0  0  0  0  0
   81.9170  291.4070   53.1950 C   0  0  0  0  0
   82.8960  290.6720   53.0150 O   0  0  0  0  0
   82.0230  293.7450   54.1970 C   0  0  0  0  0
   83.3610  294.1050   53.5610 C   0  0  0  0  0
   83.3750  295.7600   52.8300 S   0  0  0  0  0
   82.4080  295.4990   51.3610 C   0  0  0  0  0
   80.9090  291.5240   52.3110 N   0  0  0  0  0
   80.8640  290.8060   51.0380 C   0  0  0  0  0
   82.0480  291.2020   50.1440 C   0  0  0  0  0
   82.2560  292.3910   49.8940 O   0  0  0  0  0
   79.5460  291.0670   50.3290 C   0  0  0  0  0
   82.8650  290.2150   49.7030 N   0  0  0  0  0
   84.0600  290.5360   48.8830 C   0  0  0  0  0
   83.7730  291.0350   47.4700 C   0  0  0  0  0
   84.6640  291.5890   46.8250 O   0  0  0  0  0
   84.7980  289.2060   48.8230 C   0  0  0  0  0
   83.6980  288.1770   48.9620 C   0  0  0  0  0
   82.7480  288.7620   49.9470 C   0  0  0  0  0
   82.5460  290.8000   46.9820 N   0  0  0  0  0
   82.0990  291.1750   45.6540 C   0  0  0  0  0
   80.7300  291.8710   45.7420 C   0  0  0  0  0
   79.8620  291.4470   46.5080 O   0  0  0  0  0
   82.0390  289.9260   44.7550 C   0  0  0  0  0
   81.7140  290.2330   43.3060 C   0  0  0  0  0
   81.4140  288.9890   42.5090 C   0  0  0  0  0
   82.4580  288.7460   41.5170 N   0  0  0  0  0
   82.3720  289.0960   40.2420 C   0  0  0  0  0
   81.2680  289.6530   39.7720 N   0  0  0  0  0
   83.3860  288.8590   39.4160 N   0  0  0  0  0
   80.5600  292.9420   44.9450 N   0  0  0  0  0
   79.3440  293.7390   44.8170 C   0  0  0  0  0
   78.7910  293.6150   43.3970 C   0  0  0  0  0
   79.1890  292.7030   42.6700 O   0  0  0  0  0
   79.5790  295.1870   45.2880 C   0  0  0  0  0
   78.3170  295.8550   45.3430 O   0  0  0  0  0
   80.5900  295.9710   44.4270 C   0  0  0  0  0
   77.8860  294.5200   42.9970 N   0  0  0  0  0
   77.3020  294.4920   41.6690 C   0  0  0  0  0
   77.7100  295.6750   40.8260 C   0  0  0  0  0
   77.7910  296.7950   41.3310 O   0  0  0  0  0
   75.7780  294.4630   41.7660 C   0  0  0  0  0
   75.1360  293.1650   42.1830 C   0  0  0  0  0
   73.6930  293.3770   42.4710 C   0  0  0  0  0
   75.2230  292.1620   41.0950 C   0  0  0  0  0
   77.9410  295.4200   39.5280 N   0  0  0  0  0
   78.2060  296.4500   38.5300 C   0  0  0  0  0
   76.8490  296.6290   37.8700 C   0  0  0  0  0
   76.4630  295.8540   36.9820 O   0  0  0  0  0
   79.3270  296.1080   37.5150 C   0  0  0  0  0
   79.5020  297.2300   36.4930 C   0  0  0  0  0
   80.6400  295.8420   38.2350 C   0  0  0  0  0
   76.0860  297.5880   38.3950 N   0  0  0  0  0
   74.7460  297.9230   37.9260 C   0  0  0  0  0
   74.8640  298.7150   36.6160 C   0  0  0  0  0
   73.8620  298.7630   35.8680 O   0  0  0  0  0
   73.9940  298.7600   38.9850 C   0  0  0  0  0
   74.2610  298.4580   40.4510 C   0  0  0  0  0
   74.0870  299.6940   41.2790 C   0  0  0  0  0
   73.4020  297.3180   40.9450 C   0  0  0  0  0
   75.9540  299.2890   36.3570 O   0  0  0  0  0
   82.3631  290.1184   58.6932 H   0  0  0  0  0
   82.5781  288.6242   57.9877 H   0  0  0  0  0
   83.7671  289.2630   58.9650 H   0  0  0  0  0
   84.2153  290.9861   57.4759 H   0  0  0  0  0
   85.0444  289.7753   55.5195 H   0  0  0  0  0
   85.6373  288.4111   58.1619 H   0  0  0  0  0
   86.6904  288.4429   56.7263 H   0  0  0  0  0
   86.3412  289.9501   57.6079 H   0  0  0  0  0
   84.8923  287.3494   55.3832 H   0  0  0  0  0
   83.8392  287.3176   56.8189 H   0  0  0  0  0
   83.2718  288.0847   55.3153 H   0  0  0  0  0
   83.6508  292.2551   55.6240 H   0  0  0  0  0
   80.8203  292.1363   54.8940 H   0  0  0  0  0
   81.9831  294.2549   55.1595 H   0  0  0  0  0
   81.2474  294.0401   53.4902 H   0  0  0  0  0
   83.5524  293.3881   52.7626 H   0  0  0  0  0
   84.1178  294.0823   54.3451 H   0  0  0  0  0
   82.8913  294.7461   50.7384 H   0  0  0  0  0
   81.4114  295.1567   51.6397 H   0  0  0  0  0
   82.3306  296.4348   50.8075 H   0  0  0  0  0
   80.1349  292.1470   52.5414 H   0  0  0  0  0
   80.9402  289.7385   51.2447 H   0  0  0  0  0
   78.7231  290.7275   50.9580 H   0  0  0  0  0
   79.4427  292.1352   50.1386 H   0  0  0  0  0
   79.5299  290.5249   49.3835 H   0  0  0  0  0
   84.6110  291.3630   49.3308 H   0  0  0  0  0
   85.5531  289.1146   49.6037 H   0  0  0  0  0
   85.3640  289.0865   47.8991 H   0  0  0  0  0
   84.0846  287.2140   49.2955 H   0  0  0  0  0
   83.2145  287.9701   48.0073 H   0  0  0  0  0
   81.7298  288.3940   49.8204 H   0  0  0  0  0
   82.9841  288.4869   50.9749 H   0  0  0  0  0
   81.8789  290.3231   47.5886 H   0  0  0  0  0
   82.8054  291.8772   45.2113 H   0  0  0  0  0
   81.2444  289.2861   45.1387 H   0  0  0  0  0
   83.0247  289.4613   44.7765 H   0  0  0  0  0
   82.5828  290.7178   42.8607 H   0  0  0  0  0
   80.8285  290.8683   43.2860 H   0  0  0  0  0
   80.4628  289.1220   41.9936 H   0  0  0  0  0
   81.3691  288.1379   43.1885 H   0  0  0  0  0
   83.3090  288.2761   41.8259 H   0  0  0  0  0
   80.4750  289.8159   40.3924 H   0  0  0  0  0
   83.3086  289.1062   38.4294 H   0  0  0  0  0
   84.2415  288.4299   39.7687 H   0  0  0  0  0
   81.3579  293.2239   44.3755 H   0  0  0  0  0
   78.5708  293.3516   45.4804 H   0  0  0  0  0
   80.0345  295.1438   46.2773 H   0  0  0  0  0
   78.4477  296.7600   45.6355 H   0  0  0  0  0
   81.5548  295.4642   44.4499 H   0  0  0  0  0
   80.2287  296.0210   43.3998 H   0  0  0  0  0
   80.6986  296.9800   44.8248 H   0  0  0  0  0
   77.5989  295.2516   43.6472 H   0  0  0  0  0
   77.6759  293.5894   41.1857 H   0  0  0  0  0
   75.4146  294.6611   40.7576 H   0  0  0  0  0
   75.5182  295.1831   42.5420 H   0  0  0  0  0
   75.6628  292.8101   43.0688 H   0  0  0  0  0
   73.5875  294.1036   43.2766 H   0  0  0  0  0
   73.1962  293.7507   41.5757 H   0  0  0  0  0
   73.2410  292.4316   42.7711 H   0  0  0  0  0
   74.7096  292.5410   40.2113 H   0  0  0  0  0
   76.2703  291.9763   40.8566 H   0  0  0  0  0
   74.7529  291.2338   41.4198 H   0  0  0  0  0
   77.9305  294.4472   39.2215 H   0  0  0  0  0
   78.6010  297.3586   38.9845 H   0  0  0  0  0
   79.0316  295.2038   36.9828 H   0  0  0  0  0
   78.5686  297.3726   35.9485 H   0  0  0  0  0
   79.7673  298.1523   37.0098 H   0  0  0  0  0
   80.2946  296.9627   35.7941 H   0  0  0  0  0
   80.9310  296.7295   38.7970 H   0  0  0  0  0
   80.5144  295.0024   38.9187 H   0  0  0  0  0
   81.4123  295.6041   37.5035 H   0  0  0  0  0
   76.4644  298.1230   39.1766 H   0  0  0  0  0
   74.1823  297.0058   37.7558 H   0  0  0  0  0
   72.9374  298.5406   38.8314 H   0  0  0  0  0
   74.3287  299.7864   38.8347 H   0  0  0  0  0
   75.2968  298.1341   40.5526 H   0  0  0  0  0
   74.7866  300.4582   40.9403 H   0  0  0  0  0
   73.0662  300.0609   41.1718 H   0  0  0  0  0
   74.2820  299.4592   42.3254 H   0  0  0  0  0
   72.3504  297.5816   40.8317 H   0  0  0  0  0
   73.6183  296.4227   40.3621 H   0  0  0  0  0
   73.6196  297.1299   41.9964 H   0  0  0  0  0
   76.5800  299.1188   37.0646 H   0  0  0  0  0
  1  2  1  0  0  0
  2  3  1  0  0  0
  2  5  1  0  0  0
  3  4  2  0  0  0
  3  8  1  0  0  0
  5  6  1  0  0  0
  5  7  1  0  0  0
  8  9  1  0  0  0
  9 10  1  0  0  0
  9 12  1  0  0  0
 10 11  2  0  0  0
 10 16  1  0  0  0
 12 13  1  0  0  0
 13 14  1  0  0  0
 14 15  1  0  0  0
 16 17  1  0  0  0
 17 18  1  0  0  0
 17 20  1  0  0  0
 18 19  2  0  0  0
 18 21  1  0  0  0
 21 22  1  0  0  0
 21 27  1  0  0  0
 22 23  1  0  0  0
 22 25  1  0  0  0
 23 24  2  0  0  0
 23 28  1  0  0  0
 25 26  1  0  0  0
 26 27  1  0  0  0
 28 29  1  0  0  0
 29 30  1  0  0  0
 29 32  1  0  0  0
 30 31  2  0  0  0
 30 39  1  0  0  0
 32 33  1  0  0  0
 33 34  1  0  0  0
 34 35  1  0  0  0
 35 36  1  0  0  0
 36 37  2  0  0  0
 36 38  1  0  0  0
 39 40  1  0  0  0
 40 41  1  0  0  0
 40 43  1  0  0  0
 41 42  2  0  0  0
 41 46  1  0  0  0
 43 44  1  0  0  0
 43 45  1  0  0  0
 46 47  1  0  0  0
 47 48  1  0  0  0
 47 50  1  0  0  0
 48 49  2  0  0  0
 48 54  1  0  0  0
 50 51  1  0  0  0
 51 52  1  0  0  0
 51 53  1  0  0  0
 54 55  1  0  0  0
 55 56  1  0  0  0
 55 58  1  0  0  0
 56 57  2  0  0  0
 56 61  1  0  0  0
 58 59  1  0  0  0
 58 60  1  0  0  0
 61 62  1  0  0  0
 62 63  1  0  0  0
 62 65  1  0  0  0
 63 64  2  0  0  0
 63 69  1  0  0  0
 65 66  1  0  0  0
 66 67  1  0  0  0
 66 68  1  0  0  0
  1 70  1  0  0  0
  1 71  1  0  0  0
  1 72  1  0  0  0
  2 73  1  0  0  0
  5 74  1  0  0  0
  6 75  1  0  0  0
  6 76  1  0  0  0
  6 77  1  0  0  0
  7 78  1  0  0  0
  7 79  1  0  0  0
  7 80  1  0  0  0
  8 81  1  0  0  0
  9 82  1  0  0  0
 12 83  1  0  0  0
 12 84  1  0  0  0
 13 85  1  0  0  0
 13 86  1  0  0  0
 15 87  1  0  0  0
 15 88  1  0  0  0
 15 89  1  0  0  0
 16 90  1  0  0  0
 17 91  1  0  0  0
 20 92  1  0  0  0
 20 93  1  0  0  0
 20 94  1  0  0  0
 22 95  1  0  0  0
 25 96  1  0  0  0
 25 97  1  0  0  0
 26 98  1  0  0  0
 26 99  1  0  0  0
 27100  1  0  0  0
 27101  1  0  0  0
 28102  1  0  0  0
 29103  1  0  0  0
 32104  1  0  0  0
 32105  1  0  0  0
 33106  1  0  0  0
 33107  1  0  0  0
 34108  1  0  0  0
 34109  1  0  0  0
 35110  1  0  0  0
 37111  1  0  0  0
 38112  1  0  0  0
 38113  1  0  0  0
 39114  1  0  0  0
 40115  1  0  0  0
 43116  1  0  0  0
 44117  1  0  0  0
 45118  1  0  0  0
 45119  1  0  0  0
 45120  1  0  0  0
 46121  1  0  0  0
 47122  1  0  0  0
 50123  1  0  0  0
 50124  1  0  0  0
 51125  1  0  0  0
 52126  1  0  0  0
 52127  1  0  0  0
 52128  1  0  0  0
 53129  1  0  0  0
 53130  1  0  0  0
 53131  1  0  0  0
 54132  1  0  0  0
 55133  1  0  0  0
 58134  1  0  0  0
 59135  1  0  0  0
 59136  1  0  0  0
 59137  1  0  0  0
 60138  1  0  0  0
 60139  1  0  0  0
 60140  1  0  0  0
 61141  1  0  0  0
 62142  1  0  0  0
 65143  1  0  0  0
 65144  1  0  0  0
 66145  1  0  0  0
 67146  1  0  0  0
 67147  1  0  0  0
 67148  1  0  0  0
 68149  1  0  0  0
 68150  1  0  0  0
 68151  1  0  0  0
 69152  1  0  0  0
M  END
$$$$
