### 
### Created by X-TOOL on Tue Oct 16 15:17:21 2018
### 

@<TRIPOS>MOLECULE
1d8e_ligand
  102   101     1     0     0
SMALL
GAST_HUCK


@<TRIPOS>ATOM
      1 N         101.9500    9.4430   30.1090 N.4       1 THR         0.2398
      2 CA        101.9350   10.9180   29.8870 C.3       1 THR         0.0910
      3 C         101.3550   11.6070   31.1120 C.2       1 THR         0.2293
      4 O         100.4600   11.0650   31.7720 O.2       1 THR        -0.3906
      5 CB        101.0760   11.3100   28.6590 C.3       1 THR         0.1120
      6 OG1       100.3190   10.1720   28.2170 O.3       1 THR        -0.3840
      7 CG2       101.9620   11.8380   27.5250 C.3       1 THR        -0.0314
      8 N         101.8260   12.8240   31.3660 N.am      1 THR        -0.2609
      9 CA        101.3990   13.6090   32.5190 C.3       1 THR         0.1311
     10 C         100.8570   14.9670   32.0930 C.2       1 THR         0.2039
     11 O         100.8430   15.2810   30.9010 O.2       1 THR        -0.3944
     12 CB        102.6010   13.8120   33.4460 C.3       1 THR        -0.0122
     13 CG        103.9050   14.1690   32.7100 C.3       1 THR        -0.0440
     14 CD        105.0590   14.5130   33.6690 C.3       1 THR        -0.0124
     15 CE        104.7920   15.8240   34.4400 C.3       1 THR        -0.0354
     16 NZ        105.9020   16.2430   35.3540 N.4       1 THR         0.2185
     17 N         100.3580   15.7440   33.0540 N.am      1 THR        -0.2629
     18 CA         99.8610   17.0900   32.7620 C.3       1 THR         0.1396
     19 C         100.8070   18.1140   33.3840 C.2       1 THR         0.2047
     20 O         100.6850   18.4420   34.5600 O.2       1 THR        -0.3944
     21 CB         98.4650   17.3300   33.3180 C.3       1 THR         0.0311
     22 SG         98.1140   19.1060   33.2740 S.3       1 THR        -0.1735
     23 N         101.6880   18.6840   32.5750 N.am      1 THR        -0.2634
     24 CA        102.6800   19.6300   33.0750 C.3       1 THR         0.1332
     25 C         102.2120   20.9790   33.6250 C.2       1 THR         0.2042
     26 O         103.0460   21.8140   33.9910 O.2       1 THR        -0.3944
     27 CB        103.7450   19.9170   32.0090 C.3       1 THR        -0.0063
     28 CG1       104.3870   18.6110   31.5310 C.3       1 THR        -0.0584
     29 CG2       103.1250   20.6970   30.8620 C.3       1 THR        -0.0584
     30 N         100.9110   21.2180   33.7010 N.am      1 THR        -0.2635
     31 CA        100.5070   22.5180   34.2020 C.3       1 THR         0.1335
     32 C          99.8360   22.5590   35.5680 C.2       1 THR         0.2036
     33 O          99.3900   23.6140   36.0100 O.2       1 THR        -0.3944
     34 CB         99.7030   23.3000   33.1540 C.3       1 THR        -0.0037
     35 CG1        98.4000   22.5720   32.8190 C.3       1 THR        -0.0491
     36 CG2       100.5680   23.5080   31.9140 C.3       1 THR        -0.0582
     37 CD1        97.4300   23.3970   32.0000 C.3       1 THR        -0.0648
     38 N          99.8150   21.4270   36.2620 N.am      1 THR        -0.2694
     39 CA         99.2220   21.3640   37.5880 C.3       1 THR         0.0951
     40 C          99.6110   20.0930   38.3130 C.2       1 THR         0.0601
     41 O         100.6190   19.4750   37.9210 O.co2     1 THR        -0.5666
     42 CB         97.7050   21.4650   37.5160 C.3       1 THR        -0.0089
     43 CG         97.0300   20.3480   36.7630 C.3       1 THR        -0.0030
     44 SD         95.4610   19.9390   37.5480 S.3       1 THR        -0.1639
     45 CE         96.0420   18.4160   38.5020 C.3       1 THR        -0.0181
     46 OXT        98.9050   19.7320   39.2740 O.co2     1 THR        -0.5666
     47 H1        102.5177    9.2302   30.9143 H         1 THR         0.2016
     48 H2        102.3334    8.9849   29.2971 H         1 THR         0.2016
     49 H3        101.0091    9.1172   30.2657 H         1 THR         0.2016
     50 H4        102.9673   11.2621   29.7262 H         1 THR         0.1125
     51 H5        100.3773   12.1058   28.9565 H         1 THR         0.0674
     52 H6         99.7935   10.4157   27.4641 H         1 THR         0.2102
     53 H7        101.3330   12.1100   26.6646 H         1 THR         0.0258
     54 H8        102.6768   11.0578   27.2245 H         1 THR         0.0258
     55 H9        102.5120   12.7252   27.8721 H         1 THR         0.0258
     56 H10       102.5005   13.2173   30.7412 H         1 THR         0.1884
     57 H11       100.6101   13.0612   33.0553 H         1 THR         0.0800
     58 H12       102.7650   12.8813   34.0088 H         1 THR         0.0312
     59 H13       102.3645   14.6270   34.1459 H         1 THR         0.0312
     60 H14       103.7160   15.0378   32.0624 H         1 THR         0.0269
     61 H15       104.2061   13.3099   32.0925 H         1 THR         0.0269
     62 H16       105.9851   14.6250   33.0861 H         1 THR         0.0317
     63 H17       105.1778   13.6926   34.3920 H         1 THR         0.0317
     64 H18       103.8824   15.6887   35.0435 H         1 THR         0.0813
     65 H19       104.6292   16.6272   33.7063 H         1 THR         0.0813
     66 H20       105.6501   17.1025   35.8165 H         1 THR         0.1994
     67 H21       106.7437   16.3843   34.8177 H         1 THR         0.1994
     68 H22       106.0593   15.5243   36.0430 H         1 THR         0.1994
     69 H23       100.3223   15.4011   33.9927 H         1 THR         0.1884
     70 H24        99.8364   17.2273   31.6709 H         1 THR         0.0808
     71 H25        98.4137   16.9690   34.3558 H         1 THR         0.0422
     72 H26        97.7261   16.7923   32.7058 H         1 THR         0.0422
     73 H27        98.7937   19.5956   33.8347 H         1 THR         0.1019
     74 H28       101.6727   18.4609   31.6003 H         1 THR         0.1883
     75 H29       103.1754   19.1167   33.9123 H         1 THR         0.0802
     76 H30       104.5322   20.5385   32.4608 H         1 THR         0.0343
     77 H31       105.1473   18.8340   30.7680 H         1 THR         0.0234
     78 H32       103.6137   17.9591   31.0985 H         1 THR         0.0234
     79 H33       104.8611   18.1021   32.3832 H         1 THR         0.0234
     80 H34       102.6771   21.6242   31.2490 H         1 THR         0.0234
     81 H35       102.3463   20.0862   30.3819 H         1 THR         0.0234
     82 H36       103.9027   20.9454   30.1248 H         1 THR         0.0234
     83 H37       100.2373   20.5324   33.4251 H         1 THR         0.1883
     84 H38       101.4477   23.0724   34.3349 H         1 THR         0.0803
     85 H39        99.4476   24.2858   33.5699 H         1 THR         0.0345
     86 H40        97.9070   22.2926   33.7618 H         1 THR         0.0267
     87 H41        98.6472   21.6630   32.2510 H         1 THR         0.0267
     88 H42       101.4927   24.0329   32.1958 H         1 THR         0.0235
     89 H43       100.0148   24.1095   31.1777 H         1 THR         0.0235
     90 H44       100.8201   22.5315   31.4747 H         1 THR         0.0235
     91 H45        96.5232   22.8068   31.8017 H         1 THR         0.0230
     92 H46        97.9011   23.6770   31.0462 H         1 THR         0.0230
     93 H47        97.1609   24.3065   32.5570 H         1 THR         0.0230
     94 H48       100.2151   20.6012   35.8646 H         1 THR         0.1875
     95 H49        99.5983   22.2197   38.1678 H         1 THR         0.0726
     96 H50        97.4487   22.4138   37.0220 H         1 THR         0.0313
     97 H51        97.3136   21.4694   38.5440 H         1 THR         0.0313
     98 H52        97.6809   19.4613   36.7653 H         1 THR         0.0378
     99 H53        96.8469   20.6658   35.7260 H         1 THR         0.0378
    100 H54        95.1996   17.9969   39.0718 H         1 THR         0.0340
    101 H55        96.8469   18.7023   39.1949 H         1 THR         0.0340
    102 H56        96.4178   17.6617   37.7950 H         1 THR         0.0340
@<TRIPOS>BOND
     1    1    2 1  
     2    2    3 1  
     3    2    5 1  
     4    3    4 2  
     5    3    8 am 
     6    5    6 1  
     7    5    7 1  
     8    8    9 1  
     9    9   10 1  
    10    9   12 1  
    11   10   11 2  
    12   10   17 am 
    13   12   13 1  
    14   13   14 1  
    15   14   15 1  
    16   15   16 1  
    17   17   18 1  
    18   18   19 1  
    19   18   21 1  
    20   19   20 2  
    21   19   23 am 
    22   21   22 1  
    23   23   24 1  
    24   24   25 1  
    25   24   27 1  
    26   25   26 2  
    27   25   30 am 
    28   27   28 1  
    29   27   29 1  
    30   30   31 1  
    31   31   32 1  
    32   31   34 1  
    33   32   33 2  
    34   32   38 am 
    35   34   35 1  
    36   34   36 1  
    37   35   37 1  
    38   38   39 1  
    39   39   40 1  
    40   39   42 1  
    41   40   41 ar 
    42   40   46 ar 
    43   42   43 1  
    44   43   44 1  
    45   44   45 1  
    46    1   47 1  
    47    1   48 1  
    48    1   49 1  
    49    2   50 1  
    50    5   51 1  
    51    6   52 1  
    52    7   53 1  
    53    7   54 1  
    54    7   55 1  
    55    8   56 1  
    56    9   57 1  
    57   12   58 1  
    58   12   59 1  
    59   13   60 1  
    60   13   61 1  
    61   14   62 1  
    62   14   63 1  
    63   15   64 1  
    64   15   65 1  
    65   16   66 1  
    66   16   67 1  
    67   16   68 1  
    68   17   69 1  
    69   18   70 1  
    70   21   71 1  
    71   21   72 1  
    72   22   73 1  
    73   23   74 1  
    74   24   75 1  
    75   27   76 1  
    76   28   77 1  
    77   28   78 1  
    78   28   79 1  
    79   29   80 1  
    80   29   81 1  
    81   29   82 1  
    82   30   83 1  
    83   31   84 1  
    84   34   85 1  
    85   35   86 1  
    86   35   87 1  
    87   36   88 1  
    88   36   89 1  
    89   36   90 1  
    90   37   91 1  
    91   37   92 1  
    92   37   93 1  
    93   38   94 1  
    94   39   95 1  
    95   42   96 1  
    96   42   97 1  
    97   43   98 1  
    98   43   99 1  
    99   45  100 1  
   100   45  101 1  
   101   45  102 1  
@<TRIPOS>SUBSTRUCTURE
     1 THR         1

