1d8e_ligand
  -I-interpret- 

103102  0  0  0  0  0  0  0  0999 V2000
  101.9500    9.4430   30.1090 N   0  3  0  0  0
  101.9350   10.9180   29.8870 C   0  0  0  0  0
  101.3550   11.6070   31.1120 C   0  0  0  0  0
  100.4600   11.0650   31.7720 O   0  0  0  0  0
  101.0760   11.3100   28.6590 C   0  0  0  0  0
  100.3190   10.1720   28.2170 O   0  0  0  0  0
  101.9620   11.8380   27.5250 C   0  0  0  0  0
  101.8260   12.8240   31.3660 N   0  0  0  0  0
  101.3990   13.6090   32.5190 C   0  0  0  0  0
  100.8570   14.9670   32.0930 C   0  0  0  0  0
  100.8430   15.2810   30.9010 O   0  0  0  0  0
  102.6010   13.8120   33.4460 C   0  0  0  0  0
  103.9050   14.1690   32.7100 C   0  0  0  0  0
  105.0590   14.5130   33.6690 C   0  0  0  0  0
  104.7920   15.8240   34.4400 C   0  0  0  0  0
  105.9020   16.2430   35.3540 N   0  3  0  0  0
  100.3580   15.7440   33.0540 N   0  0  0  0  0
   99.8610   17.0900   32.7620 C   0  0  0  0  0
  100.8070   18.1140   33.3840 C   0  0  0  0  0
  100.6850   18.4420   34.5600 O   0  0  0  0  0
   98.4650   17.3300   33.3180 C   0  0  0  0  0
   98.1140   19.1060   33.2740 S   0  0  0  0  0
  101.6880   18.6840   32.5750 N   0  0  0  0  0
  102.6800   19.6300   33.0750 C   0  0  0  0  0
  102.2120   20.9790   33.6250 C   0  0  0  0  0
  103.0460   21.8140   33.9910 O   0  0  0  0  0
  103.7450   19.9170   32.0090 C   0  0  0  0  0
  104.3870   18.6110   31.5310 C   0  0  0  0  0
  103.1250   20.6970   30.8620 C   0  0  0  0  0
  100.9110   21.2180   33.7010 N   0  0  0  0  0
  100.5070   22.5180   34.2020 C   0  0  0  0  0
   99.8360   22.5590   35.5680 C   0  0  0  0  0
   99.3900   23.6140   36.0100 O   0  0  0  0  0
   99.7030   23.3000   33.1540 C   0  0  0  0  0
   98.4000   22.5720   32.8190 C   0  0  0  0  0
  100.5680   23.5080   31.9140 C   0  0  0  0  0
   97.4300   23.3970   32.0000 C   0  0  0  0  0
   99.8150   21.4270   36.2620 N   0  0  0  0  0
   99.2220   21.3640   37.5880 C   0  0  0  0  0
   99.6110   20.0930   38.3130 C   0  0  0  0  0
  100.6190   19.4750   37.9210 O   0  0  0  0  0
   97.7050   21.4650   37.5160 C   0  0  0  0  0
   97.0300   20.3480   36.7630 C   0  0  0  0  0
   95.4610   19.9390   37.5480 S   0  0  0  0  0
   96.0420   18.4160   38.5020 C   0  0  0  0  0
   98.9050   19.7320   39.2740 O   0  0  0  0  0
  102.5247    9.2289   30.9240 H   0  0  0  0  0
  100.9974    9.1145   30.2674 H   0  0  0  0  0
  102.3381    8.9806   29.2868 H   0  0  0  0  0
  102.9633   11.2318   29.7074 H   0  0  0  0  0
  100.3889   12.1052   28.9480 H   0  0  0  0  0
   99.7705    9.8543   28.9380 H   0  0  0  0  0
  102.6508   11.0546   27.2090 H   0  0  0  0  0
  101.3353   12.1337   26.6836 H   0  0  0  0  0
  102.5277   12.6999   27.8789 H   0  0  0  0  0
  102.5140   13.2252   30.7287 H   0  0  0  0  0
  100.6016   13.0719   33.0326 H   0  0  0  0  0
  102.7709   12.8696   33.9667 H   0  0  0  0  0
  102.3633   14.6461   34.1062 H   0  0  0  0  0
  103.7103   15.0474   32.0947 H   0  0  0  0  0
  104.2059   13.2998   32.1251 H   0  0  0  0  0
  105.9674   14.6406   33.0803 H   0  0  0  0  0
  105.1562   13.7036   34.3925 H   0  0  0  0  0
  103.9128   15.6554   35.0618 H   0  0  0  0  0
  104.6749   16.6131   33.6972 H   0  0  0  0  0
  105.6460   17.1127   35.8214 H   0  0  0  0  0
  106.0603   15.5150   36.0507 H   0  0  0  0  0
  106.7531   16.3856   34.8102 H   0  0  0  0  0
  100.3216   15.3942   34.0115 H   0  0  0  0  0
   99.8145   17.1912   31.6777 H   0  0  0  0  0
   98.4101   16.9687   34.3449 H   0  0  0  0  0
   97.7312   16.7942   32.7158 H   0  0  0  0  0
   96.8952   19.3276   33.7581 H   0  0  0  0  0
  101.6724   18.4565   31.5808 H   0  0  0  0  0
  103.0540   19.0906   33.9452 H   0  0  0  0  0
  104.5379   20.5278   32.4407 H   0  0  0  0  0
  104.8563   18.1077   32.3763 H   0  0  0  0  0
  103.6198   17.9660   31.1027 H   0  0  0  0  0
  105.1401   18.8333   30.7750 H   0  0  0  0  0
  102.3191   20.1113   30.4197 H   0  0  0  0  0
  102.7268   21.6392   31.2384 H   0  0  0  0  0
  103.8859   20.8981   30.1079 H   0  0  0  0  0
  100.2238   20.5187   33.4196 H   0  0  0  0  0
  101.4588   23.0172   34.3836 H   0  0  0  0  0
   99.4286   24.2758   33.5548 H   0  0  0  0  0
   97.9085   22.3358   33.7628 H   0  0  0  0  0
   98.6614   21.6955   32.2261 H   0  0  0  0  0
  101.4614   24.0701   32.1859 H   0  0  0  0  0
  100.8567   22.5388   31.5072 H   0  0  0  0  0
  100.0015   24.0631   31.1663 H   0  0  0  0  0
   97.1642   24.2979   32.5530 H   0  0  0  0  0
   97.8980   23.6738   31.0553 H   0  0  0  0  0
   96.5319   22.8111   31.8042 H   0  0  0  0  0
  100.2231   20.5847   35.8566 H   0  0  0  0  0
   99.6090   22.2151   38.1483 H   0  0  0  0  0
   97.4751   22.3882   36.9841 H   0  0  0  0  0
   97.3369   21.4222   38.5411 H   0  0  0  0  0
   97.6749   19.4692   36.7695 H   0  0  0  0  0
   96.8462   20.6662   35.7368 H   0  0  0  0  0
   96.4141   17.6695   37.8004 H   0  0  0  0  0
   96.8395   18.7010   39.1881 H   0  0  0  0  0
   95.2065   18.0016   39.0661 H   0  0  0  0  0
   98.1863   20.3570   39.3941 H   0  0  0  0  0
  1  2  1  0  0  0
  2  3  1  0  0  0
  2  5  1  0  0  0
  3  4  2  0  0  0
  3  8  1  0  0  0
  5  6  1  0  0  0
  5  7  1  0  0  0
  8  9  1  0  0  0
  9 10  1  0  0  0
  9 12  1  0  0  0
 10 11  2  0  0  0
 10 17  1  0  0  0
 12 13  1  0  0  0
 13 14  1  0  0  0
 14 15  1  0  0  0
 15 16  1  0  0  0
 17 18  1  0  0  0
 18 19  1  0  0  0
 18 21  1  0  0  0
 19 20  2  0  0  0
 19 23  1  0  0  0
 21 22  1  0  0  0
 23 24  1  0  0  0
 24 25  1  0  0  0
 24 27  1  0  0  0
 25 26  2  0  0  0
 25 30  1  0  0  0
 27 28  1  0  0  0
 27 29  1  0  0  0
 30 31  1  0  0  0
 31 32  1  0  0  0
 31 34  1  0  0  0
 32 33  2  0  0  0
 32 38  1  0  0  0
 34 35  1  0  0  0
 34 36  1  0  0  0
 35 37  1  0  0  0
 38 39  1  0  0  0
 39 40  1  0  0  0
 39 42  1  0  0  0
 40 41  2  0  0  0
 40 46  1  0  0  0
 42 43  1  0  0  0
 43 44  1  0  0  0
 44 45  1  0  0  0
  1 47  1  0  0  0
  1 48  1  0  0  0
  1 49  1  0  0  0
  2 50  1  0  0  0
  5 51  1  0  0  0
  6 52  1  0  0  0
  7 53  1  0  0  0
  7 54  1  0  0  0
  7 55  1  0  0  0
  8 56  1  0  0  0
  9 57  1  0  0  0
 12 58  1  0  0  0
 12 59  1  0  0  0
 13 60  1  0  0  0
 13 61  1  0  0  0
 14 62  1  0  0  0
 14 63  1  0  0  0
 15 64  1  0  0  0
 15 65  1  0  0  0
 16 66  1  0  0  0
 16 67  1  0  0  0
 16 68  1  0  0  0
 17 69  1  0  0  0
 18 70  1  0  0  0
 21 71  1  0  0  0
 21 72  1  0  0  0
 22 73  1  0  0  0
 23 74  1  0  0  0
 24 75  1  0  0  0
 27 76  1  0  0  0
 28 77  1  0  0  0
 28 78  1  0  0  0
 28 79  1  0  0  0
 29 80  1  0  0  0
 29 81  1  0  0  0
 29 82  1  0  0  0
 30 83  1  0  0  0
 31 84  1  0  0  0
 34 85  1  0  0  0
 35 86  1  0  0  0
 35 87  1  0  0  0
 36 88  1  0  0  0
 36 89  1  0  0  0
 36 90  1  0  0  0
 37 91  1  0  0  0
 37 92  1  0  0  0
 37 93  1  0  0  0
 38 94  1  0  0  0
 39 95  1  0  0  0
 42 96  1  0  0  0
 42 97  1  0  0  0
 43 98  1  0  0  0
 43 99  1  0  0  0
 45100  1  0  0  0
 45101  1  0  0  0
 45102  1  0  0  0
 46103  1  0  0  0
M  END
$$$$
