2ews_ligand
  -I-interpret- 

 48 50  0  0  0  0  0  0  0  0999 V2000
   19.1260   24.5240   -0.4790 P   0  0  0  0  0
   19.5070   25.4890    0.6100 O   0  0  0  0  0
   18.6610   23.2060    0.0600 O   0  0  0  0  0
   20.3230   24.1550   -1.3870 O   0  0  0  0  0
   17.1640   24.8150   -2.7860 P   0  0  0  0  0
   17.7180   23.6320   -3.3500 O   0  0  0  0  0
   15.6650   24.6830   -2.5850 O   0  0  0  0  0
   17.8700   25.2100   -1.3140 N   0  0  0  0  0
   17.1730   26.2570   -5.3440 P   0  0  0  0  0
   18.5210   26.1740   -6.1390 O   0  0  0  0  0
   16.1420   25.2760   -5.8070 O   0  0  0  0  0
   17.4840   26.0520   -3.7800 O   0  0  0  0  0
   12.5270   29.5350   -7.6100 N   0  0  0  0  0
   12.5850   29.0810   -8.8600 C   0  0  0  0  0
   11.4750   28.4930   -9.2730 N   0  0  0  0  0
   10.6220   28.5610   -8.2050 C   0  0  0  0  0
    9.2450   28.1130   -8.0040 C   0  0  0  0  0
    8.4450   27.5050   -8.7970 N   0  0  0  0  0
    8.7920   28.4060   -6.7540 N   0  0  0  0  0
    9.5040   29.0520   -5.7690 C   0  0  0  0  0
   10.7450   29.4670   -5.9340 N   0  0  0  0  0
   11.2640   29.2070   -7.1690 C   0  0  0  0  0
   16.6320   27.7660   -5.4630 O   0  0  0  0  0
   15.4000   28.0970   -4.7860 C   0  0  0  0  0
   15.0090   29.5140   -5.2090 C   0  0  0  0  0
   14.6320   29.4450   -6.5960 O   0  0  0  0  0
   13.7730   30.0210   -4.5170 C   0  0  0  0  0
   14.1130   30.6520   -3.2790 O   0  0  0  0  0
   13.1940   30.8980   -5.5660 C   0  0  0  0  0
   13.7740   32.2250   -5.4620 O   0  0  0  0  0
   13.5820   30.2670   -6.8540 C   0  0  0  0  0
   19.7970   26.3153    0.2167 H   0  0  0  0  0
   20.6850   24.9537   -1.7776 H   0  0  0  0  0
   15.3216   25.4946   -2.2043 H   0  0  0  0  0
   17.4505   26.0165   -0.8514 H   0  0  0  0  0
   19.1354   26.8260   -5.7940 H   0  0  0  0  0
   13.4698   29.1848   -9.4880 H   0  0  0  0  0
    8.7489   27.2606   -9.7395 H   0  0  0  0  0
    7.5036   27.2649   -8.4864 H   0  0  0  0  0
    9.0200   29.2287   -4.8085 H   0  0  0  0  0
   15.5331   28.0449   -3.7054 H   0  0  0  0  0
   14.6157   27.3891   -5.0542 H   0  0  0  0  0
   15.8529   30.1637   -4.9772 H   0  0  0  0  0
   13.0511   29.2716   -4.1923 H   0  0  0  0  0
   13.3134   30.9687   -2.8523 H   0  0  0  0  0
   12.1129   31.0023   -5.4746 H   0  0  0  0  0
   13.3989   32.7910   -6.1406 H   0  0  0  0  0
   13.8222   31.0900   -7.5271 H   0  0  0  0  0
  1  2  1  0  0  0
  1  3  2  0  0  0
  1  4  1  0  0  0
  8  1  1  0  0  0
  5  6  2  0  0  0
  5  7  1  0  0  0
  5  8  1  0  0  0
 12  5  1  0  0  0
  9 10  1  0  0  0
  9 11  2  0  0  0
  9 12  1  0  0  0
 23  9  1  0  0  0
 13 14  4  0  0  0
 13 22  4  0  0  0
 31 13  1  0  0  0
 14 15  4  0  0  0
 16 15  4  0  0  0
 16 17  4  0  0  0
 22 16  4  0  0  0
 17 18  1  0  0  0
 17 19  4  0  0  0
 20 19  4  0  0  0
 21 20  4  0  0  0
 22 21  4  0  0  0
 24 23  1  0  0  0
 25 24  1  0  0  0
 26 25  1  0  0  0
 25 27  1  0  0  0
 26 31  1  0  0  0
 27 28  1  0  0  0
 27 29  1  0  0  0
 29 30  1  0  0  0
 29 31  1  0  0  0
  2 32  1  0  0  0
  4 33  1  0  0  0
  7 34  1  0  0  0
  8 35  1  0  0  0
 10 36  1  0  0  0
 14 37  1  0  0  0
 18 38  1  0  0  0
 18 39  1  0  0  0
 20 40  1  0  0  0
 24 41  1  0  0  0
 24 42  1  0  0  0
 25 43  1  0  0  0
 27 44  1  0  0  0
 28 45  1  0  0  0
 29 46  1  0  0  0
 30 47  1  0  0  0
 31 48  1  0  0  0
M  END
$$$$
