3r8v_ligand
  -I-interpret- 

 37 38  0  0  0  0  0  0  0  0999 V2000
  -65.0440  -81.9560  -86.8490 N   0  0  0  0  0
  -65.9620  -80.9850  -86.9850 C   0  0  0  0  0
  -66.5280  -80.7370  -88.1990 N   0  0  0  0  0
  -66.2450  -80.2900  -85.7800 C   0  0  0  0  0
  -67.1230  -79.2380  -85.6110 C   0  0  0  0  0
  -67.3840  -78.5420  -84.3100 C   0  0  0  0  0
  -67.5480  -79.2730  -83.0820 C   0  0  0  0  0
  -67.8190  -78.6090  -81.8370 C   0  0  0  0  0
  -67.9270  -77.1660  -81.8640 C   0  0  0  0  0
  -67.7670  -76.4380  -83.0710 C   0  0  0  0  0
  -67.4960  -77.1160  -84.2900 C   0  0  0  0  0
  -67.8070  -78.7490  -86.6610 O   0  0  0  0  0
  -65.3170  -80.9250  -84.4780 S   0  0  0  0  0
  -64.6040  -82.0440  -85.5690 C   0  0  0  0  0
  -63.6460  -82.9660  -85.2010 N   0  0  0  0  0
  -63.2480  -83.1340  -83.7980 C   0  0  0  0  0
  -62.3290  -82.0260  -83.3370 C   0  0  0  0  0
  -62.7320  -81.0920  -82.2550 C   0  0  0  0  0
  -67.9640  -79.3090  -80.6970 N   0  0  0  0  0
  -67.8520  -80.6400  -80.6730 O   0  0  0  0  0
  -68.2000  -78.7660  -79.6410 O   0  0  0  0  0
  -66.2552  -81.2901  -89.0114 H   0  0  0  0  0
  -67.2246  -79.9982  -88.2956 H   0  0  0  0  0
  -66.5444  -80.0558  -85.1813 H   0  0  0  0  0
  -67.4644  -80.3597  -83.0964 H   0  0  0  0  0
  -68.1353  -76.6282  -80.9391 H   0  0  0  0  0
  -67.8525  -75.3514  -83.0633 H   0  0  0  0  0
  -67.3731  -76.5481  -85.2122 H   0  0  0  0  0
  -67.5820  -79.2491  -87.4490 H   0  0  0  0  0
  -63.2055  -83.5424  -85.9180 H   0  0  0  0  0
  -62.7160  -84.0808  -83.7044 H   0  0  0  0  0
  -64.1472  -83.1110  -83.1823 H   0  0  0  0  0
  -62.2298  -81.3855  -84.2133 H   0  0  0  0  0
  -61.4697  -82.5530  -82.9224 H   0  0  0  0  0
  -63.6365  -80.5617  -82.5528 H   0  0  0  0  0
  -62.9239  -81.6563  -81.3424 H   0  0  0  0  0
  -61.9303  -80.3749  -82.0785 H   0  0  0  0  0
  1  2  4  0  0  0
  1 14  4  0  0  0
  2  3  1  0  0  0
  2  4  4  0  0  0
  4  5  1  0  0  0
  4 13  4  0  0  0
  5  6  1  0  0  0
  5 12  1  0  0  0
  6  7  4  0  0  0
  6 11  4  0  0  0
  7  8  4  0  0  0
  8  9  4  0  0  0
  8 19  1  0  0  0
  9 10  4  0  0  0
 10 11  4  0  0  0
 13 14  4  0  0  0
 14 15  1  0  0  0
 15 16  1  0  0  0
 16 17  1  0  0  0
 17 18  1  0  0  0
 19 20  2  0  0  0
 19 21  2  0  0  0
  3 22  1  0  0  0
  3 23  1  0  0  0
  5 24  1  0  0  0
  7 25  1  0  0  0
  9 26  1  0  0  0
 10 27  1  0  0  0
 11 28  1  0  0  0
 12 29  1  0  0  0
 15 30  1  0  0  0
 16 31  1  0  0  0
 16 32  1  0  0  0
 17 33  1  0  0  0
 17 34  1  0  0  0
 18 35  1  0  0  0
 18 36  1  0  0  0
 18 37  1  0  0  0
M  END
$$$$
