3hvc_ligand
  -I-interpret- 

 27 29  0  0  0  0  0  0  0  0999 V2000
   -3.3020   40.0520   15.6620 C   0  0  0  0  0
   -3.1500   41.0850   16.5710 N   0  0  0  0  0
   -2.8580   40.7750   17.8920 C   0  0  0  0  0
   -2.7000   39.3370   18.3600 C   0  0  0  0  0
   -2.8680   38.2750   17.3730 C   0  0  0  0  0
   -3.1750   38.6660   16.0010 C   0  0  0  0  0
   -2.7270   36.8210   17.7660 C   0  0  0  0  0
   -2.0110   35.8860   17.0070 C   0  0  0  0  0
   -2.1050   34.7180   17.6560 N   0  0  0  0  0
   -2.8270   34.8180   18.7800 N   0  0  0  0  0
   -3.2260   36.0750   18.8900 C   0  0  0  0  0
   -4.0780   36.5300   20.0860 C   0  0  0  0  0
   -3.5970   36.2530   21.4130 C   0  0  0  0  0
   -4.3370   36.6620   22.5630 C   0  0  0  0  0
   -5.5830   37.3620   22.3940 C   0  0  0  0  0
   -6.0850   37.6450   21.0910 C   0  0  0  0  0
   -5.3420   37.2350   19.9410 C   0  0  0  0  0
   -6.2570   37.7450   23.4600 F   0  0  0  0  0
   -3.5318   40.3083   14.6278 H   0  0  0  0  0
   -2.7388   41.5838   18.6130 H   0  0  0  0  0
   -2.4685   39.1065   19.3999 H   0  0  0  0  0
   -3.3077   37.9031   15.2338 H   0  0  0  0  0
   -1.4817   36.0723   16.0725 H   0  0  0  0  0
   -2.6534   35.7229   21.5423 H   0  0  0  0  0
   -3.9608   36.4455   23.5628 H   0  0  0  0  0
   -7.0317   38.1720   20.9717 H   0  0  0  0  0
   -5.7266   37.4529   18.9447 H   0  0  0  0  0
  1  2  4  0  0  0
  1  6  4  0  0  0
  2  3  4  0  0  0
  3  4  4  0  0  0
  4  5  4  0  0  0
  5  6  4  0  0  0
  5  7  1  0  0  0
  7  8  4  0  0  0
  7 11  4  0  0  0
  8  9  4  0  0  0
  9 10  4  0  0  0
 10 11  4  0  0  0
 11 12  1  0  0  0
 12 13  4  0  0  0
 12 17  4  0  0  0
 13 14  4  0  0  0
 14 15  4  0  0  0
 15 16  4  0  0  0
 15 18  1  0  0  0
 16 17  4  0  0  0
  1 19  1  0  0  0
  3 20  1  0  0  0
  4 21  1  0  0  0
  6 22  1  0  0  0
  8 23  1  0  0  0
 13 24  1  0  0  0
 14 25  1  0  0  0
 16 26  1  0  0  0
 17 27  1  0  0  0
M  END
$$$$
