2wev_ligand
  -I-interpret- 

 35 37  0  0  0  0  0  0  0  0999 V2000
    4.5480   45.1430   -0.4970 N   0  0  0  0  0
    4.8380   46.2240    0.2450 C   0  0  0  0  0
    6.0790   46.6000    0.4240 N   0  0  0  0  0
    6.1500   47.6750    1.1760 C   0  0  0  0  0
    7.4940   48.2390    1.4810 C   0  0  0  0  0
    3.7260   47.1640    0.9720 S   0  0  0  0  0
    4.9340   48.1030    1.5320 C   0  0  0  0  0
    4.5800   49.4350    2.1340 C   0  0  0  0  0
    3.2960   49.5890    2.4880 N   0  0  0  0  0
    5.4620   50.5140    2.2580 C   0  0  0  0  0
    4.9520   51.7350    2.7040 C   0  0  0  0  0
    3.6490   51.8420    3.0460 N   0  0  0  0  0
    2.8340   50.7740    2.9170 C   0  0  0  0  0
    1.5710   50.8850    3.4000 N   0  0  0  0  0
    0.5030   50.1390    3.0500 C   0  0  0  0  0
   -0.7400   50.6330    3.3530 C   0  0  0  0  0
    0.6060   48.8900    2.4270 C   0  0  0  0  0
   -0.5360   48.1520    2.1180 C   0  0  0  0  0
   -0.3920   46.8270    1.7920 N   0  0  0  0  0
   -1.4020   46.1710    1.5860 O   0  0  0  0  0
    0.6200   46.2060    2.1280 O   0  0  0  0  0
   -1.8020   48.6590    2.4180 C   0  0  0  0  0
   -1.8860   49.8970    3.0350 C   0  0  0  0  0
    5.2989   44.6044   -0.9288 H   0  0  0  0  0
    3.5768   44.8605   -0.6288 H   0  0  0  0  0
    8.0900   47.4915    2.0045 H   0  0  0  0  0
    7.9904   48.5150    0.5507 H   0  0  0  0  0
    7.3818   49.1219    2.1103 H   0  0  0  0  0
    6.5185   50.4045    2.0131 H   0  0  0  0  0
    5.6063   52.6037    2.7765 H   0  0  0  0  0
    1.4124   51.6084    4.1014 H   0  0  0  0  0
   -0.8351   51.6020    3.8430 H   0  0  0  0  0
    1.5895   48.4898    2.1807 H   0  0  0  0  0
   -2.7019   48.0949    2.1729 H   0  0  0  0  0
   -2.8667   50.3061    3.2778 H   0  0  0  0  0
  1  2  1  0  0  0
  2  3  4  0  0  0
  2  6  4  0  0  0
  3  4  4  0  0  0
  4  5  1  0  0  0
  4  7  4  0  0  0
  6  7  4  0  0  0
  7  8  1  0  0  0
  8  9  4  0  0  0
  8 10  4  0  0  0
  9 13  4  0  0  0
 10 11  4  0  0  0
 11 12  4  0  0  0
 12 13  4  0  0  0
 13 14  1  0  0  0
 14 15  1  0  0  0
 15 16  4  0  0  0
 15 17  4  0  0  0
 16 23  4  0  0  0
 17 18  4  0  0  0
 18 19  1  0  0  0
 18 22  4  0  0  0
 19 20  2  0  0  0
 19 21  2  0  0  0
 22 23  4  0  0  0
  1 24  1  0  0  0
  1 25  1  0  0  0
  5 26  1  0  0  0
  5 27  1  0  0  0
  5 28  1  0  0  0
 10 29  1  0  0  0
 11 30  1  0  0  0
 14 31  1  0  0  0
 16 32  1  0  0  0
 17 33  1  0  0  0
 22 34  1  0  0  0
 23 35  1  0  0  0
M  END
$$$$
