2g9r_ligand
  -I-interpret- 

 43 44  0  0  0  0  0  0  0  0999 V2000
   36.3100   28.3610   29.4400 C   0  0  0  0  0
   36.5660   29.7250   29.2790 C   0  0  0  0  0
   37.2600   30.1720   28.1560 C   0  0  0  0  0
   37.6950   29.2530   27.2010 C   0  0  0  0  0
   37.4370   27.8900   27.3640 C   0  0  0  0  0
   36.7350   27.4440   28.4810 C   0  0  0  0  0
   36.4600   25.9490   28.6790 C   0  0  0  0  0
   35.1750   25.4550   28.0060 C   0  0  0  0  0
   35.1020   23.9240   28.1570 C   0  0  0  0  0
   33.9240   23.3320   27.4930 N   0  3  0  0  0
   33.7790   21.9430   28.0080 C   0  0  0  0  0
   34.0630   23.3660   26.0120 C   0  0  0  0  0
   32.8320   22.7170   25.3360 C   0  0  0  0  0
   33.0400   22.6620   23.9270 O   0  0  0  0  0
   32.5810   21.2920   25.8610 C   0  0  0  0  0
   31.3540   20.7940   25.3040 O   0  0  0  0  0
   32.5330   21.2690   27.4110 C   0  0  0  0  0
   32.3830   19.8510   27.9890 C   0  0  0  0  0
   33.3670   18.9650   27.4360 O   0  0  0  0  0
   35.7738   28.0117   30.3224 H   0  0  0  0  0
   36.2239   30.4376   30.0295 H   0  0  0  0  0
   37.4620   31.2350   28.0246 H   0  0  0  0  0
   38.2392   29.6004   26.3228 H   0  0  0  0  0
   37.7848   27.1760   26.6175 H   0  0  0  0  0
   36.3484   25.7806   29.7501 H   0  0  0  0  0
   37.2901   25.4057   28.2274 H   0  0  0  0  0
   35.1805   25.7250   26.9500 H   0  0  0  0  0
   34.3071   25.9172   28.4764 H   0  0  0  0  0
   35.0301   23.6992   29.2212 H   0  0  0  0  0
   35.9921   23.5024   27.6900 H   0  0  0  0  0
   33.0840   23.8708   27.7041 H   0  0  0  0  0
   33.6748   21.9785   29.0924 H   0  0  0  0  0
   34.6605   21.3682   27.7240 H   0  0  0  0  0
   34.9566   22.8103   25.7278 H   0  0  0  0  0
   34.1385   24.4039   25.6876 H   0  0  0  0  0
   31.9601   23.3272   25.5718 H   0  0  0  0  0
   32.2762   22.2593   23.5074 H   0  0  0  0  0
   33.4046   20.6483   25.5523 H   0  0  0  0  0
   31.1938   19.9051   25.6292 H   0  0  0  0  0
   31.6419   21.8299   27.6929 H   0  0  0  0  0
   31.3916   19.4737   27.7382 H   0  0  0  0  0
   32.5207   19.8968   29.0693 H   0  0  0  0  0
   33.2535   18.0885   27.8109 H   0  0  0  0  0
  1  2  4  0  0  0
  1  6  4  0  0  0
  2  3  4  0  0  0
  3  4  4  0  0  0
  4  5  4  0  0  0
  5  6  4  0  0  0
  6  7  1  0  0  0
  7  8  1  0  0  0
  8  9  1  0  0  0
  9 10  1  0  0  0
 10 11  1  0  0  0
 10 12  1  0  0  0
 11 17  1  0  0  0
 12 13  1  0  0  0
 13 14  1  0  0  0
 13 15  1  0  0  0
 15 16  1  0  0  0
 15 17  1  0  0  0
 17 18  1  0  0  0
 18 19  1  0  0  0
  1 20  1  0  0  0
  2 21  1  0  0  0
  3 22  1  0  0  0
  4 23  1  0  0  0
  5 24  1  0  0  0
  7 25  1  0  0  0
  7 26  1  0  0  0
  8 27  1  0  0  0
  8 28  1  0  0  0
  9 29  1  0  0  0
  9 30  1  0  0  0
 10 31  1  0  0  0
 11 32  1  0  0  0
 11 33  1  0  0  0
 12 34  1  0  0  0
 12 35  1  0  0  0
 13 36  1  0  0  0
 14 37  1  0  0  0
 15 38  1  0  0  0
 16 39  1  0  0  0
 17 40  1  0  0  0
 18 41  1  0  0  0
 18 42  1  0  0  0
 19 43  1  0  0  0
M  END
$$$$
