5vqt_ligand
  -I-interpret- 

 60 63  0  0  0  0  0  0  0  0999 V2000
  844.9190  -29.7650  146.6900 C   0  0  0  0  0
  843.6060  -29.4210  145.9810 C   0  0  0  0  0
  841.5830  -30.1060  144.7980 C   0  0  0  0  0
  840.4780  -36.0380  150.3520 N   0  0  0  0  0
  844.3260  -36.0440  145.7340 C   0  0  0  0  0
  841.6770  -32.2150  147.5410 C   0  0  0  0  0
  841.1320  -33.0790  148.5090 C   0  0  0  0  0
  842.8380  -30.4290  145.4880 N   0  0  0  0  0
  840.9280  -35.3260  149.5550 C   0  0  0  0  0
  841.4970  -34.4330  148.5510 C   0  0  0  0  0
  848.4710  -33.3930  142.0960 C   0  0  0  0  0
  847.1270  -33.7640  142.3550 C   0  0  0  0  0
  846.5220  -34.4580  140.1250 C   0  0  0  0  0
  849.3610  -33.1820  143.1670 C   0  0  0  0  0
  848.9110  -33.3390  144.4930 C   0  0  0  0  0
  847.5740  -33.7060  144.7530 C   0  0  0  0  0
  846.6820  -33.9080  143.6780 C   0  0  0  0  0
  845.3260  -35.2080  139.5210 C   0  0  0  0  0
  845.8770  -37.5470  139.9160 C   0  0  0  0  0
  844.6700  -38.8720  141.6180 C   0  0  0  0  0
  843.8800  -37.6820  141.9080 C   0  0  0  0  0
  844.1090  -36.5350  141.2260 C   0  0  0  0  0
  844.4840  -33.7280  144.7300 C   0  0  0  0  0
  846.1550  -33.9960  141.4090 O   0  0  0  0  0
  845.3700  -34.2820  143.8390 O   0  0  0  0  0
  845.0770  -36.4290  140.2400 N   0  0  0  0  0
  843.9170  -34.5750  145.7000 C   0  0  0  0  0
  845.6300  -38.7150  140.6240 N   0  0  0  0  0
  842.9850  -34.0580  146.6310 C   0  0  0  0  0
  842.4230  -34.9130  147.6100 C   0  0  0  0  0
  843.2860  -28.2370  145.8650 O   0  0  0  0  0
  842.6100  -32.6830  146.5860 C   0  0  0  0  0
  843.1800  -31.8230  145.5990 C   0  0  0  0  0
  844.1030  -32.3700  144.6750 C   0  0  0  0  0
  844.5450  -39.9570  142.1730 O   0  0  0  0  0
  846.7560  -37.5240  139.0560 O   0  0  0  0  0
  844.8580  -29.7790  148.4740 Cl  0  0  0  0  0
  845.6314  -28.9881  146.4124 H   0  0  0  0  0
  845.1784  -30.7782  146.3829 H   0  0  0  0  0
  841.6250  -30.4814  143.7756 H   0  0  0  0  0
  840.7502  -30.5728  145.3239 H   0  0  0  0  0
  841.4454  -29.0248  144.7840 H   0  0  0  0  0
  844.0739  -36.5121  144.7825 H   0  0  0  0  0
  845.4004  -36.1169  145.9029 H   0  0  0  0  0
  843.7950  -36.5491  146.5408 H   0  0  0  0  0
  841.3752  -31.1677  147.5268 H   0  0  0  0  0
  840.4174  -32.6914  149.2351 H   0  0  0  0  0
  848.8150  -33.2712  141.0689 H   0  0  0  0  0
  846.7945  -33.6158  139.4889 H   0  0  0  0  0
  847.3816  -35.1241  140.1994 H   0  0  0  0  0
  850.3949  -32.8981  142.9707 H   0  0  0  0  0
  849.5995  -33.1760  145.3221 H   0  0  0  0  0
  847.2312  -33.8331  145.7799 H   0  0  0  0  0
  845.5495  -35.4498  138.4819 H   0  0  0  0  0
  844.4421  -34.5735  139.5866 H   0  0  0  0  0
  843.1050  -37.7154  142.6738 H   0  0  0  0  0
  843.5065  -35.6579  141.4625 H   0  0  0  0  0
  846.2018  -39.5282  140.3956 H   0  0  0  0  0
  842.7143  -35.9631  147.6339 H   0  0  0  0  0
  844.5289  -31.7280  143.9039 H   0  0  0  0  0
  2  1  1  0  0  0
  1 37  1  0  0  0
  8  2  1  0  0  0
  2 31  2  0  0  0
  8  3  1  0  0  0
  9  4  3  0  0  0
 27  5  1  0  0  0
  6  7  4  0  0  0
 32  6  4  0  0  0
  7 10  4  0  0  0
 33  8  1  0  0  0
 10  9  1  0  0  0
 30 10  4  0  0  0
 12 11  4  0  0  0
 11 14  4  0  0  0
 17 12  4  0  0  0
 12 24  1  0  0  0
 13 18  1  0  0  0
 24 13  1  0  0  0
 15 14  4  0  0  0
 16 15  4  0  0  0
 17 16  4  0  0  0
 25 17  1  0  0  0
 18 26  1  0  0  0
 26 19  1  0  0  0
 19 28  1  0  0  0
 19 36  2  0  0  0
 21 20  1  0  0  0
 28 20  1  0  0  0
 20 35  2  0  0  0
 22 21  2  0  0  0
 26 22  1  0  0  0
 23 25  1  0  0  0
 27 23  4  0  0  0
 23 34  4  0  0  0
 29 27  4  0  0  0
 29 30  4  0  0  0
 32 29  4  0  0  0
 32 33  4  0  0  0
 33 34  4  0  0  0
  1 38  1  0  0  0
  1 39  1  0  0  0
  3 40  1  0  0  0
  3 41  1  0  0  0
  3 42  1  0  0  0
  5 43  1  0  0  0
  5 44  1  0  0  0
  5 45  1  0  0  0
  6 46  1  0  0  0
  7 47  1  0  0  0
 11 48  1  0  0  0
 13 49  1  0  0  0
 13 50  1  0  0  0
 14 51  1  0  0  0
 15 52  1  0  0  0
 16 53  1  0  0  0
 18 54  1  0  0  0
 18 55  1  0  0  0
 21 56  1  0  0  0
 22 57  1  0  0  0
 28 58  1  0  0  0
 30 59  1  0  0  0
 34 60  1  0  0  0
M  END
$$$$
