6gcr_ligand
  -I-interpret- 

 70 73  0  0  0  0  0  0  0  0999 V2000
    7.7070    3.7470   25.9490 C   0  0  0  0  0
    6.6710    4.4680   25.4000 C   0  0  0  0  0
    5.3680    3.9990   25.5250 C   0  0  0  0  0
    5.1370    2.8040   26.2060 N   0  0  0  0  0
    7.4160    2.6120   26.6160 N   0  0  0  0  0
    6.1580    2.1340   26.7460 C   0  0  0  0  0
    6.6930    0.2260   28.0800 C   0  0  0  0  0
    8.0620    0.0890   27.8180 C   0  0  0  0  0
    8.8390   -0.7760   28.5940 C   0  0  0  0  0
    8.2800   -1.5170   29.6380 C   0  0  0  0  0
    6.9300   -1.3750   29.8620 C   0  0  0  0  0
    6.1330   -0.5210   29.1090 C   0  0  0  0  0
    9.0120   -2.4440   30.4310 C   0  0  0  0  0
    9.7680   -2.1330   32.6610 C   0  0  0  0  0
   10.5470   -2.1200   33.8280 C   0  0  0  0  0
    9.4030   -2.3400   34.6050 C   0  0  0  0  0
    8.6160   -2.3570   33.4520 C   0  0  0  0  0
   12.7170   -2.5760   33.0770 C   0  0  0  0  0
   13.8560   -1.6230   32.6730 C   0  0  0  0  0
   14.9640   -0.4500   34.5520 C   0  0  0  0  0
   14.9100    0.7320   35.5350 C   0  0  0  0  0
   13.7120    1.6530   35.4170 C   0  0  0  0  0
   10.0320    3.5690   26.1090 C   0  0  0  0  0
   11.0540    3.3020   25.1690 C   0  0  0  0  0
   12.1860    2.5890   25.5640 C   0  0  0  0  0
   12.3190    2.1380   26.8650 C   0  0  0  0  0
   11.3180    2.4040   27.7840 C   0  0  0  0  0
   10.1800    3.1260   27.4250 C   0  0  0  0  0
   11.0390    3.6760   23.8250 C   0  0  0  0  0
   11.8350    3.2950   21.6020 C   0  0  0  0  0
    5.8340    1.0040   27.3990 N   0  0  0  0  0
   10.0630   -1.9600   31.3460 N   0  0  0  0  0
   11.8480   -1.9510   34.0980 N   0  0  0  0  0
   13.9530   -0.5310   33.6720 N   0  0  0  0  0
    8.9400    4.2670   25.7450 N   0  0  0  0  0
   11.8040    2.9290   23.0350 N   0  0  0  0  0
    7.4010   -2.5190   33.2710 O   0  0  0  0  0
    9.1610   -2.4790   35.8100 O   0  0  0  0  0
   15.8990   -1.2520   34.5960 O   0  0  0  0  0
   10.3650    4.6020   23.4080 O   0  0  0  0  0
    7.0250    5.9050   24.5570 Cl  0  0  0  0  0
    4.5369    4.5587   25.0958 H   0  0  0  0  0
    8.5216    0.6568   27.0090 H   0  0  0  0  0
    9.9033   -0.8744   28.3800 H   0  0  0  0  0
    6.4676   -1.9547   30.6609 H   0  0  0  0  0
    5.0681   -0.4372   29.3258 H   0  0  0  0  0
    9.5431   -3.0628   29.7077 H   0  0  0  0  0
    8.2652   -2.8931   31.0858 H   0  0  0  0  0
   13.1501   -3.4858   33.4927 H   0  0  0  0  0
   12.1175   -2.8017   32.1951 H   0  0  0  0  0
   13.6501   -1.2022   31.6888 H   0  0  0  0  0
   14.7973   -2.1714   32.6369 H   0  0  0  0  0
   15.7852    1.3449   35.3195 H   0  0  0  0  0
   14.8581    0.2943   36.5319 H   0  0  0  0  0
   13.6897    2.0920   34.4196 H   0  0  0  0  0
   12.7986    1.0823   35.5847 H   0  0  0  0  0
   13.7892    2.4448   36.1622 H   0  0  0  0  0
   12.9745    2.3850   24.8396 H   0  0  0  0  0
   13.2048    1.5777   27.1643 H   0  0  0  0  0
   11.4213    2.0424   28.8071 H   0  0  0  0  0
    9.4113    3.3430   28.1667 H   0  0  0  0  0
   10.8282    3.2287   21.1895 H   0  0  0  0  0
   12.2058    4.3146   21.4967 H   0  0  0  0  0
   12.4938    2.6105   21.0677 H   0  0  0  0  0
    4.8565    0.7135   27.3757 H   0  0  0  0  0
   10.9313   -1.5346   31.0214 H   0  0  0  0  0
   12.1991   -1.4492   34.9137 H   0  0  0  0  0
   13.2258    0.1840   33.6912 H   0  0  0  0  0
    9.0416    5.1868   25.3159 H   0  0  0  0  0
   12.3426    2.1429   23.3987 H   0  0  0  0  0
  1  2  4  0  0  0
  1  5  4  0  0  0
 35  1  1  0  0  0
  2  3  4  0  0  0
  2 41  1  0  0  0
  3  4  4  0  0  0
  6  4  4  0  0  0
  5  6  4  0  0  0
  6 31  1  0  0  0
  7  8  4  0  0  0
  7 12  4  0  0  0
 31  7  1  0  0  0
  8  9  4  0  0  0
  9 10  4  0  0  0
 11 10  4  0  0  0
 10 13  1  0  0  0
 12 11  4  0  0  0
 13 32  1  0  0  0
 14 15  2  0  0  0
 14 17  1  0  0  0
 32 14  1  0  0  0
 15 16  1  0  0  0
 15 33  1  0  0  0
 17 16  1  0  0  0
 16 38  2  0  0  0
 17 37  2  0  0  0
 18 19  1  0  0  0
 33 18  1  0  0  0
 19 34  1  0  0  0
 20 21  1  0  0  0
 34 20  1  0  0  0
 20 39  2  0  0  0
 21 22  1  0  0  0
 23 24  4  0  0  0
 23 28  4  0  0  0
 23 35  1  0  0  0
 24 25  4  0  0  0
 24 29  1  0  0  0
 25 26  4  0  0  0
 26 27  4  0  0  0
 27 28  4  0  0  0
 29 36  1  0  0  0
 29 40  2  0  0  0
 36 30  1  0  0  0
  3 42  1  0  0  0
  8 43  1  0  0  0
  9 44  1  0  0  0
 11 45  1  0  0  0
 12 46  1  0  0  0
 13 47  1  0  0  0
 13 48  1  0  0  0
 18 49  1  0  0  0
 18 50  1  0  0  0
 19 51  1  0  0  0
 19 52  1  0  0  0
 21 53  1  0  0  0
 21 54  1  0  0  0
 22 55  1  0  0  0
 22 56  1  0  0  0
 22 57  1  0  0  0
 25 58  1  0  0  0
 26 59  1  0  0  0
 27 60  1  0  0  0
 28 61  1  0  0  0
 30 62  1  0  0  0
 30 63  1  0  0  0
 30 64  1  0  0  0
 31 65  1  0  0  0
 32 66  1  0  0  0
 33 67  1  0  0  0
 34 68  1  0  0  0
 35 69  1  0  0  0
 36 70  1  0  0  0
M  END
$$$$
