4g4p_ligand
  -I-interpret- 

 21 20  0  0  0  0  0  0  0  0999 V2000
   27.6690   21.6780   28.4600 N   0  3  0  0  0
   27.2940   20.7900   27.3240 C   0  0  0  0  0
   25.9120   21.1230   26.8390 C   0  0  0  0  0
   25.1950   21.8720   27.5230 O   0  0  0  0  0
   27.3570   19.3160   27.7090 C   0  0  0  0  0
   26.3600   18.8510   28.7610 C   0  0  0  0  0
   26.5040   17.3670   29.0820 C   0  0  0  0  0
   27.0650   16.5850   28.3040 O   0  0  0  0  0
   25.9840   16.9720   30.2420 N   0  0  0  0  0
   25.5230   20.6580   25.7540 O   0  0  0  0  0
   27.6140   22.6517   28.1613 H   0  0  0  0  0
   27.0273   21.5228   29.2375 H   0  0  0  0  0
   28.6216   21.4653   28.7562 H   0  0  0  0  0
   28.0167   20.9617   26.5263 H   0  0  0  0  0
   28.3467   19.1559   28.1368 H   0  0  0  0  0
   27.1263   18.7554   26.8031 H   0  0  0  0  0
   25.3558   19.0159   28.3704 H   0  0  0  0  0
   26.5473   19.4138   29.6755 H   0  0  0  0  0
   26.0397   15.9918   30.5184 H   0  0  0  0  0
   25.5298   17.6496   30.8544 H   0  0  0  0  0
   26.2127   20.1062   25.3779 H   0  0  0  0  0
  1  2  1  0  0  0
  2  3  1  0  0  0
  2  5  1  0  0  0
  3  4  2  0  0  0
  3 10  1  0  0  0
  5  6  1  0  0  0
  6  7  1  0  0  0
  7  8  2  0  0  0
  7  9  1  0  0  0
  1 11  1  0  0  0
  1 12  1  0  0  0
  1 13  1  0  0  0
  2 14  1  0  0  0
  5 15  1  0  0  0
  5 16  1  0  0  0
  6 17  1  0  0  0
  6 18  1  0  0  0
  9 19  1  0  0  0
  9 20  1  0  0  0
 10 21  1  0  0  0
M  END
$$$$
