2xhm_ligand
  -I-interpret- 

 71 72  0  0  0  0  0  0  0  0999 V2000
  -11.0040   24.9470   -8.5220 C   0  0  0  0  0
   -9.7360   25.4800   -8.3060 C   0  0  0  0  0
   -9.1480   26.2920   -9.2760 C   0  0  0  0  0
   -7.9090   26.8070   -9.0490 O   0  0  0  0  0
   -9.8240   26.5670  -10.4690 C   0  0  0  0  0
  -11.0960   26.0330  -10.6770 C   0  0  0  0  0
  -11.6920   25.2210   -9.7020 C   0  0  0  0  0
  -13.0850   24.6100   -9.9230 C   0  0  0  0  0
  -13.0000   23.2310  -10.6170 C   0  0  0  0  0
  -14.6580   22.5830  -11.0940 P   0  0  0  0  0
  -14.4550   21.0380  -11.3730 O   0  0  0  0  0
  -15.5330   22.7390   -9.7260 O   0  0  0  0  0
  -15.2530   23.2910  -12.2590 O   0  0  0  0  0
  -12.1320   23.3720  -11.7980 N   0  0  0  0  0
  -10.9480   22.7610  -11.8900 C   0  0  0  0  0
  -10.4870   21.9870  -11.0500 O   0  0  0  0  0
  -10.1210   23.1210  -13.1270 C   0  0  0  0  0
   -8.6880   22.9530  -12.8100 N   0  0  0  0  0
   -7.7930   23.9490  -12.8160 C   0  0  0  0  0
   -8.0450   25.1180  -13.1110 O   0  0  0  0  0
   -6.3510   23.5140  -12.5010 C   0  0  0  0  0
   -5.7850   24.1950  -11.2490 C   0  0  0  0  0
   -6.5950   23.7790  -10.0150 C   0  0  0  0  0
   -4.3020   23.8400  -11.0530 C   0  0  0  0  0
   -3.5270   24.9350  -10.3210 C   0  0  0  0  0
   -5.5490   23.8050  -13.7060 N   0  0  0  0  0
   -4.8520   22.8600  -14.3400 C   0  0  0  0  0
   -4.1140   23.3230  -15.5980 C   0  0  0  0  0
   -4.7590   21.6950  -13.9580 O   0  0  0  0  0
  -10.4780   22.2550  -14.3280 C   0  0  0  0  0
   -9.8480   22.8700  -15.5880 C   0  0  0  0  0
  -10.6210   23.6580  -16.4380 C   0  0  0  0  0
  -10.0490   24.2330  -17.5760 C   0  0  0  0  0
   -8.7000   24.0220  -17.8650 C   0  0  0  0  0
   -8.1460   24.5770  -18.9860 O   0  0  0  0  0
   -7.9260   23.2380  -17.0100 C   0  0  0  0  0
   -8.4960   22.6660  -15.8700 C   0  0  0  0  0
  -11.4611   24.3116   -7.7634 H   0  0  0  0  0
   -9.2034   25.2630   -7.3801 H   0  0  0  0  0
   -7.6424   27.3399   -9.8017 H   0  0  0  0  0
   -9.3605   27.1939  -11.2307 H   0  0  0  0  0
  -11.6294   26.2484  -11.6029 H   0  0  0  0  0
  -13.6576   25.2819  -10.5624 H   0  0  0  0  0
  -13.5602   24.4770   -8.9511 H   0  0  0  0  0
  -12.5834   22.5052   -9.9186 H   0  0  0  0  0
  -14.0703   20.6219  -10.5981 H   0  0  0  0  0
  -15.0996   22.2625   -9.0142 H   0  0  0  0  0
  -12.4459   23.9566  -12.5727 H   0  0  0  0  0
  -10.3414   24.1554  -13.3909 H   0  0  0  0  0
   -8.3589   22.0176  -12.5710 H   0  0  0  0  0
   -6.3224   22.4501  -12.2656 H   0  0  0  0  0
   -5.8618   25.2743  -11.3810 H   0  0  0  0  0
   -7.6351   24.0771  -10.1473 H   0  0  0  0  0
   -6.5385   22.6974   -9.8926 H   0  0  0  0  0
   -6.1852   24.2679   -9.1312 H   0  0  0  0  0
   -3.8542   23.7141  -12.0388 H   0  0  0  0  0
   -4.2511   22.9332  -10.4504 H   0  0  0  0  0
   -3.5771   25.8599  -10.8956 H   0  0  0  0  0
   -3.9667   25.0932   -9.3363 H   0  0  0  0  0
   -2.4863   24.6301  -10.2109 H   0  0  0  0  0
   -5.5270   24.7593  -14.0655 H   0  0  0  0  0
   -3.0422   23.1780  -15.4630 H   0  0  0  0  0
   -4.4559   22.7403  -16.4534 H   0  0  0  0  0
   -4.3201   24.3793  -15.7705 H   0  0  0  0  0
  -11.5611   22.2097  -14.4414 H   0  0  0  0  0
  -10.0971   21.2444  -14.1806 H   0  0  0  0  0
  -11.6745   23.8264  -16.2148 H   0  0  0  0  0
  -10.6577   24.8476  -18.2393 H   0  0  0  0  0
   -7.2180   24.3364  -19.0357 H   0  0  0  0  0
   -6.8720   23.0708  -17.2321 H   0  0  0  0  0
   -7.8851   22.0604  -15.2006 H   0  0  0  0  0
  1  2  4  0  0  0
  1  7  4  0  0  0
  2  3  4  0  0  0
  3  4  1  0  0  0
  3  5  4  0  0  0
  5  6  4  0  0  0
  6  7  4  0  0  0
  7  8  1  0  0  0
  8  9  1  0  0  0
  9 10  1  0  0  0
  9 14  1  0  0  0
 10 11  1  0  0  0
 10 12  1  0  0  0
 10 13  2  0  0  0
 14 15  1  0  0  0
 15 16  2  0  0  0
 15 17  1  0  0  0
 17 18  1  0  0  0
 17 30  1  0  0  0
 18 19  1  0  0  0
 19 20  2  0  0  0
 19 21  1  0  0  0
 21 22  1  0  0  0
 21 26  1  0  0  0
 22 23  1  0  0  0
 22 24  1  0  0  0
 24 25  1  0  0  0
 26 27  1  0  0  0
 27 28  1  0  0  0
 27 29  2  0  0  0
 30 31  1  0  0  0
 31 32  4  0  0  0
 31 37  4  0  0  0
 32 33  4  0  0  0
 33 34  4  0  0  0
 34 35  1  0  0  0
 34 36  4  0  0  0
 36 37  4  0  0  0
  1 38  1  0  0  0
  2 39  1  0  0  0
  4 40  1  0  0  0
  5 41  1  0  0  0
  6 42  1  0  0  0
  8 43  1  0  0  0
  8 44  1  0  0  0
  9 45  1  0  0  0
 11 46  1  0  0  0
 12 47  1  0  0  0
 14 48  1  0  0  0
 17 49  1  0  0  0
 18 50  1  0  0  0
 21 51  1  0  0  0
 22 52  1  0  0  0
 23 53  1  0  0  0
 23 54  1  0  0  0
 23 55  1  0  0  0
 24 56  1  0  0  0
 24 57  1  0  0  0
 25 58  1  0  0  0
 25 59  1  0  0  0
 25 60  1  0  0  0
 26 61  1  0  0  0
 28 62  1  0  0  0
 28 63  1  0  0  0
 28 64  1  0  0  0
 30 65  1  0  0  0
 30 66  1  0  0  0
 32 67  1  0  0  0
 33 68  1  0  0  0
 35 69  1  0  0  0
 36 70  1  0  0  0
 37 71  1  0  0  0
M  END
$$$$
