5a6i_ligand
  -I-interpret- 

 31 32  0  0  0  0  0  0  0  0999 V2000
    1.7420   21.5560   82.9900 O   0  0  0  0  0
    1.0330   21.3500   83.9530 C   0  0  0  0  0
    0.6310   19.9120   84.1320 C   0  0  0  0  0
    1.3000   18.8900   83.4340 C   0  0  0  0  0
    0.9180   17.5600   83.6190 C   0  0  0  0  0
    1.5370   16.5360   82.9520 O   0  0  0  0  0
   -0.3960   19.5790   85.0070 C   0  0  0  0  0
   -0.7820   18.2410   85.1810 C   0  0  0  0  0
   -1.8990   17.9030   86.1260 N   0  0  0  0  0
   -2.2530   16.7470   86.2910 O   0  0  0  0  0
   -2.4060   18.7650   86.6730 O   0  0  0  0  0
   -0.1260   17.2120   84.4970 C   0  0  0  0  0
   -0.5200   15.9250   84.6950 O   0  0  0  0  0
    0.6640   22.5080   84.8440 C   0  0  0  0  0
    0.1390   23.7100   84.3290 C   0  0  0  0  0
   -0.2240   24.7940   85.1510 C   0  0  0  0  0
   -0.0720   24.7140   86.5360 C   0  0  0  0  0
   -0.4480   25.8420   87.4450 C   0  0  0  0  0
    0.4280   23.5160   87.0420 C   0  0  0  0  0
    0.7900   22.4430   86.2250 C   0  0  0  0  0
    2.1135   19.1357   82.7514 H   0  0  0  0  0
    1.1385   15.7012   83.2088 H   0  0  0  0  0
   -0.9067   20.3647   85.5636 H   0  0  0  0  0
   -1.2418   15.9062   85.3276 H   0  0  0  0  0
    0.0087   23.8044   83.2509 H   0  0  0  0  0
   -0.6266   25.7022   84.7024 H   0  0  0  0  0
    0.1369   26.7250   87.1874 H   0  0  0  0  0
   -1.5094   26.0614   87.3298 H   0  0  0  0  0
   -0.2444   25.5582   88.4775 H   0  0  0  0  0
    0.5414   23.4120   88.1211 H   0  0  0  0  0
    1.1804   21.5337   86.6820 H   0  0  0  0  0
  1  2  2  0  0  0
  2  3  1  0  0  0
  2 14  1  0  0  0
  3  4  4  0  0  0
  3  7  4  0  0  0
  4  5  4  0  0  0
  5  6  1  0  0  0
  5 12  4  0  0  0
  7  8  4  0  0  0
  8  9  1  0  0  0
  8 12  4  0  0  0
  9 10  2  0  0  0
  9 11  2  0  0  0
 12 13  1  0  0  0
 14 15  4  0  0  0
 14 20  4  0  0  0
 15 16  4  0  0  0
 16 17  4  0  0  0
 17 18  1  0  0  0
 17 19  4  0  0  0
 19 20  4  0  0  0
  4 21  1  0  0  0
  6 22  1  0  0  0
  7 23  1  0  0  0
 13 24  1  0  0  0
 15 25  1  0  0  0
 16 26  1  0  0  0
 18 27  1  0  0  0
 18 28  1  0  0  0
 18 29  1  0  0  0
 19 30  1  0  0  0
 20 31  1  0  0  0
M  END
$$$$
