1qaw_ligand
  -I-interpret- 

 27 28  0  0  0  0  0  0  0  0999 V2000
   18.8700   62.9900   33.5200 N   0  3  0  0  0
   18.0540   61.8970   32.9690 C   0  0  0  0  0
   18.6300   61.2890   31.6440 C   0  0  0  0  0
   18.9510   62.0290   30.6470 O   0  0  0  0  0
   16.5960   62.4040   32.8280 C   0  0  0  0  0
   15.7190   61.2120   32.5080 C   0  0  0  0  0
   15.2960   60.8500   31.2560 C   0  0  0  0  0
   15.1820   60.2210   33.3890 C   0  0  0  0  0
   14.5300   59.7140   31.3070 N   0  0  0  0  0
   14.4700   59.2920   32.6070 C   0  0  0  0  0
   15.2460   60.0100   34.7750 C   0  0  0  0  0
   13.8060   58.1920   33.1670 C   0  0  0  0  0
   14.5980   58.9040   35.3170 C   0  0  0  0  0
   13.8850   58.0100   34.5060 C   0  0  0  0  0
   19.1420   60.1410   31.7730 O   0  0  0  0  0
   18.4384   63.3362   34.3769 H   0  0  0  0  0
   19.8068   62.6429   33.7259 H   0  0  0  0  0
   18.9286   63.7461   32.8379 H   0  0  0  0  0
   18.0768   61.0557   33.6617 H   0  0  0  0  0
   18.4749   62.8609   30.7010 H   0  0  0  0  0
   16.5293   63.1466   32.0329 H   0  0  0  0  0
   16.2688   62.8761   33.7544 H   0  0  0  0  0
   15.5363   61.3926   30.3417 H   0  0  0  0  0
   15.7939   60.7006   35.4161 H   0  0  0  0  0
   13.2410   57.5014   32.5409 H   0  0  0  0  0
   14.6457   58.7297   36.3919 H   0  0  0  0  0
   13.3861   57.1544   34.9611 H   0  0  0  0  0
  2  1  1  0  0  0
  2  5  1  0  0  0
  2  3  1  0  0  0
  3  4  1  0  0  0
  3 15  2  0  0  0
  5  6  1  0  0  0
  6  7  4  0  0  0
  6  8  4  0  0  0
  8 11  4  0  0  0
  8 10  4  0  0  0
 10 12  4  0  0  0
 10  9  4  0  0  0
  9  7  4  0  0  0
 12 14  4  0  0  0
 14 13  4  0  0  0
 13 11  4  0  0  0
  1 16  1  0  0  0
  1 17  1  0  0  0
  1 18  1  0  0  0
  2 19  1  0  0  0
  4 20  1  0  0  0
  5 21  1  0  0  0
  5 22  1  0  0  0
  7 23  1  0  0  0
 11 24  1  0  0  0
 12 25  1  0  0  0
 13 26  1  0  0  0
 14 27  1  0  0  0
M  END
$$$$
