4qo4_ligand
  -I-interpret- 

 68 72  0  0  0  0  0  0  0  0999 V2000
   13.7440  -10.9270   17.2960 Cl  0  0  0  0  0
   12.0590  -11.0270   17.3480 C   0  0  0  0  0
   11.4660  -11.9100   18.2470 C   0  0  0  0  0
   10.0650  -11.9640   18.2920 C   0  0  0  0  0
   11.3320  -10.1970   16.4860 C   0  0  0  0  0
    9.9260  -10.2660   16.5440 C   0  0  0  0  0
    9.2980  -11.1460   17.4480 C   0  0  0  0  0
    7.8010  -11.1880   17.5400 C   0  0  0  0  0
    7.1050  -12.4230   17.0360 N   0  0  0  0  0
    7.6330  -13.1030   15.8450 C   0  0  0  0  0
    5.9560  -12.9110   17.6040 C   0  0  0  0  0
    5.3230  -13.8140   17.0750 O   0  0  0  0  0
    5.4050  -12.3260   18.9080 C   0  0  0  0  0
    5.8940  -13.1640   20.1070 C   0  0  0  0  0
    5.1750  -12.7970   21.3800 C   0  0  0  0  0
    5.3640  -11.8580   22.1150 O   0  0  0  0  0
    4.2330  -13.7610   21.5540 O   0  0  0  0  0
    5.7870  -10.8830   19.1160 C   0  0  0  0  0
    7.2560  -10.6140   18.8790 C   0  0  0  0  0
    7.6190   -9.1620   19.1140 C   0  0  0  0  0
    6.8660   -8.1170   18.5380 C   0  0  0  0  0
    7.2350   -6.7590   18.7130 C   0  0  0  0  0
    8.3630   -6.4270   19.4690 C   0  0  0  0  0
    9.1060   -7.4680   20.0420 C   0  0  0  0  0
   10.5020   -7.1120   20.9640 Cl  0  0  0  0  0
    8.7540   -8.8200   19.8820 C   0  0  0  0  0
    7.7140  -14.6310   15.9090 C   0  0  0  0  0
    8.7820  -15.1270   16.8790 C   0  0  0  0  0
    3.8660  -12.2720   18.7670 C   0  0  0  0  0
    5.9070  -10.6870   13.5820 C   0  0  0  0  0
    5.5720  -11.4290   12.4410 C   0  0  0  0  0
    5.9090  -12.7860   12.3950 C   0  0  0  0  0
    6.5740  -13.4000   13.4710 C   0  0  0  0  0
    6.8890  -12.5960   14.5960 C   0  0  0  0  0
    6.5520  -11.2830   14.6210 N   0  0  0  0  0
    5.3330   -8.6170   14.9700 C   0  0  0  0  0
    6.5290   -8.2720   14.1540 C   0  0  0  0  0
    5.5210   -9.2220   13.6220 C   0  0  0  0  0
   12.0728  -12.5407   18.8967 H   0  0  0  0  0
    9.5700  -12.6440   18.9853 H   0  0  0  0  0
   11.8359   -9.5215   15.7947 H   0  0  0  0  0
    9.3229   -9.6377   15.8885 H   0  0  0  0  0
    7.4938  -10.4831   16.7674 H   0  0  0  0  0
    8.6865  -12.8285   15.7903 H   0  0  0  0  0
    6.9576  -12.9713   20.2475 H   0  0  0  0  0
    5.6959  -14.2143   19.8933 H   0  0  0  0  0
    4.2871  -14.3934   20.8338 H   0  0  0  0  0
    5.5687  -10.6304   20.1536 H   0  0  0  0  0
    5.2227  -10.2859   18.3997 H   0  0  0  0  0
    7.7857  -11.1853   19.6413 H   0  0  0  0  0
    5.9828   -8.3584   17.9466 H   0  0  0  0  0
    6.6366   -5.9708   18.2561 H   0  0  0  0  0
    8.6567   -5.3867   19.6090 H   0  0  0  0  0
    9.3545   -9.6008   20.3487 H   0  0  0  0  0
    7.9729  -14.9933   14.9141 H   0  0  0  0  0
    6.7497  -15.0019   16.2564 H   0  0  0  0  0
    9.7571  -14.7544   16.5654 H   0  0  0  0  0
    8.5577  -14.7628   17.8816 H   0  0  0  0  0
    8.7915  -16.2170   16.8807 H   0  0  0  0  0
    3.6021  -11.6395   17.9194 H   0  0  0  0  0
    3.4818  -13.2790   18.6041 H   0  0  0  0  0
    3.4332  -11.8596   19.6784 H   0  0  0  0  0
    5.0577  -10.9568   11.6039 H   0  0  0  0  0
    5.6529  -13.3746   11.5141 H   0  0  0  0  0
    6.8382  -14.4571   13.4415 H   0  0  0  0  0
    4.7486   -8.5074   15.8835 H   0  0  0  0  0
    7.4629   -7.7228   14.0345 H   0  0  0  0  0
    4.9259   -9.2808   12.7107 H   0  0  0  0  0
  2  1  1  0  0  0
  3  2  4  0  0  0
  5  2  4  0  0  0
  4  3  4  0  0  0
  7  4  4  0  0  0
  6  5  4  0  0  0
  7  6  4  0  0  0
  8  7  1  0  0  0
  9  8  1  0  0  0
  8 19  1  0  0  0
 10  9  1  0  0  0
  9 11  1  0  0  0
 10 27  1  0  0  0
 34 10  1  0  0  0
 11 12  2  0  0  0
 11 13  1  0  0  0
 13 14  1  0  0  0
 13 18  1  0  0  0
 13 29  1  0  0  0
 14 15  1  0  0  0
 15 16  2  0  0  0
 15 17  1  0  0  0
 19 18  1  0  0  0
 19 20  1  0  0  0
 20 21  4  0  0  0
 20 26  4  0  0  0
 21 22  4  0  0  0
 22 23  4  0  0  0
 24 23  4  0  0  0
 24 25  1  0  0  0
 26 24  4  0  0  0
 27 28  1  0  0  0
 30 31  4  0  0  0
 30 35  4  0  0  0
 38 30  1  0  0  0
 31 32  4  0  0  0
 32 33  4  0  0  0
 34 33  4  0  0  0
 35 34  4  0  0  0
 36 37  2  0  0  0
 36 38  1  0  0  0
 37 38  1  0  0  0
  3 39  1  0  0  0
  4 40  1  0  0  0
  5 41  1  0  0  0
  6 42  1  0  0  0
  8 43  1  0  0  0
 10 44  1  0  0  0
 14 45  1  0  0  0
 14 46  1  0  0  0
 17 47  1  0  0  0
 18 48  1  0  0  0
 18 49  1  0  0  0
 19 50  1  0  0  0
 21 51  1  0  0  0
 22 52  1  0  0  0
 23 53  1  0  0  0
 26 54  1  0  0  0
 27 55  1  0  0  0
 27 56  1  0  0  0
 28 57  1  0  0  0
 28 58  1  0  0  0
 28 59  1  0  0  0
 29 60  1  0  0  0
 29 61  1  0  0  0
 29 62  1  0  0  0
 31 63  1  0  0  0
 32 64  1  0  0  0
 33 65  1  0  0  0
 36 66  1  0  0  0
 37 67  1  0  0  0
 38 68  1  0  0  0
M  END
$$$$
