6q74_ligand
  -I-interpret- 

 55 58  0  0  0  0  0  0  0  0999 V2000
  -10.4810  -30.7720   20.9600 N   0  0  0  0  0
  -10.6730  -33.8020   21.8630 N   0  0  0  0  0
   -9.1310  -30.2030   22.9390 C   0  0  0  0  0
  -10.3640  -30.3240   22.3050 C   0  0  0  0  0
   -9.5000  -33.2580   21.4160 C   0  0  0  0  0
   -8.4010  -33.9200   21.8640 C   0  0  0  0  0
   -8.1030  -35.8820   23.4010 C   0  0  0  0  0
   -5.7020  -36.3260   22.7660 C   0  0  0  0  0
   -4.7980  -34.2710   24.3830 C   0  0  0  0  0
  -10.2880  -34.8200   22.5950 C   0  0  0  0  0
   -7.7440  -29.5110   24.9230 C   0  0  0  0  0
   -6.4800  -28.7110   26.8990 C   0  0  0  0  0
   -7.5480  -28.3530   25.9160 C   0  0  0  0  0
   -8.1740  -31.3060   20.2930 O   0  0  0  0  0
   -9.4880  -31.8700   20.2960 S   0  0  0  0  0
  -10.0760  -32.2950   19.0670 O   0  0  0  0  0
   -9.0640  -29.6220   24.2020 C   0  0  0  0  0
   -5.2940  -29.0920   26.1980 O   0  0  0  0  0
   -5.4580  -30.3420   25.5350 C   0  0  0  0  0
   -6.7230  -30.4210   24.7440 C   0  0  0  0  0
  -10.2540  -29.1720   24.7660 C   0  0  0  0  0
  -11.4610  -29.2940   24.1900 N   0  0  0  0  0
  -11.5260  -29.8760   23.0050 C   0  0  0  0  0
  -12.7110  -30.1460   22.4140 O   0  0  0  0  0
  -13.8740  -29.4920   22.9100 C   0  0  0  0  0
  -11.1930  -35.7540   23.3160 C   0  0  0  0  0
   -8.9120  -34.9230   22.6320 N   0  0  0  0  0
   -6.6310  -35.5400   23.4450 C   0  0  0  0  0
   -6.1610  -34.4950   24.2400 C   0  0  0  0  0
   -3.8870  -35.0850   23.7320 C   0  0  0  0  0
   -4.3390  -36.1020   22.9130 C   0  0  0  0  0
  -11.2272  -30.3831   20.3835 H   0  0  0  0  0
   -8.2247  -30.5605   22.4502 H   0  0  0  0  0
   -7.3537  -33.6998   21.6570 H   0  0  0  0  0
   -8.1972  -36.8521   22.9129 H   0  0  0  0  0
   -8.4709  -35.8689   24.4270 H   0  0  0  0  0
   -6.0489  -37.1259   22.1119 H   0  0  0  0  0
   -4.4445  -33.4521   25.0095 H   0  0  0  0  0
   -6.8193  -29.5424   27.5168 H   0  0  0  0  0
   -6.2664  -27.8501   27.5324 H   0  0  0  0  0
   -8.4820  -28.1690   26.4468 H   0  0  0  0  0
   -7.2537  -27.4553   25.3722 H   0  0  0  0  0
   -5.4936  -31.1203   26.2973 H   0  0  0  0  0
   -4.6250  -30.4626   24.8424 H   0  0  0  0  0
   -6.8419  -31.2164   24.0082 H   0  0  0  0  0
  -10.2029  -28.6878   25.7412 H   0  0  0  0  0
  -14.0161  -29.7521   23.9589 H   0  0  0  0  0
  -13.7508  -28.4131   22.8153 H   0  0  0  0  0
  -14.7425  -29.8117   22.3342 H   0  0  0  0  0
  -11.7927  -35.1949   24.0342 H   0  0  0  0  0
  -11.8491  -36.2480   22.5993 H   0  0  0  0  0
  -10.5982  -36.5014   23.8411 H   0  0  0  0  0
   -6.8709  -33.8473   24.7545 H   0  0  0  0  0
   -2.8171  -34.9243   23.8650 H   0  0  0  0  0
   -3.6243  -36.7300   22.3810 H   0  0  0  0  0
  1  4  1  0  0  0
 15  1  1  0  0  0
  2  5  4  0  0  0
 10  2  4  0  0  0
  4  3  4  0  0  0
  3 17  4  0  0  0
  4 23  4  0  0  0
  6  5  4  0  0  0
  5 15  1  0  0  0
 27  6  4  0  0  0
  7 27  1  0  0  0
 28  7  1  0  0  0
 28  8  4  0  0  0
  8 31  4  0  0  0
 29  9  4  0  0  0
  9 30  4  0  0  0
 10 26  1  0  0  0
 27 10  4  0  0  0
 11 13  1  0  0  0
 17 11  1  0  0  0
 11 20  2  0  0  0
 13 12  1  0  0  0
 12 18  1  0  0  0
 15 14  2  0  0  0
 15 16  2  0  0  0
 17 21  4  0  0  0
 19 18  1  0  0  0
 20 19  1  0  0  0
 22 21  4  0  0  0
 23 22  4  0  0  0
 23 24  1  0  0  0
 24 25  1  0  0  0
 28 29  4  0  0  0
 30 31  4  0  0  0
  1 32  1  0  0  0
  3 33  1  0  0  0
  6 34  1  0  0  0
  7 35  1  0  0  0
  7 36  1  0  0  0
  8 37  1  0  0  0
  9 38  1  0  0  0
 12 39  1  0  0  0
 12 40  1  0  0  0
 13 41  1  0  0  0
 13 42  1  0  0  0
 19 43  1  0  0  0
 19 44  1  0  0  0
 20 45  1  0  0  0
 21 46  1  0  0  0
 25 47  1  0  0  0
 25 48  1  0  0  0
 25 49  1  0  0  0
 26 50  1  0  0  0
 26 51  1  0  0  0
 26 52  1  0  0  0
 29 53  1  0  0  0
 30 54  1  0  0  0
 31 55  1  0  0  0
M  END
$$$$
