3sn7_ligand
  -I-interpret- 

 42 45  0  0  0  0  0  0  0  0999 V2000
   17.4080  -11.0410  -35.1670 C   0  0  0  0  0
   20.4070  -10.0460  -38.9650 F   0  0  0  0  0
   17.7320   -7.2280  -34.9590 N   0  0  0  0  0
   22.7030  -14.2690  -37.9940 O   0  0  0  0  0
   18.0160   -9.6870  -34.8110 C   0  0  0  0  0
   20.1100  -10.8650  -32.3660 N   0  0  0  0  0
   17.2700   -8.5170  -35.2270 C   0  0  0  0  0
   20.6080  -11.5370  -34.3870 N   0  0  0  0  0
   18.9230   -7.0220  -34.2070 C   0  0  0  0  0
   22.0960  -13.9040  -35.2640 N   0  0  0  0  0
   19.7460   -8.0930  -33.7210 C   0  0  0  0  0
   19.2770   -9.4380  -34.0550 C   0  0  0  0  0
   20.0080  -10.6190  -33.6240 C   0  0  0  0  0
   20.7930  -12.0610  -32.1760 C   0  0  0  0  0
   21.1330  -12.5230  -33.4480 C   0  0  0  0  0
   20.8610  -11.7240  -35.8030 C   0  0  0  0  0
   20.4660  -10.8150  -36.7750 C   0  0  0  0  0
   20.7930  -11.0110  -38.1280 C   0  0  0  0  0
   21.5180  -12.1570  -38.6050 C   0  0  0  0  0
   21.9580  -13.1630  -37.6350 C   0  0  0  0  0
   21.6410  -12.9440  -36.2170 C   0  0  0  0  0
   21.8860  -13.7030  -33.9740 C   0  0  0  0  0
   22.4060  -14.7110  -33.0680 C   0  0  0  0  0
   23.1510  -14.3620  -39.3610 C   0  0  0  0  0
   21.1010  -12.5790  -30.7960 C   0  0  0  0  0
   16.4263  -11.1306  -34.7019 H   0  0  0  0  0
   17.3071  -11.1192  -36.2495 H   0  0  0  0  0
   18.0579  -11.8367  -34.8029 H   0  0  0  0  0
   16.3283   -8.6463  -35.7604 H   0  0  0  0  0
   19.2257   -5.9978  -33.9889 H   0  0  0  0  0
   20.6544   -7.9170  -33.1449 H   0  0  0  0  0
   19.8928   -9.9347  -36.4842 H   0  0  0  0  0
   21.7359  -12.2751  -39.6665 H   0  0  0  0  0
   21.9504  -15.6741  -33.2979 H   0  0  0  0  0
   23.4872  -14.7815  -33.1869 H   0  0  0  0  0
   22.1695  -14.4316  -32.0413 H   0  0  0  0  0
   22.2869  -14.3710  -40.0254 H   0  0  0  0  0
   23.7815  -13.5041  -39.5945 H   0  0  0  0  0
   23.7221  -15.2810  -39.4931 H   0  0  0  0  0
   21.7170  -11.8527  -30.2658 H   0  0  0  0  0
   20.1697  -12.7340  -30.2513 H   0  0  0  0  0
   21.6385  -13.5239  -30.8756 H   0  0  0  0  0
  5  1  1  0  0  0
 18  2  1  0  0  0
  7  3  4  0  0  0
  9  3  4  0  0  0
 20  4  1  0  0  0
  4 24  1  0  0  0
  5  7  4  0  0  0
 12  5  4  0  0  0
 13  6  4  0  0  0
 14  6  4  0  0  0
  8 13  4  0  0  0
  8 15  4  0  0  0
 16  8  4  0  0  0
 11  9  4  0  0  0
 21 10  4  0  0  0
 10 22  4  0  0  0
 12 11  4  0  0  0
 13 12  1  0  0  0
 15 14  4  0  0  0
 14 25  1  0  0  0
 15 22  4  0  0  0
 17 16  4  0  0  0
 16 21  4  0  0  0
 18 17  4  0  0  0
 19 18  4  0  0  0
 19 20  4  0  0  0
 20 21  4  0  0  0
 22 23  1  0  0  0
  1 26  1  0  0  0
  1 27  1  0  0  0
  1 28  1  0  0  0
  7 29  1  0  0  0
  9 30  1  0  0  0
 11 31  1  0  0  0
 17 32  1  0  0  0
 19 33  1  0  0  0
 23 34  1  0  0  0
 23 35  1  0  0  0
 23 36  1  0  0  0
 24 37  1  0  0  0
 24 38  1  0  0  0
 24 39  1  0  0  0
 25 40  1  0  0  0
 25 41  1  0  0  0
 25 42  1  0  0  0
M  END
$$$$
