### 
### Created by X-TOOL on Mon Sep 10 21:13:17 2018
### 

@<TRIPOS>MOLECULE
4kxm_ligand
   48    50     1     0     0
SMALL
GAST_HUCK


@<TRIPOS>ATOM
      1 OP3         0.6980    1.1210   38.9070 O.co2     1 6IA        -0.5537
      2 P           1.3120    2.2320   37.9110 P.3       1 6IA         0.2008
      3 OP1         0.5360    2.3830   36.6650 O.co2     1 6IA        -0.5537
      4 OP2         1.4120    3.5840   38.7440 O.co2     1 6IA        -0.5537
      5 O5'         2.8450    1.8320   37.6310 O.3       1 6IA        -0.2734
      6 C5'         3.1670    0.6220   37.0020 C.3       1 6IA         0.1072
      7 C4'         4.6710    0.4190   37.0920 C.3       1 6IA         0.1182
      8 O4'         5.1320    0.3460   38.4670 O.3       1 6IA        -0.3365
      9 C3'         5.0190   -0.8840   36.4060 C.3       1 6IA         0.1149
     10 O3'         5.9650   -0.5470   35.3990 O.3       1 6IA        -0.3864
     11 C2'         5.6380   -1.7780   37.4830 C.3       1 6IA         0.1385
     12 O2'         7.0090   -2.0700   37.1720 O.3       1 6IA        -0.3836
     13 C1'         5.5470   -0.9860   38.8050 C.3       1 6IA         0.2010
     14 N9          4.5260   -1.5970   39.6770 N.pl3     1 6IA        -0.1919
     15 C8          3.3920   -1.0220   40.0900 C.2       1 6IA         0.1123
     16 N7          2.7180   -1.8940   40.8460 N.2       1 6IA        -0.2957
     17 C5          3.4140   -3.0260   40.9200 C.ar      1 6IA         0.1048
     18 C6          3.2120   -4.2530   41.5460 C.ar      1 6IA         0.1335
     19 N6          2.1150   -4.4910   42.2860 N.pl3     1 6IA        -0.2971
     20 N1          4.1520   -5.2010   41.4090 N.ar      1 6IA        -0.2696
     21 C2          5.2440   -4.9890   40.6940 C.ar      1 6IA         0.0533
     22 N3          5.4620   -3.8380   40.0800 N.ar      1 6IA        -0.2714
     23 C4          4.5670   -2.8370   40.1800 C.ar      1 6IA         0.1613
     24 C12         1.5220   -5.8460   42.4000 C.3       1 6IA         0.0363
     25 C13         2.1440   -6.5840   43.4130 C.2       1 6IA        -0.0871
     26 C14         3.0510   -7.6520   43.3060 C.2       1 6IA        -0.0852
     27 C15         3.5140   -8.1990   41.9410 C.3       1 6IA        -0.0406
     28 C16         3.6040   -8.3070   44.5790 C.3       1 6IA        -0.0406
     29 H           2.8598    0.6589   35.9464 H         1 6IA         0.0639
     30 H           2.6495   -0.2077   37.5058 H         1 6IA         0.0639
     31 H           5.1774    1.2544   36.5863 H         1 6IA         0.0650
     32 H           4.1335   -1.3643   35.9642 H         1 6IA         0.0648
     33 H           6.7294   -0.1536   35.8031 H         1 6IA         0.2100
     34 H           5.0744   -2.7191   37.5640 H         1 6IA         0.0676
     35 H           7.5014   -1.2590   37.1245 H         1 6IA         0.2101
     36 H           6.5217   -0.9719   39.3146 H         1 6IA         0.0996
     37 H           3.0704   -0.0097   39.8499 H         1 6IA         0.1349
     38 H           1.6728   -3.7086   42.7892 H         1 6IA         0.1873
     39 H           5.9804   -5.7799   40.6088 H         1 6IA         0.0996
     40 H           1.6457   -6.3741   41.4430 H         1 6IA         0.0600
     41 H           0.4507   -5.7512   42.6307 H         1 6IA         0.0600
     42 H           1.8888   -6.2885   44.4296 H         1 6IA         0.0262
     43 H           4.2189   -9.0287   42.0985 H         1 6IA         0.0375
     44 H           4.0113   -7.3979   41.3745 H         1 6IA         0.0375
     45 H           2.6422   -8.5608   41.3761 H         1 6IA         0.0375
     46 H           3.1806   -7.8066   45.4624 H         1 6IA         0.0375
     47 H           4.6998   -8.2121   44.5939 H         1 6IA         0.0375
     48 H           3.3279   -9.3717   44.5932 H         1 6IA         0.0375
@<TRIPOS>BOND
     1    1    2 ar 
     2    2    3 ar 
     3    2    4 ar 
     4    2    5 1  
     5    5    6 1  
     6    6    7 1  
     7    7    8 1  
     8    7    9 1  
     9    8   13 1  
    10    9   10 1  
    11    9   11 1  
    12   11   12 1  
    13   11   13 1  
    14   13   14 1  
    15   14   15 1  
    16   14   23 1  
    17   15   16 2  
    18   16   17 1  
    19   17   18 ar 
    20   17   23 ar 
    21   18   19 1  
    22   18   20 ar 
    23   19   24 1  
    24   20   21 ar 
    25   21   22 ar 
    26   22   23 ar 
    27   24   25 1  
    28   25   26 2  
    29   26   27 1  
    30   26   28 1  
    31    6   29 1  
    32    6   30 1  
    33    7   31 1  
    34    9   32 1  
    35   10   33 1  
    36   11   34 1  
    37   12   35 1  
    38   13   36 1  
    39   15   37 1  
    40   19   38 1  
    41   21   39 1  
    42   24   40 1  
    43   24   41 1  
    44   25   42 1  
    45   27   43 1  
    46   27   44 1  
    47   27   45 1  
    48   28   46 1  
    49   28   47 1  
    50   28   48 1  
@<TRIPOS>SUBSTRUCTURE
     1 6IA         1

