4kxm_ligand
  -I-interpret- 

 50 52  0  0  0  0  0  0  0  0999 V2000
    0.6980    1.1210   38.9070 O   0  0  0  0  0
    1.3120    2.2320   37.9110 P   0  0  0  0  0
    0.5360    2.3830   36.6650 O   0  0  0  0  0
    1.4120    3.5840   38.7440 O   0  0  0  0  0
    2.8450    1.8320   37.6310 O   0  0  0  0  0
    3.1670    0.6220   37.0020 C   0  0  0  0  0
    4.6710    0.4190   37.0920 C   0  0  0  0  0
    5.1320    0.3460   38.4670 O   0  0  0  0  0
    5.0190   -0.8840   36.4060 C   0  0  0  0  0
    5.9650   -0.5470   35.3990 O   0  0  0  0  0
    5.6380   -1.7780   37.4830 C   0  0  0  0  0
    7.0090   -2.0700   37.1720 O   0  0  0  0  0
    5.5470   -0.9860   38.8050 C   0  0  0  0  0
    4.5260   -1.5970   39.6770 N   0  0  0  0  0
    3.3920   -1.0220   40.0900 C   0  0  0  0  0
    2.7180   -1.8940   40.8460 N   0  0  0  0  0
    3.4140   -3.0260   40.9200 C   0  0  0  0  0
    3.2120   -4.2530   41.5460 C   0  0  0  0  0
    2.1150   -4.4910   42.2860 N   0  0  0  0  0
    4.1520   -5.2010   41.4090 N   0  0  0  0  0
    5.2440   -4.9890   40.6940 C   0  0  0  0  0
    5.4620   -3.8380   40.0800 N   0  0  0  0  0
    4.5670   -2.8370   40.1800 C   0  0  0  0  0
    1.5220   -5.8460   42.4000 C   0  0  0  0  0
    2.1440   -6.5840   43.4130 C   0  0  0  0  0
    3.0510   -7.6520   43.3060 C   0  0  0  0  0
    3.5140   -8.1990   41.9410 C   0  0  0  0  0
    3.6040   -8.3070   44.5790 C   0  0  0  0  0
    1.2408    1.0661   39.6969 H   0  0  0  0  0
    1.9248    3.4304   39.5409 H   0  0  0  0  0
    2.8566    0.6507   35.9575 H   0  0  0  0  0
    2.6496   -0.2024   37.4927 H   0  0  0  0  0
    5.1552    1.2716   36.6159 H   0  0  0  0  0
    4.1732   -1.4018   35.9537 H   0  0  0  0  0
    6.2245   -1.3414   34.9266 H   0  0  0  0  0
    5.1139   -2.7313   37.5512 H   0  0  0  0  0
    7.3791   -2.6307   37.8577 H   0  0  0  0  0
    6.5049   -0.9867   39.3250 H   0  0  0  0  0
    3.0701   -0.0087   39.8497 H   0  0  0  0  0
    1.6771   -3.7162   42.7843 H   0  0  0  0  0
    5.9845   -5.7843   40.6083 H   0  0  0  0  0
    1.6598   -6.3680   41.4531 H   0  0  0  0  0
    0.4639   -5.7447   42.6415 H   0  0  0  0  0
    1.8885   -6.2883   44.4305 H   0  0  0  0  0
    2.6493   -8.5571   41.3823 H   0  0  0  0  0
    4.0065   -7.4043   41.3807 H   0  0  0  0  0
    4.2123   -9.0210   42.0983 H   0  0  0  0  0
    4.1368   -7.5606   45.1681 H   0  0  0  0  0
    2.7793   -8.7131   45.1648 H   0  0  0  0  0
    4.2872   -9.1109   44.3051 H   0  0  0  0  0
  1  2  1  0  0  0
  2  3  2  0  0  0
  2  4  1  0  0  0
  2  5  1  0  0  0
  5  6  1  0  0  0
  6  7  1  0  0  0
  7  8  1  0  0  0
  7  9  1  0  0  0
  8 13  1  0  0  0
  9 10  1  0  0  0
  9 11  1  0  0  0
 11 12  1  0  0  0
 11 13  1  0  0  0
 13 14  1  0  0  0
 14 15  4  0  0  0
 14 23  4  0  0  0
 15 16  4  0  0  0
 16 17  4  0  0  0
 17 18  4  0  0  0
 17 23  4  0  0  0
 18 19  1  0  0  0
 18 20  4  0  0  0
 19 24  1  0  0  0
 20 21  4  0  0  0
 21 22  4  0  0  0
 22 23  4  0  0  0
 24 25  1  0  0  0
 25 26  2  0  0  0
 26 27  1  0  0  0
 26 28  1  0  0  0
  1 29  1  0  0  0
  4 30  1  0  0  0
  6 31  1  0  0  0
  6 32  1  0  0  0
  7 33  1  0  0  0
  9 34  1  0  0  0
 10 35  1  0  0  0
 11 36  1  0  0  0
 12 37  1  0  0  0
 13 38  1  0  0  0
 15 39  1  0  0  0
 19 40  1  0  0  0
 21 41  1  0  0  0
 24 42  1  0  0  0
 24 43  1  0  0  0
 25 44  1  0  0  0
 27 45  1  0  0  0
 27 46  1  0  0  0
 27 47  1  0  0  0
 28 48  1  0  0  0
 28 49  1  0  0  0
 28 50  1  0  0  0
M  END
$$$$
