5lvx_ligand
  -I-interpret- 

 72 76  0  0  0  0  0  0  0  0999 V2000
   -0.7130  -28.5360  -24.2180 C   0  0  0  0  0
   -0.6900  -27.1000  -23.7120 C   0  0  0  0  0
    0.6760  -26.5830  -23.2780 C   0  0  0  0  0
    0.9980  -27.0160  -21.8490 C   0  0  0  0  0
    1.8160  -28.2950  -21.8370 C   0  0  0  0  0
    1.3080  -29.2870  -20.8070 C   0  0  0  0  0
    2.3190  -30.4210  -20.7780 C   0  0  0  0  0
    1.7450  -33.4070  -21.4060 C   0  0  0  0  0
    1.2170  -33.7670  -22.4120 C   0  0  0  0  0
   -0.6680  -36.3690  -24.0110 C   0  0  0  0  0
   -0.5820  -35.9550  -25.3200 C   0  0  0  0  0
   -1.1630  -36.6550  -26.4960 C   0  0  0  0  0
   -0.3400  -36.0620  -27.6430 C   0  0  0  0  0
    0.0570  -34.6530  -27.1640 C   0  0  0  0  0
    0.7380  -34.0540  -24.7140 C   0  0  0  0  0
   -1.1460  -36.0960  -28.8970 N   0  0  0  0  0
   -0.5200  -36.6530  -30.0180 C   0  0  0  0  0
   -0.5520  -37.3580  -32.3060 C   0  0  0  0  0
   -3.2170  -36.5620  -32.6210 C   0  0  0  0  0
   -2.5720  -36.4060  -31.3930 C   0  0  0  0  0
   -1.2280  -36.7930  -31.2220 C   0  0  0  0  0
    2.8260  -37.9980  -30.9290 C   0  0  0  0  0
    3.3710  -38.9210  -31.8220 C   0  0  0  0  0
    4.7200  -39.2030  -31.7570 C   0  0  0  0  0
    5.5160  -38.5480  -30.8200 C   0  0  0  0  0
    3.6670  -37.3470  -30.0300 C   0  0  0  0  0
    0.0990  -28.9180  -25.0460 O   0  0  0  0  0
    1.8840  -31.5240  -19.8420 C   0  0  0  0  0
    2.4580  -32.8670  -20.2360 C   0  0  0  0  0
    0.6410  -34.4440  -23.3640 C   0  0  0  0  0
    0.1040  -34.8380  -25.6760 C   0  0  0  0  0
   -0.0490  -35.6080  -23.0260 C   0  0  0  0  0
   -2.5100  -37.1190  -33.7010 C   0  0  0  0  0
   -1.1880  -37.5220  -33.5410 C   0  0  0  0  0
    0.7300  -37.7360  -32.1700 N   0  0  0  0  0
    1.3960  -37.6090  -30.9970 C   0  0  0  0  0
    0.7740  -37.0560  -29.9470 N   0  0  0  0  0
    4.9830  -37.6390  -29.9890 N   0  0  0  0  0
   -1.4621  -29.2301  -23.8371 H   0  0  0  0  0
   -1.3292  -27.0702  -22.8296 H   0  0  0  0  0
   -1.0115  -26.4717  -24.5426 H   0  0  0  0  0
    0.6663  -25.4938  -23.3190 H   0  0  0  0  0
    1.4331  -26.9934  -23.9462 H   0  0  0  0  0
    0.0623  -27.1953  -21.3195 H   0  0  0  0  0
    1.5762  -26.2275  -21.3674 H   0  0  0  0  0
    2.8448  -28.0386  -21.5840 H   0  0  0  0  0
    1.7394  -28.7571  -22.8212 H   0  0  0  0  0
    0.3148  -29.6520  -21.0686 H   0  0  0  0  0
    1.2111  -28.8211  -19.8264 H   0  0  0  0  0
    3.2724  -30.0257  -20.4275 H   0  0  0  0  0
    2.4047  -30.8339  -21.7831 H   0  0  0  0  0
   -1.2116  -37.2772  -23.7508 H   0  0  0  0  0
   -2.2368  -36.5040  -26.6065 H   0  0  0  0  0
   -1.1010  -37.7413  -26.4312 H   0  0  0  0  0
    0.5652  -36.6190  -27.8848 H   0  0  0  0  0
   -0.6364  -33.8748  -27.4829 H   0  0  0  0  0
    0.9972  -34.2996  -27.5873 H   0  0  0  0  0
    1.2949  -33.1614  -24.9991 H   0  0  0  0  0
   -2.0989  -35.7341  -28.9356 H   0  0  0  0  0
   -4.2562  -36.2557  -32.7411 H   0  0  0  0  0
   -3.1173  -35.9775  -30.5521 H   0  0  0  0  0
    2.7392  -39.4130  -32.5615 H   0  0  0  0  0
    5.1604  -39.9341  -32.4349 H   0  0  0  0  0
    6.5803  -38.7756  -30.7613 H   0  0  0  0  0
    3.2585  -36.5956  -29.3542 H   0  0  0  0  0
    0.7970  -31.5945  -19.8828 H   0  0  0  0  0
    2.2435  -31.2817  -18.8419 H   0  0  0  0  0
    3.5111  -32.7427  -20.4884 H   0  0  0  0  0
    2.3462  -33.5594  -19.4016 H   0  0  0  0  0
   -0.1032  -35.9227  -21.9838 H   0  0  0  0  0
   -2.9997  -37.2356  -34.6678 H   0  0  0  0  0
   -0.6481  -37.9654  -34.3777 H   0  0  0  0  0
  2  1  1  0  0  0
  1 27  2  0  0  0
  3  2  1  0  0  0
  4  3  1  0  0  0
  5  4  1  0  0  0
  6  5  1  0  0  0
  7  6  1  0  0  0
 28  7  1  0  0  0
  9  8  3  0  0  0
  8 29  1  0  0  0
 30  9  1  0  0  0
 11 10  4  0  0  0
 10 32  4  0  0  0
 12 11  1  0  0  0
 31 11  4  0  0  0
 13 12  1  0  0  0
 13 14  1  0  0  0
 16 13  1  0  0  0
 14 31  1  0  0  0
 15 30  4  0  0  0
 31 15  4  0  0  0
 17 16  1  0  0  0
 21 17  4  0  0  0
 17 37  4  0  0  0
 18 21  4  0  0  0
 18 34  4  0  0  0
 35 18  4  0  0  0
 20 19  4  0  0  0
 33 19  4  0  0  0
 21 20  4  0  0  0
 22 23  4  0  0  0
 22 26  4  0  0  0
 36 22  1  0  0  0
 23 24  4  0  0  0
 24 25  4  0  0  0
 38 25  4  0  0  0
 26 38  4  0  0  0
 29 28  1  0  0  0
 30 32  4  0  0  0
 34 33  4  0  0  0
 35 36  4  0  0  0
 36 37  4  0  0  0
  1 39  1  0  0  0
  2 40  1  0  0  0
  2 41  1  0  0  0
  3 42  1  0  0  0
  3 43  1  0  0  0
  4 44  1  0  0  0
  4 45  1  0  0  0
  5 46  1  0  0  0
  5 47  1  0  0  0
  6 48  1  0  0  0
  6 49  1  0  0  0
  7 50  1  0  0  0
  7 51  1  0  0  0
 10 52  1  0  0  0
 12 53  1  0  0  0
 12 54  1  0  0  0
 13 55  1  0  0  0
 14 56  1  0  0  0
 14 57  1  0  0  0
 15 58  1  0  0  0
 16 59  1  0  0  0
 19 60  1  0  0  0
 20 61  1  0  0  0
 23 62  1  0  0  0
 24 63  1  0  0  0
 25 64  1  0  0  0
 26 65  1  0  0  0
 28 66  1  0  0  0
 28 67  1  0  0  0
 29 68  1  0  0  0
 29 69  1  0  0  0
 32 70  1  0  0  0
 33 71  1  0  0  0
 34 72  1  0  0  0
M  END
$$$$
