6ocw_ligand
  -I-interpret- 

 68 70  0  0  0  0  0  0  0  0999 V2000
   76.5240  -26.4610  197.7710 C   0  0  0  0  0
   76.9160  -25.1900  198.1420 C   0  0  0  0  0
   78.2320  -24.5260  197.7750 C   0  0  0  0  0
   75.8990  -24.6660  198.8800 O   0  0  0  0  0
   74.8820  -25.5970  198.9730 N   0  0  0  0  0
   75.2460  -26.6770  198.3200 C   0  0  0  0  0
   74.4160  -27.9420  198.1600 C   0  0  0  0  0
   74.8900  -29.0130  198.2190 O   0  0  0  0  0
   67.8640  -24.7160  198.5510 C   0  0  0  0  0
   68.0630  -26.8860  197.4490 C   0  0  0  0  0
   72.6340  -29.7310  196.4430 C   0  0  0  0  0
   72.2350  -29.0330  197.7360 C   0  0  0  0  0
   70.7610  -28.6980  197.5670 C   0  0  0  0  0
   70.0350  -28.2240  198.8530 C   0  0  0  0  0
   67.8400  -26.7820  199.7890 C   0  0  0  0  0
   67.7110  -25.2650  199.7980 C   0  0  0  0  0
   67.3920  -25.5080  197.5320 C   0  0  0  0  0
   67.0580  -27.9330  197.0940 C   0  0  0  0  0
   68.8270  -27.3950  198.7330 N   0  0  0  0  0
   72.9700  -27.8190  197.8850 N   0  0  0  0  0
   72.8450  -29.1490  195.4310 O   0  0  0  0  0
   70.4620  -28.5200  199.9040 O   0  0  0  0  0
   72.7340  -31.1750  196.5610 N   0  0  0  0  0
   73.0670  -32.0600  195.4450 C   0  0  0  0  0
   71.6740  -32.5490  195.0320 C   0  0  0  0  0
   70.9210  -32.9250  195.8670 O   0  0  0  0  0
   73.9060  -33.1820  196.0020 C   0  0  0  0  0
   69.8430  -33.0260  193.3100 C   0  0  0  0  0
   69.1540  -32.0730  192.2830 C   0  0  0  0  0
   69.4590  -32.2060  190.9560 C   0  0  0  0  0
   68.8540  -31.3630  190.0220 C   0  0  0  0  0
   67.9420  -30.4010  190.4470 C   0  0  0  0  0
   67.6380  -30.2770  191.7920 C   0  0  0  0  0
   68.2360  -31.1140  192.7070 C   0  0  0  0  0
   67.3420  -29.5660  189.5420 F   0  0  0  0  0
   67.9280  -30.9840  194.0300 F   0  0  0  0  0
   71.1980  -32.5410  193.6190 N   0  0  0  0  0
   77.0965  -27.1647  197.1667 H   0  0  0  0  0
   79.0584  -25.1193  198.1664 H   0  0  0  0  0
   78.3133  -24.4586  196.6901 H   0  0  0  0  0
   78.2653  -23.5254  198.2060 H   0  0  0  0  0
   68.9327  -24.5786  198.3863 H   0  0  0  0  0
   67.2913  -23.7887  198.5326 H   0  0  0  0  0
   68.8236  -26.7335  196.6833 H   0  0  0  0  0
   72.4306  -29.6571  198.6080 H   0  0  0  0  0
   70.2671  -29.6170  197.2515 H   0  0  0  0  0
   70.7088  -27.8720  196.8577 H   0  0  0  0  0
   66.8518  -27.1674  199.5378 H   0  0  0  0  0
   68.2353  -27.0571  200.7668 H   0  0  0  0  0
   66.7116  -25.0152  200.1544 H   0  0  0  0  0
   68.4964  -24.8652  200.4394 H   0  0  0  0  0
   67.6019  -24.9897  196.5964 H   0  0  0  0  0
   66.3313  -25.6760  197.7183 H   0  0  0  0  0
   66.2798  -27.9613  197.8567 H   0  0  0  0  0
   66.6130  -27.6950  196.1278 H   0  0  0  0  0
   67.5505  -28.9039  197.0393 H   0  0  0  0  0
   72.5177  -26.9083  197.8053 H   0  0  0  0  0
   72.5623  -31.5960  197.4740 H   0  0  0  0  0
   73.6233  -31.6205  194.6171 H   0  0  0  0  0
   74.8107  -32.7700  196.4490 H   0  0  0  0  0
   73.3359  -33.7181  196.7608 H   0  0  0  0  0
   74.1758  -33.8662  195.1975 H   0  0  0  0  0
   69.9098  -34.0260  192.8814 H   0  0  0  0  0
   69.2538  -33.0505  194.2267 H   0  0  0  0  0
   70.1698  -32.9653  190.6300 H   0  0  0  0  0
   69.0950  -31.4578  188.9632 H   0  0  0  0  0
   66.9282  -29.5198  192.1251 H   0  0  0  0  0
   71.8059  -32.2025  192.8732 H   0  0  0  0  0
  1  2  4  0  0  0
  6  1  4  0  0  0
  2  3  1  0  0  0
  4  2  4  0  0  0
  5  4  4  0  0  0
  6  5  4  0  0  0
  7  6  1  0  0  0
  7  8  2  0  0  0
 20  7  1  0  0  0
 16  9  1  0  0  0
 17  9  1  0  0  0
 10 17  1  0  0  0
 10 18  1  0  0  0
 19 10  1  0  0  0
 11 12  1  0  0  0
 11 21  2  0  0  0
 23 11  1  0  0  0
 12 13  1  0  0  0
 12 20  1  0  0  0
 13 14  1  0  0  0
 14 19  1  0  0  0
 14 22  2  0  0  0
 15 16  1  0  0  0
 19 15  1  0  0  0
 24 23  1  0  0  0
 25 24  1  0  0  0
 24 27  1  0  0  0
 25 26  2  0  0  0
 37 25  1  0  0  0
 28 29  1  0  0  0
 28 37  1  0  0  0
 29 30  4  0  0  0
 29 34  4  0  0  0
 30 31  4  0  0  0
 31 32  4  0  0  0
 32 33  4  0  0  0
 32 35  1  0  0  0
 33 34  4  0  0  0
 34 36  1  0  0  0
  1 38  1  0  0  0
  3 39  1  0  0  0
  3 40  1  0  0  0
  3 41  1  0  0  0
  9 42  1  0  0  0
  9 43  1  0  0  0
 10 44  1  0  0  0
 12 45  1  0  0  0
 13 46  1  0  0  0
 13 47  1  0  0  0
 15 48  1  0  0  0
 15 49  1  0  0  0
 16 50  1  0  0  0
 16 51  1  0  0  0
 17 52  1  0  0  0
 17 53  1  0  0  0
 18 54  1  0  0  0
 18 55  1  0  0  0
 18 56  1  0  0  0
 20 57  1  0  0  0
 23 58  1  0  0  0
 24 59  1  0  0  0
 27 60  1  0  0  0
 27 61  1  0  0  0
 27 62  1  0  0  0
 28 63  1  0  0  0
 28 64  1  0  0  0
 30 65  1  0  0  0
 31 66  1  0  0  0
 33 67  1  0  0  0
 37 68  1  0  0  0
M  END
$$$$
