5he3_ligand
  -I-interpret- 

 68 72  0  0  0  0  0  0  0  0999 V2000
  -19.9900   28.3870   15.5650 O   0  0  0  0  0
  -19.3730   27.8190   16.4640 C   0  0  0  0  0
  -19.7240   26.6890   17.0980 N   0  0  0  0  0
  -20.9630   26.1140   17.0850 C   0  0  0  0  0
  -22.0420   26.5180   16.2790 C   0  0  0  0  0
  -23.2700   25.8490   16.3470 C   0  0  0  0  0
  -24.4730   26.0860   15.6160 C   0  0  0  0  0
  -25.3880   25.1870   16.0240 N   0  0  0  0  0
  -24.7140   24.4150   17.0040 N   0  0  0  0  0
  -23.4450   24.8010   17.2120 C   0  0  0  0  0
  -22.3990   24.4000   18.0320 C   0  0  0  0  0
  -21.1680   25.0580   17.9770 C   0  0  0  0  0
  -18.1970   28.5710   16.9930 C   0  0  0  0  0
  -18.1710   28.9930   18.4370 C   0  0  0  0  0
  -19.2690   28.7030   19.4440 C   0  0  0  0  0
  -17.1490   29.7560   18.8350 N   0  0  0  0  0
  -16.4260   30.4480   17.9240 C   0  0  0  0  0
  -15.7770   31.4430   18.3200 O   0  0  0  0  0
  -16.4150   30.1480   16.6040 N   0  0  0  0  0
  -17.0700   28.9310   16.0930 C   0  0  0  0  0
  -16.0520   27.8150   15.9810 C   0  0  0  0  0
  -14.8740   27.7570   16.7680 C   0  0  0  0  0
  -16.2480   26.8000   15.0430 C   0  0  0  0  0
  -15.3120   25.7680   14.8980 C   0  0  0  0  0
  -14.1600   25.7220   15.6870 C   0  0  0  0  0
  -13.2590   24.7340   15.5400 F   0  0  0  0  0
  -13.9320   26.7150   16.6310 C   0  0  0  0  0
  -12.6590   26.6580   17.4570 C   0  0  0  0  0
  -12.3550   25.5820   17.9600 O   0  0  0  0  0
  -11.8840   27.7680   17.5530 N   0  0  0  0  0
  -10.5600   27.8360   18.1970 C   0  0  0  0  0
   -9.8960   29.2350   18.2030 C   0  0  0  0  0
   -8.4620   29.2750   17.6350 C   0  0  0  0  0
   -8.1830   29.7410   16.3240 C   0  0  0  0  0
   -9.2650   30.2240   15.3790 C   0  0  0  0  0
   -7.3800   28.8570   18.4370 C   0  0  0  0  0
   -7.5990   28.3530   19.8510 C   0  0  0  0  0
   -6.0670   28.8940   17.9310 C   0  0  0  0  0
   -5.8070   29.3490   16.6370 C   0  0  0  0  0
   -6.8650   29.7730   15.8380 C   0  0  0  0  0
  -18.9995   26.2167   17.6387 H   0  0  0  0  0
  -21.9214   27.3587   15.5958 H   0  0  0  0  0
  -24.6239   26.8579   14.8614 H   0  0  0  0  0
  -22.5389   23.5678   18.7220 H   0  0  0  0  0
  -20.3589   24.7445   18.6367 H   0  0  0  0  0
  -17.5994   27.6594   16.9985 H   0  0  0  0  0
  -18.8438   28.1868   20.3047 H   0  0  0  0  0
  -19.7203   29.6409   19.7677 H   0  0  0  0  0
  -20.0287   28.0738   18.9802 H   0  0  0  0  0
  -15.9450   30.7755   15.9516 H   0  0  0  0  0
  -17.4766   29.1046   15.0967 H   0  0  0  0  0
  -14.6902   28.5418   17.5018 H   0  0  0  0  0
  -17.1397   26.8106   14.4162 H   0  0  0  0  0
  -15.4854   24.9876   14.1570 H   0  0  0  0  0
  -12.2489   28.6285   17.1447 H   0  0  0  0  0
   -9.9018   27.1813   17.6258 H   0  0  0  0  0
  -10.7064   27.5563   19.2403 H   0  0  0  0  0
   -9.8320   29.5498   19.2446 H   0  0  0  0  0
  -10.5057   29.8767   17.5669 H   0  0  0  0  0
   -9.9741   29.4164   15.1975 H   0  0  0  0  0
   -9.7844   31.0716   15.8262 H   0  0  0  0  0
   -8.8119   30.5302   14.4361 H   0  0  0  0  0
   -8.0663   29.1372   20.4466 H   0  0  0  0  0
   -8.2481   27.4777   19.8269 H   0  0  0  0  0
   -6.6394   28.0832   20.2919 H   0  0  0  0  0
   -5.2404   28.5622   18.5593 H   0  0  0  0  0
   -4.7859   29.3720   16.2563 H   0  0  0  0  0
   -6.6696   30.1325   14.8277 H   0  0  0  0  0
  1  2  2  0  0  0
  2  3  1  0  0  0
  2 13  1  0  0  0
  3  4  1  0  0  0
  4  5  4  0  0  0
  4 12  4  0  0  0
  5  6  4  0  0  0
  6  7  4  0  0  0
  6 10  4  0  0  0
  7  8  4  0  0  0
  8  9  4  0  0  0
  9 10  4  0  0  0
 10 11  4  0  0  0
 11 12  4  0  0  0
 13 14  1  0  0  0
 13 20  1  0  0  0
 14 15  1  0  0  0
 14 16  2  0  0  0
 16 17  1  0  0  0
 17 18  2  0  0  0
 17 19  1  0  0  0
 19 20  1  0  0  0
 20 21  1  0  0  0
 21 22  4  0  0  0
 21 23  4  0  0  0
 22 27  4  0  0  0
 23 24  4  0  0  0
 24 25  4  0  0  0
 25 26  1  0  0  0
 25 27  4  0  0  0
 27 28  1  0  0  0
 28 29  2  0  0  0
 28 30  1  0  0  0
 30 31  1  0  0  0
 31 32  1  0  0  0
 32 33  1  0  0  0
 33 34  4  0  0  0
 33 36  4  0  0  0
 34 35  1  0  0  0
 34 40  4  0  0  0
 36 37  1  0  0  0
 36 38  4  0  0  0
 38 39  4  0  0  0
 39 40  4  0  0  0
  3 41  1  0  0  0
  5 42  1  0  0  0
  7 43  1  0  0  0
 11 44  1  0  0  0
 12 45  1  0  0  0
 13 46  1  0  0  0
 15 47  1  0  0  0
 15 48  1  0  0  0
 15 49  1  0  0  0
 19 50  1  0  0  0
 20 51  1  0  0  0
 22 52  1  0  0  0
 23 53  1  0  0  0
 24 54  1  0  0  0
 30 55  1  0  0  0
 31 56  1  0  0  0
 31 57  1  0  0  0
 32 58  1  0  0  0
 32 59  1  0  0  0
 35 60  1  0  0  0
 35 61  1  0  0  0
 35 62  1  0  0  0
 37 63  1  0  0  0
 37 64  1  0  0  0
 37 65  1  0  0  0
 38 66  1  0  0  0
 39 67  1  0  0  0
 40 68  1  0  0  0
M  END
$$$$
