1aqc_ligand
  -I-interpret- 

173177  0  0  0  0  0  0  0  0999 V2000
   54.3780    7.5530   63.2350 N   0  3  0  0  0
   54.4530    7.1170   64.6370 C   0  0  0  0  0
   54.9520    5.6980   64.6370 C   0  0  0  0  0
   55.0650    5.1210   63.5600 O   0  0  0  0  0
   55.1860    5.1180   65.8100 N   0  0  0  0  0
   55.7130    3.7610   65.9180 C   0  0  0  0  0
   54.8460    2.7840   66.7070 C   0  0  0  0  0
   54.1020    3.1650   67.6150 O   0  0  0  0  0
   57.1120    3.7970   66.5770 C   0  0  0  0  0
   58.1280    4.7270   65.9290 C   0  0  0  0  0
   58.8390    4.3330   64.7870 C   0  0  0  0  0
   58.3820    5.9920   66.4520 C   0  0  0  0  0
   59.7790    5.1760   64.1870 C   0  0  0  0  0
   59.3260    6.8390   65.8560 C   0  0  0  0  0
   60.0210    6.4230   64.7240 C   0  0  0  0  0
   60.9880    7.2300   64.1540 O   0  0  0  0  0
   55.0060    1.5050   66.3920 N   0  0  0  0  0
   54.2860    0.4300   67.0680 C   0  0  0  0  0
   55.2690   -0.2860   68.0090 C   0  0  0  0  0
   56.4180   -0.5250   67.6420 O   0  0  0  0  0
   53.7350   -0.5660   66.0310 C   0  0  0  0  0
   53.0450   -1.8400   66.6090 C   0  0  0  0  0
   51.6340   -1.5980   67.1780 C   0  0  0  0  0
   50.9080   -0.7150   66.6800 O   0  0  0  0  0
   51.2380   -2.3150   68.1210 O   0  0  0  0  0
   54.8330   -0.5660   69.2320 N   0  0  0  0  0
   55.6350   -1.2810   70.2200 C   0  0  0  0  0
   55.5070   -2.7610   69.8560 C   0  0  0  0  0
   54.4400   -3.3510   70.0150 O   0  0  0  0  0
   55.0620   -1.0190   71.6220 C   0  0  0  0  0
   55.6880   -1.8880   72.7020 C   0  0  0  0  0
   56.3480   -2.8950   72.4240 O   0  0  0  0  0
   55.4670   -1.5060   73.9560 N   0  0  0  0  0
   56.5730   -3.3760   69.3470 N   0  0  0  0  0
   56.5300   -4.7920   68.9560 C   0  0  0  0  0
   56.2680   -5.7540   70.1290 C   0  0  0  0  0
   55.6570   -6.8120   69.9550 O   0  0  0  0  0
   57.9080   -5.0230   68.3540 C   0  0  0  0  0
   58.3450   -3.6350   67.9070 C   0  0  0  0  0
   57.9050   -2.8000   69.0570 C   0  0  0  0  0
   56.7020   -5.3540   71.3240 N   0  0  0  0  0
   56.5560   -6.1470   72.5460 C   0  0  0  0  0
   55.1100   -6.2650   73.0560 C   0  0  0  0  0
   54.6810   -7.3240   73.5200 O   0  0  0  0  0
   57.4160   -5.5310   73.6780 C   0  0  0  0  0
   58.5980   -4.9200   73.1230 O   0  0  0  0  0
   57.8010   -6.6060   74.7010 C   0  0  0  0  0
   54.3860   -5.1540   72.9900 N   0  0  0  0  0
   53.0040   -5.0470   73.4470 C   0  0  0  0  0
   52.0810   -6.2590   73.1730 C   0  0  0  0  0
   51.2380   -6.5950   74.0100 O   0  0  0  0  0
   52.4060   -3.7100   72.9370 C   0  0  0  0  0
   50.9120   -3.7210   72.7310 C   0  0  0  0  0
   50.3610   -4.2410   71.5580 C   0  0  0  0  0
   50.0470   -3.3010   73.7330 C   0  0  0  0  0
   48.9950   -4.3570   71.3960 C   0  0  0  0  0
   48.6720   -3.4120   73.5760 C   0  0  0  0  0
   48.1560   -3.9460   72.4080 C   0  0  0  0  0
   46.7990   -4.0890   72.2590 O   0  0  0  0  0
   52.2400   -6.9180   72.0250 N   0  0  0  0  0
   51.4160   -8.0830   71.6660 C   0  0  0  0  0
   51.4330   -9.3550   72.5800 C   0  0  0  0  0
   50.3850  -10.0030   72.8180 O   0  0  0  0  0
   51.7220   -8.4880   70.2260 C   0  0  0  0  0
   53.1710   -8.7700   69.9550 C   0  0  0  0  0
   53.3380   -9.4530   68.6090 C   0  0  0  0  0
   53.0250   -8.5300   67.4430 C   0  0  0  0  0
   54.1600   -7.6160   67.1730 N   0  3  0  0  0
   52.6110   -9.7260   73.0810 N   0  0  0  0  0
   52.7290  -10.9070   73.9280 C   0  0  0  0  0
   52.3040  -10.6330   75.3840 C   0  0  0  0  0
   52.8270  -11.2660   76.3140 O   0  0  0  0  0
   54.1660  -11.4420   73.9430 C   0  0  0  0  0
   54.8520  -11.4600   72.6070 C   0  0  0  0  0
   55.4620  -10.3100   72.1060 C   0  0  0  0  0
   54.9880  -12.6510   71.9050 C   0  0  0  0  0
   56.2040  -10.3510   70.9250 C   0  0  0  0  0
   55.7310  -12.7040   70.7240 C   0  0  0  0  0
   56.3400  -11.5520   70.2350 C   0  0  0  0  0
   51.3950   -9.6860   75.6000 N   0  0  0  0  0
   50.9320   -9.3880   76.9630 C   0  0  0  0  0
   49.4140   -9.1920   77.0480 C   0  0  0  0  0
   48.8850   -9.2010   78.1840 O   0  0  0  0  0
   51.6560   -8.1550   77.5220 C   0  0  0  0  0
   53.1510   -8.2700   77.4840 C   0  0  0  0  0
   53.8430   -8.8460   78.5530 C   0  0  0  0  0
   53.8630   -7.8420   76.3670 C   0  0  0  0  0
   55.2200   -9.0000   78.5090 C   0  0  0  0  0
   55.2400   -7.9900   76.3120 C   0  0  0  0  0
   55.9210   -8.5710   77.3840 C   0  0  0  0  0
   48.7205   -9.0271   76.0090 O   0  0  0  0  0
   54.0418    8.5152   63.1970 H   0  0  0  0  0
   55.3051    7.4986   62.8132 H   0  0  0  0  0
   53.7353    6.9466   62.7255 H   0  0  0  0  0
   53.4732    7.1788   65.1105 H   0  0  0  0  0
   55.1268    7.7603   65.2029 H   0  0  0  0  0
   54.9905    5.6394   66.6645 H   0  0  0  0  0
   55.7422    3.3921   64.8927 H   0  0  0  0  0
   57.5186    2.7894   66.4898 H   0  0  0  0  0
   56.9637    4.1640   67.5926 H   0  0  0  0  0
   58.6550    3.3482   64.3576 H   0  0  0  0  0
   57.8399    6.3277   67.3360 H   0  0  0  0  0
   60.3186    4.8490   63.2982 H   0  0  0  0  0
   59.5163    7.8252   66.2795 H   0  0  0  0  0
   61.0373    8.0583   64.6369 H   0  0  0  0  0
   55.6590    1.2630   65.6468 H   0  0  0  0  0
   53.4486    0.8365   67.6351 H   0  0  0  0  0
   54.5923   -0.9156   65.4557 H   0  0  0  0  0
   52.9698   -0.0312   65.4683 H   0  0  0  0  0
   53.6653   -2.1936   67.4326 H   0  0  0  0  0
   52.9409   -2.5479   65.7867 H   0  0  0  0  0
   51.9320   -2.9313   68.3662 H   0  0  0  0  0
   53.8933   -0.2673   69.4931 H   0  0  0  0  0
   56.6774   -0.9625   70.2228 H   0  0  0  0  0
   53.9972   -1.2500   71.5904 H   0  0  0  0  0
   55.2718    0.0205   71.8739 H   0  0  0  0  0
   55.8477   -2.0508   74.7297 H   0  0  0  0  0
   54.9167   -0.6681   74.1444 H   0  0  0  0  0
   55.7044   -4.9936   68.2735 H   0  0  0  0  0
   57.8873   -5.7372   67.5308 H   0  0  0  0  0
   58.6030   -5.4682   69.0659 H   0  0  0  0  0
   57.9133   -3.3276   66.9545 H   0  0  0  0  0
   59.4119   -3.5603   67.6969 H   0  0  0  0  0
   58.5882   -2.8313   69.9057 H   0  0  0  0  0
   57.8805   -1.7327   68.8372 H   0  0  0  0  0
   57.1610   -4.4456   71.3908 H   0  0  0  0  0
   56.8882   -7.1508   72.2811 H   0  0  0  0  0
   56.8306   -4.7651   74.1867 H   0  0  0  0  0
   59.1239   -4.5415   73.8314 H   0  0  0  0  0
   56.8969   -7.0342   75.1338 H   0  0  0  0  0
   58.3741   -7.3893   74.2048 H   0  0  0  0  0
   58.4048   -6.1561   75.4891 H   0  0  0  0  0
   54.8237   -4.3219   72.5945 H   0  0  0  0  0
   53.0505   -5.0547   74.5360 H   0  0  0  0  0
   52.8574   -3.5127   71.9647 H   0  0  0  0  0
   52.6141   -2.9597   73.6998 H   0  0  0  0  0
   51.0231   -4.5619   70.7538 H   0  0  0  0  0
   50.4521   -2.8795   74.6530 H   0  0  0  0  0
   48.5839   -4.7703   70.4750 H   0  0  0  0  0
   48.0019   -3.0801   74.3690 H   0  0  0  0  0
   46.3555   -3.7588   73.0438 H   0  0  0  0  0
   52.9582   -6.6035   71.3725 H   0  0  0  0  0
   50.4038   -7.7082   71.8178 H   0  0  0  0  0
   51.4352   -7.6501   69.5906 H   0  0  0  0  0
   51.1749   -9.4102   70.0303 H   0  0  0  0  0
   53.5556   -9.4268   70.7352 H   0  0  0  0  0
   53.7189   -7.8277   69.9441 H   0  0  0  0  0
   52.6425  -10.2913   68.5695 H   0  0  0  0  0
   54.3779   -9.7669   68.5187 H   0  0  0  0  0
   52.1470   -7.9344   67.6931 H   0  0  0  0  0
   52.8437   -9.1358   66.5551 H   0  0  0  0  0
   53.9261   -7.0081   66.3881 H   0  0  0  0  0
   54.3428   -7.0491   68.0010 H   0  0  0  0  0
   54.9894   -8.1640   66.9448 H   0  0  0  0  0
   53.4429   -9.1753   72.8686 H   0  0  0  0  0
   52.0563  -11.6474   73.4951 H   0  0  0  0  0
   54.1126  -12.4763   74.2828 H   0  0  0  0  0
   54.7430  -10.7749   74.5835 H   0  0  0  0  0
   55.3578   -9.3676   72.6437 H   0  0  0  0  0
   54.5089  -13.5551   72.2807 H   0  0  0  0  0
   56.6757   -9.4452   70.5440 H   0  0  0  0  0
   55.8339  -13.6462   70.1858 H   0  0  0  0  0
   56.9219  -11.5903   69.3141 H   0  0  0  0  0
   51.0155   -9.1614   74.8119 H   0  0  0  0  0
   51.1758  -10.2596   77.5705 H   0  0  0  0  0
   51.3623   -8.0483   78.5662 H   0  0  0  0  0
   51.3773   -7.3027   76.9023 H   0  0  0  0  0
   53.2926   -9.1786   79.4331 H   0  0  0  0  0
   53.3338   -7.3872   75.5296 H   0  0  0  0  0
   55.7496   -9.4528   79.3472 H   0  0  0  0  0
   55.7905   -7.6535   75.4335 H   0  0  0  0  0
   57.0037   -8.6891   77.3404 H   0  0  0  0  0
   49.2916   -9.0492   75.2376 H   0  0  0  0  0
  1  2  1  0  0  0
  2  3  1  0  0  0
  3  4  2  0  0  0
  3  5  1  0  0  0
  5  6  1  0  0  0
  6  7  1  0  0  0
  6  9  1  0  0  0
  7  8  2  0  0  0
  7 17  1  0  0  0
  9 10  1  0  0  0
 10 11  4  0  0  0
 10 12  4  0  0  0
 11 13  4  0  0  0
 12 14  4  0  0  0
 13 15  4  0  0  0
 14 15  4  0  0  0
 15 16  1  0  0  0
 17 18  1  0  0  0
 18 19  1  0  0  0
 18 21  1  0  0  0
 19 20  2  0  0  0
 19 26  1  0  0  0
 21 22  1  0  0  0
 22 23  1  0  0  0
 23 24  2  0  0  0
 23 25  1  0  0  0
 26 27  1  0  0  0
 27 28  1  0  0  0
 27 30  1  0  0  0
 28 29  2  0  0  0
 28 34  1  0  0  0
 30 31  1  0  0  0
 31 32  2  0  0  0
 31 33  1  0  0  0
 34 35  1  0  0  0
 34 40  1  0  0  0
 35 36  1  0  0  0
 35 38  1  0  0  0
 36 37  2  0  0  0
 36 41  1  0  0  0
 38 39  1  0  0  0
 39 40  1  0  0  0
 41 42  1  0  0  0
 42 43  1  0  0  0
 42 45  1  0  0  0
 43 44  2  0  0  0
 43 48  1  0  0  0
 45 46  1  0  0  0
 45 47  1  0  0  0
 48 49  1  0  0  0
 49 50  1  0  0  0
 49 52  1  0  0  0
 50 51  2  0  0  0
 50 60  1  0  0  0
 52 53  1  0  0  0
 53 54  4  0  0  0
 53 55  4  0  0  0
 54 56  4  0  0  0
 55 57  4  0  0  0
 56 58  4  0  0  0
 57 58  4  0  0  0
 58 59  1  0  0  0
 60 61  1  0  0  0
 61 62  1  0  0  0
 61 64  1  0  0  0
 62 63  2  0  0  0
 62 69  1  0  0  0
 64 65  1  0  0  0
 65 66  1  0  0  0
 66 67  1  0  0  0
 67 68  1  0  0  0
 69 70  1  0  0  0
 70 71  1  0  0  0
 70 73  1  0  0  0
 71 72  2  0  0  0
 71 80  1  0  0  0
 73 74  1  0  0  0
 74 75  4  0  0  0
 74 76  4  0  0  0
 75 77  4  0  0  0
 76 78  4  0  0  0
 77 79  4  0  0  0
 78 79  4  0  0  0
 80 81  1  0  0  0
 81 82  1  0  0  0
 81 84  1  0  0  0
 82 83  2  0  0  0
 84 85  1  0  0  0
 85 86  4  0  0  0
 85 87  4  0  0  0
 86 88  4  0  0  0
 87 89  4  0  0  0
 88 90  4  0  0  0
 89 90  4  0  0  0
 82 91  1  0  0  0
  1 92  1  0  0  0
  1 93  1  0  0  0
  1 94  1  0  0  0
  2 95  1  0  0  0
  2 96  1  0  0  0
  5 97  1  0  0  0
  6 98  1  0  0  0
  9 99  1  0  0  0
  9100  1  0  0  0
 11101  1  0  0  0
 12102  1  0  0  0
 13103  1  0  0  0
 14104  1  0  0  0
 16105  1  0  0  0
 17106  1  0  0  0
 18107  1  0  0  0
 21108  1  0  0  0
 21109  1  0  0  0
 22110  1  0  0  0
 22111  1  0  0  0
 25112  1  0  0  0
 26113  1  0  0  0
 27114  1  0  0  0
 30115  1  0  0  0
 30116  1  0  0  0
 33117  1  0  0  0
 33118  1  0  0  0
 35119  1  0  0  0
 38120  1  0  0  0
 38121  1  0  0  0
 39122  1  0  0  0
 39123  1  0  0  0
 40124  1  0  0  0
 40125  1  0  0  0
 41126  1  0  0  0
 42127  1  0  0  0
 45128  1  0  0  0
 46129  1  0  0  0
 47130  1  0  0  0
 47131  1  0  0  0
 47132  1  0  0  0
 48133  1  0  0  0
 49134  1  0  0  0
 52135  1  0  0  0
 52136  1  0  0  0
 54137  1  0  0  0
 55138  1  0  0  0
 56139  1  0  0  0
 57140  1  0  0  0
 59141  1  0  0  0
 60142  1  0  0  0
 61143  1  0  0  0
 64144  1  0  0  0
 64145  1  0  0  0
 65146  1  0  0  0
 65147  1  0  0  0
 66148  1  0  0  0
 66149  1  0  0  0
 67150  1  0  0  0
 67151  1  0  0  0
 68152  1  0  0  0
 68153  1  0  0  0
 68154  1  0  0  0
 69155  1  0  0  0
 70156  1  0  0  0
 73157  1  0  0  0
 73158  1  0  0  0
 75159  1  0  0  0
 76160  1  0  0  0
 77161  1  0  0  0
 78162  1  0  0  0
 79163  1  0  0  0
 80164  1  0  0  0
 81165  1  0  0  0
 84166  1  0  0  0
 84167  1  0  0  0
 86168  1  0  0  0
 87169  1  0  0  0
 88170  1  0  0  0
 89171  1  0  0  0
 90172  1  0  0  0
 91173  1  0  0  0
M  END
$$$$
