5b4l_ligand
  -I-interpret- 

 62 68  0  0  0  0  0  0  0  0999 V2000
    9.8380    1.7100  -20.2310 C   0  0  0  0  0
   -2.4850   -4.7800  -24.4600 C   0  0  0  0  0
   -2.0890   -5.2510  -25.6910 C   0  0  0  0  0
    8.5900    1.6450  -19.6520 C   0  0  0  0  0
   10.8070    0.7820  -19.9090 C   0  0  0  0  0
   -1.6110   -4.6480  -23.4060 C   0  0  0  0  0
   -0.7900   -5.6230  -25.9660 C   0  0  0  0  0
    8.3090    0.6440  -18.7460 C   0  0  0  0  0
   10.5350   -0.2210  -19.0010 C   0  0  0  0  0
    8.1710   -3.0890  -16.5890 C   0  0  0  0  0
    8.8630   -2.2870  -15.6550 C   0  0  0  0  0
   -0.2980   -5.0150  -23.6480 C   0  0  0  0  0
    0.0690   -5.4830  -24.9000 C   0  0  0  0  0
    9.2840   -0.2760  -18.4300 C   0  0  0  0  0
    8.2720   -2.4230  -17.7870 C   0  0  0  0  0
    1.7720   -5.4390  -23.4910 C   0  0  0  0  0
    6.6270   -3.4380  -21.4190 C   0  0  0  0  0
    7.7560   -2.7670  -19.0710 C   0  0  0  0  0
    5.7720   -3.6010  -20.4090 C   0  0  0  0  0
    6.3300   -3.2530  -19.1000 C   0  0  0  0  0
    8.6280   -1.5370  -24.7090 C   0  0  0  0  0
    9.3930   -0.6710  -23.7500 C   0  0  0  0  0
    2.4540   -6.2320  -25.5980 C   0  0  0  0  0
    3.6210   -6.2650  -24.6130 C   0  0  0  0  0
    8.3470   -1.6180  -23.2380 C   0  0  0  0  0
    8.7560   -2.8400  -22.4920 C   0  0  0  0  0
    3.8300   -5.6060  -22.1420 C   0  0  0  0  0
    4.1550   -4.1640  -21.8540 C   0  0  0  0  0
    9.3650   -1.1880  -16.2280 N   0  0  0  0  0
    0.7710   -4.9820  -22.7800 N   0  0  0  0  0
    8.4900   -2.6450  -20.1350 N   0  0  0  0  0
    1.4000   -5.7240  -24.7520 N   0  0  0  0  0
    8.9950   -1.2920  -17.5180 N   0  0  0  0  0
    3.0890   -5.6800  -23.3830 N   0  0  0  0  0
    7.9180   -2.9870  -21.3170 N   0  0  0  0  0
    5.6760   -3.3490  -18.0680 O   0  0  0  0  0
    4.4700   -4.0500  -20.4760 O   0  0  0  0  0
   10.0616    2.4997  -20.9483 H   0  0  0  0  0
   -3.5288   -4.5015  -24.3150 H   0  0  0  0  0
   -2.8340   -5.3335  -26.4824 H   0  0  0  0  0
    7.8282    2.3811  -19.9086 H   0  0  0  0  0
   11.7912    0.8414  -20.3736 H   0  0  0  0  0
   -1.9342   -4.2751  -22.4341 H   0  0  0  0  0
   -0.4721   -5.9946  -26.9402 H   0  0  0  0  0
    7.3238    0.5815  -18.2840 H   0  0  0  0  0
   11.2968   -0.9560  -18.7409 H   0  0  0  0  0
    7.6643   -4.0354  -16.3999 H   0  0  0  0  0
    8.9740   -2.5331  -14.5990 H   0  0  0  0  0
    6.2667   -3.6860  -22.4174 H   0  0  0  0  0
    8.8302   -2.2117  -25.5409 H   0  0  0  0  0
    8.0748   -1.4321  -25.6423 H   0  0  0  0  0
    9.6732    0.3764  -23.6385 H   0  0  0  0  0
   10.4277   -0.4021  -23.5372 H   0  0  0  0  0
    2.4249   -6.5144  -26.6504 H   0  0  0  0  0
    4.6287   -6.6417  -24.7884 H   0  0  0  0  0
    7.4616   -1.5143  -22.6108 H   0  0  0  0  0
    9.7988   -2.7499  -22.1877 H   0  0  0  0  0
    8.6423   -3.7142  -23.1331 H   0  0  0  0  0
    3.2312   -6.0183  -21.3299 H   0  0  0  0  0
    4.7516   -6.1816  -22.2279 H   0  0  0  0  0
    3.3021   -3.5307  -22.0980 H   0  0  0  0  0
    5.0011   -3.8412  -22.4607 H   0  0  0  0  0
  4  1  4  0  0  0
  5  1  4  0  0  0
  3  2  4  0  0  0
  6  2  4  0  0  0
  7  3  4  0  0  0
  8  4  4  0  0  0
  9  5  4  0  0  0
 12  6  4  0  0  0
 13  7  4  0  0  0
 14  8  4  0  0  0
 14  9  4  0  0  0
 10 11  4  0  0  0
 15 10  4  0  0  0
 11 29  4  0  0  0
 13 12  4  0  0  0
 30 12  4  0  0  0
 32 13  4  0  0  0
 33 14  1  0  0  0
 18 15  1  0  0  0
 15 33  4  0  0  0
 16 30  4  0  0  0
 16 32  4  0  0  0
 34 16  4  0  0  0
 19 17  2  0  0  0
 17 35  1  0  0  0
 20 18  1  0  0  0
 18 31  2  0  0  0
 19 20  1  0  0  0
 37 19  1  0  0  0
 20 36  2  0  0  0
 22 21  1  0  0  0
 25 21  1  0  0  0
 25 22  1  0  0  0
 24 23  4  0  0  0
 23 32  4  0  0  0
 34 24  4  0  0  0
 26 25  1  0  0  0
 35 26  1  0  0  0
 28 27  1  0  0  0
 27 34  1  0  0  0
 28 37  1  0  0  0
 29 33  4  0  0  0
 31 35  1  0  0  0
  1 38  1  0  0  0
  2 39  1  0  0  0
  3 40  1  0  0  0
  4 41  1  0  0  0
  5 42  1  0  0  0
  6 43  1  0  0  0
  7 44  1  0  0  0
  8 45  1  0  0  0
  9 46  1  0  0  0
 10 47  1  0  0  0
 11 48  1  0  0  0
 17 49  1  0  0  0
 21 50  1  0  0  0
 21 51  1  0  0  0
 22 52  1  0  0  0
 22 53  1  0  0  0
 23 54  1  0  0  0
 24 55  1  0  0  0
 25 56  1  0  0  0
 26 57  1  0  0  0
 26 58  1  0  0  0
 27 59  1  0  0  0
 27 60  1  0  0  0
 28 61  1  0  0  0
 28 62  1  0  0  0
M  END
$$$$
