4yl3_ligand
  -I-interpret- 

 42 45  0  0  0  0  0  0  0  0999 V2000
   16.6050   16.9500   25.8750 C   0  0  0  0  0
   16.1780   16.7890   27.2200 C   0  0  0  0  0
   13.3390   15.2890   32.5800 C   0  0  0  0  0
   13.5910   15.3610   31.2930 N   0  0  0  0  0
   14.6330   15.8490   28.6380 C   0  0  0  0  0
   15.2520   16.3610   29.7820 C   0  0  0  0  0
   16.6110   17.5480   32.9480 Br  0  0  0  0  0
   15.1610   16.5110   32.3670 C   0  0  0  0  0
   14.7300   16.1130   31.1170 C   0  0  0  0  0
   14.0560   12.8070   34.3500 Cl  0  0  0  0  0
   12.4610   13.4260   34.0110 C   0  0  0  0  0
   11.3600   12.7510   34.5800 C   0  0  0  0  0
   10.0520   13.2030   34.3530 C   0  0  0  0  0
    9.8290   14.3280   33.5580 C   0  0  0  0  0
   10.9200   14.9930   32.9920 C   0  0  0  0  0
   10.7000   16.0740   32.2230 F   0  0  0  0  0
   12.2390   14.5670   33.2120 C   0  0  0  0  0
   14.2900   15.9880   33.2690 N   0  0  0  0  0
   16.4050   17.1320   29.5750 C   0  0  0  0  0
   16.8820   17.3520   28.2790 C   0  0  0  0  0
   15.0670   16.0360   27.3640 N   0  0  0  0  0
   17.0240   17.0670   24.7560 C   0  0  0  0  0
   17.5680   17.1410   23.4410 C   0  0  0  0  0
   17.5890   16.0080   22.6180 C   0  0  0  0  0
   18.1290   16.0990   21.3290 C   0  0  0  0  0
   18.6500   17.3230   20.8610 C   0  0  0  0  0
   19.2460   17.4190   19.4770 C   0  0  0  0  0
   20.4360   16.7600   19.3820 F   0  0  0  0  0
   19.5010   18.7040   19.1000 F   0  0  0  0  0
   18.4580   16.8850   18.5050 F   0  0  0  0  0
   18.6210   18.4500   21.7040 C   0  0  0  0  0
   18.0820   18.3600   22.9900 C   0  0  0  0  0
   13.7314   15.2529   28.7790 H   0  0  0  0  0
   11.5276   11.8711   35.2010 H   0  0  0  0  0
    9.2086   12.6750   34.7980 H   0  0  0  0  0
    8.8143   14.6843   33.3803 H   0  0  0  0  0
   16.9313   17.5614   30.4275 H   0  0  0  0  0
   17.7785   17.9468   28.1041 H   0  0  0  0  0
   17.1874   15.0610   22.9786 H   0  0  0  0  0
   18.1467   15.2200   20.6847 H   0  0  0  0  0
   19.0220   19.4000   21.3509 H   0  0  0  0  0
   18.0625   19.2361   23.6382 H   0  0  0  0  0
  2  1  1  0  0  0
  1 22  3  0  0  0
  2 20  4  0  0  0
 21  2  4  0  0  0
  3  4  4  0  0  0
 17  3  1  0  0  0
  3 18  4  0  0  0
  4  9  4  0  0  0
  6  5  4  0  0  0
  5 21  4  0  0  0
  9  6  1  0  0  0
  6 19  4  0  0  0
  8  7  1  0  0  0
  8  9  4  0  0  0
 18  8  4  0  0  0
 11 10  1  0  0  0
 11 12  4  0  0  0
 11 17  4  0  0  0
 12 13  4  0  0  0
 13 14  4  0  0  0
 14 15  4  0  0  0
 15 16  1  0  0  0
 15 17  4  0  0  0
 19 20  4  0  0  0
 22 23  1  0  0  0
 23 24  4  0  0  0
 23 32  4  0  0  0
 24 25  4  0  0  0
 25 26  4  0  0  0
 26 27  1  0  0  0
 26 31  4  0  0  0
 27 28  1  0  0  0
 27 29  1  0  0  0
 27 30  1  0  0  0
 31 32  4  0  0  0
  5 33  1  0  0  0
 12 34  1  0  0  0
 13 35  1  0  0  0
 14 36  1  0  0  0
 19 37  1  0  0  0
 20 38  1  0  0  0
 24 39  1  0  0  0
 25 40  1  0  0  0
 31 41  1  0  0  0
 32 42  1  0  0  0
M  END
$$$$
