4jpc_ligand
  -I-interpret- 

 47 50  0  0  0  0  0  0  0  0999 V2000
   26.9470   15.3250    9.1860 C   0  0  0  0  0
   27.6320   14.0950    9.0140 C   0  0  0  0  0
   26.9220   12.9310    8.6410 C   0  0  0  0  0
   25.5210   12.9940    8.4420 C   0  0  0  0  0
   24.8260   14.2190    8.6190 C   0  0  0  0  0
   25.5440   15.3800    8.9820 C   0  0  0  0  0
   24.8500   11.8510    8.0940 O   0  0  0  0  0
   23.4360   11.7100    8.2520 C   0  0  0  0  0
   22.7180   13.0050    7.7980 C   0  0  0  0  0
   23.3110   14.3040    8.3820 C   0  0  0  0  0
   23.0360   15.4900    7.4390 C   0  0  0  0  0
   22.3290   16.4140    8.1240 N   0  0  0  0  0
   22.0880   15.9170    9.3720 C   0  0  0  0  0
   22.5740   14.7390    9.5680 N   0  0  0  0  0
   27.6390   16.5060    9.5380 C   0  0  0  0  0
   21.9330   17.7200    7.5940 C   0  0  0  0  0
   21.3210   16.6530   10.2630 N   0  0  0  0  0
   27.0450   17.4570   10.4030 C   0  0  0  0  0
   27.7420   18.6460   10.7270 C   0  0  0  0  0
   29.0290   18.9000   10.1880 C   0  0  0  0  0
   29.6220   17.9540    9.3150 C   0  0  0  0  0
   28.9240   16.7660    8.9880 C   0  0  0  0  0
   23.5150   15.6060    6.3060 O   0  0  0  0  0
   23.0150   10.5220    7.3590 C   0  0  0  0  0
   23.0750   11.3910    9.7230 C   0  0  0  0  0
   27.1330   19.6280   11.5960 C   0  0  0  0  0
   26.6290   20.3930   12.3010 N   0  0  0  0  0
   28.7097   14.0471    9.1700 H   0  0  0  0  0
   27.4512   11.9875    8.5069 H   0  0  0  0  0
   25.0161   16.3255    9.1064 H   0  0  0  0  0
   21.6882   12.9385    8.1491 H   0  0  0  0  0
   22.8235   13.0651    6.7148 H   0  0  0  0  0
   22.4614   14.1926   10.4219 H   0  0  0  0  0
   20.8471   17.8093    7.6254 H   0  0  0  0  0
   22.3813   18.5076    8.1997 H   0  0  0  0  0
   22.2768   17.8120    6.5637 H   0  0  0  0  0
   20.9422   17.5578    9.9834 H   0  0  0  0  0
   26.0539   17.2741   10.8182 H   0  0  0  0  0
   29.5590   19.8175   10.4437 H   0  0  0  0  0
   30.6113   18.1401    8.8970 H   0  0  0  0  0
   29.3763   16.0440    8.3081 H   0  0  0  0  0
   23.2733   10.7389    6.3225 H   0  0  0  0  0
   23.5368    9.6219    7.6841 H   0  0  0  0  0
   21.9389   10.3699    7.4425 H   0  0  0  0  0
   23.5565   10.4593   10.0201 H   0  0  0  0  0
   23.4213   12.2012   10.3647 H   0  0  0  0  0
   21.9939   11.2886    9.8164 H   0  0  0  0  0
  1  2  4  0  0  0
  1  6  4  0  0  0
  1 15  1  0  0  0
  2  3  4  0  0  0
  3  4  4  0  0  0
  4  5  4  0  0  0
  4  7  1  0  0  0
  5  6  4  0  0  0
  5 10  1  0  0  0
  7  8  1  0  0  0
  8  9  1  0  0  0
  8 24  1  0  0  0
  8 25  1  0  0  0
  9 10  1  0  0  0
 10 11  1  0  0  0
 10 14  1  0  0  0
 11 12  1  0  0  0
 11 23  2  0  0  0
 12 13  4  0  0  0
 12 16  1  0  0  0
 13 14  1  0  0  0
 13 17  2  0  0  0
 15 18  4  0  0  0
 15 22  4  0  0  0
 18 19  4  0  0  0
 19 20  4  0  0  0
 19 26  1  0  0  0
 20 21  4  0  0  0
 21 22  4  0  0  0
 26 27  3  0  0  0
  2 28  1  0  0  0
  3 29  1  0  0  0
  6 30  1  0  0  0
  9 31  1  0  0  0
  9 32  1  0  0  0
 14 33  1  0  0  0
 16 34  1  0  0  0
 16 35  1  0  0  0
 16 36  1  0  0  0
 17 37  1  0  0  0
 18 38  1  0  0  0
 20 39  1  0  0  0
 21 40  1  0  0  0
 22 41  1  0  0  0
 24 42  1  0  0  0
 24 43  1  0  0  0
 24 44  1  0  0  0
 25 45  1  0  0  0
 25 46  1  0  0  0
 25 47  1  0  0  0
M  END
$$$$
