2qft_ligand
  -I-interpret- 

 19 18  0  0  0  0  0  0  0  0999 V2000
   60.2550    8.7590   26.9360 P   0  0  0  0  0
   60.3010   10.2050   27.3000 O   0  0  0  0  0
   59.1850    8.4180   25.9600 O   0  0  0  0  0
   61.5930    8.2750   26.4780 O   0  0  0  0  0
   60.9720    9.9350   31.7150 O   0  0  0  0  0
   60.2550    8.4030   33.1350 O   0  0  0  0  0
   59.8090    7.8550   28.3380 C   0  0  0  0  0
   59.9270    7.9320   30.8730 C   0  0  0  0  0
   60.4220    8.8160   31.9980 C   0  0  0  0  0
   60.2290    8.5300   29.5610 N   0  3  0  0  0
   61.0105   10.3529   27.9296 H   0  0  0  0  0
   62.2576    8.5112   27.1292 H   0  0  0  0  0
   60.9948   10.0471   30.7618 H   0  0  0  0  0
   60.2987    6.8822   28.2934 H   0  0  0  0  0
   58.7239    7.7527   28.3537 H   0  0  0  0  0
   58.8469    7.8191   30.9659 H   0  0  0  0  0
   60.4273    6.9660   30.9409 H   0  0  0  0  0
   59.7130    9.4098   29.5568 H   0  0  0  0  0
   61.2478    8.5362   29.5119 H   0  0  0  0  0
  1  2  1  0  0  0
  1  3  2  0  0  0
  1  4  1  0  0  0
  7  1  1  0  0  0
  9  5  1  0  0  0
  9  6  2  0  0  0
 10  7  1  0  0  0
  8  9  1  0  0  0
  8 10  1  0  0  0
  2 11  1  0  0  0
  4 12  1  0  0  0
  5 13  1  0  0  0
  7 14  1  0  0  0
  7 15  1  0  0  0
  8 16  1  0  0  0
  8 17  1  0  0  0
 10 18  1  0  0  0
 10 19  1  0  0  0
M  END
$$$$
