5dlx_ligand
  -I-interpret- 

 69 73  0  0  0  0  0  0  0  0999 V2000
   -6.7750    7.2960    3.2610 C   0  0  0  0  0
   -5.6910    8.1470    3.0040 C   0  0  0  0  0
   -4.9590    8.5140    4.2430 Cl  0  0  0  0  0
   -5.1920    8.5320    1.7740 C   0  0  0  0  0
   -5.9070    8.1450    0.6720 C   0  0  0  0  0
   -7.0240    7.3560    0.9010 C   0  0  0  0  0
   -7.4990    6.9240    2.1700 C   0  0  0  0  0
   -8.5920    6.1520    2.2850 N   0  0  0  0  0
   -9.0800    5.3970    1.1110 C   0  0  0  0  0
  -10.3770    5.8990    0.7880 C   0  0  0  0  0
   -9.3850    6.0470    3.5210 C   0  0  0  0  0
  -10.8100    6.2840    3.2100 C   0  0  0  0  0
  -11.2220    5.6280    1.9740 N   0  3  0  0  0
  -12.6660    5.8620    1.8820 C   0  0  0  0  0
  -13.3160    5.4290    0.5890 C   0  0  0  0  0
  -13.2160    6.5280   -0.3590 C   0  0  0  0  0
  -14.4060    6.6850   -1.1430 N   0  0  0  0  0
  -14.6700    7.8710   -1.6740 C   0  0  0  0  0
  -14.0330    8.9260   -1.4500 O   0  0  0  0  0
  -15.8020    7.7670   -2.6670 C   0  0  0  0  0
  -15.1220    7.2510   -3.9890 C   0  0  0  0  0
  -15.8570    7.5600   -5.3120 C   0  0  0  0  0
  -16.5350    9.1210   -2.7570 C   0  0  0  0  0
  -17.4360    8.9770   -3.9770 C   0  0  0  0  0
  -16.5100    8.8850   -5.1820 N   0  0  0  0  0
  -16.0820    9.9460   -5.8560 C   0  0  0  0  0
  -15.3300    9.7790   -6.9650 N   0  0  0  0  0
  -14.8100   10.8920   -7.5980 N   0  0  0  0  0
  -14.0330   10.9880   -8.6570 C   0  0  0  0  0
  -13.5850    9.7670   -9.4350 C   0  0  0  0  0
  -13.7930   12.2720   -8.9870 N   0  0  0  0  0
  -14.4750   13.0140   -8.0550 N   0  0  0  0  0
  -15.0860   12.1520   -7.2070 C   0  0  0  0  0
  -15.8910   12.3210   -6.1270 C   0  0  0  0  0
  -16.3890   11.2460   -5.3690 C   0  0  0  0  0
   -7.0214    6.9552    4.2666 H   0  0  0  0  0
   -4.2750    9.1146    1.6855 H   0  0  0  0  0
   -5.6128    8.4423   -0.3346 H   0  0  0  0  0
   -7.5911    7.0370    0.0265 H   0  0  0  0  0
   -9.1283    4.3315    1.3357 H   0  0  0  0  0
   -8.4012    5.5227    0.2674 H   0  0  0  0  0
  -10.7782    5.4163   -0.1032 H   0  0  0  0  0
  -10.3441    6.9643    0.5598 H   0  0  0  0  0
   -9.0402    6.7906    4.2395 H   0  0  0  0  0
   -9.2657    5.0508    3.9470 H   0  0  0  0  0
  -10.9562    7.3573    3.0888 H   0  0  0  0  0
  -11.4071    5.8757    4.0254 H   0  0  0  0  0
  -11.0541    4.6221    1.9945 H   0  0  0  0  0
  -12.8103    6.9399    1.9553 H   0  0  0  0  0
  -13.1265    5.2705    2.6733 H   0  0  0  0  0
  -14.3622    5.1762    0.7613 H   0  0  0  0  0
  -12.8138    4.5459    0.1940 H   0  0  0  0  0
  -12.3911    6.3129   -1.0382 H   0  0  0  0  0
  -13.0612    7.4472    0.2060 H   0  0  0  0  0
  -15.0384    5.8983   -1.2897 H   0  0  0  0  0
  -16.5964    7.0714   -2.3966 H   0  0  0  0  0
  -15.0930    6.1644   -3.9079 H   0  0  0  0  0
  -14.1614    7.7621   -4.0523 H   0  0  0  0  0
  -16.6044    6.7925   -5.5131 H   0  0  0  0  0
  -15.1483    7.5716   -6.1401 H   0  0  0  0  0
  -15.8433    9.9579   -2.8527 H   0  0  0  0  0
  -17.1001    9.3440   -1.8520 H   0  0  0  0  0
  -18.1138    9.8259   -4.0668 H   0  0  0  0  0
  -18.0658    8.0909   -3.8974 H   0  0  0  0  0
  -13.0219    9.1050   -8.7771 H   0  0  0  0  0
  -14.4593    9.2417   -9.8193 H   0  0  0  0  0
  -12.9527   10.0792  -10.2661 H   0  0  0  0  0
  -16.1635   13.3350   -5.8343 H   0  0  0  0  0
  -16.9749   11.4002   -4.4629 H   0  0  0  0  0
  1  2  4  0  0  0
  1  7  4  0  0  0
  2  3  1  0  0  0
  2  4  4  0  0  0
  4  5  4  0  0  0
  5  6  4  0  0  0
  6  7  4  0  0  0
  7  8  1  0  0  0
  8  9  1  0  0  0
  8 11  1  0  0  0
  9 10  1  0  0  0
 10 13  1  0  0  0
 11 12  1  0  0  0
 12 13  1  0  0  0
 13 14  1  0  0  0
 14 15  1  0  0  0
 15 16  1  0  0  0
 16 17  1  0  0  0
 17 18  1  0  0  0
 18 19  2  0  0  0
 18 20  1  0  0  0
 20 21  1  0  0  0
 20 23  1  0  0  0
 21 22  1  0  0  0
 22 25  1  0  0  0
 23 24  1  0  0  0
 24 25  1  0  0  0
 25 26  1  0  0  0
 26 27  4  0  0  0
 26 35  4  0  0  0
 27 28  4  0  0  0
 28 29  4  0  0  0
 28 33  4  0  0  0
 29 30  1  0  0  0
 29 31  4  0  0  0
 31 32  4  0  0  0
 32 33  4  0  0  0
 33 34  4  0  0  0
 34 35  4  0  0  0
  1 36  1  0  0  0
  4 37  1  0  0  0
  5 38  1  0  0  0
  6 39  1  0  0  0
  9 40  1  0  0  0
  9 41  1  0  0  0
 10 42  1  0  0  0
 10 43  1  0  0  0
 11 44  1  0  0  0
 11 45  1  0  0  0
 12 46  1  0  0  0
 12 47  1  0  0  0
 13 48  1  0  0  0
 14 49  1  0  0  0
 14 50  1  0  0  0
 15 51  1  0  0  0
 15 52  1  0  0  0
 16 53  1  0  0  0
 16 54  1  0  0  0
 17 55  1  0  0  0
 20 56  1  0  0  0
 21 57  1  0  0  0
 21 58  1  0  0  0
 22 59  1  0  0  0
 22 60  1  0  0  0
 23 61  1  0  0  0
 23 62  1  0  0  0
 24 63  1  0  0  0
 24 64  1  0  0  0
 30 65  1  0  0  0
 30 66  1  0  0  0
 30 67  1  0  0  0
 34 68  1  0  0  0
 35 69  1  0  0  0
M  END
$$$$
