3c56_ligand
  -I-interpret- 

 31 30  0  0  0  0  0  0  0  0999 V2000
   -3.4260   -4.5140   -5.5940 N   0  0  0  0  0
   -3.9850   -5.2340   -6.7380 C   0  0  0  0  0
   -5.5230   -5.2930   -6.6130 C   0  0  0  0  0
   -6.1020   -6.1650   -7.7430 C   0  0  0  0  0
   -7.4110   -7.7140   -9.8340 O   0  0  0  0  0
   -8.0550   -6.2300   -9.5150 P   0  0  0  0  0
   -8.0840   -5.3350  -10.8970 O   0  0  0  0  0
   -9.4150   -6.3880   -9.0100 O   0  0  0  0  0
   -7.1340   -5.4650   -8.3850 O   0  0  0  0  0
   -3.6690   -4.9730   -4.2880 O   0  0  0  0  0
   -2.6120   -3.3170   -5.8070 C   0  0  0  0  0
   -2.1580   -2.7330   -4.8760 O   0  0  0  0  0
   -2.3440   -2.8130   -7.2350 C   0  0  0  0  0
   -1.3840   -1.7920   -7.1970 O   0  0  0  0  0
   -0.8590   -1.1120   -8.6110 P   0  0  0  0  0
   -2.1540   -0.7840   -9.5770 O   0  0  0  0  0
    0.1530   -2.1610   -9.3830 O   0  0  0  0  0
   -0.1450    0.1260   -8.3220 O   0  0  0  0  0
   -3.5845   -6.2476   -6.7584 H   0  0  0  0  0
   -3.7164   -4.7153   -7.6583 H   0  0  0  0  0
   -5.9308   -4.2850   -6.6890 H   0  0  0  0  0
   -5.7911   -5.7255   -5.6491 H   0  0  0  0  0
   -6.4946   -7.0918   -7.3245 H   0  0  0  0  0
   -5.3172   -6.3993   -8.4622 H   0  0  0  0  0
   -6.5164   -7.6087  -10.1661 H   0  0  0  0  0
   -7.1891   -5.2314  -11.2287 H   0  0  0  0  0
   -4.2152   -5.7616   -4.3236 H   0  0  0  0  0
   -3.2687   -2.4269   -7.6638 H   0  0  0  0  0
   -1.9757   -3.6357   -7.8478 H   0  0  0  0  0
   -2.6243   -1.5990   -9.7674 H   0  0  0  0  0
   -0.3172   -2.9760   -9.5732 H   0  0  0  0  0
  2  1  1  0  0  0
  1 10  1  0  0  0
  1 11  1  0  0  0
  3  2  1  0  0  0
  4  3  1  0  0  0
  9  4  1  0  0  0
  6  5  1  0  0  0
  6  7  1  0  0  0
  6  8  2  0  0  0
  6  9  1  0  0  0
 11 12  2  0  0  0
 11 13  1  0  0  0
 13 14  1  0  0  0
 14 15  1  0  0  0
 15 16  1  0  0  0
 15 17  1  0  0  0
 15 18  2  0  0  0
  2 19  1  0  0  0
  2 20  1  0  0  0
  3 21  1  0  0  0
  3 22  1  0  0  0
  4 23  1  0  0  0
  4 24  1  0  0  0
  5 25  1  0  0  0
  7 26  1  0  0  0
 10 27  1  0  0  0
 13 28  1  0  0  0
 13 29  1  0  0  0
 16 30  1  0  0  0
 17 31  1  0  0  0
M  END
$$$$
