6ios_ligand
  -I-interpret- 

 18 18  0  0  0  0  0  0  0  0999 V2000
  -11.8350   11.7820  -12.7880 N   0  3  0  0  0
  -11.0460   10.9740  -11.8520 C   0  0  0  0  0
  -11.2620    9.4660  -12.0170 C   0  0  0  0  0
  -12.0830    9.0290  -12.8460 O   0  0  0  0  0
  -11.5560   11.4330  -10.4860 C   0  0  0  0  0
  -12.9350   11.9900  -10.7490 C   0  0  0  0  0
  -12.8350   12.6150  -12.0830 C   0  0  0  0  0
  -10.6210    8.6740  -11.3060 O   0  0  0  0  0
  -12.3293   11.1516  -13.4194 H   0  0  0  0  0
  -11.2003   12.4002  -13.2933 H   0  0  0  0  0
   -9.9764   11.1145  -12.0081 H   0  0  0  0  0
  -12.4896    9.7644  -13.3102 H   0  0  0  0  0
  -10.8981   12.1786  -10.0395 H   0  0  0  0  0
  -11.5823   10.6127   -9.7687 H   0  0  0  0  0
  -13.2383   12.7057   -9.9849 H   0  0  0  0  0
  -13.7007   11.2149  -10.7181 H   0  0  0  0  0
  -13.7932   12.6420  -12.6019 H   0  0  0  0  0
  -12.5394   13.6628  -12.0297 H   0  0  0  0  0
  1  2  1  0  0  0
  1  7  1  0  0  0
  2  3  1  0  0  0
  2  5  1  0  0  0
  3  4  1  0  0  0
  3  8  2  0  0  0
  5  6  1  0  0  0
  6  7  1  0  0  0
  1  9  1  0  0  0
  1 10  1  0  0  0
  2 11  1  0  0  0
  4 12  1  0  0  0
  5 13  1  0  0  0
  5 14  1  0  0  0
  6 15  1  0  0  0
  6 16  1  0  0  0
  7 17  1  0  0  0
  7 18  1  0  0  0
M  END
$$$$
