### 
### Created by X-TOOL on Mon Sep 10 21:13:04 2018
### 

@<TRIPOS>MOLECULE
3ixk_ligand
  113   116     1     0     0
SMALL
GAST_HUCK


@<TRIPOS>ATOM
      1 O6          2.2960   19.4680   28.2000 O.2       1 929        -0.3845
      2 C34         1.4840   19.0230   28.9690 C.2       1 929         0.2041
      3 N4          0.1770   19.0920   28.8300 N.am      1 929        -0.2723
      4 C35        -0.4100   19.7800   27.6970 C.3       1 929         0.0723
      5 C36        -0.7170   18.7460   26.6690 C.ar      1 929        -0.0183
      6 C42        -1.6160   17.7030   26.9500 C.ar      1 929        -0.0582
      7 C41        -1.8990   16.7810   25.9440 C.ar      1 929        -0.0685
      8 C40        -1.2890   16.8740   24.6840 C.ar      1 929        -0.0687
      9 C39        -0.3830   17.8870   24.3970 C.ar      1 929        -0.0685
     10 C38        -0.0980   18.8110   25.4170 C.ar      1 929        -0.0582
     11 C37        -1.6220   20.6210   28.1150 C.3       1 929        -0.0320
     12 C30         1.9100   18.2730   30.1470 C.ar      1 929         0.0398
     13 C31         3.1050   17.5780   30.1260 C.ar      1 929        -0.0214
     14 C32         3.3840   16.8330   31.2630 C.ar      1 929         0.0754
     15 N5          4.5640   16.0630   31.3530 N.am      1 929        -0.1796
     16 S           5.3380   15.5340   30.1170 S.o2      1 929         0.0593
     17 O8          6.0860   14.3870   30.6860 O.2       1 929        -0.1500
     18 C44         6.5150   16.6780   29.7050 C.3       1 929         0.0790
     19 O7          4.4650   15.3420   28.9890 O.2       1 929        -0.1500
     20 C43         5.0320   15.7360   32.7270 C.3       1 929         0.0445
     21 C33         2.4940   16.8220   32.3340 C.ar      1 929        -0.0214
     22 C29         0.9970   18.2600   31.2010 C.ar      1 929        -0.0393
     23 C27         1.2850   17.5140   32.3340 C.ar      1 929         0.0397
     24 C28         0.3190   17.4910   33.5060 C.2       1 929         0.2024
     25 O5          0.7840   17.5160   34.6260 O.2       1 929        -0.3847
     26 N1         -0.9990   17.3900   33.3070 N.am      1 929        -0.2785
     27 C5         -2.0080   17.3730   34.3580 C.3       1 929         0.0909
     28 C6         -3.2530   18.0980   33.8840 C.3       1 929         0.0756
     29 O2         -2.8310   18.7610   32.7100 O.3       1 929        -0.3651
     30 C20        -2.8890   20.1510   32.9320 C.3       1 929         0.0800
     31 C21        -1.5680   20.8670   33.0310 C.ar      1 929        -0.0213
     32 C26        -0.9950   21.5280   31.9480 C.ar      1 929        -0.0289
     33 C25         0.1930   22.2280   32.1560 C.ar      1 929         0.1242
     34 F1          0.8450   22.8890   31.1930 F         1 929        -0.1863
     35 C24         0.7870   22.2750   33.3990 C.ar      1 929        -0.0019
     36 C23         0.2220   21.6220   34.4770 C.ar      1 929         0.1242
     37 F2          0.8280   21.6870   35.6740 F         1 929        -0.1863
     38 C22        -0.9660   20.9180   34.2850 C.ar      1 929        -0.0289
     39 C1         -2.5060   15.9810   34.6870 C.3       1 929         0.0825
     40 O1         -2.9950   15.3660   33.4780 O.3       1 929        -0.3893
     41 C3         -1.4120   15.2420   35.4670 C.3       1 929        -0.0051
     42 C2         -2.0470   14.2640   36.4490 C.3       1 929         0.0484
     43 C7         -1.1400   13.0350   36.4070 C.3       1 929        -0.0452
     44 C4         -2.1720   14.8530   37.8420 C.2       1 929         0.1811
     45 O3         -1.1940   15.4190   38.3090 O.2       1 929        -0.3966
     46 N2         -3.3090   14.8190   38.5650 N.am      1 929        -0.2652
     47 C8         -3.2750   15.3820   39.9100 C.3       1 929         0.1332
     48 C10        -4.5350   15.1040   40.6900 C.3       1 929        -0.0063
     49 C12        -5.2720   16.3700   41.0790 C.3       1 929        -0.0584
     50 C11        -5.4040   14.0300   40.0680 C.3       1 929        -0.0584
     51 C9         -2.1420   14.6800   40.6030 C.2       1 929         0.2037
     52 O4         -2.1350   13.4610   40.5370 O.2       1 929        -0.3944
     53 N3         -1.2150   15.3410   41.2980 N.am      1 929        -0.2737
     54 C13        -0.1330   14.6050   41.9520 C.3       1 929         0.0645
     55 C14         0.9350   15.5990   42.3190 C.ar      1 929        -0.0210
     56 C19         0.8340   16.3220   43.5200 C.ar      1 929        -0.0584
     57 C18         1.7980   17.2770   43.8740 C.ar      1 929        -0.0685
     58 C17         2.8680   17.5020   43.0000 C.ar      1 929        -0.0687
     59 C16         2.9600   16.7690   41.8040 C.ar      1 929        -0.0685
     60 C15         1.9990   15.8110   41.4520 C.ar      1 929        -0.0584
     61 H1         -0.4168   18.6658   29.5125 H         1 929         0.1875
     62 H2          0.3377   20.4694   27.2778 H         1 929         0.0716
     63 H3         -2.0786   17.6176   27.9266 H         1 929         0.0557
     64 H4         -2.6019   15.9789   26.1382 H         1 929         0.0599
     65 H5         -1.5290   16.1424   23.9210 H         1 929         0.0559
     66 H6          0.0866   17.9621   23.4229 H         1 929         0.0599
     67 H7          0.6233   19.5976   25.2273 H         1 929         0.0557
     68 H8         -2.0396   21.1266   27.2318 H         1 929         0.0274
     69 H9         -1.3091   21.3730   28.8543 H         1 929         0.0274
     70 H10        -2.3869   19.9667   28.5587 H         1 929         0.0274
     71 H11         3.7791   17.6127   29.2778 H         1 929         0.0566
     72 H12         7.0788   16.3248   28.8290 H         1 929         0.0487
     73 H13         7.2030   16.8176   30.5518 H         1 929         0.0487
     74 H14         6.0283   17.6352   29.4663 H         1 929         0.0487
     75 H15         4.3580   16.1978   33.4635 H         1 929         0.0517
     76 H16         6.0515   16.1239   32.8692 H         1 929         0.0517
     77 H17         5.0325   14.6446   32.8642 H         1 929         0.0517
     78 H18         2.7556   16.2449   33.2135 H         1 929         0.0566
     79 H19         0.0745   18.8255   31.1356 H         1 929         0.0576
     80 H20        -1.3178   17.3206   32.3617 H         1 929         0.1850
     81 H21        -1.5948   17.8505   35.2587 H         1 929         0.0604
     82 H22        -3.5975   18.8198   34.6392 H         1 929         0.0586
     83 H23        -4.0610   17.3853   33.6625 H         1 929         0.0586
     84 H24        -3.4317   20.3175   33.8742 H         1 929         0.0723
     85 H25        -3.4519   20.5999   32.1004 H         1 929         0.0723
     86 H26        -1.4599   21.4993   30.9692 H         1 929         0.0509
     87 H27         1.7081   22.8308   33.5320 H         1 929         0.0532
     88 H28        -1.4260   20.4046   35.1216 H         1 929         0.0509
     89 H29        -3.3682   16.0718   35.3640 H         1 929         0.0618
     90 H30        -3.7054   15.8877   33.1237 H         1 929         0.2099
     91 H31        -0.8027   15.9713   36.0209 H         1 929         0.0318
     92 H32        -0.7724   14.6890   34.7634 H         1 929         0.0318
     93 H33        -3.0544   13.9909   36.1017 H         1 929         0.0536
     94 H34        -1.5283   12.2691   37.0945 H         1 929         0.0257
     95 H35        -0.1223   13.3197   36.7124 H         1 929         0.0257
     96 H36        -1.1165   12.6314   35.3840 H         1 929         0.0257
     97 H37        -4.1473   14.4213   38.1920 H         1 929         0.1883
     98 H38        -3.1008   16.4671   39.8626 H         1 929         0.0802
     99 H39        -4.1941   14.6714   41.6422 H         1 929         0.0343
    100 H40        -6.1790   16.1075   41.6434 H         1 929         0.0234
    101 H41        -5.5526   16.9245   40.1714 H         1 929         0.0234
    102 H42        -4.6194   16.9967   41.7046 H         1 929         0.0234
    103 H43        -4.7849   13.1551   39.8206 H         1 929         0.0234
    104 H44        -5.8698   14.4205   39.1512 H         1 929         0.0234
    105 H45        -6.1882   13.7345   40.7805 H         1 929         0.0234
    106 H46        -1.2596   16.3373   41.3718 H         1 929         0.1878
    107 H47         0.2769   13.8506   41.2644 H         1 929         0.0683
    108 H48        -0.5109   14.1086   42.8580 H         1 929         0.0683
    109 H49        -0.0031   16.1384   44.1838 H         1 929         0.0557
    110 H50         1.7164   17.8286   44.8036 H         1 929         0.0599
    111 H51         3.6237   18.2396   43.2448 H         1 929         0.0559
    112 H52         3.7953   16.9491   41.1370 H         1 929         0.0599
    113 H53         2.0841   15.2507   40.5279 H         1 929         0.0557
@<TRIPOS>BOND
     1    1    2 2  
     2    2    3 am 
     3    2   12 1  
     4    3    4 1  
     5    4    5 1  
     6    4   11 1  
     7    5    6 ar 
     8    5   10 ar 
     9    6    7 ar 
    10    7    8 ar 
    11    8    9 ar 
    12    9   10 ar 
    13   12   13 ar 
    14   12   22 ar 
    15   13   14 ar 
    16   14   15 1  
    17   14   21 ar 
    18   15   16 am 
    19   15   20 1  
    20   16   17 2  
    21   16   18 1  
    22   16   19 2  
    23   21   23 ar 
    24   22   23 ar 
    25   23   24 1  
    26   24   25 2  
    27   24   26 am 
    28   26   27 1  
    29   27   28 1  
    30   27   39 1  
    31   28   29 1  
    32   29   30 1  
    33   30   31 1  
    34   31   32 ar 
    35   31   38 ar 
    36   32   33 ar 
    37   33   34 1  
    38   33   35 ar 
    39   35   36 ar 
    40   36   37 1  
    41   36   38 ar 
    42   39   40 1  
    43   39   41 1  
    44   41   42 1  
    45   42   43 1  
    46   42   44 1  
    47   44   45 2  
    48   44   46 am 
    49   46   47 1  
    50   47   48 1  
    51   47   51 1  
    52   48   49 1  
    53   48   50 1  
    54   51   52 2  
    55   51   53 am 
    56   53   54 1  
    57   54   55 1  
    58   55   56 ar 
    59   55   60 ar 
    60   56   57 ar 
    61   57   58 ar 
    62   58   59 ar 
    63   59   60 ar 
    64    3   61 1  
    65    4   62 1  
    66    6   63 1  
    67    7   64 1  
    68    8   65 1  
    69    9   66 1  
    70   10   67 1  
    71   11   68 1  
    72   11   69 1  
    73   11   70 1  
    74   13   71 1  
    75   18   72 1  
    76   18   73 1  
    77   18   74 1  
    78   20   75 1  
    79   20   76 1  
    80   20   77 1  
    81   21   78 1  
    82   22   79 1  
    83   26   80 1  
    84   27   81 1  
    85   28   82 1  
    86   28   83 1  
    87   30   84 1  
    88   30   85 1  
    89   32   86 1  
    90   35   87 1  
    91   38   88 1  
    92   39   89 1  
    93   40   90 1  
    94   41   91 1  
    95   41   92 1  
    96   42   93 1  
    97   43   94 1  
    98   43   95 1  
    99   43   96 1  
   100   46   97 1  
   101   47   98 1  
   102   48   99 1  
   103   49  100 1  
   104   49  101 1  
   105   49  102 1  
   106   50  103 1  
   107   50  104 1  
   108   50  105 1  
   109   53  106 1  
   110   54  107 1  
   111   54  108 1  
   112   56  109 1  
   113   57  110 1  
   114   58  111 1  
   115   59  112 1  
   116   60  113 1  
@<TRIPOS>SUBSTRUCTURE
     1 929         1

