4up5_ligand
  -I-interpret- 

 20 21  0  0  0  0  0  0  0  0999 V2000
  -23.2340   11.5230   -4.6860 C   0  0  0  0  0
  -24.5870   11.7300   -4.6330 O   0  0  0  0  0
  -25.3540   10.8690   -3.7960 C   0  0  0  0  0
  -22.7490   10.2270   -4.7800 C   0  0  0  0  0
  -21.3750   10.0490   -4.8330 C   0  0  0  0  0
  -20.4920   11.1320   -4.7930 C   0  0  0  0  0
  -21.0060   12.4240   -4.6990 C   0  0  0  0  0
  -22.3770   12.6140   -4.6460 C   0  0  0  0  0
  -19.1390   10.7970   -4.8550 N   0  0  0  0  0
  -18.9900    9.5000   -4.9380 C   0  0  0  0  0
  -17.8060    8.8820   -5.0120 N   0  0  0  0  0
  -20.4780    8.5610   -4.9510 S   0  0  0  0  0
  -25.2333    9.8383   -4.1293 H   0  0  0  0  0
  -25.0079   10.9622   -2.7666 H   0  0  0  0  0
  -26.4055   11.1502   -3.8540 H   0  0  0  0  0
  -23.4274    9.3744   -4.8113 H   0  0  0  0  0
  -20.3326   13.2805   -4.6674 H   0  0  0  0  0
  -22.7838   13.6226   -4.5727 H   0  0  0  0  0
  -16.9445    9.4280   -5.0057 H   0  0  0  0  0
  -17.7647    7.8648   -5.0748 H   0  0  0  0  0
  1  2  1  0  0  0
  1  4  4  0  0  0
  1  8  4  0  0  0
  2  3  1  0  0  0
  4  5  4  0  0  0
  5  6  4  0  0  0
  5 12  4  0  0  0
  6  7  4  0  0  0
  6  9  4  0  0  0
  7  8  4  0  0  0
  9 10  4  0  0  0
 10 11  1  0  0  0
 10 12  4  0  0  0
  3 13  1  0  0  0
  3 14  1  0  0  0
  3 15  1  0  0  0
  4 16  1  0  0  0
  7 17  1  0  0  0
  8 18  1  0  0  0
 11 19  1  0  0  0
 11 20  1  0  0  0
M  END
$$$$
