1o38_ligand
  -I-interpret- 

 49 52  0  0  0  0  0  0  0  0999 V2000
   44.0220   -3.0310   26.2340 C   0  0  0  0  0
   44.3330   -1.6250   26.2420 C   0  0  0  0  0
   44.2310   -0.8210   27.3730 C   0  0  0  0  0
   43.8170   -1.4340   28.5140 C   0  0  0  0  0
   43.5170   -2.7500   28.5750 C   0  0  0  0  0
   43.5910   -3.6040   27.4670 C   0  0  0  0  0
   44.1530   -3.7910   25.0430 C   0  0  0  0  0
   43.9290   -5.0950   25.0620 N   0  0  0  0  0
   44.4950   -3.1640   23.9270 N   0  0  0  0  0
   43.6520   -0.9510   29.6990 N   0  0  0  0  0
   43.1500   -3.1160   29.7900 N   0  0  0  0  0
   43.2560   -1.9520   30.4260 C   0  0  0  0  0
   43.0090   -1.8400   31.8180 C   0  0  0  0  0
   42.6560   -2.9710   32.5930 C   0  0  0  0  0
   42.4060   -2.8870   33.9640 C   0  0  0  0  0
   42.0430   -4.1490   34.8160 C   0  0  0  0  0
   40.5370   -4.5580   34.6550 C   0  0  0  0  0
   40.3380   -5.9590   35.2030 N   0  3  0  0  0
   42.5060   -1.6430   34.5750 C   0  0  0  0  0
   42.8490   -0.4840   33.8720 C   0  0  0  0  0
   43.0940   -0.6050   32.4980 C   0  0  0  0  0
   43.4330    0.5290   31.8090 O   0  0  0  0  0
   42.9280    0.7280   34.5730 C   0  0  0  0  0
   44.1210    1.4670   34.6850 C   0  0  0  0  0
   44.1730    2.6630   35.4210 C   0  0  0  0  0
   43.0420    3.1580   36.0620 C   0  0  0  0  0
   41.8450    2.4450   35.9660 C   0  0  0  0  0
   41.7920    1.2510   35.2280 C   0  0  0  0  0
   44.6664   -1.1656   25.3115 H   0  0  0  0  0
   44.4699    0.2422   27.3459 H   0  0  0  0  0
   43.3307   -4.6597   27.5438 H   0  0  0  0  0
   44.0185   -5.6404   24.2047 H   0  0  0  0  0
   44.5909   -3.6874   23.0568 H   0  0  0  0  0
   44.6624   -2.1579   23.9381 H   0  0  0  0  0
   42.5767   -3.9410   32.1023 H   0  0  0  0  0
   42.2204   -3.9129   35.8652 H   0  0  0  0  0
   42.6591   -4.9797   34.4719 H   0  0  0  0  0
   40.2631   -4.5359   33.6002 H   0  0  0  0  0
   39.9075   -3.8579   35.2043 H   0  0  0  0  0
   39.3594   -6.2274   35.0995 H   0  0  0  0  0
   40.9273   -6.6118   34.6863 H   0  0  0  0  0
   40.5940   -5.9762   36.1902 H   0  0  0  0  0
   42.3093   -1.5677   35.6445 H   0  0  0  0  0
   43.4464    1.2762   32.4116 H   0  0  0  0  0
   45.0224    1.1043   34.1910 H   0  0  0  0  0
   45.1129    3.2106   35.4906 H   0  0  0  0  0
   43.0893    4.0872   36.6299 H   0  0  0  0  0
   40.9497    2.8159   36.4650 H   0  0  0  0  0
   40.8466    0.7128   35.1591 H   0  0  0  0  0
  1  2  4  0  0  0
  1  6  4  0  0  0
  1  7  1  0  0  0
  2  3  4  0  0  0
  3  4  4  0  0  0
  4  5  4  0  0  0
  4 10  4  0  0  0
  5  6  4  0  0  0
  5 11  4  0  0  0
  7  8  2  0  0  0
  7  9  1  0  0  0
 10 12  4  0  0  0
 11 12  4  0  0  0
 12 13  1  0  0  0
 13 14  4  0  0  0
 13 21  4  0  0  0
 14 15  4  0  0  0
 15 16  1  0  0  0
 15 19  4  0  0  0
 16 17  1  0  0  0
 17 18  1  0  0  0
 19 20  4  0  0  0
 20 21  4  0  0  0
 20 23  1  0  0  0
 21 22  1  0  0  0
 23 24  4  0  0  0
 23 28  4  0  0  0
 24 25  4  0  0  0
 25 26  4  0  0  0
 26 27  4  0  0  0
 27 28  4  0  0  0
  2 29  1  0  0  0
  3 30  1  0  0  0
  6 31  1  0  0  0
  8 32  1  0  0  0
  9 33  1  0  0  0
  9 34  1  0  0  0
 14 35  1  0  0  0
 16 36  1  0  0  0
 16 37  1  0  0  0
 17 38  1  0  0  0
 17 39  1  0  0  0
 18 40  1  0  0  0
 18 41  1  0  0  0
 18 42  1  0  0  0
 19 43  1  0  0  0
 22 44  1  0  0  0
 24 45  1  0  0  0
 25 46  1  0  0  0
 26 47  1  0  0  0
 27 48  1  0  0  0
 28 49  1  0  0  0
M  END
$$$$
