5njx_ligand
  -I-interpret- 

143142  0  0  0  0  0  0  0  0999 V2000
   -1.8390   14.7780  -13.3100 N   0  3  0  0  0
   -2.7080   13.6340  -13.0250 C   0  0  0  0  0
   -3.5180   13.8530  -11.7340 C   0  0  0  0  0
   -4.4520   13.0890  -11.4600 O   0  0  0  0  0
   -1.8890   12.3250  -12.9360 C   0  0  0  0  0
   -2.7290   11.0530  -12.9020 C   0  0  0  0  0
   -3.1460   10.5840  -13.9870 O   0  0  0  0  0
   -2.9810   10.5350  -11.7870 O   0  0  0  0  0
   -3.1990   14.9170  -10.9640 N   0  0  0  0  0
   -3.9200   15.2320   -9.7220 C   0  0  0  0  0
   -5.2370   15.9890  -10.1050 C   0  0  0  0  0
   -5.5870   17.0120   -9.5040 O   0  0  0  0  0
   -2.9900   15.9580   -8.7080 C   0  0  0  0  0
   -1.7270   15.2820   -8.6420 O   0  0  0  0  0
   -3.5790   16.0100   -7.3020 C   0  0  0  0  0
   -5.9780   15.4170  -11.0900 N   0  0  0  0  0
   -7.2480   15.8950  -11.6370 C   0  0  0  0  0
   -8.4220   15.4820  -10.7500 C   0  0  0  0  0
   -9.5750   15.7570  -11.0910 O   0  0  0  0  0
   -7.4460   15.3670  -13.0560 C   0  0  0  0  0
   -7.5620   13.9540  -13.0640 O   0  0  0  0  0
   -8.1250   14.8240   -9.6110 N   0  0  0  0  0
   -9.1000   14.3910   -8.6080 C   0  0  0  0  0
   -9.8200   15.6030   -8.0400 C   0  0  0  0  0
  -11.0150   15.5420   -7.7710 O   0  0  0  0  0
   -8.4100   13.6090   -7.4680 C   0  0  0  0  0
   -7.7500   12.3190   -7.9120 C   0  0  0  0  0
   -6.8480   11.7140   -6.8490 C   0  0  0  0  0
   -5.5240   12.3430   -6.7750 N   0  0  0  0  0
   -4.5090   12.0940   -7.6050 C   0  0  0  0  0
   -4.6660   11.2610   -8.6300 N   0  0  0  0  0
   -3.3380   12.6930   -7.4290 N   0  0  0  0  0
   -9.0870   16.7220   -7.9060 N   0  0  0  0  0
   -9.5600   17.9960   -7.3660 C   0  0  0  0  0
  -10.5750   18.6670   -8.3060 C   0  0  0  0  0
  -11.1030   19.7340   -7.9830 O   0  0  0  0  0
   -8.3660   18.9310   -7.0910 C   0  0  0  0  0
   -7.2590   18.3070   -6.2510 C   0  0  0  0  0
   -7.7970   17.8590   -4.5870 S   0  0  0  0  0
   -7.7760   16.0970   -4.7150 C   0  0  0  0  0
  -10.8440   18.0280   -9.4580 N   0  0  0  0  0
  -11.8060   18.4570  -10.4660 C   0  0  0  0  0
  -12.9910   17.4830  -10.4790 C   0  0  0  0  0
  -14.0750   17.8350  -10.9490 O   0  0  0  0  0
  -11.1290   18.5370  -11.8420 C   0  0  0  0  0
  -11.4310   19.8130  -12.6170 C   0  0  0  0  0
  -10.7560   21.1020  -12.1740 C   0  0  0  0  0
  -11.1800   22.1770  -12.6570 O   0  0  0  0  0
   -9.8030   21.0460  -11.3620 O   0  0  0  0  0
  -12.7830   16.2650   -9.9310 N   0  0  0  0  0
  -13.7980   15.2150   -9.8410 C   0  0  0  0  0
  -14.8930   15.5720   -8.8410 C   0  0  0  0  0
  -14.6240   16.0150   -7.7280 O   0  0  0  0  0
  -13.1810   13.8640   -9.4380 C   0  0  0  0  0
  -12.3370   13.1610  -10.4890 C   0  0  0  0  0
  -11.6310   11.9140   -9.9770 C   0  0  0  0  0
  -12.2900   11.0750   -9.3170 O   0  0  0  0  0
  -10.4170   11.7670  -10.2500 O   0  0  0  0  0
  -16.1220   15.3150   -9.2340 N   0  0  0  0  0
  -17.3060   15.5420   -8.4340 C   0  0  0  0  0
  -17.5780   14.2560   -7.5900 C   0  0  0  0  0
  -17.0240   13.1940   -7.8970 O   0  0  0  0  0
  -18.4340   15.9600   -9.4190 C   0  0  0  0  0
  -19.6810   15.0830   -9.3400 C   0  0  0  0  0
  -18.7670   17.4390   -9.2710 C   0  0  0  0  0
  -18.3700   14.3800   -6.4920 N   0  0  0  0  0
  -18.7280   13.2840   -5.5780 C   0  0  0  0  0
  -20.2410   12.9370   -5.6350 C   0  0  0  0  0
  -20.6530   11.9290   -5.0200 O   0  0  0  0  0
  -18.3190   13.6400   -4.1380 C   0  0  0  0  0
  -16.8390   13.9150   -3.9940 C   0  0  0  0  0
  -16.0530   12.9430   -3.9880 O   0  0  0  0  0
  -16.4620   15.1050   -3.9190 O   0  0  0  0  0
  -21.0100   13.6550   -6.3070 O   0  0  0  0  0
   -2.4025   15.6265  -13.3634 H   0  0  0  0  0
   -1.1488   14.8731  -12.5650 H   0  0  0  0  0
   -1.3626   14.6283  -14.1994 H   0  0  0  0  0
   -3.4119   13.5432  -13.8523 H   0  0  0  0  0
   -1.3295   12.3623  -12.0013 H   0  0  0  0  0
   -1.2708   12.2745  -13.8323 H   0  0  0  0  0
   -2.5659   11.0531  -11.0936 H   0  0  0  0  0
   -2.4314   15.5225  -11.2547 H   0  0  0  0  0
   -4.2228   14.3320   -9.1868 H   0  0  0  0  0
   -2.8732   16.9810   -9.0656 H   0  0  0  0  0
   -1.1563   15.7330   -8.0155 H   0  0  0  0  0
   -4.5287   16.5444   -7.3268 H   0  0  0  0  0
   -3.7412   14.9949   -6.9396 H   0  0  0  0  0
   -2.8865   16.5278   -6.6383 H   0  0  0  0  0
   -5.6068   14.5570  -11.4937 H   0  0  0  0  0
   -7.2135   16.9841  -11.6658 H   0  0  0  0  0
   -6.5813   15.6491  -13.6567 H   0  0  0  0  0
   -8.3628   15.7943  -13.4621 H   0  0  0  0  0
   -7.6853   13.6493  -13.9660 H   0  0  0  0  0
   -7.1433   14.6110   -9.4341 H   0  0  0  0  0
   -9.8202   13.7291   -9.0890 H   0  0  0  0  0
   -9.1824   13.3437   -6.7461 H   0  0  0  0  0
   -7.6256   14.2504   -7.0664 H   0  0  0  0  0
   -7.1321   12.5452   -8.7810 H   0  0  0  0  0
   -8.5402   11.5989   -8.1248 H   0  0  0  0  0
   -6.6979   10.6654   -7.1057 H   0  0  0  0  0
   -7.3344   11.8616   -5.8848 H   0  0  0  0  0
   -5.3674   13.0234   -6.0314 H   0  0  0  0  0
   -3.8910   11.0886   -9.2704 H   0  0  0  0  0
   -5.5614   10.7947   -8.7757 H   0  0  0  0  0
   -3.2107   13.3470   -6.6567 H   0  0  0  0  0
   -8.1137   16.6784   -8.2081 H   0  0  0  0  0
  -10.0734   17.7946   -6.4258 H   0  0  0  0  0
   -8.7499   19.7841   -6.5316 H   0  0  0  0  0
   -7.9298   19.1856   -8.0569 H   0  0  0  0  0
   -6.4623   19.0445   -6.1535 H   0  0  0  0  0
   -6.9387   17.3935   -6.7521 H   0  0  0  0  0
   -8.4628   15.7829   -5.5009 H   0  0  0  0  0
   -6.7670   15.7636   -4.9578 H   0  0  0  0  0
   -8.0852   15.6613   -3.7649 H   0  0  0  0  0
  -10.3295   17.1669   -9.6431 H   0  0  0  0  0
  -12.1785   19.4524  -10.2241 H   0  0  0  0  0
  -11.5086   17.7047  -12.4347 H   0  0  0  0  0
  -10.0527   18.5129  -11.6714 H   0  0  0  0  0
  -12.4983   19.9862  -12.4795 H   0  0  0  0  0
  -11.0635   19.6291  -13.6266 H   0  0  0  0  0
   -9.6430   20.1307  -11.1207 H   0  0  0  0  0
  -11.8563   16.0644   -9.5550 H   0  0  0  0  0
  -14.2357   15.1293  -10.8356 H   0  0  0  0  0
  -14.0200   13.1994   -9.2316 H   0  0  0  0  0
  -12.5102   14.0757   -8.6054 H   0  0  0  0  0
  -11.5664   13.8623  -10.8092 H   0  0  0  0  0
  -13.0082   12.8489  -11.2891 H   0  0  0  0  0
  -13.1947   11.3822   -9.2237 H   0  0  0  0  0
  -16.2492   14.9282  -10.1692 H   0  0  0  0  0
  -17.2141   16.3459   -7.7037 H   0  0  0  0  0
  -18.0371   15.7966  -10.4209 H   0  0  0  0  0
  -19.4141   14.0522   -9.5731 H   0  0  0  0  0
  -20.0959   15.1335   -8.3333 H   0  0  0  0  0
  -20.4203   15.4393  -10.0574 H   0  0  0  0  0
  -19.1013   17.6347   -8.2522 H   0  0  0  0  0
  -17.8783   18.0332   -9.4836 H   0  0  0  0  0
  -19.5588   17.7037   -9.9717 H   0  0  0  0  0
  -18.7456   15.3056   -6.2856 H   0  0  0  0  0
  -18.1816   12.3992   -5.9046 H   0  0  0  0  0
  -19.9183   11.5105   -4.5653 H   0  0  0  0  0
  -18.5612   12.7871   -3.5039 H   0  0  0  0  0
  -18.8539   14.5468   -3.8558 H   0  0  0  0  0
  -17.2274   15.6840   -3.9409 H   0  0  0  0  0
  1  2  1  0  0  0
  2  3  1  0  0  0
  2  5  1  0  0  0
  3  4  2  0  0  0
  3  9  1  0  0  0
  5  6  1  0  0  0
  6  7  2  0  0  0
  6  8  1  0  0  0
  9 10  1  0  0  0
 10 11  1  0  0  0
 10 13  1  0  0  0
 11 12  2  0  0  0
 11 16  1  0  0  0
 13 14  1  0  0  0
 13 15  1  0  0  0
 16 17  1  0  0  0
 17 18  1  0  0  0
 17 20  1  0  0  0
 18 19  2  0  0  0
 18 22  1  0  0  0
 20 21  1  0  0  0
 22 23  1  0  0  0
 23 24  1  0  0  0
 23 26  1  0  0  0
 24 25  2  0  0  0
 24 33  1  0  0  0
 26 27  1  0  0  0
 27 28  1  0  0  0
 28 29  1  0  0  0
 29 30  1  0  0  0
 30 31  1  0  0  0
 30 32  2  0  0  0
 33 34  1  0  0  0
 34 35  1  0  0  0
 34 37  1  0  0  0
 35 36  2  0  0  0
 35 41  1  0  0  0
 37 38  1  0  0  0
 38 39  1  0  0  0
 39 40  1  0  0  0
 41 42  1  0  0  0
 42 43  1  0  0  0
 42 45  1  0  0  0
 43 44  2  0  0  0
 43 50  1  0  0  0
 45 46  1  0  0  0
 46 47  1  0  0  0
 47 48  2  0  0  0
 47 49  1  0  0  0
 50 51  1  0  0  0
 51 52  1  0  0  0
 51 54  1  0  0  0
 52 53  2  0  0  0
 52 59  1  0  0  0
 54 55  1  0  0  0
 55 56  1  0  0  0
 56 57  1  0  0  0
 56 58  2  0  0  0
 59 60  1  0  0  0
 60 61  1  0  0  0
 60 63  1  0  0  0
 61 62  2  0  0  0
 61 66  1  0  0  0
 63 64  1  0  0  0
 63 65  1  0  0  0
 66 67  1  0  0  0
 67 68  1  0  0  0
 67 70  1  0  0  0
 68 69  1  0  0  0
 68 74  2  0  0  0
 70 71  1  0  0  0
 71 72  2  0  0  0
 71 73  1  0  0  0
  1 75  1  0  0  0
  1 76  1  0  0  0
  1 77  1  0  0  0
  2 78  1  0  0  0
  5 79  1  0  0  0
  5 80  1  0  0  0
  8 81  1  0  0  0
  9 82  1  0  0  0
 10 83  1  0  0  0
 13 84  1  0  0  0
 14 85  1  0  0  0
 15 86  1  0  0  0
 15 87  1  0  0  0
 15 88  1  0  0  0
 16 89  1  0  0  0
 17 90  1  0  0  0
 20 91  1  0  0  0
 20 92  1  0  0  0
 21 93  1  0  0  0
 22 94  1  0  0  0
 23 95  1  0  0  0
 26 96  1  0  0  0
 26 97  1  0  0  0
 27 98  1  0  0  0
 27 99  1  0  0  0
 28100  1  0  0  0
 28101  1  0  0  0
 29102  1  0  0  0
 31103  1  0  0  0
 31104  1  0  0  0
 32105  1  0  0  0
 33106  1  0  0  0
 34107  1  0  0  0
 37108  1  0  0  0
 37109  1  0  0  0
 38110  1  0  0  0
 38111  1  0  0  0
 40112  1  0  0  0
 40113  1  0  0  0
 40114  1  0  0  0
 41115  1  0  0  0
 42116  1  0  0  0
 45117  1  0  0  0
 45118  1  0  0  0
 46119  1  0  0  0
 46120  1  0  0  0
 49121  1  0  0  0
 50122  1  0  0  0
 51123  1  0  0  0
 54124  1  0  0  0
 54125  1  0  0  0
 55126  1  0  0  0
 55127  1  0  0  0
 57128  1  0  0  0
 59129  1  0  0  0
 60130  1  0  0  0
 63131  1  0  0  0
 64132  1  0  0  0
 64133  1  0  0  0
 64134  1  0  0  0
 65135  1  0  0  0
 65136  1  0  0  0
 65137  1  0  0  0
 66138  1  0  0  0
 67139  1  0  0  0
 69140  1  0  0  0
 70141  1  0  0  0
 70142  1  0  0  0
 73143  1  0  0  0
M  END
$$$$
