### 
### Created by X-TOOL on Mon Sep 10 21:13:33 2018
### 

@<TRIPOS>MOLECULE
5njx_ligand
  139   138     1     0     0
SMALL
GAST_HUCK


@<TRIPOS>ATOM
      1 N          -1.8390   14.7780  -13.3100 N.4       1 ASP         0.2391
      2 CA         -2.7080   13.6340  -13.0250 C.3       1 ASP         0.0764
      3 C          -3.5180   13.8530  -11.7340 C.2       1 ASP         0.2285
      4 O          -4.4520   13.0890  -11.4600 O.2       1 ASP        -0.3906
      5 CB         -1.8890   12.3250  -12.9360 C.3       1 ASP         0.0607
      6 CG         -2.7290   11.0530  -12.9020 C.2       1 ASP         0.0425
      7 OD1        -3.1460   10.5840  -13.9870 O.co2     1 ASP        -0.5686
      8 OD2        -2.9810   10.5350  -11.7870 O.co2     1 ASP        -0.5686
      9 N          -3.1990   14.9170  -10.9640 N.am      1 THR        -0.2585
     10 CA         -3.9200   15.2320   -9.7220 C.3       1 THR         0.1566
     11 C          -5.2370   15.9890  -10.1050 C.2       1 THR         0.2065
     12 O          -5.5870   17.0120   -9.5040 O.2       1 THR        -0.3943
     13 CB         -2.9900   15.9580   -8.7080 C.3       1 THR         0.0924
     14 OG1        -1.7270   15.2820   -8.6420 O.3       1 THR        -0.3874
     15 CG2        -3.5790   16.0100   -7.3020 C.3       1 THR        -0.0346
     16 N          -5.9780   15.4170  -11.0900 N.am      1 SER        -0.2615
     17 CA         -7.2480   15.8950  -11.6370 C.3       1 SER         0.1539
     18 C          -8.4220   15.4820  -10.7500 C.2       1 SER         0.2062
     19 O          -9.5750   15.7570  -11.0910 O.2       1 SER        -0.3943
     20 CB         -7.4460   15.3670  -13.0560 C.3       1 SER         0.0843
     21 OG         -7.5620   13.9540  -13.0640 O.3       1 SER        -0.3903
     22 N          -8.1250   14.8240   -9.6110 N.am      1 ARG        -0.2637
     23 CA         -9.1000   14.3910   -8.6080 C.3       1 ARG         0.1311
     24 C          -9.8200   15.6030   -8.0400 C.2       1 ARG         0.2039
     25 O         -11.0150   15.5420   -7.7710 O.2       1 ARG        -0.3944
     26 CB         -8.4100   13.6090   -7.4680 C.3       1 ARG        -0.0092
     27 CG         -7.7500   12.3190   -7.9120 C.3       1 ARG        -0.0156
     28 CD         -6.8480   11.7140   -6.8490 C.3       1 ARG         0.0627
     29 NE         -5.5240   12.3430   -6.7750 N.pl3     1 ARG        -0.2723
     30 CZ         -4.5090   12.0940   -7.6050 C.cat     1 ARG         0.2882
     31 NH1        -4.6660   11.2610   -8.6300 N.pl3     1 ARG        -0.2849
     32 NH2        -3.3380   12.6930   -7.4290 N.pl3     1 ARG        -0.2849
     33 N          -9.0870   16.7220   -7.9060 N.am      1 MET        -0.2637
     34 CA         -9.5600   17.9960   -7.3660 C.3       1 MET         0.1317
     35 C         -10.5750   18.6670   -8.3060 C.2       1 MET         0.2039
     36 O         -11.1030   19.7340   -7.9830 O.2       1 MET        -0.3944
     37 CB         -8.3660   18.9310   -7.0910 C.3       1 MET        -0.0034
     38 CG         -7.2590   18.3070   -6.2510 C.3       1 MET        -0.0024
     39 SD         -7.7970   17.8590   -4.5870 S.3       1 MET        -0.1639
     40 CE         -7.7760   16.0970   -4.7150 C.3       1 MET        -0.0181
     41 N         -10.8440   18.0280   -9.4580 N.am      1 GLU        -0.2636
     42 CA        -11.8060   18.4570  -10.4660 C.3       1 GLU         0.1325
     43 C         -12.9910   17.4830  -10.4790 C.2       1 GLU         0.2040
     44 O         -14.0750   17.8350  -10.9490 O.2       1 GLU        -0.3944
     45 CB        -11.1290   18.5370  -11.8420 C.3       1 GLU        -0.0008
     46 CG        -11.4310   19.8130  -12.6170 C.3       1 GLU         0.0044
     47 CD        -10.7560   21.1020  -12.1740 C.2       1 GLU         0.0350
     48 OE1       -11.1800   22.1770  -12.6570 O.co2     1 GLU        -0.5690
     49 OE2        -9.8030   21.0460  -11.3620 O.co2     1 GLU        -0.5690
     50 N         -12.7830   16.2650   -9.9310 N.am      1 GLU        -0.2636
     51 CA        -13.7980   15.2150   -9.8410 C.3       1 GLU         0.1325
     52 C         -14.8930   15.5720   -8.8410 C.2       1 GLU         0.2040
     53 O         -14.6240   16.0150   -7.7280 O.2       1 GLU        -0.3944
     54 CB        -13.1810   13.8640   -9.4380 C.3       1 GLU        -0.0008
     55 CG        -12.3370   13.1610  -10.4890 C.3       1 GLU         0.0044
     56 CD        -11.6310   11.9140   -9.9770 C.2       1 GLU         0.0350
     57 OE1       -12.2900   11.0750   -9.3170 O.co2     1 GLU        -0.5690
     58 OE2       -10.4170   11.7670  -10.2500 O.co2     1 GLU        -0.5690
     59 N         -16.1220   15.3150   -9.2340 N.am      1 VAL        -0.2635
     60 CA        -17.3060   15.5420   -8.4340 C.3       1 VAL         0.1332
     61 C         -17.5780   14.2560   -7.5900 C.2       1 VAL         0.2037
     62 O         -17.0240   13.1940   -7.8970 O.2       1 VAL        -0.3944
     63 CB        -18.4340   15.9600   -9.4190 C.3       1 VAL        -0.0063
     64 CG1       -19.6810   15.0830   -9.3400 C.3       1 VAL        -0.0584
     65 CG2       -18.7670   17.4390   -9.2710 C.3       1 VAL        -0.0584
     66 N         -18.3700   14.3800   -6.4920 N.am      1 ASP        -0.2679
     67 CA        -18.7280   13.2840   -5.5780 C.3       1 ASP         0.1057
     68 C         -20.2410   12.9370   -5.6350 C.2       1 ASP         0.0618
     69 O         -20.6530   11.9290   -5.0200 O.co2     1 ASP        -0.5665
     70 CB        -18.3190   13.6400   -4.1380 C.3       1 ASP         0.0351
     71 CG        -16.8390   13.9150   -3.9940 C.2       1 ASP         0.0387
     72 OD1       -16.0530   12.9430   -3.9880 O.co2     1 ASP        -0.5688
     73 OD2       -16.4620   15.1050   -3.9190 O.co2     1 ASP        -0.5688
     74 OXT       -21.0100   13.6550   -6.3070 O.co2     1 ASP        -0.5665
     75 H1         -1.3233   14.6050  -14.1587 H         1 ASP         0.2016
     76 H2         -1.1945   14.9090  -12.5461 H         1 ASP         0.2016
     77 H3         -2.4010   15.6073  -13.4215 H         1 ASP         0.2016
     78 H4         -3.4189   13.5345  -13.8584 H         1 ASP         0.1117
     79 H5         -1.2831   12.3608  -12.0186 H         1 ASP         0.0512
     80 H6         -1.2255   12.2749  -13.8120 H         1 ASP         0.0512
     81 H7         -2.4464   15.5106  -11.2490 H         1 THR         0.1885
     82 H8         -4.2177   14.2840   -9.2502 H         1 THR         0.0826
     83 H9         -2.8313   16.9879   -9.0602 H         1 THR         0.0639
     84 H10        -1.1622   15.7283   -8.0220 H         1 THR         0.2101
     85 H11        -2.8810   16.5323   -6.6312 H         1 THR         0.0257
     86 H12        -3.7432   14.9861   -6.9351 H         1 THR         0.0257
     87 H13        -4.5375   16.5491   -7.3257 H         1 THR         0.0257
     88 H14        -5.6141   14.5739  -11.4858 H         1 SER         0.1884
     89 H15        -7.2149   16.9938  -11.6759 H         1 SER         0.0823
     90 H16        -6.5830   15.6599  -13.6719 H         1 SER         0.0606
     91 H17        -8.3628   15.8049  -13.4775 H         1 SER         0.0606
     92 H18        -7.6841   13.6525  -13.9566 H         1 SER         0.2097
     93 H19        -7.1625   14.6152   -9.4376 H         1 ARG         0.1883
     94 H20        -9.8361   13.7323   -9.0920 H         1 ARG         0.0800
     95 H21        -9.1676   13.3655   -6.7086 H         1 ARG         0.0313
     96 H22        -7.6394   14.2556   -7.0230 H         1 ARG         0.0313
     97 H23        -7.1458   12.5252   -8.8077 H         1 ARG         0.0301
     98 H24        -8.5363   11.5907   -8.1597 H         1 ARG         0.0301
     99 H25        -6.7134   10.6457   -7.0739 H         1 ARG         0.0689
    100 H26        -7.3403   11.8238   -5.8715 H         1 ARG         0.0689
    101 H27        -5.3659   13.0300   -6.0241 H         1 ARG         0.2642
    102 H28        -3.8783   11.0735   -9.2666 H         1 ARG         0.2615
    103 H29        -5.5753   10.8035   -8.7872 H         1 ARG         0.2615
    104 H30        -3.2042   13.3402   -6.6390 H         1 ARG         0.2615
    105 H31        -2.5629   12.5108   -8.0824 H         1 ARG         0.2615
    106 H32        -8.1328   16.6793   -8.2021 H         1 MET         0.1883
    107 H33       -10.0659   17.7945   -6.4102 H         1 MET         0.0800
    108 H34        -8.7398   19.8200   -6.5619 H         1 MET         0.0320
    109 H35        -7.9359   19.2332   -8.0573 H         1 MET         0.0320
    110 H36        -6.4330   19.0288   -6.1690 H         1 MET         0.0378
    111 H37        -6.9034   17.3990   -6.7599 H         1 MET         0.0378
    112 H38        -8.0879   15.6560   -3.7567 H         1 MET         0.0340
    113 H39        -6.7582   15.7592   -4.9600 H         1 MET         0.0340
    114 H40        -8.4688   15.7786   -5.5078 H         1 MET         0.0340
    115 H41       -10.3396   17.1838   -9.6395 H         1 GLU         0.1883
    116 H42       -12.1768   19.4583  -10.2016 H         1 GLU         0.0801
    117 H43       -11.4685   17.6806  -12.4431 H         1 GLU         0.0330
    118 H44       -10.0408   18.4731  -11.6946 H         1 GLU         0.0330
    119 H45       -12.5171   19.9784  -12.5617 H         1 GLU         0.0433
    120 H46       -11.1398   19.6356  -13.6628 H         1 GLU         0.0433
    121 H47       -11.8745   16.0683   -9.5624 H         1 GLU         0.1883
    122 H48       -14.2576   15.1047  -10.8343 H         1 GLU         0.0801
    123 H49       -14.0053   13.1886   -9.1654 H         1 GLU         0.0330
    124 H50       -12.5430   14.0374   -8.5589 H         1 GLU         0.0330
    125 H51       -11.5749   13.8669  -10.8508 H         1 GLU         0.0433
    126 H52       -12.9929   12.8703  -11.3228 H         1 GLU         0.0433
    127 H53       -16.2467   14.9358  -10.1509 H         1 VAL         0.1883
    128 H54       -17.1314   16.3746   -7.7367 H         1 VAL         0.0802
    129 H55       -18.0275   15.8256  -10.4322 H         1 VAL         0.0343
    130 H56       -20.4279   15.4416  -10.0636 H         1 VAL         0.0234
    131 H57       -20.1008   15.1331   -8.3245 H         1 VAL         0.0234
    132 H58       -19.4130   14.0424   -9.5751 H         1 VAL         0.0234
    133 H59       -17.8421   18.0311   -9.3339 H         1 VAL         0.0234
    134 H60       -19.2469   17.6111   -8.2963 H         1 VAL         0.0234
    135 H61       -19.4524   17.7429  -10.0759 H         1 VAL         0.0234
    136 H62       -18.7382   15.2875   -6.2897 H         1 ASP         0.1876
    137 H63       -18.1652   12.3904   -5.8859 H         1 ASP         0.0745
    138 H64       -18.5847   12.7993   -3.4803 H         1 ASP         0.0471
    139 H65       -18.8739   14.5377   -3.8279 H         1 ASP         0.0471
@<TRIPOS>BOND
     1    1    2 1  
     2    2    3 1  
     3    2    5 1  
     4    3    4 2  
     5    3    9 am 
     6    5    6 1  
     7    6    7 ar 
     8    6    8 ar 
     9    9   10 1  
    10   10   11 1  
    11   10   13 1  
    12   11   12 2  
    13   11   16 am 
    14   13   14 1  
    15   13   15 1  
    16   16   17 1  
    17   17   18 1  
    18   17   20 1  
    19   18   19 2  
    20   18   22 am 
    21   20   21 1  
    22   22   23 1  
    23   23   24 1  
    24   23   26 1  
    25   24   25 2  
    26   24   33 am 
    27   26   27 1  
    28   27   28 1  
    29   28   29 1  
    30   29   30 ar 
    31   30   31 ar 
    32   30   32 ar 
    33   33   34 1  
    34   34   35 1  
    35   34   37 1  
    36   35   36 2  
    37   35   41 am 
    38   37   38 1  
    39   38   39 1  
    40   39   40 1  
    41   41   42 1  
    42   42   43 1  
    43   42   45 1  
    44   43   44 2  
    45   43   50 am 
    46   45   46 1  
    47   46   47 1  
    48   47   48 ar 
    49   47   49 ar 
    50   50   51 1  
    51   51   52 1  
    52   51   54 1  
    53   52   53 2  
    54   52   59 am 
    55   54   55 1  
    56   55   56 1  
    57   56   57 ar 
    58   56   58 ar 
    59   59   60 1  
    60   60   61 1  
    61   60   63 1  
    62   61   62 2  
    63   61   66 am 
    64   63   64 1  
    65   63   65 1  
    66   66   67 1  
    67   67   68 1  
    68   67   70 1  
    69   68   69 ar 
    70   68   74 ar 
    71   70   71 1  
    72   71   72 ar 
    73   71   73 ar 
    74    1   75 1  
    75    1   76 1  
    76    1   77 1  
    77    2   78 1  
    78    5   79 1  
    79    5   80 1  
    80    9   81 1  
    81   10   82 1  
    82   13   83 1  
    83   14   84 1  
    84   15   85 1  
    85   15   86 1  
    86   15   87 1  
    87   16   88 1  
    88   17   89 1  
    89   20   90 1  
    90   20   91 1  
    91   21   92 1  
    92   22   93 1  
    93   23   94 1  
    94   26   95 1  
    95   26   96 1  
    96   27   97 1  
    97   27   98 1  
    98   28   99 1  
    99   28  100 1  
   100   29  101 1  
   101   31  102 1  
   102   31  103 1  
   103   32  104 1  
   104   32  105 1  
   105   33  106 1  
   106   34  107 1  
   107   37  108 1  
   108   37  109 1  
   109   38  110 1  
   110   38  111 1  
   111   40  112 1  
   112   40  113 1  
   113   40  114 1  
   114   41  115 1  
   115   42  116 1  
   116   45  117 1  
   117   45  118 1  
   118   46  119 1  
   119   46  120 1  
   120   50  121 1  
   121   51  122 1  
   122   54  123 1  
   123   54  124 1  
   124   55  125 1  
   125   55  126 1  
   126   59  127 1  
   127   60  128 1  
   128   63  129 1  
   129   64  130 1  
   130   64  131 1  
   131   64  132 1  
   132   65  133 1  
   133   65  134 1  
   134   65  135 1  
   135   66  136 1  
   136   67  137 1  
   137   70  138 1  
   138   70  139 1  
@<TRIPOS>SUBSTRUCTURE
     1 ASP         1

