3lxe_ligand
  -I-interpret- 

 43 45  0  0  0  0  0  0  0  0999 V2000
  -19.9080   36.8120   44.8220 C   0  0  0  0  0
  -18.7750   36.7690   43.8230 C   0  0  0  0  0
  -19.1420   37.4720   42.5230 C   0  0  0  0  0
  -18.4590   35.3750   43.5640 O   0  0  0  0  0
  -17.5480   37.2210   44.4390 O   0  0  0  0  0
  -16.4530   36.5000   43.8620 C   0  0  0  0  0
  -15.2490   36.5550   44.8130 C   0  0  0  0  0
  -14.1100   36.2060   44.0390 O   0  0  0  0  0
  -13.1970   35.3780   44.7740 C   0  0  0  0  0
  -11.9740   36.1530   45.2700 C   0  0  0  0  0
  -12.8890   34.1700   43.9370 C   0  0  0  0  0
  -13.9620   34.9420   45.9070 O   0  0  0  0  0
  -15.2210   35.5930   46.0320 C   0  0  0  0  0
  -16.2800   34.5000   46.0330 C   0  0  0  0  0
  -16.7340   34.1490   44.7020 O   0  0  0  0  0
  -17.0710   35.0810   43.6810 C   0  0  0  0  0
  -16.5960   34.2960   42.4820 C   0  0  0  0  0
  -16.7790   35.0520   41.2480 O   0  0  0  0  0
  -16.3050   34.4690   39.8670 S   0  0  0  0  0
  -17.3240   33.5430   39.5350 O   0  0  0  0  0
  -16.1080   35.6540   39.1060 O   0  0  0  0  0
  -14.9310   33.7020   40.0820 N   0  0  0  0  0
  -19.6718   36.1633   45.6655 H   0  0  0  0  0
  -20.0411   37.8347   45.1747 H   0  0  0  0  0
  -20.8255   36.4689   44.3439 H   0  0  0  0  0
  -19.2613   38.5392   42.7097 H   0  0  0  0  0
  -18.3496   37.3163   41.7910 H   0  0  0  0  0
  -20.0769   37.0619   42.1411 H   0  0  0  0  0
  -16.0616   36.8859   42.9207 H   0  0  0  0  0
  -15.2886   37.5589   45.2358 H   0  0  0  0  0
  -12.3027   37.0168   45.8479 H   0  0  0  0  0
  -11.3647   35.5040   45.8990 H   0  0  0  0  0
  -11.3867   36.4882   44.4152 H   0  0  0  0  0
  -12.3165   33.4558   44.5289 H   0  0  0  0  0
  -13.8210   33.7087   43.6103 H   0  0  0  0  0
  -12.3067   34.4717   43.0663 H   0  0  0  0  0
  -15.3987   36.1714   46.9386 H   0  0  0  0  0
  -17.1402   34.8720   46.5896 H   0  0  0  0  0
  -15.8369   33.6091   46.4781 H   0  0  0  0  0
  -17.1783   33.3770   42.4158 H   0  0  0  0  0
  -15.5340   34.0834   42.6047 H   0  0  0  0  0
  -14.8903   32.6885   39.9740 H   0  0  0  0  0
  -14.0892   34.2229   40.3281 H   0  0  0  0  0
  1  2  1  0  0  0
  2  3  1  0  0  0
  2  4  1  0  0  0
  2  5  1  0  0  0
  4 16  1  0  0  0
  5  6  1  0  0  0
  6  7  1  0  0  0
  6 16  1  0  0  0
  7  8  1  0  0  0
  7 13  1  0  0  0
  8  9  1  0  0  0
  9 10  1  0  0  0
  9 11  1  0  0  0
  9 12  1  0  0  0
 12 13  1  0  0  0
 13 14  1  0  0  0
 14 15  1  0  0  0
 15 16  1  0  0  0
 16 17  1  0  0  0
 17 18  1  0  0  0
 18 19  1  0  0  0
 19 20  2  0  0  0
 19 21  2  0  0  0
 19 22  1  0  0  0
  1 23  1  0  0  0
  1 24  1  0  0  0
  1 25  1  0  0  0
  3 26  1  0  0  0
  3 27  1  0  0  0
  3 28  1  0  0  0
  6 29  1  0  0  0
  7 30  1  0  0  0
 10 31  1  0  0  0
 10 32  1  0  0  0
 10 33  1  0  0  0
 11 34  1  0  0  0
 11 35  1  0  0  0
 11 36  1  0  0  0
 13 37  1  0  0  0
 14 38  1  0  0  0
 14 39  1  0  0  0
 17 40  1  0  0  0
 17 41  1  0  0  0
 22 42  1  0  0  0
 22 43  1  0  0  0
M  END
$$$$
