4y2p_ligand
  -I-interpret- 

 30 31  0  0  0  0  0  0  0  0999 V2000
  -17.0790  -10.9270   71.5790 C   0  0  0  0  0
  -17.5430   -8.5610   66.7620 C   0  0  0  0  0
  -18.7180   -9.2320   66.1940 N   0  3  0  0  0
  -19.4100  -10.0020   67.2520 C   0  0  0  0  0
  -18.5460  -10.9050   68.1060 C   0  0  0  0  0
  -18.2260  -10.5250   69.3990 C   0  0  0  0  0
  -17.4290  -11.3300   70.2200 C   0  0  0  0  0
  -16.9570  -12.5310   69.7180 C   0  0  0  0  0
  -17.2630  -12.9260   68.4250 C   0  0  0  0  0
  -18.0480  -12.0950   67.6280 C   0  0  0  0  0
  -16.7260   -9.6190   71.8970 C   0  0  0  0  0
  -16.2950   -9.2170   73.1140 N   0  0  0  0  0
  -16.2400  -10.1500   74.0780 C   0  0  0  0  0
  -16.6150  -11.4630   73.8750 C   0  0  0  0  0
  -17.0140  -11.8420   72.6070 C   0  0  0  0  0
  -17.8608   -7.8837   67.5547 H   0  0  0  0  0
  -16.8624   -9.3075   67.1714 H   0  0  0  0  0
  -17.0361   -7.9952   65.9803 H   0  0  0  0  0
  -18.4206   -9.8664   65.4527 H   0  0  0  0  0
  -19.3552   -8.5334   65.8115 H   0  0  0  0  0
  -20.1136  -10.6564   66.7374 H   0  0  0  0  0
  -19.8381   -9.2643   67.9307 H   0  0  0  0  0
  -18.6034   -9.5782   69.7852 H   0  0  0  0  0
  -16.3385  -13.1724   70.3459 H   0  0  0  0  0
  -16.8941  -13.8752   68.0363 H   0  0  0  0  0
  -18.2722  -12.3942   66.6041 H   0  0  0  0  0
  -16.8021   -8.8672   71.1114 H   0  0  0  0  0
  -15.8831   -9.8575   75.0655 H   0  0  0  0  0
  -16.5969  -12.1824   74.6937 H   0  0  0  0  0
  -17.2815  -12.8815   72.4173 H   0  0  0  0  0
  7  1  1  0  0  0
  1 11  4  0  0  0
  1 15  4  0  0  0
  3  2  1  0  0  0
  4  3  1  0  0  0
  5  4  1  0  0  0
  6  5  4  0  0  0
  5 10  4  0  0  0
  6  7  4  0  0  0
  7  8  4  0  0  0
  8  9  4  0  0  0
  9 10  4  0  0  0
 11 12  4  0  0  0
 12 13  4  0  0  0
 13 14  4  0  0  0
 14 15  4  0  0  0
  2 16  1  0  0  0
  2 17  1  0  0  0
  2 18  1  0  0  0
  3 19  1  0  0  0
  3 20  1  0  0  0
  4 21  1  0  0  0
  4 22  1  0  0  0
  6 23  1  0  0  0
  8 24  1  0  0  0
  9 25  1  0  0  0
 10 26  1  0  0  0
 11 27  1  0  0  0
 13 28  1  0  0  0
 14 29  1  0  0  0
 15 30  1  0  0  0
M  END
$$$$
