1b9j_ligand
  -I-interpret- 

 67 66  0  0  0  0  0  0  0  0999 V2000
    6.9680   16.5180   15.1370 N   0  3  0  0  0
    6.4590   17.7920   14.5610 C   0  0  0  0  0
    5.2330   18.2580   15.3170 C   0  0  0  0  0
    4.5010   17.4540   15.8810 O   0  0  0  0  0
    6.2740   17.7080   13.0310 C   0  0  0  0  0
    5.3660   16.5370   12.6220 C   0  0  0  0  0
    5.2460   16.4740   11.0950 C   0  0  0  0  0
    6.5240   15.8850   10.4800 C   0  0  0  0  0
    6.6860   14.4660   10.9100 N   0  3  0  0  0
    5.0010   19.5670   15.3040 N   0  0  0  0  0
    3.9000   20.1550   16.0690 C   0  0  0  0  0
    2.5980   20.1540   15.2880 C   0  0  0  0  0
    2.5550   20.4520   14.1020 O   0  0  0  0  0
    4.2860   21.6050   16.4320 C   0  0  0  0  0
    5.2310   21.6380   17.6610 C   0  0  0  0  0
    6.6620   21.3850   17.2120 C   0  0  0  0  0
    5.1140   22.9610   18.3830 C   0  0  0  0  0
    1.5100   19.7250   15.9380 N   0  0  0  0  0
    0.2260   19.7150   15.2460 C   0  0  0  0  0
   -0.7570   20.6010   16.0220 C   0  0  0  0  0
   -1.7670   20.9340   15.3740 O   0  0  0  0  0
   -0.3840   18.3050   15.1970 C   0  0  0  0  0
   -1.4300   18.2580   14.0720 C   0  0  0  0  0
   -2.1520   16.9300   14.0720 C   0  0  0  0  0
   -3.3970   16.9820   13.1820 C   0  0  0  0  0
   -2.9390   16.8030   11.7770 N   0  3  0  0  0
   -0.4940   20.9340   17.1970 O   0  0  0  0  0
    7.7929   16.2172   14.6179 H   0  0  0  0  0
    7.2152   16.6636   16.1158 H   0  0  0  0  0
    6.2436   15.8029   15.0708 H   0  0  0  0  0
    7.2140   18.5665   14.6956 H   0  0  0  0  0
    7.2533   17.5533   12.5780 H   0  0  0  0  0
    5.8079   18.6337   12.6935 H   0  0  0  0  0
    4.3758   16.6837   13.0535 H   0  0  0  0  0
    5.7976   15.6047   12.9863 H   0  0  0  0  0
    5.0992   17.4827   10.7090 H   0  0  0  0  0
    4.4004   15.8385   10.8318 H   0  0  0  0  0
    7.3846   16.4633   10.8161 H   0  0  0  0  0
    6.4521   15.9256    9.3931 H   0  0  0  0  0
    7.5363   14.0820   10.4978 H   0  0  0  0  0
    6.7515   14.4256   11.9271 H   0  0  0  0  0
    5.8806   13.9234   10.5981 H   0  0  0  0  0
    5.6033   20.1749   14.7489 H   0  0  0  0  0
    3.7385   19.5552   16.9647 H   0  0  0  0  0
    3.3785   22.1581   16.6740 H   0  0  0  0  0
    4.8018   22.0525   15.5824 H   0  0  0  0  0
    4.9407   20.8522   18.3584 H   0  0  0  0  0
    6.7238   20.4077   16.7332 H   0  0  0  0  0
    6.9612   22.1576   16.5037 H   0  0  0  0  0
    7.3229   21.4090   18.0784 H   0  0  0  0  0
    5.3863   23.7692   17.7042 H   0  0  0  0  0
    4.0871   23.0993   18.7212 H   0  0  0  0  0
    5.7846   22.9650   19.2423 H   0  0  0  0  0
    1.5776   19.4089   16.9054 H   0  0  0  0  0
    0.3946   20.0717   14.2299 H   0  0  0  0  0
   -0.8568   18.0732   16.1514 H   0  0  0  0  0
    0.3980   17.5702   15.0057 H   0  0  0  0  0
   -0.9249   18.3854   13.1145 H   0  0  0  0  0
   -2.1563   19.0549   14.2316 H   0  0  0  0  0
   -2.4606   16.6998   15.0918 H   0  0  0  0  0
   -1.4778   16.1655   13.6858 H   0  0  0  0  0
   -3.9143   17.9342   13.2995 H   0  0  0  0  0
   -4.1013   16.1979   13.4598 H   0  0  0  0  0
   -3.7444   16.8321   11.1518 H   0  0  0  0  0
   -2.2911   17.5523   11.5338 H   0  0  0  0  0
   -2.4688   15.9024   11.6861 H   0  0  0  0  0
    0.3429   20.5436   17.4594 H   0  0  0  0  0
  2  1  1  0  0  0
  2  5  1  0  0  0
  3  2  1  0  0  0
  3  4  2  0  0  0
  5  6  1  0  0  0
  6  7  1  0  0  0
  7  8  1  0  0  0
  8  9  1  0  0  0
 11 10  1  0  0  0
 11 14  1  0  0  0
 12 11  1  0  0  0
 12 13  2  0  0  0
 14 15  1  0  0  0
 15 16  1  0  0  0
 15 17  1  0  0  0
 10  3  1  0  0  0
 18 19  1  0  0  0
 19 22  1  0  0  0
 19 20  1  0  0  0
 20 21  2  0  0  0
 20 27  1  0  0  0
 22 23  1  0  0  0
 23 24  1  0  0  0
 24 25  1  0  0  0
 25 26  1  0  0  0
 12 18  1  0  0  0
  1 28  1  0  0  0
  1 29  1  0  0  0
  1 30  1  0  0  0
  2 31  1  0  0  0
  5 32  1  0  0  0
  5 33  1  0  0  0
  6 34  1  0  0  0
  6 35  1  0  0  0
  7 36  1  0  0  0
  7 37  1  0  0  0
  8 38  1  0  0  0
  8 39  1  0  0  0
  9 40  1  0  0  0
  9 41  1  0  0  0
  9 42  1  0  0  0
 10 43  1  0  0  0
 11 44  1  0  0  0
 14 45  1  0  0  0
 14 46  1  0  0  0
 15 47  1  0  0  0
 16 48  1  0  0  0
 16 49  1  0  0  0
 16 50  1  0  0  0
 17 51  1  0  0  0
 17 52  1  0  0  0
 17 53  1  0  0  0
 18 54  1  0  0  0
 19 55  1  0  0  0
 22 56  1  0  0  0
 22 57  1  0  0  0
 23 58  1  0  0  0
 23 59  1  0  0  0
 24 60  1  0  0  0
 24 61  1  0  0  0
 25 62  1  0  0  0
 25 63  1  0  0  0
 26 64  1  0  0  0
 26 65  1  0  0  0
 26 66  1  0  0  0
 27 67  1  0  0  0
M  END
$$$$
