6d5j_ligand
  -I-interpret- 

 49 52  0  0  0  0  0  0  0  0999 V2000
   36.3860   28.7290   23.6230 N   0  0  0  0  0
   36.7360   26.6560   19.0300 N   0  3  0  0  0
   33.0440   28.9050   22.0520 C   0  0  0  0  0
   35.5290   28.5490   22.5950 C   0  0  0  0  0
   35.5780   29.2540   24.6640 C   0  0  0  0  0
   35.9310   29.6180   25.9700 C   0  0  0  0  0
   34.9310   30.0880   26.7950 C   0  0  0  0  0
   33.2140   29.8600   25.0590 C   0  0  0  0  0
   36.4950   28.1200   19.0380 C   0  0  0  0  0
   36.0340   26.5440   21.3370 C   0  0  0  0  0
   31.6570   31.3140   19.5180 C   0  0  0  0  0
   34.2110   28.9370   22.9030 N   0  0  0  0  0
   33.8710   33.8780   21.2740 C   0  0  0  0  0
   33.2170   32.5690   20.9270 C   0  0  0  0  0
   34.2320   29.3820   24.2280 C   0  0  0  0  0
   36.7220   28.6460   20.4650 C   0  0  0  0  0
   35.8440   25.9190   19.9490 C   0  0  0  0  0
   31.9340   30.1600   20.2380 C   0  0  0  0  0
   30.6560   31.3320   18.4130 C   0  0  0  0  0
   32.3130   32.5020   19.8670 C   0  0  0  0  0
   33.4860   31.4000   21.6430 C   0  0  0  0  0
   32.8370   30.2010   21.2920 C   0  0  0  0  0
   33.6140   30.1880   26.3210 C   0  0  0  0  0
   32.0580   33.5810   19.1320 F   0  0  0  0  0
   35.7460   27.9830   21.3110 N   0  0  0  0  0
   32.3910   30.7420   27.4340 Cl  0  0  0  0  0
   37.6962   26.4975   19.3353 H   0  0  0  0  0
   36.5572   26.3168   18.0848 H   0  0  0  0  0
   32.1719   28.7464   22.6863 H   0  0  0  0  0
   33.1844   28.1080   21.3218 H   0  0  0  0  0
   36.9593   29.5327   26.3214 H   0  0  0  0  0
   35.1642   30.3827   27.8182 H   0  0  0  0  0
   32.1817   29.9624   24.7244 H   0  0  0  0  0
   35.4728   28.3298   18.7230 H   0  0  0  0  0
   37.1792   28.6128   18.3473 H   0  0  0  0  0
   37.0694   26.4005   21.6459 H   0  0  0  0  0
   35.3475   26.0629   22.0336 H   0  0  0  0  0
   34.4410   34.2364   20.4168 H   0  0  0  0  0
   33.1044   34.6082   21.5332 H   0  0  0  0  0
   34.5399   33.7348   22.1226 H   0  0  0  0  0
   36.6007   29.7285   20.5050 H   0  0  0  0  0
   37.7369   28.4341   20.8014 H   0  0  0  0  0
   36.0897   24.8571   19.9627 H   0  0  0  0  0
   34.8053   25.9931   19.6270 H   0  0  0  0  0
   31.4432   29.2226   19.9763 H   0  0  0  0  0
   30.9585   30.6268   17.6389 H   0  0  0  0  0
   29.6795   31.0470   18.8044 H   0  0  0  0  0
   30.6008   32.3354   17.9908 H   0  0  0  0  0
   34.1956   31.4161   22.4702 H   0  0  0  0  0
  4  1  4  0  0  0
  5  1  4  0  0  0
  9  2  1  0  0  0
 17  2  1  0  0  0
  3 12  1  0  0  0
 22  3  1  0  0  0
 12  4  4  0  0  0
  4 25  1  0  0  0
  5  6  4  0  0  0
 15  5  4  0  0  0
  6  7  4  0  0  0
 23  7  4  0  0  0
 15  8  4  0  0  0
  8 23  4  0  0  0
 16  9  1  0  0  0
 10 17  1  0  0  0
 25 10  1  0  0  0
 18 11  4  0  0  0
 11 19  1  0  0  0
 11 20  4  0  0  0
 12 15  4  0  0  0
 14 13  1  0  0  0
 20 14  4  0  0  0
 14 21  4  0  0  0
 25 16  1  0  0  0
 18 22  4  0  0  0
 20 24  1  0  0  0
 21 22  4  0  0  0
 23 26  1  0  0  0
  2 27  1  0  0  0
  2 28  1  0  0  0
  3 29  1  0  0  0
  3 30  1  0  0  0
  6 31  1  0  0  0
  7 32  1  0  0  0
  8 33  1  0  0  0
  9 34  1  0  0  0
  9 35  1  0  0  0
 10 36  1  0  0  0
 10 37  1  0  0  0
 13 38  1  0  0  0
 13 39  1  0  0  0
 13 40  1  0  0  0
 16 41  1  0  0  0
 16 42  1  0  0  0
 17 43  1  0  0  0
 17 44  1  0  0  0
 18 45  1  0  0  0
 19 46  1  0  0  0
 19 47  1  0  0  0
 19 48  1  0  0  0
 21 49  1  0  0  0
M  END
$$$$
