3c8b_ligand
  -I-interpret- 

 76 75  0  0  0  0  0  0  0  0999 V2000
   27.5200   27.5300   53.1940 N   0  3  0  0  0
   27.4360   26.0730   53.2150 C   0  0  0  0  0
   26.4090   25.6090   54.2520 C   0  0  0  0  0
   26.2480   26.2060   55.3140 O   0  0  0  0  0
   28.7950   25.4700   53.5410 C   0  0  0  0  0
   29.8980   25.8180   52.5380 C   0  0  0  0  0
   31.1460   25.0060   52.8150 C   0  0  0  0  0
   32.2120   25.2690   51.8530 N   0  0  0  0  0
   32.9640   26.3670   51.8360 C   0  0  0  0  0
   32.7800   27.3250   52.7340 N   0  0  0  0  0
   33.9090   26.5080   50.9130 N   0  0  0  0  0
   25.6870   24.5510   53.9230 N   0  0  0  0  0
   24.6690   24.0220   54.8220 C   0  0  0  0  0
   25.2170   23.3700   56.0910 C   0  0  0  0  0
   24.5640   23.3890   57.1340 O   0  0  0  0  0
   23.8010   23.0020   54.0770 C   0  0  0  0  0
   23.1990   23.5500   52.8040 C   0  0  0  0  0
   22.2370   22.5800   52.1570 C   0  0  0  0  0
   22.7850   21.2290   52.1190 N   0  0  0  0  0
   22.5380   20.2960   53.0330 C   0  0  0  0  0
   21.7480   20.5550   54.0680 N   0  0  0  0  0
   23.0810   19.0960   52.9080 N   0  0  0  0  0
   26.4020   22.7790   55.9920 N   0  0  0  0  0
   26.9810   22.1000   57.1360 C   0  0  0  0  0
   26.3990   20.7060   57.2880 C   0  0  0  0  0
   25.6630   20.2390   56.4140 O   0  0  0  0  0
   26.7070   20.0450   58.4000 N   0  0  0  0  0
   26.2190   18.6850   58.6220 C   0  0  0  0  0
   24.8870   18.6520   59.3540 C   0  0  0  0  0
   24.2720   17.5630   59.3490 O   0  0  0  0  0
   27.2300   17.8300   59.4270 C   0  0  0  0  0
   27.4260   18.4280   60.8240 C   0  0  0  0  0
   28.5550   17.7390   58.6740 C   0  0  0  0  0
   28.1520   17.4960   61.7890 C   0  0  0  0  0
   24.4005   19.7265   59.9685 O   0  0  0  0  0
   28.2077   27.8197   52.4987 H   0  0  0  0  0
   26.6079   27.9185   52.9543 H   0  0  0  0  0
   27.8029   27.8664   54.1144 H   0  0  0  0  0
   27.1209   25.7362   52.2274 H   0  0  0  0  0
   28.6768   24.3866   53.5235 H   0  0  0  0  0
   29.1011   25.8738   54.5061 H   0  0  0  0  0
   30.1381   26.8772   52.6305 H   0  0  0  0  0
   29.5450   25.5910   51.5320 H   0  0  0  0  0
   30.8823   23.9508   52.7433 H   0  0  0  0  0
   31.5119   25.2804   53.8044 H   0  0  0  0  0
   32.3937   24.5601   51.1425 H   0  0  0  0  0
   32.0569   27.2243   53.4463 H   0  0  0  0  0
   34.4866   27.3486   50.8987 H   0  0  0  0  0
   34.0570   25.7757   50.2186 H   0  0  0  0  0
   25.8455   24.0968   53.0236 H   0  0  0  0  0
   24.0878   24.8858   55.1449 H   0  0  0  0  0
   22.9799   22.7222   54.7370 H   0  0  0  0  0
   24.4390   22.1610   53.8054 H   0  0  0  0  0
   24.0106   23.7391   52.1014 H   0  0  0  0  0
   22.6468   24.4557   53.0548 H   0  0  0  0  0
   22.0531   22.9069   51.1336 H   0  0  0  0  0
   21.3176   22.5633   52.7423 H   0  0  0  0  0
   23.3973   20.9843   51.3408 H   0  0  0  0  0
   21.5624   19.8307   54.7617 H   0  0  0  0  0
   21.3266   21.4783   54.1695 H   0  0  0  0  0
   23.6860   18.8903   52.1130 H   0  0  0  0  0
   26.9080   22.8025   55.1067 H   0  0  0  0  0
   26.7573   22.6739   58.0352 H   0  0  0  0  0
   28.0576   22.0168   56.9871 H   0  0  0  0  0
   27.2909   20.4924   59.1067 H   0  0  0  0  0
   26.0896   18.2657   57.6242 H   0  0  0  0  0
   26.8370   16.8199   59.5425 H   0  0  0  0  0
   26.4369   18.6227   61.2386 H   0  0  0  0  0
   28.0358   19.3247   60.7137 H   0  0  0  0  0
   28.3877   17.2758   57.7016 H   0  0  0  0  0
   28.9623   18.7405   58.5356 H   0  0  0  0  0
   29.2576   17.1359   59.2491 H   0  0  0  0  0
   27.5784   16.5764   61.9047 H   0  0  0  0  0
   29.1399   17.2620   61.3922 H   0  0  0  0  0
   28.2547   17.9859   62.7572 H   0  0  0  0  0
   25.0117   20.4590   59.8617 H   0  0  0  0  0
  2  1  1  0  0  0
  2  5  1  0  0  0
  3  2  1  0  0  0
  3  4  2  0  0  0
  5  6  1  0  0  0
  6  7  1  0  0  0
  7  8  1  0  0  0
  8  9  1  0  0  0
  9 11  1  0  0  0
  9 10  2  0  0  0
 13 12  1  0  0  0
 13 16  1  0  0  0
 14 13  1  0  0  0
 14 15  2  0  0  0
 16 17  1  0  0  0
 17 18  1  0  0  0
 18 19  1  0  0  0
 19 20  1  0  0  0
 20 22  2  0  0  0
 20 21  1  0  0  0
 12  3  1  0  0  0
 24 23  1  0  0  0
 25 24  1  0  0  0
 25 26  2  0  0  0
 23 14  1  0  0  0
 27 28  1  0  0  0
 28 31  1  0  0  0
 28 29  1  0  0  0
 29 30  2  0  0  0
 31 33  1  0  0  0
 31 32  1  0  0  0
 32 34  1  0  0  0
 25 27  1  0  0  0
 29 35  1  0  0  0
  1 36  1  0  0  0
  1 37  1  0  0  0
  1 38  1  0  0  0
  2 39  1  0  0  0
  5 40  1  0  0  0
  5 41  1  0  0  0
  6 42  1  0  0  0
  6 43  1  0  0  0
  7 44  1  0  0  0
  7 45  1  0  0  0
  8 46  1  0  0  0
 10 47  1  0  0  0
 11 48  1  0  0  0
 11 49  1  0  0  0
 12 50  1  0  0  0
 13 51  1  0  0  0
 16 52  1  0  0  0
 16 53  1  0  0  0
 17 54  1  0  0  0
 17 55  1  0  0  0
 18 56  1  0  0  0
 18 57  1  0  0  0
 19 58  1  0  0  0
 21 59  1  0  0  0
 21 60  1  0  0  0
 22 61  1  0  0  0
 23 62  1  0  0  0
 24 63  1  0  0  0
 24 64  1  0  0  0
 27 65  1  0  0  0
 28 66  1  0  0  0
 31 67  1  0  0  0
 32 68  1  0  0  0
 32 69  1  0  0  0
 33 70  1  0  0  0
 33 71  1  0  0  0
 33 72  1  0  0  0
 34 73  1  0  0  0
 34 74  1  0  0  0
 34 75  1  0  0  0
 35 76  1  0  0  0
M  END
$$$$
