1sh9_ligand
  -I-interpret- 

 98101  0  0  0  0  0  0  0  0999 V2000
   18.2570    1.2190    4.1580 C   0  0  0  0  0
   17.9210    0.0750    4.8210 C   0  0  0  0  0
   18.3630   -1.4460    4.0140 S   0  0  0  0  0
   18.9550   -0.2360    2.8580 C   0  0  0  0  0
   18.8460    1.0310    3.0390 N   0  0  0  0  0
   17.2920   -0.3140    6.0350 C   0  0  0  0  0
   18.2950   -0.4790    7.0100 O   0  0  0  0  0
   18.0880   -0.8560    8.3310 C   0  0  0  0  0
   19.2710   -0.9190    9.0030 N   0  0  0  0  0
   19.4160   -1.2800   10.4260 C   0  0  0  0  0
   20.4630   -0.4350   11.1760 C   0  0  0  0  0
   20.3250    1.0600   10.9840 C   0  0  0  0  0
   19.2010    1.8860   11.6650 C   0  0  0  0  0
   18.2180    1.3320   13.9010 C   0  0  0  0  0
   18.5260    1.3950   15.4100 C   0  0  0  0  0
   17.9340    2.6100   16.0060 N   0  0  0  0  0
   18.7010    3.6750   16.3870 C   0  0  0  0  0
   16.9680   -1.0950    8.8030 O   0  0  0  0  0
   19.6720   -2.7920   10.6670 C   0  0  0  0  0
   18.8190   -3.7910   10.0590 C   0  0  0  0  0
   17.6770   -4.0080   10.8810 C   0  0  0  0  0
   16.7050   -4.9600   10.4460 C   0  0  0  0  0
   16.8540   -5.6850    9.2210 C   0  0  0  0  0
   18.0130   -5.4500    8.4090 C   0  0  0  0  0
   18.9930   -4.5070    8.8240 C   0  0  0  0  0
   21.7150   -0.8450   10.6700 O   0  0  0  0  0
   19.4830    3.3160   11.2530 C   0  0  0  0  0
   18.3510    4.1520   11.6230 C   0  0  0  0  0
   18.4870    4.9440   12.8060 C   0  0  0  0  0
   17.4180    5.7880   13.2400 C   0  0  0  0  0
   16.2260    5.8270   12.4760 C   0  0  0  0  0
   16.0910    5.0470   11.3040 C   0  0  0  0  0
   17.1480    4.2060   10.8690 C   0  0  0  0  0
   19.2200    1.8050   13.1270 N   0  0  0  0  0
   17.1400    0.8990   13.4410 O   0  0  0  0  0
   18.0280    0.1600   16.2530 C   0  0  0  0  0
   18.5350   -1.2280   15.7770 C   0  0  0  0  0
   18.3840    0.3410   17.7520 C   0  0  0  0  0
   17.9780    4.7650   16.8350 N   0  0  0  0  0
   18.6690    5.9940   17.2860 C   0  0  0  0  0
   19.9570    3.6270   16.3240 O   0  0  0  0  0
   18.9780    7.0320   16.2820 C   0  0  0  0  0
   20.2130    6.9940   15.6970 C   0  0  0  0  0
   20.2580    8.3590   14.5530 S   0  0  0  0  0
   18.6060    8.7920   15.0210 C   0  0  0  0  0
   18.1430    7.9690   15.9280 N   0  0  0  0  0
   18.2280    9.9160   14.2790 C   0  0  0  0  0
   18.9240   11.2650   14.1040 C   0  0  0  0  0
   16.8490   10.2900   14.6530 C   0  0  0  0  0
   16.6530    4.9080   16.9410 C   0  0  0  0  0
   18.0408    2.2126    4.5505 H   0  0  0  0  0
   19.4369   -0.5870    1.9455 H   0  0  0  0  0
   16.7456   -1.2466    5.8946 H   0  0  0  0  0
   16.5799    0.4480    6.3518 H   0  0  0  0  0
   20.1208   -0.7001    8.4831 H   0  0  0  0  0
   18.4392   -1.0435   10.8480 H   0  0  0  0  0
   20.3350   -0.5986   12.2460 H   0  0  0  0  0
   20.1033    1.1591    9.9214 H   0  0  0  0  0
   21.2366    1.4575   11.4301 H   0  0  0  0  0
   18.2246    1.5088   11.3608 H   0  0  0  0  0
   19.6149    1.3973   15.4582 H   0  0  0  0  0
   16.9235    2.6554   16.1370 H   0  0  0  0  0
   19.5147   -2.9222   11.7377 H   0  0  0  0  0
   20.6514   -2.9712   10.2234 H   0  0  0  0  0
   17.5480   -3.4629   11.8161 H   0  0  0  0  0
   15.8253   -5.1393   11.0642 H   0  0  0  0  0
   16.0976   -6.4054    8.9095 H   0  0  0  0  0
   18.1425   -5.9945    7.4736 H   0  0  0  0  0
   19.8739   -4.3273    8.2076 H   0  0  0  0  0
   22.4125   -0.3484   11.1041 H   0  0  0  0  0
   19.6357    3.3629   10.1748 H   0  0  0  0  0
   20.3812    3.6719   11.7576 H   0  0  0  0  0
   19.4123    4.9038   13.3808 H   0  0  0  0  0
   17.5184    6.3907   14.1426 H   0  0  0  0  0
   15.4026    6.4660   12.7952 H   0  0  0  0  0
   15.1660    5.0923   10.7292 H   0  0  0  0  0
   17.0380    3.6071    9.9649 H   0  0  0  0  0
   20.0610    2.1335   13.6016 H   0  0  0  0  0
   16.9490    0.1523   16.0986 H   0  0  0  0  0
   18.2044   -1.4026   14.7531 H   0  0  0  0  0
   19.6241   -1.2489   15.8170 H   0  0  0  0  0
   18.1313   -2.0036   16.4278 H   0  0  0  0  0
   19.4651    0.4290   17.8593 H   0  0  0  0  0
   17.9052    1.2438   18.1314 H   0  0  0  0  0
   18.0309   -0.5230   18.3149 H   0  0  0  0  0
   19.6368    5.6584   17.6585 H   0  0  0  0  0
   17.9819    6.4684   17.9866 H   0  0  0  0  0
   21.0086    6.2747   15.8911 H   0  0  0  0  0
   18.5203    9.4486   13.3386 H   0  0  0  0  0
   19.0304   11.7463   15.0762 H   0  0  0  0  0
   19.9092   11.1098   13.6642 H   0  0  0  0  0
   18.3271   11.8978   13.4472 H   0  0  0  0  0
   16.1771    9.4597   14.4358 H   0  0  0  0  0
   16.8123   10.5197   15.7179 H   0  0  0  0  0
   16.5434   11.1657   14.0804 H   0  0  0  0  0
   16.1964    4.7903   15.9583 H   0  0  0  0  0
   16.2601    4.1501   17.6187 H   0  0  0  0  0
   16.4260    5.8998   17.3321 H   0  0  0  0  0
  2  1  4  0  0  0
  1  5  4  0  0  0
  2  3  4  0  0  0
  6  2  1  0  0  0
  3  4  4  0  0  0
  4  5  4  0  0  0
  7  6  1  0  0  0
  8  7  1  0  0  0
  9  8  1  0  0  0
  8 18  2  0  0  0
 10  9  1  0  0  0
 11 10  1  0  0  0
 10 19  1  0  0  0
 12 11  1  0  0  0
 11 26  1  0  0  0
 13 12  1  0  0  0
 13 27  1  0  0  0
 34 13  1  0  0  0
 14 15  1  0  0  0
 14 34  1  0  0  0
 14 35  2  0  0  0
 15 16  1  0  0  0
 15 36  1  0  0  0
 16 17  1  0  0  0
 17 39  1  0  0  0
 17 41  2  0  0  0
 19 20  1  0  0  0
 20 21  4  0  0  0
 20 25  4  0  0  0
 21 22  4  0  0  0
 22 23  4  0  0  0
 23 24  4  0  0  0
 24 25  4  0  0  0
 27 28  1  0  0  0
 28 29  4  0  0  0
 28 33  4  0  0  0
 29 30  4  0  0  0
 30 31  4  0  0  0
 31 32  4  0  0  0
 32 33  4  0  0  0
 36 37  1  0  0  0
 36 38  1  0  0  0
 39 40  1  0  0  0
 39 50  1  0  0  0
 40 42  1  0  0  0
 42 43  4  0  0  0
 42 46  4  0  0  0
 43 44  4  0  0  0
 44 45  4  0  0  0
 45 46  4  0  0  0
 45 47  1  0  0  0
 47 48  1  0  0  0
 47 49  1  0  0  0
  1 51  1  0  0  0
  4 52  1  0  0  0
  6 53  1  0  0  0
  6 54  1  0  0  0
  9 55  1  0  0  0
 10 56  1  0  0  0
 11 57  1  0  0  0
 12 58  1  0  0  0
 12 59  1  0  0  0
 13 60  1  0  0  0
 15 61  1  0  0  0
 16 62  1  0  0  0
 19 63  1  0  0  0
 19 64  1  0  0  0
 21 65  1  0  0  0
 22 66  1  0  0  0
 23 67  1  0  0  0
 24 68  1  0  0  0
 25 69  1  0  0  0
 26 70  1  0  0  0
 27 71  1  0  0  0
 27 72  1  0  0  0
 29 73  1  0  0  0
 30 74  1  0  0  0
 31 75  1  0  0  0
 32 76  1  0  0  0
 33 77  1  0  0  0
 34 78  1  0  0  0
 36 79  1  0  0  0
 37 80  1  0  0  0
 37 81  1  0  0  0
 37 82  1  0  0  0
 38 83  1  0  0  0
 38 84  1  0  0  0
 38 85  1  0  0  0
 40 86  1  0  0  0
 40 87  1  0  0  0
 43 88  1  0  0  0
 47 89  1  0  0  0
 48 90  1  0  0  0
 48 91  1  0  0  0
 48 92  1  0  0  0
 49 93  1  0  0  0
 49 94  1  0  0  0
 49 95  1  0  0  0
 50 96  1  0  0  0
 50 97  1  0  0  0
 50 98  1  0  0  0
M  END
$$$$
