### 
### Created by X-TOOL on Mon Sep 10 21:13:07 2018
### 

@<TRIPOS>MOLECULE
2y1d_ligand
   29    29     1     0     0
SMALL
GAST_HUCK


@<TRIPOS>ATOM
      1 C1         40.4340   10.1120   24.9000 C.2       1 34F         0.1949
      2 N1         41.5380   10.0110   25.5200 N.am      1 34F        -0.1520
      3 O1         39.3890    9.6660   25.3620 O.2       1 34F        -0.3830
      4 CL1        44.7170   12.2280   20.0940 Cl        1 34F        -0.0718
      5 C2         42.7530   10.6110   24.9740 C.3       1 34F         0.0665
      6 O2         41.6110    9.3390   26.7310 O.3       1 34F        -0.2685
      7 CL2        41.7480   11.7980   18.7520 Cl        1 34F        -0.0764
      8 C3         43.7860    9.4930   24.7610 C.3       1 34F        -0.0019
      9 C4         43.4230    8.5310   23.6370 C.3       1 34F         0.0661
     10 C6         43.0480    9.3380   22.4170 C.ar      1 34F        -0.0229
     11 C7         43.9320   10.2840   21.8690 C.ar      1 34F        -0.0443
     12 C8         43.5460   11.0390   20.7560 C.ar      1 34F         0.0478
     13 C9         42.2690   10.8530   20.1870 C.ar      1 34F         0.0469
     14 C10        41.3790    9.9130   20.7360 C.ar      1 34F        -0.0541
     15 C11        41.7700    9.1610   21.8510 C.ar      1 34F        -0.0580
     16 PA1        44.5860    7.4320   23.3590 P.3       1 34F         0.0732
     17 OP1        44.8390    6.7950   24.7060 O.co2     1 34F        -0.5605
     18 OP2        43.9640    6.4870   22.3590 O.co2     1 34F        -0.5605
     19 OP3        45.7920    8.1410   22.8100 O.co2     1 34F        -0.5605
     20 H          40.4148   10.6090   23.9301 H         1 34F         0.1560
     21 H          43.1455   11.3576   25.6644 H         1 34F         0.0555
     22 H          42.5345   11.1049   24.0272 H         1 34F         0.0555
     23 H          40.7423    9.0012   26.9611 H         1 34F         0.2496
     24 H          43.8347    8.9138   25.6831 H         1 34F         0.0324
     25 H          44.7297    9.9677   24.4921 H         1 34F         0.0324
     26 H          42.5604    7.9333   23.9317 H         1 34F         0.0651
     27 H          44.9177   10.4292   22.3110 H         1 34F         0.0563
     28 H          40.3916    9.7705   20.2969 H         1 34F         0.0606
     29 H          41.0817    8.4347   22.2833 H         1 34F         0.0559
@<TRIPOS>BOND
     1    2    1 am 
     2    1    3 2  
     3    5    2 1  
     4    2    6 1  
     5   12    4 1  
     6    8    5 1  
     7   13    7 1  
     8    9    8 1  
     9   10    9 1  
    10    9   16 1  
    11   11   10 ar 
    12   10   15 ar 
    13   12   11 ar 
    14   12   13 ar 
    15   13   14 ar 
    16   14   15 ar 
    17   16   17 ar 
    18   16   18 ar 
    19   16   19 ar 
    20    1   20 1  
    21    5   21 1  
    22    5   22 1  
    23    6   23 1  
    24    8   24 1  
    25    8   25 1  
    26    9   26 1  
    27   11   27 1  
    28   14   28 1  
    29   15   29 1  
@<TRIPOS>SUBSTRUCTURE
     1 34F         1

