2y1d_ligand
  -I-interpret- 

 31 31  0  0  0  0  0  0  0  0999 V2000
   40.4340   10.1120   24.9000 C   0  0  0  0  0
   41.5380   10.0110   25.5200 N   0  0  0  0  0
   39.3890    9.6660   25.3620 O   0  0  0  0  0
   44.7170   12.2280   20.0940 Cl  0  0  0  0  0
   42.7530   10.6110   24.9740 C   0  0  0  0  0
   41.6110    9.3390   26.7310 O   0  0  0  0  0
   41.7480   11.7980   18.7520 Cl  0  0  0  0  0
   43.7860    9.4930   24.7610 C   0  0  0  0  0
   43.4230    8.5310   23.6370 C   0  0  0  0  0
   43.0480    9.3380   22.4170 C   0  0  0  0  0
   43.9320   10.2840   21.8690 C   0  0  0  0  0
   43.5460   11.0390   20.7560 C   0  0  0  0  0
   42.2690   10.8530   20.1870 C   0  0  0  0  0
   41.3790    9.9130   20.7360 C   0  0  0  0  0
   41.7700    9.1610   21.8510 C   0  0  0  0  0
   44.5860    7.4320   23.3590 P   0  0  0  0  0
   44.8390    6.7950   24.7060 O   0  0  0  0  0
   43.9640    6.4870   22.3590 O   0  0  0  0  0
   45.7920    8.1410   22.8100 O   0  0  0  0  0
   40.4148   10.6090   23.9301 H   0  0  0  0  0
   43.1455   11.3576   25.6644 H   0  0  0  0  0
   42.5345   11.1049   24.0272 H   0  0  0  0  0
   40.7423    9.0012   26.9611 H   0  0  0  0  0
   43.8347    8.9138   25.6831 H   0  0  0  0  0
   44.7297    9.9677   24.4921 H   0  0  0  0  0
   42.5604    7.9333   23.9317 H   0  0  0  0  0
   44.9177   10.4292   22.3110 H   0  0  0  0  0
   40.3916    9.7705   20.2969 H   0  0  0  0  0
   41.0817    8.4347   22.2833 H   0  0  0  0  0
   44.0390    6.3583   25.0075 H   0  0  0  0  0
   43.2008    6.0604   22.7554 H   0  0  0  0  0
  2  1  1  0  0  0
  1  3  2  0  0  0
  5  2  1  0  0  0
  2  6  1  0  0  0
 12  4  1  0  0  0
  8  5  1  0  0  0
 13  7  1  0  0  0
  9  8  1  0  0  0
 10  9  1  0  0  0
  9 16  1  0  0  0
 11 10  4  0  0  0
 10 15  4  0  0  0
 12 11  4  0  0  0
 12 13  4  0  0  0
 13 14  4  0  0  0
 14 15  4  0  0  0
 16 17  1  0  0  0
 16 18  1  0  0  0
 16 19  2  0  0  0
  1 20  1  0  0  0
  5 21  1  0  0  0
  5 22  1  0  0  0
  6 23  1  0  0  0
  8 24  1  0  0  0
  8 25  1  0  0  0
  9 26  1  0  0  0
 11 27  1  0  0  0
 14 28  1  0  0  0
 15 29  1  0  0  0
 17 30  1  0  0  0
 18 31  1  0  0  0
M  END
$$$$
