5m2v_ligand
  -I-interpret- 

 32 33  0  0  0  0  0  0  0  0999 V2000
   -3.1330   33.9240  -16.9090 N   0  3  0  0  0
   -4.4670   34.0170  -17.5240 C   0  0  0  0  0
   -5.1910   32.6880  -17.2510 C   0  0  0  0  0
   -1.9010   37.1470  -19.0680 C   0  0  0  0  0
   -0.5380   36.8000  -19.2700 C   0  0  0  0  0
    0.3970   37.7380  -19.7360 C   0  0  0  0  0
   -1.3620   39.4120  -19.8190 C   0  0  0  0  0
   -4.7600   31.9530  -16.3350 O   0  0  0  0  0
   -6.1810   32.3890  -17.9500 O   0  0  0  0  0
   -4.2330   34.2870  -19.0250 C   0  0  0  0  0
   -2.1220   34.0650  -17.9680 C   0  0  0  0  0
   -2.8200   34.8740  -19.0570 C   0  0  0  0  0
   -2.8280   36.2280  -18.6100 O   0  0  0  0  0
   -0.0190   39.0450  -20.0120 C   0  0  0  0  0
   -2.3240   38.4850  -19.3490 C   0  0  0  0  0
   -3.7500   38.9760  -19.1760 C   0  0  0  0  0
   -3.9660   40.2010  -19.0490 O   0  0  0  0  0
   -4.7300   38.2010  -19.1600 O   0  0  0  0  0
   -3.0261   33.0233  -16.4424 H   0  0  0  0  0
   -3.0166   34.6624  -16.2151 H   0  0  0  0  0
   -5.0906   34.8161  -17.1231 H   0  0  0  0  0
   -0.2107   35.7821  -19.0583 H   0  0  0  0  0
    1.4382   37.4504  -19.8815 H   0  0  0  0  0
   -1.6705   40.4346  -20.0363 H   0  0  0  0  0
   -3.9967   32.3675  -15.9261 H   0  0  0  0  0
   -4.9775   34.9582  -19.4531 H   0  0  0  0  0
   -4.3295   33.3885  -19.6345 H   0  0  0  0  0
   -1.7770   33.0983  -18.3348 H   0  0  0  0  0
   -1.2191   34.5582  -17.6079 H   0  0  0  0  0
   -2.3732   34.8401  -20.0506 H   0  0  0  0  0
    0.6991   39.7793  -20.3770 H   0  0  0  0  0
   -3.1326   40.6765  -19.0788 H   0  0  0  0  0
  1  2  1  0  0  0
 11  1  1  0  0  0
  2  3  1  0  0  0
 10  2  1  0  0  0
  3  8  1  0  0  0
  3  9  2  0  0  0
  4  5  4  0  0  0
 13  4  1  0  0  0
  4 15  4  0  0  0
  5  6  4  0  0  0
  6 14  4  0  0  0
  7 14  4  0  0  0
 15  7  4  0  0  0
 12 10  1  0  0  0
 12 11  1  0  0  0
 12 13  1  0  0  0
 15 16  1  0  0  0
 16 17  1  0  0  0
 16 18  2  0  0  0
  1 19  1  0  0  0
  1 20  1  0  0  0
  2 21  1  0  0  0
  5 22  1  0  0  0
  6 23  1  0  0  0
  7 24  1  0  0  0
  8 25  1  0  0  0
 10 26  1  0  0  0
 10 27  1  0  0  0
 11 28  1  0  0  0
 11 29  1  0  0  0
 12 30  1  0  0  0
 14 31  1  0  0  0
 17 32  1  0  0  0
M  END
$$$$
