5y5n_ligand
  -I-interpret- 

 45 47  0  0  0  0  0  0  0  0999 V2000
   49.0960   54.7180   19.9910 O   0  0  0  0  0
   49.0420   53.5100   20.3460 C   0  0  0  0  0
   48.1730   52.6960   19.7320 N   0  0  0  0  0
   49.8660   52.9740   21.3880 C   0  0  0  0  0
   50.1110   51.5660   21.4180 C   0  0  0  0  0
   50.9060   51.0090   22.4160 C   0  0  0  0  0
   50.4450   53.7700   22.3940 C   0  0  0  0  0
   51.2530   53.2180   23.3710 C   0  0  0  0  0
   51.4800   51.8290   23.3940 C   0  0  0  0  0
   50.1290   55.1430   22.3480 N   0  0  0  0  0
   50.7400   56.1340   23.1000 C   0  0  0  0  0
   50.0010   57.3250   23.3050 C   0  0  0  0  0
   50.5690   58.4050   23.9980 C   0  0  0  0  0
   51.8410   58.2770   24.5660 C   0  0  0  0  0
   52.5930   57.1140   24.3310 C   0  0  0  0  0
   52.0310   56.0450   23.6140 C   0  0  0  0  0
   49.8660   59.6020   24.1110 O   0  0  0  0  0
   48.8860   59.5100   25.1430 C   0  0  0  0  0
   48.0500   60.8050   25.2110 C   0  0  0  0  0
   46.5640   60.5110   25.0520 C   0  0  0  0  0
   46.1330   59.2430   24.6380 C   0  0  0  0  0
   44.7680   58.9970   24.4430 C   0  0  0  0  0
   43.8300   59.9860   24.7510 C   0  0  0  0  0
   44.2570   61.2630   25.1310 C   0  0  0  0  0
   45.6220   61.5170   25.3060 C   0  0  0  0  0
   47.5709   53.0574   18.9922 H   0  0  0  0  0
   48.1135   51.7148   20.0043 H   0  0  0  0  0
   49.6723   50.9240   20.6542 H   0  0  0  0  0
   51.0815   49.9334   22.4356 H   0  0  0  0  0
   51.7140   53.8583   24.1231 H   0  0  0  0  0
   52.1033   51.3918   24.1741 H   0  0  0  0  0
   49.3890   55.4312   21.7079 H   0  0  0  0  0
   48.9836   57.4031   22.9216 H   0  0  0  0  0
   52.2464   59.0754   25.1876 H   0  0  0  0  0
   53.6140   57.0411   24.7056 H   0  0  0  0  0
   52.6118   55.1359   23.4582 H   0  0  0  0  0
   49.3902   59.3633   26.0982 H   0  0  0  0  0
   48.2234   58.6715   24.9285 H   0  0  0  0  0
   48.3628   61.4637   24.4008 H   0  0  0  0  0
   48.2101   61.2716   26.1830 H   0  0  0  0  0
   46.8599   58.4488   24.4679 H   0  0  0  0  0
   44.4376   58.0349   24.0513 H   0  0  0  0  0
   42.7647   59.7623   24.6951 H   0  0  0  0  0
   43.5284   62.0579   25.2903 H   0  0  0  0  0
   45.9534   62.5000   25.6408 H   0  0  0  0  0
  1  2  2  0  0  0
  2  3  1  0  0  0
  2  4  1  0  0  0
  4  5  4  0  0  0
  4  7  4  0  0  0
  5  6  4  0  0  0
  6  9  4  0  0  0
  7  8  4  0  0  0
  7 10  1  0  0  0
  8  9  4  0  0  0
 10 11  1  0  0  0
 11 12  4  0  0  0
 11 16  4  0  0  0
 12 13  4  0  0  0
 13 14  4  0  0  0
 13 17  1  0  0  0
 14 15  4  0  0  0
 15 16  4  0  0  0
 17 18  1  0  0  0
 18 19  1  0  0  0
 19 20  1  0  0  0
 20 21  4  0  0  0
 20 25  4  0  0  0
 21 22  4  0  0  0
 22 23  4  0  0  0
 23 24  4  0  0  0
 24 25  4  0  0  0
  3 26  1  0  0  0
  3 27  1  0  0  0
  5 28  1  0  0  0
  6 29  1  0  0  0
  8 30  1  0  0  0
  9 31  1  0  0  0
 10 32  1  0  0  0
 12 33  1  0  0  0
 14 34  1  0  0  0
 15 35  1  0  0  0
 16 36  1  0  0  0
 18 37  1  0  0  0
 18 38  1  0  0  0
 19 39  1  0  0  0
 19 40  1  0  0  0
 21 41  1  0  0  0
 22 42  1  0  0  0
 23 43  1  0  0  0
 24 44  1  0  0  0
 25 45  1  0  0  0
M  END
$$$$
