3tdh_ligand
  -I-interpret- 

 37 39  0  0  0  0  0  0  0  0999 V2000
   31.0100   66.2800    1.8060 P   0  0  0  0  0
   31.5640   66.3330    3.2080 O   0  0  0  0  0
   32.0400   66.4830    0.7190 O   0  0  0  0  0
   30.0760   65.1130    1.5680 O   0  0  0  0  0
   30.0630   67.5810    1.7080 O   0  0  0  0  0
   29.3370   67.9020    0.5170 C   0  0  0  0  0
   29.0890   69.4110    0.4310 C   0  0  0  0  0
   28.4920   69.9020    1.6380 O   0  0  0  0  0
   30.3770   70.1930    0.2380 C   0  0  0  0  0
   30.1430   71.2340   -0.7130 O   0  0  0  0  0
   30.6950   70.7710    1.6060 C   0  0  0  0  0
   31.3340   72.0480    1.5290 O   0  0  0  0  0
   29.3370   70.8590    2.2880 C   0  0  0  0  0
   29.4090   70.5260    3.7320 N   0  0  0  0  0
   30.1530   69.5610    4.3100 C   0  0  0  0  0
   29.9640   69.5340    5.6550 N   0  0  0  0  0
   29.0750   70.5000    5.9540 C   0  0  0  0  0
   28.4200   71.0180    7.1800 C   0  0  0  0  0
   28.6890   70.4880    8.3920 N   0  0  0  0  0
   27.5460   72.0420    7.0480 N   0  0  0  0  0
   27.2610   72.5880    5.8490 C   0  0  0  0  0
   27.8130   72.1650    4.6960 N   0  0  0  0  0
   28.7100   71.1480    4.6820 C   0  0  0  0  0
   31.6118   66.4356   -0.1389 H   0  0  0  0  0
   29.7602   65.1370    0.6618 H   0  0  0  0  0
   28.3772   67.3857    0.5371 H   0  0  0  0  0
   29.9204   67.5889   -0.3489 H   0  0  0  0  0
   28.4301   69.5530   -0.4256 H   0  0  0  0  0
   31.2003   69.5832   -0.1340 H   0  0  0  0  0
   30.9515   71.7351   -0.8427 H   0  0  0  0  0
   31.4049   70.1526    2.1553 H   0  0  0  0  0
   31.5132   72.3689    2.4159 H   0  0  0  0  0
   28.9604   71.8790    2.2112 H   0  0  0  0  0
   30.8195   68.8898    3.7683 H   0  0  0  0  0
   29.3526   69.7179    8.4760 H   0  0  0  0  0
   28.2287   70.8576    9.2238 H   0  0  0  0  0
   26.5488   73.4123    5.8109 H   0  0  0  0  0
  1  2  2  0  0  0
  1  3  1  0  0  0
  1  4  1  0  0  0
  1  5  1  0  0  0
  5  6  1  0  0  0
  6  7  1  0  0  0
  7  8  1  0  0  0
  7  9  1  0  0  0
  8 13  1  0  0  0
  9 10  1  0  0  0
  9 11  1  0  0  0
 11 12  1  0  0  0
 11 13  1  0  0  0
 13 14  1  0  0  0
 14 15  4  0  0  0
 14 23  4  0  0  0
 15 16  4  0  0  0
 16 17  4  0  0  0
 17 18  4  0  0  0
 17 23  4  0  0  0
 18 19  1  0  0  0
 18 20  4  0  0  0
 20 21  4  0  0  0
 21 22  4  0  0  0
 22 23  4  0  0  0
  3 24  1  0  0  0
  4 25  1  0  0  0
  6 26  1  0  0  0
  6 27  1  0  0  0
  7 28  1  0  0  0
  9 29  1  0  0  0
 10 30  1  0  0  0
 11 31  1  0  0  0
 12 32  1  0  0  0
 13 33  1  0  0  0
 15 34  1  0  0  0
 19 35  1  0  0  0
 19 36  1  0  0  0
 21 37  1  0  0  0
M  END
$$$$
