### 
### Created by X-TOOL on Mon Sep 10 21:13:08 2018
### 

@<TRIPOS>MOLECULE
3tdh_ligand
   35    37     1     0     0
SMALL
GAST_HUCK


@<TRIPOS>ATOM
      1 P          31.0100   66.2800    1.8060 P.3       1 AMP         0.2008
      2 O1P        31.5640   66.3330    3.2080 O.co2     1 AMP        -0.5537
      3 O2P        32.0400   66.4830    0.7190 O.co2     1 AMP        -0.5537
      4 O3P        30.0760   65.1130    1.5680 O.co2     1 AMP        -0.5537
      5 O5'        30.0630   67.5810    1.7080 O.3       1 AMP        -0.2734
      6 C5'        29.3370   67.9020    0.5170 C.3       1 AMP         0.1072
      7 C4'        29.0890   69.4110    0.4310 C.3       1 AMP         0.1182
      8 O4'        28.4920   69.9020    1.6380 O.3       1 AMP        -0.3365
      9 C3'        30.3770   70.1930    0.2380 C.3       1 AMP         0.1149
     10 O3'        30.1430   71.2340   -0.7130 O.3       1 AMP        -0.3864
     11 C2'        30.6950   70.7710    1.6060 C.3       1 AMP         0.1385
     12 O2'        31.3340   72.0480    1.5290 O.3       1 AMP        -0.3836
     13 C1'        29.3370   70.8590    2.2880 C.3       1 AMP         0.2010
     14 N9         29.4090   70.5260    3.7320 N.pl3     1 AMP        -0.1919
     15 C8         30.1530   69.5610    4.3100 C.2       1 AMP         0.1123
     16 N7         29.9640   69.5340    5.6550 N.2       1 AMP        -0.2958
     17 C5         29.0750   70.5000    5.9540 C.ar      1 AMP         0.1045
     18 C6         28.4200   71.0180    7.1800 C.ar      1 AMP         0.1298
     19 N6         28.6890   70.4880    8.3920 N.pl3     1 AMP        -0.3152
     20 N1         27.5460   72.0420    7.0480 N.ar      1 AMP        -0.2698
     21 C2         27.2610   72.5880    5.8490 C.ar      1 AMP         0.0533
     22 N3         27.8130   72.1650    4.6960 N.ar      1 AMP        -0.2714
     23 C4         28.7100   71.1480    4.6820 C.ar      1 AMP         0.1613
     24 H          28.3772   67.3857    0.5371 H         1 AMP         0.0639
     25 H          29.9204   67.5889   -0.3489 H         1 AMP         0.0639
     26 H          28.4301   69.5530   -0.4256 H         1 AMP         0.0650
     27 H          31.2003   69.5832   -0.1340 H         1 AMP         0.0648
     28 H          30.9515   71.7351   -0.8427 H         1 AMP         0.2100
     29 H          31.4049   70.1526    2.1553 H         1 AMP         0.0676
     30 H          32.1590   71.9631    1.0454 H         1 AMP         0.2101
     31 H          28.9604   71.8790    2.2112 H         1 AMP         0.0996
     32 H          30.8195   68.8898    3.7683 H         1 AMP         0.1349
     33 H          29.3526   69.7179    8.4760 H         1 AMP         0.1820
     34 H          28.2287   70.8576    9.2238 H         1 AMP         0.1820
     35 H          26.5488   73.4123    5.8109 H         1 AMP         0.0996
@<TRIPOS>BOND
     1    1    2 ar 
     2    1    3 ar 
     3    1    4 ar 
     4    1    5 1  
     5    5    6 1  
     6    6    7 1  
     7    7    8 1  
     8    7    9 1  
     9    8   13 1  
    10    9   10 1  
    11    9   11 1  
    12   11   12 1  
    13   11   13 1  
    14   13   14 1  
    15   14   15 1  
    16   14   23 1  
    17   15   16 2  
    18   16   17 1  
    19   17   18 ar 
    20   17   23 ar 
    21   18   19 1  
    22   18   20 ar 
    23   20   21 ar 
    24   21   22 ar 
    25   22   23 ar 
    26    6   24 1  
    27    6   25 1  
    28    7   26 1  
    29    9   27 1  
    30   10   28 1  
    31   11   29 1  
    32   12   30 1  
    33   13   31 1  
    34   15   32 1  
    35   19   33 1  
    36   19   34 1  
    37   21   35 1  
@<TRIPOS>SUBSTRUCTURE
     1 AMP         1

