4bup_ligand
  -I-interpret- 

 51 53  0  0  0  0  0  0  0  0999 V2000
    7.6930   49.4820   10.6770 N   0  3  0  0  0
    6.3230   49.2840   10.2050 C   0  0  0  0  0
    5.4110   50.1840   11.0220 C   0  0  0  0  0
    5.7610   50.5370   12.1530 O   0  0  0  0  0
    4.3200   50.5570   10.5740 O   0  0  0  0  0
    5.8890   47.8320   10.3690 C   0  0  0  0  0
    6.0820   46.9700    9.1210 C   0  0  0  0  0
    4.9270   47.4570    7.8060 S   0  0  0  0  0
    4.2350   45.8580    7.2730 C   0  0  0  0  0
    6.0920   47.7040    6.4320 C   0  0  0  0  0
    6.6430   49.1270    6.3380 C   0  0  0  0  0
    7.6480   49.3400    7.3140 O   0  0  0  0  0
    7.2910   49.4570    4.9960 C   0  0  0  0  0
    6.3970   49.9800    4.0590 O   0  0  0  0  0
    8.2640   50.5260    5.4030 C   0  0  0  0  0
    7.5710   51.7060    5.6980 O   0  0  0  0  0
    8.7690   49.9450    6.7050 C   0  0  0  0  0
    9.7050   48.8580    6.3840 N   0  0  0  0  0
    9.6900   47.5930    6.9150 C   0  0  0  0  0
   10.6990   46.8650    6.3620 N   0  0  0  0  0
   11.3510   47.6460    5.4730 C   0  0  0  0  0
   12.4380   47.4210    4.6380 C   0  0  0  0  0
   13.0720   46.2570    4.5960 N   0  0  0  0  0
   12.8690   48.4350    3.8170 N   0  0  0  0  0
   12.2450   49.6680    3.8290 C   0  0  0  0  0
   11.1760   49.8850    4.6550 N   0  0  0  0  0
   10.7290   48.9020    5.4690 C   0  0  0  0  0
    7.9553   50.4601   10.5552 H   0  0  0  0  0
    7.7503   49.2339   11.6647 H   0  0  0  0  0
    8.3256   48.8896   10.1392 H   0  0  0  0  0
    6.2662   49.5304    9.1447 H   0  0  0  0  0
    4.1988   50.1997    9.6913 H   0  0  0  0  0
    4.8217   47.8403   10.5900 H   0  0  0  0  0
    6.5084   47.3999   11.1550 H   0  0  0  0  0
    5.8936   45.9289    9.3832 H   0  0  0  0  0
    7.1010   47.1044    8.7581 H   0  0  0  0  0
    5.0398   45.2172    6.9129 H   0  0  0  0  0
    3.7377   45.3794    8.1167 H   0  0  0  0  0
    3.5150   46.0242    6.4717 H   0  0  0  0  0
    5.5510   47.5033    5.5073 H   0  0  0  0  0
    6.9385   47.0382    6.6001 H   0  0  0  0  0
    5.7703   49.7637    6.4835 H   0  0  0  0  0
    7.7126   48.5766    4.5110 H   0  0  0  0  0
    6.8644   50.1653    3.2412 H   0  0  0  0  0
    9.0204   50.7626    4.6546 H   0  0  0  0  0
    8.1963   52.3866    5.9576 H   0  0  0  0  0
    9.2430   50.7016    7.3303 H   0  0  0  0  0
    8.9831   47.2289    7.6606 H   0  0  0  0  0
   12.7651   45.4873    5.1908 H   0  0  0  0  0
   13.8666   46.1314    3.9689 H   0  0  0  0  0
   12.6043   50.4673    3.1808 H   0  0  0  0  0
  1  2  1  0  0  0
  2  3  1  0  0  0
  2  6  1  0  0  0
  3  4  2  0  0  0
  3  5  1  0  0  0
  6  7  1  0  0  0
  7  8  1  0  0  0
  8  9  1  0  0  0
  8 10  1  0  0  0
 10 11  1  0  0  0
 11 12  1  0  0  0
 11 13  1  0  0  0
 12 17  1  0  0  0
 13 14  1  0  0  0
 13 15  1  0  0  0
 15 16  1  0  0  0
 15 17  1  0  0  0
 17 18  1  0  0  0
 18 19  4  0  0  0
 18 27  4  0  0  0
 19 20  4  0  0  0
 20 21  4  0  0  0
 21 22  4  0  0  0
 21 27  4  0  0  0
 22 23  1  0  0  0
 22 24  4  0  0  0
 24 25  4  0  0  0
 25 26  4  0  0  0
 26 27  4  0  0  0
  1 28  1  0  0  0
  1 29  1  0  0  0
  1 30  1  0  0  0
  2 31  1  0  0  0
  5 32  1  0  0  0
  6 33  1  0  0  0
  6 34  1  0  0  0
  7 35  1  0  0  0
  7 36  1  0  0  0
  9 37  1  0  0  0
  9 38  1  0  0  0
  9 39  1  0  0  0
 10 40  1  0  0  0
 10 41  1  0  0  0
 11 42  1  0  0  0
 13 43  1  0  0  0
 14 44  1  0  0  0
 15 45  1  0  0  0
 16 46  1  0  0  0
 17 47  1  0  0  0
 19 48  1  0  0  0
 23 49  1  0  0  0
 23 50  1  0  0  0
 25 51  1  0  0  0
M  END
$$$$
