6h4s_ligand
  -I-interpret- 

 45 48  0  0  0  0  0  0  0  0999 V2000
    7.2580  -18.6470  -54.5610 N   0  0  0  0  0
    2.6670  -17.3870  -44.5150 C   0  0  0  0  0
    1.9780  -17.8950  -45.7780 C   0  0  0  0  0
    2.7880  -17.5460  -47.0190 C   0  0  0  0  0
    2.6830  -15.8200  -49.5700 C   0  0  0  0  0
    3.2720  -15.2510  -50.8340 C   0  0  0  0  0
    4.0160  -15.9140  -51.7660 C   0  0  0  0  0
    7.1180  -15.2250  -55.7410 C   0  0  0  0  0
    6.8680  -16.3780  -55.0120 C   0  0  0  0  0
    5.8520  -16.4280  -54.0490 C   0  0  0  0  0
    6.2590  -18.6210  -53.6710 C   0  0  0  0  0
    7.6370  -17.5830  -55.2640 C   0  0  0  0  0
    3.7480  -15.6480  -45.9720 C   0  0  0  0  0
    8.5890  -17.6270  -56.0250 O   0  0  0  0  0
    6.3070  -14.1450  -55.5050 C   0  0  0  0  0
    5.3260  -14.1320  -54.5980 N   0  0  0  0  0
    5.5490  -17.5770  -53.3730 N   0  0  0  0  0
    5.1460  -15.2270  -53.8660 C   0  0  0  0  0
    4.3200  -15.0340  -52.7370 N   0  0  0  0  0
    3.7940  -13.8030  -52.4890 N   0  0  0  0  0
    3.1720  -13.9470  -51.3350 C   0  0  0  0  0
    3.6260  -15.7360  -48.3850 C   0  0  0  0  0
    2.9820  -16.1050  -47.1250 N   0  3  0  0  0
    2.9840  -15.9030  -44.6770 C   0  0  0  0  0
    7.7536  -19.5264  -54.7077 H   0  0  0  0  0
    3.5910  -17.9425  -44.3543 H   0  0  0  0  0
    2.0089  -17.5285  -43.6577 H   0  0  0  0  0
    0.9983  -17.4236  -45.8557 H   0  0  0  0  0
    1.8856  -18.9792  -45.7141 H   0  0  0  0  0
    2.2472  -17.8927  -47.8996 H   0  0  0  0  0
    3.7636  -18.0268  -46.9476 H   0  0  0  0  0
    2.4686  -16.8736  -49.7491 H   0  0  0  0  0
    1.7934  -15.2386  -49.3277 H   0  0  0  0  0
    4.3098  -16.9631  -51.7303 H   0  0  0  0  0
    7.9258  -15.1793  -56.4714 H   0  0  0  0  0
    6.0229  -19.5517  -53.1551 H   0  0  0  0  0
    3.9247  -14.5769  -46.0702 H   0  0  0  0  0
    4.6901  -16.1951  -45.9373 H   0  0  0  0  0
    6.4726  -13.2422  -56.0930 H   0  0  0  0  0
    2.6400  -13.1418  -50.8282 H   0  0  0  0  0
    3.9641  -14.7034  -48.2985 H   0  0  0  0  0
    4.4456  -16.4332  -48.5590 H   0  0  0  0  0
    2.0724  -15.6434  -47.1272 H   0  0  0  0  0
    3.6007  -15.5826  -43.8373 H   0  0  0  0  0
    2.0477  -15.3458  -44.7068 H   0  0  0  0  0
 11  1  1  0  0  0
 12  1  1  0  0  0
  3  2  1  0  0  0
 24  2  1  0  0  0
  4  3  1  0  0  0
 23  4  1  0  0  0
  5  6  1  0  0  0
 22  5  1  0  0  0
  6  7  4  0  0  0
  6 21  4  0  0  0
  7 19  4  0  0  0
  9  8  4  0  0  0
 15  8  4  0  0  0
 10  9  4  0  0  0
  9 12  1  0  0  0
 10 17  1  0  0  0
 18 10  4  0  0  0
 17 11  2  0  0  0
 12 14  2  0  0  0
 23 13  1  0  0  0
 13 24  1  0  0  0
 16 15  4  0  0  0
 18 16  4  0  0  0
 19 18  1  0  0  0
 20 19  4  0  0  0
 21 20  4  0  0  0
 22 23  1  0  0  0
  1 25  1  0  0  0
  2 26  1  0  0  0
  2 27  1  0  0  0
  3 28  1  0  0  0
  3 29  1  0  0  0
  4 30  1  0  0  0
  4 31  1  0  0  0
  5 32  1  0  0  0
  5 33  1  0  0  0
  7 34  1  0  0  0
  8 35  1  0  0  0
 11 36  1  0  0  0
 13 37  1  0  0  0
 13 38  1  0  0  0
 15 39  1  0  0  0
 21 40  1  0  0  0
 22 41  1  0  0  0
 22 42  1  0  0  0
 23 43  1  0  0  0
 24 44  1  0  0  0
 24 45  1  0  0  0
M  END
$$$$
