3c72_ligand
  -I-interpret- 

 79 82  0  0  0  0  0  0  0  0999 V2000
    3.1100   17.9730   26.8420 C   0  0  0  0  0
    2.8190   19.3390   26.8940 C   0  0  0  0  0
    3.8100   20.2650   27.2650 C   0  0  0  0  0
    3.5240   21.6140   27.3110 O   0  0  0  0  0
    5.0950   19.7970   27.5830 C   0  0  0  0  0
    5.3970   18.4310   27.5250 C   0  0  0  0  0
    4.4060   17.5150   27.1490 C   0  0  0  0  0
    4.7200   16.0010   27.0960 C   0  0  0  0  0
    5.4270   15.4910   25.8180 C   0  0  0  0  0
    4.7480   14.2180   25.2680 C   0  0  0  0  0
    5.2080   13.1200   25.6720 O   0  0  0  0  0
    3.8130   14.3520   24.4460 O   0  0  0  0  0
    5.5310   16.4980   24.7270 N   0  0  0  0  0
    6.7100   16.8380   24.1980 C   0  0  0  0  0
    7.7750   16.3640   24.5710 O   0  0  0  0  0
    6.6570   17.8680   23.0630 C   0  0  0  0  0
    7.4500   17.3630   21.8040 C   0  0  0  0  0
    7.6530   18.4600   20.6990 C   0  0  0  0  0
    8.7750   18.4430   19.8690 C   0  0  0  0  0
    8.9660   19.4240   18.9220 C   0  0  0  0  0
    8.0360   20.4230   18.7450 C   0  0  0  0  0
    6.9050   20.4480   19.5450 C   0  0  0  0  0
    6.7200   19.4800   20.5220 C   0  0  0  0  0
    7.1400   19.2050   23.5110 N   0  0  0  0  0
    8.5700   19.5570   23.6260 C   0  0  0  0  0
    6.2510   20.1760   23.7850 C   0  0  0  0  0
    5.0390   20.0130   23.7410 O   0  0  0  0  0
    6.8240   21.5370   24.2150 C   0  0  0  0  0
    5.9950   22.1680   25.3860 C   0  0  0  0  0
    6.6080   23.4940   25.9100 C   0  0  0  0  0
    7.1010   23.7060   27.1420 C   0  0  0  0  0
    7.5510   24.9640   27.2300 N   0  0  0  0  0
    7.3110   25.5280   26.0560 C   0  0  0  0  0
    6.7420   24.6360   25.2430 N   0  0  0  0  0
    6.8890   22.5230   23.1090 N   0  0  0  0  0
    8.0570   23.0070   22.6710 C   0  0  0  0  0
    9.1460   22.6510   23.1480 O   0  0  0  0  0
    8.0540   23.9960   21.7070 O   0  0  0  0  0
    7.9920   23.7810   20.2980 C   0  0  0  0  0
    7.2730   24.7440   19.6220 C   0  0  0  0  0
    7.3400   26.0700   20.0690 C   0  0  0  0  0
    6.6040   27.0590   19.4350 C   0  0  0  0  0
    5.7960   26.7190   18.3500 C   0  0  0  0  0
    5.7210   25.3900   17.9250 C   0  0  0  0  0
    6.4510   24.3890   18.5660 C   0  0  0  0  0
    2.3329   17.2612   26.5635 H   0  0  0  0  0
    1.8171   19.6889   26.6453 H   0  0  0  0  0
    4.3083   22.0972   27.5810 H   0  0  0  0  0
    5.8677   20.5065   27.8790 H   0  0  0  0  0
    6.3996   18.0816   27.7715 H   0  0  0  0  0
    3.7578   15.4903   27.1346 H   0  0  0  0  0
    5.4052   15.8044   27.9206 H   0  0  0  0  0
    6.4436   15.2675   26.1415 H   0  0  0  0  0
    5.9185   13.2825   26.2968 H   0  0  0  0  0
    4.6816   16.9393   24.3745 H   0  0  0  0  0
    5.6126   17.9841   22.7734 H   0  0  0  0  0
    6.8696   16.5558   21.3572 H   0  0  0  0  0
    8.4396   17.0584   22.1445 H   0  0  0  0  0
    9.5088   17.6436   19.9718 H   0  0  0  0  0
    9.8645   19.4093   18.3051 H   0  0  0  0  0
    8.1878   21.1872   17.9827 H   0  0  0  0  0
    6.1585   21.2301   19.4066 H   0  0  0  0  0
    5.8354   19.5179   21.1578 H   0  0  0  0  0
    9.0513   18.8881   24.3395 H   0  0  0  0  0
    9.0474   19.4551   22.6514 H   0  0  0  0  0
    8.6628   20.5866   23.9716 H   0  0  0  0  0
    7.8402   21.3208   24.5446 H   0  0  0  0  0
    5.9862   21.4554   26.2107 H   0  0  0  0  0
    4.9968   22.3882   25.0076 H   0  0  0  0  0
    7.1300   22.9689   27.9445 H   0  0  0  0  0
    7.5424   26.5606   25.7945 H   0  0  0  0  0
    6.0233   22.8395   22.6722 H   0  0  0  0  0
    7.4916   22.8264   20.1355 H   0  0  0  0  0
    9.0133   23.8101   19.9184 H   0  0  0  0  0
    7.9733   26.3251   20.9187 H   0  0  0  0  0
    6.6561   28.0914   19.7807 H   0  0  0  0  0
    5.2234   27.4896   17.8339 H   0  0  0  0  0
    5.0826   25.1317   17.0801 H   0  0  0  0  0
    6.3760   23.3507   18.2428 H   0  0  0  0  0
  1  2  4  0  0  0
  1  7  4  0  0  0
  2  3  4  0  0  0
  3  4  1  0  0  0
  3  5  4  0  0  0
  5  6  4  0  0  0
  6  7  4  0  0  0
  7  8  1  0  0  0
  8  9  1  0  0  0
  9 10  1  0  0  0
  9 13  1  0  0  0
 10 11  1  0  0  0
 10 12  2  0  0  0
 13 14  1  0  0  0
 14 15  2  0  0  0
 14 16  1  0  0  0
 16 17  1  0  0  0
 16 24  1  0  0  0
 17 18  1  0  0  0
 18 19  4  0  0  0
 18 23  4  0  0  0
 19 20  4  0  0  0
 20 21  4  0  0  0
 21 22  4  0  0  0
 22 23  4  0  0  0
 24 25  1  0  0  0
 24 26  1  0  0  0
 26 27  2  0  0  0
 26 28  1  0  0  0
 28 29  1  0  0  0
 28 35  1  0  0  0
 29 30  1  0  0  0
 30 31  4  0  0  0
 30 34  4  0  0  0
 31 32  4  0  0  0
 32 33  4  0  0  0
 33 34  4  0  0  0
 35 36  1  0  0  0
 36 37  2  0  0  0
 36 38  1  0  0  0
 38 39  1  0  0  0
 39 40  1  0  0  0
 40 41  4  0  0  0
 40 45  4  0  0  0
 41 42  4  0  0  0
 42 43  4  0  0  0
 43 44  4  0  0  0
 44 45  4  0  0  0
  1 46  1  0  0  0
  2 47  1  0  0  0
  4 48  1  0  0  0
  5 49  1  0  0  0
  6 50  1  0  0  0
  8 51  1  0  0  0
  8 52  1  0  0  0
  9 53  1  0  0  0
 11 54  1  0  0  0
 13 55  1  0  0  0
 16 56  1  0  0  0
 17 57  1  0  0  0
 17 58  1  0  0  0
 19 59  1  0  0  0
 20 60  1  0  0  0
 21 61  1  0  0  0
 22 62  1  0  0  0
 23 63  1  0  0  0
 25 64  1  0  0  0
 25 65  1  0  0  0
 25 66  1  0  0  0
 28 67  1  0  0  0
 29 68  1  0  0  0
 29 69  1  0  0  0
 31 70  1  0  0  0
 33 71  1  0  0  0
 35 72  1  0  0  0
 39 73  1  0  0  0
 39 74  1  0  0  0
 41 75  1  0  0  0
 42 76  1  0  0  0
 43 77  1  0  0  0
 44 78  1  0  0  0
 45 79  1  0  0  0
M  END
$$$$
