4anq_ligand
  -I-interpret- 

 53 56  0  0  0  0  0  0  0  0999 V2000
   32.8060   46.6850    6.3050 Cl  0  0  0  0  0
   33.3360   46.3750    7.9310 C   0  0  0  0  0
   34.1910   47.3580    8.5080 C   0  0  0  0  0
   34.6890   47.2140    9.8270 C   0  0  0  0  0
   34.3460   46.0790   10.6060 C   0  0  0  0  0
   34.8430   45.9840   11.8460 F   0  0  0  0  0
   32.9550   45.1900    8.6970 C   0  0  0  0  0
   33.4820   45.0580   10.0660 C   0  0  0  0  0
   33.1130   43.6910   11.1070 Cl  0  0  0  0  0
   32.0120   44.1040    8.0520 C   0  0  0  0  0
   32.6930   42.7270    8.0510 C   0  0  0  0  0
   30.7290   43.9080    8.7500 O   0  0  0  0  0
   29.7160   44.8670    8.9150 C   0  0  0  0  0
   29.6140   46.1010    8.1850 C   0  0  0  0  0
   28.6680   44.6140    9.8630 C   0  0  0  0  0
   28.7010   43.4220   10.6120 N   0  0  0  0  0
   27.6250   45.4550   10.0940 N   0  0  0  0  0
   27.5560   46.6220    9.3830 C   0  0  0  0  0
   28.5290   47.0060    8.4080 C   0  0  0  0  0
   28.4480   48.3040    7.6260 C   0  0  0  0  0
   29.5150   48.9180    6.8340 C   0  0  0  0  0
   27.3650   49.1720    7.4960 C   0  0  0  0  0
   27.8630   50.2020    6.6630 N   0  0  0  0  0
   29.0840   50.0060    6.3190 N   0  0  0  0  0
   27.1190   51.3970    6.2000 C   0  0  0  0  0
   26.7240   52.2900    7.3970 C   0  0  0  0  0
   25.9550   53.5300    6.8830 C   0  0  0  0  0
   24.7760   53.1610    6.0450 N   0  3  0  0  0
   25.1290   52.2570    4.9120 C   0  0  0  0  0
   25.8750   50.9870    5.3810 C   0  0  0  0  0
   34.4670   48.2364    7.9245 H   0  0  0  0  0
   35.3404   47.9810   10.2460 H   0  0  0  0  0
   31.8181   44.4901    7.0513 H   0  0  0  0  0
   32.8446   42.3973    9.0788 H   0  0  0  0  0
   32.0599   42.0104    7.5278 H   0  0  0  0  0
   33.6560   42.7997    7.5456 H   0  0  0  0  0
   30.3772   46.3516    7.4482 H   0  0  0  0  0
   29.4610   42.7553   10.4764 H   0  0  0  0  0
   27.9649   43.2253   11.2902 H   0  0  0  0  0
   26.7172   47.2927    9.5692 H   0  0  0  0  0
   30.5181   48.5119    6.7039 H   0  0  0  0  0
   26.3705   49.0794    7.9324 H   0  0  0  0  0
   27.7734   51.9751    5.5476 H   0  0  0  0  0
   27.6230   52.6119    7.9226 H   0  0  0  0  0
   26.0881   51.7245    8.0782 H   0  0  0  0  0
   26.6358   54.1179    6.2673 H   0  0  0  0  0
   25.5933   54.0853    7.7484 H   0  0  0  0  0
   24.3932   54.0201    5.6504 H   0  0  0  0  0
   24.1118   52.6678    6.6417 H   0  0  0  0  0
   25.7867   52.8041    4.2366 H   0  0  0  0  0
   24.2031   51.9449    4.4288 H   0  0  0  0  0
   25.2126   50.3837    6.0018 H   0  0  0  0  0
   26.1856   50.4055    4.5130 H   0  0  0  0  0
  1  2  1  0  0  0
  2  3  4  0  0  0
  2  7  4  0  0  0
  3  4  4  0  0  0
  4  5  4  0  0  0
  5  6  1  0  0  0
  5  8  4  0  0  0
  7  8  4  0  0  0
  7 10  1  0  0  0
  8  9  1  0  0  0
 10 11  1  0  0  0
 10 12  1  0  0  0
 12 13  1  0  0  0
 13 14  4  0  0  0
 13 15  4  0  0  0
 14 19  4  0  0  0
 15 16  1  0  0  0
 15 17  4  0  0  0
 17 18  4  0  0  0
 18 19  4  0  0  0
 19 20  1  0  0  0
 20 21  4  0  0  0
 20 22  4  0  0  0
 21 24  4  0  0  0
 22 23  4  0  0  0
 23 24  4  0  0  0
 23 25  1  0  0  0
 25 26  1  0  0  0
 25 30  1  0  0  0
 26 27  1  0  0  0
 27 28  1  0  0  0
 28 29  1  0  0  0
 29 30  1  0  0  0
  3 31  1  0  0  0
  4 32  1  0  0  0
 10 33  1  0  0  0
 11 34  1  0  0  0
 11 35  1  0  0  0
 11 36  1  0  0  0
 14 37  1  0  0  0
 16 38  1  0  0  0
 16 39  1  0  0  0
 18 40  1  0  0  0
 21 41  1  0  0  0
 22 42  1  0  0  0
 25 43  1  0  0  0
 26 44  1  0  0  0
 26 45  1  0  0  0
 27 46  1  0  0  0
 27 47  1  0  0  0
 28 48  1  0  0  0
 28 49  1  0  0  0
 29 50  1  0  0  0
 29 51  1  0  0  0
 30 52  1  0  0  0
 30 53  1  0  0  0
M  END
$$$$
