2onc_ligand
  -I-interpret- 

 50 53  0  0  0  0  0  0  0  0999 V2000
  -43.4770  -20.3300   19.0220 N   0  3  0  0  0
  -45.8340  -21.2380   16.3980 C   0  0  0  0  0
  -44.8550  -20.7110   15.3710 C   0  0  0  0  0
  -43.6780  -19.3870   16.9680 C   0  0  0  0  0
  -43.7380  -18.7240   14.6910 C   0  0  0  0  0
  -43.7220  -16.6570   13.4990 C   0  0  0  0  0
  -42.6830  -15.0430   11.4940 C   0  0  0  0  0
  -42.7010  -17.1230   12.6830 C   0  0  0  0  0
  -40.6500  -20.7220   14.1100 C   0  0  0  0  0
  -40.0220  -21.6200   13.2430 C   0  0  0  0  0
  -38.6320  -21.7740   13.2280 C   0  0  0  0  0
  -38.4630  -20.1260   14.9670 C   0  0  0  0  0
  -40.3650  -19.1370   15.8070 C   0  0  0  0  0
  -40.8610  -18.4350   16.5820 N   0  0  0  0  0
  -39.8520  -19.9760   14.9780 C   0  0  0  0  0
  -37.8420  -21.0220   14.0950 C   0  0  0  0  0
  -42.1750  -20.6120   14.0800 C   0  0  0  0  0
  -42.7290  -19.2440   13.9170 N   0  0  0  0  0
  -44.4670  -19.3490   15.7490 N   0  0  0  0  0
  -45.1670  -21.2750   17.7760 C   0  0  0  0  0
  -44.5320  -19.9080   18.1250 C   0  0  0  0  0
  -42.2010  -18.4920   12.9300 C   0  0  0  0  0
  -41.2800  -18.9250   12.1940 O   0  0  0  0  0
  -44.2010  -17.4680   14.4650 N   0  0  0  0  0
  -42.1720  -16.3280   11.6720 C   0  0  0  0  0
  -43.7080  -14.5680   12.3210 C   0  0  0  0  0
  -44.2360  -15.3730   13.3230 C   0  0  0  0  0
  -42.9578  -19.5127   19.3427 H   0  0  0  0  0
  -43.8858  -20.8106   19.8234 H   0  0  0  0  0
  -42.8467  -20.9630   18.5296 H   0  0  0  0  0
  -46.1428  -22.2454   16.1190 H   0  0  0  0  0
  -46.7050  -20.5838   16.4358 H   0  0  0  0  0
  -45.3199  -20.7039   14.3851 H   0  0  0  0  0
  -43.9736  -21.3514   15.3362 H   0  0  0  0  0
  -43.3302  -18.3810   17.2026 H   0  0  0  0  0
  -42.8252  -20.0503   16.8236 H   0  0  0  0  0
  -42.2822  -14.4047   10.7066 H   0  0  0  0  0
  -40.6303  -22.2150   12.5618 H   0  0  0  0  0
  -38.1679  -22.4805   12.5398 H   0  0  0  0  0
  -37.8543  -19.5338   15.6504 H   0  0  0  0  0
  -36.7575  -21.1314   14.0925 H   0  0  0  0  0
  -42.5256  -20.9696   15.0481 H   0  0  0  0  0
  -42.5047  -21.1801   13.2102 H   0  0  0  0  0
  -44.3818  -22.0309   17.7630 H   0  0  0  0  0
  -45.9248  -21.5085   18.5239 H   0  0  0  0  0
  -45.2884  -19.1881   18.4377 H   0  0  0  0  0
  -44.9530  -17.1179   15.0586 H   0  0  0  0  0
  -41.3735  -16.7021   11.0313 H   0  0  0  0  0
  -44.0948  -13.5590   12.1778 H   0  0  0  0  0
  -45.0396  -15.0063   13.9616 H   0  0  0  0  0
 21  1  1  0  0  0
  3  2  1  0  0  0
  2 20  1  0  0  0
 19  3  1  0  0  0
 19  4  1  0  0  0
  4 21  1  0  0  0
 18  5  4  0  0  0
  5 19  1  0  0  0
  5 24  1  0  0  0
  6  8  4  0  0  0
 24  6  1  0  0  0
  6 27  4  0  0  0
 25  7  4  0  0  0
  7 26  4  0  0  0
  8 22  1  0  0  0
  8 25  4  0  0  0
  9 10  4  0  0  0
  9 15  4  0  0  0
 17  9  1  0  0  0
 10 11  4  0  0  0
 11 16  4  0  0  0
 15 12  4  0  0  0
 12 16  4  0  0  0
 13 14  3  0  0  0
 15 13  1  0  0  0
 17 18  1  0  0  0
 18 22  1  0  0  0
 20 21  1  0  0  0
 22 23  2  0  0  0
 26 27  4  0  0  0
  1 28  1  0  0  0
  1 29  1  0  0  0
  1 30  1  0  0  0
  2 31  1  0  0  0
  2 32  1  0  0  0
  3 33  1  0  0  0
  3 34  1  0  0  0
  4 35  1  0  0  0
  4 36  1  0  0  0
  7 37  1  0  0  0
 10 38  1  0  0  0
 11 39  1  0  0  0
 12 40  1  0  0  0
 16 41  1  0  0  0
 17 42  1  0  0  0
 17 43  1  0  0  0
 20 44  1  0  0  0
 20 45  1  0  0  0
 21 46  1  0  0  0
 24 47  1  0  0  0
 25 48  1  0  0  0
 26 49  1  0  0  0
 27 50  1  0  0  0
M  END
$$$$
