2clk_ligand
  -I-interpret- 

 17 16  0  0  0  0  0  0  0  0999 V2000
   46.9860   27.2870   15.2650 O   0  0  0  0  0
   47.9020   28.1380   14.8630 C   0  0  0  0  0
   48.3840   28.1090   13.4640 C   0  0  0  0  0
   49.1880   29.3230   13.4700 O   0  0  0  0  0
   47.2500   28.2580   12.4260 C   0  0  0  0  0
   47.7060   28.0570   11.0750 O   0  0  0  0  0
   46.7000   30.1770   10.1680 O   0  0  0  0  0
   48.3290   28.6780    8.8370 O   0  0  0  0  0
   49.1550   30.1180   10.7850 O   0  0  0  0  0
   47.9900   29.3520   10.1650 P   0  0  0  0  0
   48.3088   28.8684   15.5624 H   0  0  0  0  0
   48.8816   27.1781   13.1922 H   0  0  0  0  0
   49.8943   29.2345   14.1141 H   0  0  0  0  0
   46.8584   29.2725   12.5004 H   0  0  0  0  0
   46.4962   27.5008   12.6417 H   0  0  0  0  0
   45.9923   29.6636    9.7716 H   0  0  0  0  0
   47.5544   28.2172    8.5064 H   0  0  0  0  0
  1  2  2  0  0  0
  2  3  1  0  0  0
  3  4  1  0  0  0
  3  5  1  0  0  0
  5  6  1  0  0  0
  6 10  1  0  0  0
 10  7  1  0  0  0
 10  8  1  0  0  0
 10  9  2  0  0  0
  2 11  1  0  0  0
  3 12  1  0  0  0
  4 13  1  0  0  0
  5 14  1  0  0  0
  5 15  1  0  0  0
  7 16  1  0  0  0
  8 17  1  0  0  0
M  END
$$$$
