4jkt_ligand
  -I-interpret- 

 59 62  0  0  0  0  0  0  0  0999 V2000
   27.7460  -27.1070   -3.7930 O   0  0  0  0  0
   14.3820  -26.5930   -0.0930 O   0  0  0  0  0
   29.4820  -31.0090   -2.1260 C   0  0  0  0  0
   14.3500  -31.5390   -0.9900 C   0  0  0  0  0
   29.9070  -29.8820   -1.4840 C   0  0  0  0  0
   28.1070  -31.0800   -2.6960 C   0  0  0  0  0
   13.0490  -30.9200   -0.6070 C   0  0  0  0  0
   15.5220  -31.0320   -0.5080 C   0  0  0  0  0
   28.9890  -28.7150   -1.3450 C   0  0  0  0  0
   27.2700  -30.0110   -2.5680 C   0  0  0  0  0
   13.0300  -29.8420    0.2300 C   0  0  0  0  0
   15.5000  -29.8560    0.4080 C   0  0  0  0  0
   21.5880  -23.9440    0.1980 C   0  0  0  0  0
   19.7710  -22.3890   -1.3000 C   0  0  0  0  0
   22.6650  -22.9550   -0.0900 C   0  0  0  0  0
   19.0250  -22.1220   -0.0380 C   0  0  0  0  0
   26.8080  -27.6150   -1.7300 C   0  0  0  0  0
   14.3040  -28.1140    1.6740 C   0  0  0  0  0
   24.7810  -24.3040    0.1240 N   0  0  0  0  0
   17.1430  -23.6170   -0.7820 N   0  0  0  0  0
   25.7860  -24.9540   -0.6190 N   0  0  0  0  0
   16.3540  -24.7200   -0.3910 N   0  0  0  0  0
   26.4310  -25.4040   -2.9710 N   0  0  0  0  0
   16.0570  -26.3060    1.4880 N   0  0  0  0  0
   20.4970  -23.9890   -1.1820 S   0  0  0  0  0
   24.1590  -23.9360   -2.3240 S   0  0  0  0  0
   17.9810  -24.2830    1.5290 S   0  0  0  0  0
   27.0300  -26.7080   -2.8910 C   0  0  0  0  0
   14.8980  -26.9570    0.9510 C   0  0  0  0  0
   27.7290  -28.7780   -1.8640 C   0  0  0  0  0
   14.3100  -29.2890    0.7600 C   0  0  0  0  0
   23.8260  -23.7000   -0.6410 C   0  0  0  0  0
   18.0730  -23.2500    0.1460 C   0  0  0  0  0
   25.5800  -24.8490   -1.9590 C   0  0  0  0  0
   16.6860  -25.1930    0.8410 C   0  0  0  0  0
   30.1528  -31.8627   -2.2224 H   0  0  0  0  0
   14.3654  -32.4003   -1.6579 H   0  0  0  0  0
   30.9157  -29.8350   -1.0736 H   0  0  0  0  0
   27.7725  -31.9802   -3.2117 H   0  0  0  0  0
   12.1152  -31.3273   -0.9945 H   0  0  0  0  0
   16.4715  -31.4857   -0.7920 H   0  0  0  0  0
   29.3238  -27.8144   -0.8303 H   0  0  0  0  0
   26.2625  -30.0574   -2.9813 H   0  0  0  0  0
   12.0807  -29.3858    0.5108 H   0  0  0  0  0
   16.4339  -29.4495    0.7962 H   0  0  0  0  0
   21.0433  -23.6531    1.0962 H   0  0  0  0  0
   22.0207  -24.9304    0.3652 H   0  0  0  0  0
   20.5456  -21.6357   -1.4439 H   0  0  0  0  0
   19.0927  -22.3472   -2.1522 H   0  0  0  0  0
   22.9498  -22.4281    0.8207 H   0  0  0  0  0
   22.3160  -22.2119   -0.8070 H   0  0  0  0  0
   18.4935  -21.1721   -0.0958 H   0  0  0  0  0
   19.7084  -22.0500    0.8081 H   0  0  0  0  0
   25.7731  -27.9568   -1.7145 H   0  0  0  0  0
   27.0065  -27.0857   -0.7981 H   0  0  0  0  0
   13.2832  -27.8814    1.9773 H   0  0  0  0  0
   14.8853  -28.3338    2.5695 H   0  0  0  0  0
   26.6229  -24.8388   -3.7981 H   0  0  0  0  0
   16.4492  -26.6486    2.3650 H   0  0  0  0  0
 28  1  2  0  0  0
 29  2  2  0  0  0
  5  3  4  0  0  0
  6  3  4  0  0  0
  7  4  4  0  0  0
  8  4  4  0  0  0
  9  5  4  0  0  0
 10  6  4  0  0  0
 11  7  4  0  0  0
 12  8  4  0  0  0
 30  9  4  0  0  0
 30 10  4  0  0  0
 31 11  4  0  0  0
 31 12  4  0  0  0
 13 15  1  0  0  0
 25 13  1  0  0  0
 16 14  1  0  0  0
 14 25  1  0  0  0
 15 32  1  0  0  0
 33 16  1  0  0  0
 28 17  1  0  0  0
 17 30  1  0  0  0
 29 18  1  0  0  0
 18 31  1  0  0  0
 19 21  4  0  0  0
 32 19  4  0  0  0
 22 20  4  0  0  0
 20 33  4  0  0  0
 21 34  4  0  0  0
 35 22  4  0  0  0
 23 28  1  0  0  0
 34 23  1  0  0  0
 24 29  1  0  0  0
 24 35  1  0  0  0
 32 26  4  0  0  0
 26 34  4  0  0  0
 33 27  4  0  0  0
 27 35  4  0  0  0
  3 36  1  0  0  0
  4 37  1  0  0  0
  5 38  1  0  0  0
  6 39  1  0  0  0
  7 40  1  0  0  0
  8 41  1  0  0  0
  9 42  1  0  0  0
 10 43  1  0  0  0
 11 44  1  0  0  0
 12 45  1  0  0  0
 13 46  1  0  0  0
 13 47  1  0  0  0
 14 48  1  0  0  0
 14 49  1  0  0  0
 15 50  1  0  0  0
 15 51  1  0  0  0
 16 52  1  0  0  0
 16 53  1  0  0  0
 17 54  1  0  0  0
 17 55  1  0  0  0
 18 56  1  0  0  0
 18 57  1  0  0  0
 23 58  1  0  0  0
 24 59  1  0  0  0
M  END
$$$$
