3kdu_ligand
  -I-interpret- 

 62 65  0  0  0  0  0  0  0  0999 V2000
   27.6340   48.4050   16.6830 C   0  0  0  0  0
   28.3160   47.2920   17.4400 C   0  0  0  0  0
   28.0440   45.9620   17.1270 C   0  0  0  0  0
   28.6780   44.9410   17.8390 C   0  0  0  0  0
   29.5960   45.2270   18.8560 C   0  0  0  0  0
   29.8470   46.5680   19.1520 C   0  0  0  0  0
   29.2170   47.6020   18.4550 C   0  0  0  0  0
   30.2080   44.2640   19.5560 O   0  0  0  0  0
   30.9210   43.2700   19.0120 C   0  0  0  0  0
   30.6620   42.8660   17.8900 O   0  0  0  0  0
   31.9280   42.6760   19.6680 N   0  0  0  0  0
   32.2230   43.0200   21.0660 C   0  0  0  0  0
   33.5290   43.7690   21.1140 C   0  0  0  0  0
   34.6960   43.1210   21.5160 C   0  0  0  0  0
   35.9020   43.8180   21.5310 C   0  0  0  0  0
   35.9270   45.1550   21.1510 C   0  0  0  0  0
   34.7570   45.8000   20.7450 C   0  0  0  0  0
   33.5550   45.1060   20.7240 C   0  0  0  0  0
   34.7660   47.0780   20.3700 O   0  0  0  0  0
   35.8380   47.5700   19.5370 C   0  0  0  0  0
   35.3840   48.6360   18.5690 C   0  0  0  0  0
   34.2630   49.4830   18.5980 C   0  0  0  0  0
   34.3290   50.2150   17.5370 O   0  0  0  0  0
   35.3790   49.9150   16.8360 C   0  0  0  0  0
   36.0670   48.9370   17.4440 N   0  0  0  0  0
   35.7530   50.5990   15.5770 C   0  0  0  0  0
   36.9770   50.3440   14.9600 C   0  0  0  0  0
   37.2970   51.0300   13.7880 C   0  0  0  0  0
   36.3870   51.9490   13.2610 C   0  0  0  0  0
   35.1700   52.2010   13.8870 C   0  0  0  0  0
   34.8520   51.5240   15.0560 C   0  0  0  0  0
   36.7660   52.8120   11.8070 Cl  0  0  0  0  0
   33.1360   49.5830   19.6090 C   0  0  0  0  0
   32.7320   41.6720   18.9520 C   0  0  0  0  0
   32.3940   40.2470   19.3450 C   0  0  0  0  0
   33.2020   39.3410   19.1780 O   0  0  0  0  0
   31.2110   39.9470   19.8710 O   0  0  0  0  0
   27.8831   48.3287   15.6246 H   0  0  0  0  0
   26.5547   48.3212   16.8105 H   0  0  0  0  0
   27.9732   49.3663   17.0690 H   0  0  0  0  0
   27.3402   45.7194   16.3308 H   0  0  0  0  0
   28.4535   43.9020   17.5980 H   0  0  0  0  0
   30.5517   46.8143   19.9463 H   0  0  0  0  0
   29.4290   48.6419   18.7036 H   0  0  0  0  0
   32.2952   42.1112   21.6635 H   0  0  0  0  0
   31.4245   43.6419   21.4706 H   0  0  0  0  0
   34.6649   42.0739   21.8172 H   0  0  0  0  0
   36.8204   43.3182   21.8388 H   0  0  0  0  0
   36.8681   45.7046   21.1701 H   0  0  0  0  0
   32.6390   45.6032   20.4049 H   0  0  0  0  0
   36.2205   46.7315   18.9551 H   0  0  0  0  0
   36.5924   48.0103   20.1890 H   0  0  0  0  0
   37.6723   49.6208   15.3861 H   0  0  0  0  0
   38.2488   50.8503   13.2881 H   0  0  0  0  0
   34.4728   52.9236   13.4630 H   0  0  0  0  0
   33.9054   51.7147   15.5618 H   0  0  0  0  0
   32.6143   48.6276   19.6654 H   0  0  0  0  0
   33.5480   49.8317   20.5870 H   0  0  0  0  0
   32.4389   50.3613   19.2984 H   0  0  0  0  0
   33.7782   41.8453   19.2039 H   0  0  0  0  0
   32.5240   41.7797   17.8875 H   0  0  0  0  0
   30.6830   40.7454   19.9444 H   0  0  0  0  0
  1  2  1  0  0  0
  2  3  4  0  0  0
  2  7  4  0  0  0
  3  4  4  0  0  0
  4  5  4  0  0  0
  5  6  4  0  0  0
  5  8  1  0  0  0
  6  7  4  0  0  0
  8  9  1  0  0  0
  9 10  2  0  0  0
  9 11  1  0  0  0
 11 12  1  0  0  0
 11 34  1  0  0  0
 12 13  1  0  0  0
 13 14  4  0  0  0
 13 18  4  0  0  0
 14 15  4  0  0  0
 15 16  4  0  0  0
 16 17  4  0  0  0
 17 18  4  0  0  0
 17 19  1  0  0  0
 19 20  1  0  0  0
 20 21  1  0  0  0
 21 22  4  0  0  0
 21 25  4  0  0  0
 22 23  4  0  0  0
 22 33  1  0  0  0
 23 24  4  0  0  0
 24 25  4  0  0  0
 24 26  1  0  0  0
 26 27  4  0  0  0
 26 31  4  0  0  0
 27 28  4  0  0  0
 28 29  4  0  0  0
 29 30  4  0  0  0
 29 32  1  0  0  0
 30 31  4  0  0  0
 34 35  1  0  0  0
 35 36  2  0  0  0
 35 37  1  0  0  0
  1 38  1  0  0  0
  1 39  1  0  0  0
  1 40  1  0  0  0
  3 41  1  0  0  0
  4 42  1  0  0  0
  6 43  1  0  0  0
  7 44  1  0  0  0
 12 45  1  0  0  0
 12 46  1  0  0  0
 14 47  1  0  0  0
 15 48  1  0  0  0
 16 49  1  0  0  0
 18 50  1  0  0  0
 20 51  1  0  0  0
 20 52  1  0  0  0
 27 53  1  0  0  0
 28 54  1  0  0  0
 30 55  1  0  0  0
 31 56  1  0  0  0
 33 57  1  0  0  0
 33 58  1  0  0  0
 33 59  1  0  0  0
 34 60  1  0  0  0
 34 61  1  0  0  0
 37 62  1  0  0  0
M  END
$$$$
