3c2o_ligand
  -I-interpret- 

 17 17  0  0  0  0  0  0  0  0999 V2000
  -26.3650   14.2920   -7.2880 N   0  0  0  0  0
  -25.5360   13.2370   -7.2740 C   0  0  0  0  0
  -25.8720   12.1070   -6.5290 C   0  0  0  0  0
  -27.0580   12.1120   -5.8010 C   0  0  0  0  0
  -27.8870   13.2280   -5.8390 C   0  0  0  0  0
  -27.5010   14.3200   -6.6110 C   0  0  0  0  0
  -24.1970   13.3530   -8.0070 C   0  0  0  0  0
  -24.1970   13.8860   -9.1370 O   0  0  0  0  0
  -23.1660   12.9600   -7.4200 O   0  0  0  0  0
  -25.0360   10.8270   -6.5700 C   0  0  0  0  0
  -24.4190   10.5560   -7.6230 O   0  0  0  0  0
  -24.9970   10.1250   -5.5360 O   0  0  0  0  0
  -27.3363   11.2442   -5.2030 H   0  0  0  0  0
  -28.8200   13.2471   -5.2757 H   0  0  0  0  0
  -28.1383   15.2030   -6.6579 H   0  0  0  0  0
  -23.4065   12.5858   -6.5693 H   0  0  0  0  0
  -25.5453   10.5259   -4.8575 H   0  0  0  0  0
  1  2  4  0  0  0
  1  6  4  0  0  0
  2  3  4  0  0  0
  2  7  1  0  0  0
  3  4  4  0  0  0
  3 10  1  0  0  0
  4  5  4  0  0  0
  5  6  4  0  0  0
  7  8  2  0  0  0
  7  9  1  0  0  0
 10 11  2  0  0  0
 10 12  1  0  0  0
  4 13  1  0  0  0
  5 14  1  0  0  0
  6 15  1  0  0  0
  9 16  1  0  0  0
 12 17  1  0  0  0
M  END
$$$$
