1b8n_ligand
  -I-interpret- 

 35 37  0  0  0  0  0  0  0  0999 V2000
  -66.6900   90.3810   97.6050 O   0  0  0  0  0
  -65.3860   90.2550   97.0230 C   0  0  0  0  0
  -65.0230   88.8980   96.3610 C   0  0  0  0  0
  -66.0870   88.7440   95.3660 N   0  3  0  0  0
  -63.7130   88.8060   95.5100 C   0  0  0  0  0
  -63.1890   87.4580   95.3440 O   0  0  0  0  0
  -64.1210   89.3510   94.0980 C   0  0  0  0  0
  -63.5970   88.5380   93.0400 O   0  0  0  0  0
  -65.6640   89.2910   94.0800 C   0  0  0  0  0
  -66.3690   90.7420   93.8760 C   0  0  0  0  0
  -67.6470   91.0320   94.1550 C   0  0  0  0  0
  -67.9010   92.4140   93.8430 N   0  0  0  0  0
  -66.6630   92.9030   93.3710 C   0  0  0  0  0
  -66.3870   94.2710   92.9020 C   0  0  0  0  0
  -67.1280   95.2670   92.8890 O   0  0  0  0  0
  -65.0700   94.3360   92.5080 N   0  0  0  0  0
  -62.9040   93.5180   91.9370 N   0  0  0  0  0
  -64.1390   93.3000   92.5200 C   0  0  0  0  0
  -64.4690   92.0930   92.9490 N   0  0  0  0  0
  -65.7330   91.9400   93.3610 C   0  0  0  0  0
  -66.7891   91.2600   97.9781 H   0  0  0  0  0
  -64.6841   90.3754   97.8481 H   0  0  0  0  0
  -65.3512   90.9913   96.2200 H   0  0  0  0  0
  -64.8982   88.1776   97.1695 H   0  0  0  0  0
  -66.9153   89.2468   95.6847 H   0  0  0  0  0
  -66.2951   87.7519   95.2528 H   0  0  0  0  0
  -62.9231   89.3625   96.0145 H   0  0  0  0  0
  -62.9335   87.1075   96.2004 H   0  0  0  0  0
  -63.7279   90.3551   93.9390 H   0  0  0  0  0
  -62.6379   88.5768   93.0531 H   0  0  0  0  0
  -65.9687   88.6763   93.2330 H   0  0  0  0  0
  -68.3795   90.3312   94.5555 H   0  0  0  0  0
  -64.7401   95.2404   92.1708 H   0  0  0  0  0
  -62.2441   92.7467   91.8366 H   0  0  0  0  0
  -62.6530   94.4501   91.6074 H   0  0  0  0  0
  1  2  1  0  0  0
  2  3  1  0  0  0
  3  4  1  0  0  0
  3  5  1  0  0  0
  4  9  1  0  0  0
  5  6  1  0  0  0
  5  7  1  0  0  0
  7  8  1  0  0  0
  7  9  1  0  0  0
  9 10  1  0  0  0
 10 11  4  0  0  0
 10 20  4  0  0  0
 11 12  4  0  0  0
 12 13  4  0  0  0
 13 14  1  0  0  0
 13 20  4  0  0  0
 14 15  2  0  0  0
 14 16  1  0  0  0
 16 18  1  0  0  0
 18 19  2  0  0  0
 19 20  1  0  0  0
 18 17  1  0  0  0
  1 21  1  0  0  0
  2 22  1  0  0  0
  2 23  1  0  0  0
  3 24  1  0  0  0
  4 25  1  0  0  0
  4 26  1  0  0  0
  5 27  1  0  0  0
  6 28  1  0  0  0
  7 29  1  0  0  0
  8 30  1  0  0  0
  9 31  1  0  0  0
 11 32  1  0  0  0
 16 33  1  0  0  0
 17 34  1  0  0  0
 17 35  1  0  0  0
M  END
$$$$
