4gsc_ligand
  -I-interpret- 

 52 53  0  0  0  0  0  0  0  0999 V2000
  111.4690  -61.3410   10.9150 C   0  0  0  0  0
  115.1700  -57.4700   11.2490 N   0  0  0  0  0
  114.3560  -56.5660   10.6830 C   0  0  0  0  0
  114.3140  -55.2240   11.4140 C   0  0  0  0  0
  112.7720  -53.3610   11.7410 C   0  0  0  0  0
  110.2370  -51.5970   11.9810 C   0  0  0  0  0
  109.0650  -50.8060   12.0320 C   0  0  0  0  0
  109.1170  -49.4540   11.6420 C   0  0  0  0  0
  111.4950  -49.6820   11.1560 C   0  0  0  0  0
  113.7640  -53.2080    8.3720 C   0  0  0  0  0
  117.2780  -59.9340    9.6900 O   0  0  0  0  0
  116.9110  -58.9470   10.3180 C   0  0  0  0  0
  117.9100  -57.8900   10.5590 O   0  0  0  0  0
  118.3440  -56.9520    9.5640 C   0  0  0  0  0
  115.4860  -58.8570   10.8550 C   0  0  0  0  0
  114.4060  -59.3640    9.8830 C   0  0  0  0  0
  113.1980  -60.0140   10.5560 C   0  0  0  0  0
  112.6530  -59.6950   11.7960 C   0  0  0  0  0
  111.6040  -60.5250   11.9800 N   0  0  0  0  0
  112.4340  -61.0240   10.0300 N   0  0  0  0  0
  113.6960  -56.8100    9.6820 O   0  0  0  0  0
  113.4740  -54.2220   10.7320 N   0  3  0  0  0
  114.3510  -53.5180    9.7560 C   0  0  0  0  0
  112.5710  -52.8520    8.2090 O   0  0  0  0  0
  114.5360  -53.2960    7.3990 O   0  0  0  0  0
  112.7810  -51.8420   11.4800 C   0  0  0  0  0
  111.4680  -51.0470   11.5460 C   0  0  0  0  0
  110.3340  -48.8910   11.1990 C   0  0  0  0  0
  110.7143  -62.1179   10.7922 H   0  0  0  0  0
  115.6489  -57.1457   12.0892 H   0  0  0  0  0
  115.3313  -54.8343   11.4512 H   0  0  0  0  0
  113.8876  -55.3974   12.4020 H   0  0  0  0  0
  113.3027  -53.5073   12.6818 H   0  0  0  0  0
  111.7251  -53.6636   11.7176 H   0  0  0  0  0
  110.1922  -52.6441   12.2806 H   0  0  0  0  0
  108.1254  -51.2416   12.3719 H   0  0  0  0  0
  108.2166  -48.8410   11.6821 H   0  0  0  0  0
  112.4321  -49.2400   10.8175 H   0  0  0  0  0
  118.7876  -57.4913    8.7271 H   0  0  0  0  0
  117.4887  -56.3745    9.2133 H   0  0  0  0  0
  119.0843  -56.2801    9.9983 H   0  0  0  0  0
  115.4640  -59.5213   11.7189 H   0  0  0  0  0
  114.8720  -60.1276    9.2603 H   0  0  0  0  0
  114.0368  -58.4958    9.3372 H   0  0  0  0  0
  113.0041  -58.9259   12.4839 H   0  0  0  0  0
  112.7060  -54.6301   10.1991 H   0  0  0  0  0
  114.5718  -52.5496   10.2049 H   0  0  0  0  0
  115.1890  -54.1912    9.5754 H   0  0  0  0  0
  112.1234  -52.8386    9.0581 H   0  0  0  0  0
  113.1086  -51.7440   10.4450 H   0  0  0  0  0
  113.3913  -51.4298   12.2836 H   0  0  0  0  0
  110.3728  -47.8461   10.8913 H   0  0  0  0  0
  1 19  4  0  0  0
 20  1  4  0  0  0
  3  2  1  0  0  0
  2 15  1  0  0  0
  4  3  1  0  0  0
  3 21  2  0  0  0
 22  4  1  0  0  0
  5 22  1  0  0  0
 26  5  1  0  0  0
  6  7  4  0  0  0
 27  6  4  0  0  0
  7  8  4  0  0  0
 28  8  4  0  0  0
 27  9  4  0  0  0
  9 28  4  0  0  0
 23 10  1  0  0  0
 10 24  1  0  0  0
 10 25  2  0  0  0
 12 11  2  0  0  0
 12 13  1  0  0  0
 15 12  1  0  0  0
 13 14  1  0  0  0
 15 16  1  0  0  0
 16 17  1  0  0  0
 17 18  4  0  0  0
 17 20  4  0  0  0
 18 19  4  0  0  0
 22 23  1  0  0  0
 26 27  1  0  0  0
  1 29  1  0  0  0
  2 30  1  0  0  0
  4 31  1  0  0  0
  4 32  1  0  0  0
  5 33  1  0  0  0
  5 34  1  0  0  0
  6 35  1  0  0  0
  7 36  1  0  0  0
  8 37  1  0  0  0
  9 38  1  0  0  0
 14 39  1  0  0  0
 14 40  1  0  0  0
 14 41  1  0  0  0
 15 42  1  0  0  0
 16 43  1  0  0  0
 16 44  1  0  0  0
 18 45  1  0  0  0
 22 46  1  0  0  0
 23 47  1  0  0  0
 23 48  1  0  0  0
 24 49  1  0  0  0
 26 50  1  0  0  0
 26 51  1  0  0  0
 28 52  1  0  0  0
M  END
$$$$
