### 
### Created by X-TOOL on Mon Sep 10 21:12:55 2018
### 

@<TRIPOS>MOLECULE
2fkf_ligand
   30    30     1     0     0
SMALL
GAST_HUCK


@<TRIPOS>ATOM
      1 C1         48.7330   48.6270   18.9360 C.3       1 G16         0.2169
      2 C2         49.1270   49.9380   18.2450 C.3       1 G16         0.1384
      3 C3         48.9570   49.7970   16.7420 C.3       1 G16         0.1144
      4 C4         49.8310   48.6480   16.2770 C.3       1 G16         0.1122
      5 C5         49.4770   47.3660   17.0380 C.3       1 G16         0.1179
      6 C6         50.3780   46.1950   16.6590 C.3       1 G16         0.1071
      7 O1         47.3650   48.3050   18.7040 O.3       1 G16        -0.2426
      8 O2         48.3570   51.0310   18.7140 O.3       1 G16        -0.3838
      9 O3         49.3100   50.9960   16.0660 O.3       1 G16        -0.3864
     10 O4         49.6150   48.4810   14.8920 O.3       1 G16        -0.3865
     11 O5         49.5630   47.5790   18.4450 O.3       1 G16        -0.3366
     12 O6         51.7140   46.4670   17.0590 O.3       1 G16        -0.2734
     13 P          52.7840   45.5820   16.4620 P.3       1 G16         0.2008
     14 O1P        52.7790   45.7340   14.9730 O.co2     1 G16        -0.5537
     15 O2P        52.5560   44.1480   16.8430 O.co2     1 G16        -0.5537
     16 O3P        54.1510   46.0020   16.9460 O.co2     1 G16        -0.5537
     17 P          46.7000   47.1090   19.3520 P.3       1 G16         0.2046
     18 O1P        47.1250   47.0230   20.7930 O.co2     1 G16        -0.5536
     19 O2P        47.0480   45.8100   18.6770 O.co2     1 G16        -0.5536
     20 O3P        45.2110   47.3280   19.2680 O.co2     1 G16        -0.5536
     21 H1         48.8904   48.7354   20.0193 H         1 G16         0.0990
     22 H2         50.1857   50.1407   18.4639 H         1 G16         0.0674
     23 H3         47.9049   49.5657   16.5193 H         1 G16         0.0648
     24 H4         50.8883   48.8916   16.4580 H         1 G16         0.0647
     25 H5         48.4403   47.0983   16.7861 H         1 G16         0.0650
     26 H6         50.3459   46.0471   15.5695 H         1 G16         0.0639
     27 H7         50.0241   45.2837   17.1633 H         1 G16         0.0639
     28 H8         47.4407   50.8806   18.5135 H         1 G16         0.2101
     29 H9         48.7539   51.7043   16.3686 H         1 G16         0.2100
     30 H10        49.8397   49.2849   14.4384 H         1 G16         0.2100
@<TRIPOS>BOND
     1    1    2 1  
     2    1    7 1  
     3    1   11 1  
     4    2    3 1  
     5    2    8 1  
     6    3    4 1  
     7    3    9 1  
     8    4    5 1  
     9    4   10 1  
    10    5    6 1  
    11    5   11 1  
    12    6   12 1  
    13    7   17 1  
    14   12   13 1  
    15   13   14 ar 
    16   13   15 ar 
    17   13   16 ar 
    18   17   18 ar 
    19   17   19 ar 
    20   17   20 ar 
    21    1   21 1  
    22    2   22 1  
    23    3   23 1  
    24    4   24 1  
    25    5   25 1  
    26    6   26 1  
    27    6   27 1  
    28    8   28 1  
    29    9   29 1  
    30   10   30 1  
@<TRIPOS>SUBSTRUCTURE
     1 G16         1

