3wq5_ligand
  -I-interpret- 

 58 60  0  0  0  0  0  0  0  0999 V2000
  -29.2160   12.6310  -21.6010 C   0  0  0  0  0
  -29.0250   12.3870  -20.0990 C   0  0  0  0  0
  -30.4000   12.4930  -22.1780 N   0  0  0  0  0
  -29.8670   11.2040  -19.5670 C   0  0  0  0  0
  -30.1600   11.1540  -18.2060 C   0  0  0  0  0
  -30.9120   10.1090  -17.6760 C   0  0  0  0  0
  -31.3780    9.0980  -18.5070 C   0  0  0  0  0
  -30.3360   10.1800  -20.3920 C   0  0  0  0  0
  -31.0930    9.1370  -19.8670 C   0  0  0  0  0
  -28.1860   13.0460  -22.3220 N   0  0  0  0  0
  -28.3040   13.2750  -23.7750 C   0  0  0  0  0
  -29.7050   13.5110  -24.0840 O   0  0  0  0  0
  -27.6140   12.0670  -24.4410 C   0  0  0  0  0
  -26.2160   12.3480  -24.5870 O   0  0  0  0  0
  -28.2320   11.6960  -25.7930 C   0  0  0  0  0
  -27.8120   10.3900  -26.2050 O   0  0  0  0  0
  -29.7410   11.7190  -25.6430 C   0  0  0  0  0
  -30.3620   11.2080  -26.8180 O   0  0  0  0  0
  -30.1830   13.1470  -25.3800 C   0  0  0  0  0
  -31.6890   13.2030  -25.2670 C   0  0  0  0  0
  -31.9550   12.3800  -24.1160 O   0  0  0  0  0
  -33.3540   12.1350  -23.9520 C   0  0  0  0  0
  -33.8470   13.0020  -22.8990 O   0  0  0  0  0
  -35.2480   12.7800  -22.6310 C   0  0  0  0  0
  -35.4530   11.3370  -22.1710 C   0  0  0  0  0
  -36.8260   11.1070  -21.8490 O   0  0  0  0  0
  -35.0110   10.4020  -23.2890 C   0  0  0  0  0
  -35.2040    9.0470  -22.8960 O   0  0  0  0  0
  -33.5390   10.6630  -23.5750 C   0  0  0  0  0
  -33.0660    9.8090  -24.6250 O   0  0  0  0  0
  -29.3462   13.2861  -19.5731 H   0  0  0  0  0
  -27.9746   12.1483  -19.9324 H   0  0  0  0  0
  -30.5122   12.7058  -23.1692 H   0  0  0  0  0
  -29.7960   11.9429  -17.5478 H   0  0  0  0  0
  -31.1350   10.0841  -16.6094 H   0  0  0  0  0
  -31.9648    8.2774  -18.0942 H   0  0  0  0  0
  -30.1070   10.1977  -21.4575 H   0  0  0  0  0
  -31.4631    8.3493  -20.5233 H   0  0  0  0  0
  -27.2904   13.2112  -21.8626 H   0  0  0  0  0
  -27.8051   14.1625  -24.1642 H   0  0  0  0  0
  -27.7601   11.2027  -23.7932 H   0  0  0  0  0
  -25.7817   11.5988  -25.0013 H   0  0  0  0  0
  -27.9065   12.4099  -26.5497 H   0  0  0  0  0
  -28.2106   10.1794  -27.0526 H   0  0  0  0  0
  -30.0393   11.0874  -24.8062 H   0  0  0  0  0
  -31.3156   11.2284  -26.7093 H   0  0  0  0  0
  -29.8161   13.7894  -26.1805 H   0  0  0  0  0
  -32.1947   12.8504  -26.1659 H   0  0  0  0  0
  -32.0681   14.2191  -25.1580 H   0  0  0  0  0
  -33.9072   12.3407  -24.8684 H   0  0  0  0  0
  -35.8254   12.9589  -23.5380 H   0  0  0  0  0
  -35.5822   13.4626  -21.8497 H   0  0  0  0  0
  -34.8599   11.1499  -21.2759 H   0  0  0  0  0
  -36.9383   10.1977  -21.5623 H   0  0  0  0  0
  -35.6021   10.5834  -24.1867 H   0  0  0  0  0
  -34.9228    8.4658  -23.6064 H   0  0  0  0  0
  -32.9553   10.4431  -22.6811 H   0  0  0  0  0
  -33.1903    8.8918  -24.3704 H   0  0  0  0  0
  1  2  1  0  0  0
  1  3  2  0  0  0
  1 10  1  0  0  0
  2  4  1  0  0  0
  4  5  4  0  0  0
  4  8  4  0  0  0
  5  6  4  0  0  0
  6  7  4  0  0  0
  7  9  4  0  0  0
  8  9  4  0  0  0
 10 11  1  0  0  0
 11 12  1  0  0  0
 11 13  1  0  0  0
 12 19  1  0  0  0
 13 14  1  0  0  0
 13 15  1  0  0  0
 15 16  1  0  0  0
 15 17  1  0  0  0
 17 18  1  0  0  0
 17 19  1  0  0  0
 19 20  1  0  0  0
 20 21  1  0  0  0
 21 22  1  0  0  0
 22 23  1  0  0  0
 22 29  1  0  0  0
 23 24  1  0  0  0
 24 25  1  0  0  0
 25 26  1  0  0  0
 25 27  1  0  0  0
 27 28  1  0  0  0
 27 29  1  0  0  0
 29 30  1  0  0  0
  2 31  1  0  0  0
  2 32  1  0  0  0
  3 33  1  0  0  0
  5 34  1  0  0  0
  6 35  1  0  0  0
  7 36  1  0  0  0
  8 37  1  0  0  0
  9 38  1  0  0  0
 10 39  1  0  0  0
 11 40  1  0  0  0
 13 41  1  0  0  0
 14 42  1  0  0  0
 15 43  1  0  0  0
 16 44  1  0  0  0
 17 45  1  0  0  0
 18 46  1  0  0  0
 19 47  1  0  0  0
 20 48  1  0  0  0
 20 49  1  0  0  0
 22 50  1  0  0  0
 24 51  1  0  0  0
 24 52  1  0  0  0
 25 53  1  0  0  0
 26 54  1  0  0  0
 27 55  1  0  0  0
 28 56  1  0  0  0
 29 57  1  0  0  0
 30 58  1  0  0  0
M  END
$$$$
