4bfy_ligand
  -I-interpret- 

 57 60  0  0  0  0  0  0  0  0999 V2000
  -20.7550    0.2470    8.8370 N   0  0  0  0  0
  -15.2330  -10.1580   11.0090 O   0  0  0  0  0
  -15.4350  -10.7090   13.1430 O   0  0  0  0  0
  -20.1050   -0.6530    9.1700 C   0  0  0  0  0
  -23.1080  -12.2460    8.8240 C   0  0  0  0  0
  -23.7130  -11.5330    9.8650 C   0  0  0  0  0
  -21.8680  -11.8230    8.3440 C   0  0  0  0  0
  -23.0790  -10.3870   10.3740 C   0  0  0  0  0
  -18.0300   -1.6350    9.1680 C   0  0  0  0  0
  -19.8290   -2.6900   10.2140 C   0  0  0  0  0
  -14.5310   -5.7990   10.5330 C   0  0  0  0  0
  -17.1660   -2.6790    9.5100 C   0  0  0  0  0
  -18.9590   -3.7260   10.5690 C   0  0  0  0  0
  -15.4090   -4.7650   10.1830 C   0  0  0  0  0
  -16.3070   -6.9500   11.6750 C   0  0  0  0  0
  -19.2970   -7.4670   10.0510 C   0  0  0  0  0
  -20.7230   -7.1820   12.0310 C   0  0  0  0  0
  -19.7590   -8.8920    9.9200 C   0  0  0  0  0
  -21.3780   -8.5220   11.7830 C   0  0  0  0  0
  -14.2190   -8.7750   12.6820 C   0  0  0  0  0
  -18.6370   -6.0000   11.8100 C   0  0  0  0  0
  -21.2880  -10.7310    8.8650 N   0  0  0  0  0
  -14.0800   -7.9010   11.5840 O   0  0  0  0  0
  -15.0140   -9.9700   12.2320 C   0  0  0  0  0
  -19.3520   -1.6230    9.5110 C   0  0  0  0  0
  -14.9770   -6.9010   11.2740 C   0  0  0  0  0
  -17.6120   -3.7560   10.2310 C   0  0  0  0  0
  -17.1940   -5.9190   11.3340 C   0  0  0  0  0
  -21.8480   -9.9980    9.8590 C   0  0  0  0  0
  -16.7560   -4.8130   10.5800 C   0  0  0  0  0
  -19.3320   -7.2480   11.5060 N   0  3  0  0  0
  -21.1730   -8.8420   10.3310 N   0  0  0  0  0
  -14.8105   -9.4631   10.4989 H   0  0  0  0  0
  -23.5984  -13.1194    8.3942 H   0  0  0  0  0
  -24.6666  -11.8633   10.2769 H   0  0  0  0  0
  -21.3718  -12.3782    7.5479 H   0  0  0  0  0
  -23.5496   -9.8067   11.1677 H   0  0  0  0  0
  -17.6311   -0.7929    8.6024 H   0  0  0  0  0
  -20.8806   -2.7350   10.4971 H   0  0  0  0  0
  -13.4869   -5.7453   10.2246 H   0  0  0  0  0
  -16.1222   -2.6361    9.1988 H   0  0  0  0  0
  -19.3618   -4.5591   11.1450 H   0  0  0  0  0
  -15.0454   -3.9190    9.5998 H   0  0  0  0  0
  -16.6637   -7.7978   12.2600 H   0  0  0  0  0
  -19.9228   -6.7648    9.5001 H   0  0  0  0  0
  -18.3104   -7.2985    9.6193 H   0  0  0  0  0
  -20.7134   -6.9584   13.0978 H   0  0  0  0  0
  -21.2792   -6.3912   11.5275 H   0  0  0  0  0
  -19.1726   -9.5765   10.5329 H   0  0  0  0  0
  -19.6343   -9.2774    8.9081 H   0  0  0  0  0
  -22.4400   -8.4854   12.0259 H   0  0  0  0  0
  -20.9371   -9.2922   12.4158 H   0  0  0  0  0
  -14.7315   -8.2701   13.5009 H   0  0  0  0  0
  -13.2379   -9.0894   13.0378 H   0  0  0  0  0
  -19.1791   -5.2093   11.2913 H   0  0  0  0  0
  -18.6099   -5.9173   12.8965 H   0  0  0  0  0
  -18.8731   -8.0393   11.9572 H   0  0  0  0  0
  4  1  3  0  0  0
 24  2  1  0  0  0
 24  3  2  0  0  0
 25  4  1  0  0  0
  6  5  4  0  0  0
  7  5  4  0  0  0
  8  6  4  0  0  0
 22  7  4  0  0  0
 29  8  4  0  0  0
 12  9  4  0  0  0
  9 25  4  0  0  0
 13 10  4  0  0  0
 10 25  4  0  0  0
 14 11  4  0  0  0
 26 11  4  0  0  0
 27 12  4  0  0  0
 27 13  4  0  0  0
 30 14  4  0  0  0
 15 26  4  0  0  0
 28 15  4  0  0  0
 18 16  1  0  0  0
 16 31  1  0  0  0
 19 17  1  0  0  0
 17 31  1  0  0  0
 32 18  1  0  0  0
 32 19  1  0  0  0
 23 20  1  0  0  0
 20 24  1  0  0  0
 21 28  1  0  0  0
 31 21  1  0  0  0
 29 22  4  0  0  0
 26 23  1  0  0  0
 30 27  1  0  0  0
 28 30  4  0  0  0
 29 32  1  0  0  0
  2 33  1  0  0  0
  5 34  1  0  0  0
  6 35  1  0  0  0
  7 36  1  0  0  0
  8 37  1  0  0  0
  9 38  1  0  0  0
 10 39  1  0  0  0
 11 40  1  0  0  0
 12 41  1  0  0  0
 13 42  1  0  0  0
 14 43  1  0  0  0
 15 44  1  0  0  0
 16 45  1  0  0  0
 16 46  1  0  0  0
 17 47  1  0  0  0
 17 48  1  0  0  0
 18 49  1  0  0  0
 18 50  1  0  0  0
 19 51  1  0  0  0
 19 52  1  0  0  0
 20 53  1  0  0  0
 20 54  1  0  0  0
 21 55  1  0  0  0
 21 56  1  0  0  0
 31 57  1  0  0  0
M  END
$$$$
