2r2l_ligand
  -I-interpret- 

 73 77  0  0  0  0  0  0  0  0999 V2000
  186.6640  131.8000   36.2340 C   0  0  0  0  0
  187.7640  131.0960   35.6810 C   0  0  0  0  0
  187.5940  130.0470   34.7140 C   0  0  0  0  0
  186.2700  129.6830   34.3650 C   0  0  0  0  0
  185.1680  130.4420   34.8790 C   0  0  0  0  0
  185.3690  131.4820   35.8230 C   0  0  0  0  0
  188.6980  129.3870   34.1280 N   0  0  0  0  0
  188.5300  128.2550   33.1950 C   0  0  0  0  0
  187.1690  128.1630   32.5140 C   0  0  0  0  0
  185.9990  128.4760   33.4770 C   0  0  0  0  0
  184.2420  132.1770   36.3980 C   0  0  0  0  0
  183.3530  132.7170   36.9020 N   0  0  0  0  0
  187.0000  126.8920   31.6960 N   0  0  0  0  0
  187.2470  125.1880   32.2830 S   0  0  0  0  0
  188.9270  125.0580   32.8180 C   0  0  0  0  0
  187.1010  124.3280   31.1440 O   0  0  0  0  0
  186.3640  125.0400   33.4030 O   0  0  0  0  0
  189.1920  124.7230   34.1060 N   0  0  0  0  0
  190.4790  124.7730   34.5510 C   0  0  0  0  0
  191.5540  125.1900   33.7220 C   0  0  0  0  0
  191.2690  125.4490   32.3590 C   0  0  0  0  0
  189.9400  125.3670   31.8940 C   0  0  0  0  0
  186.6910  127.1240   30.2910 C   0  0  0  0  0
  185.3940  126.5740   29.7420 C   0  0  0  0  0
  184.1100  127.1950   30.3450 C   0  0  0  0  0
  182.8410  126.7600   29.5750 C   0  0  0  0  0
  183.0330  126.8530   28.1100 N   0  0  0  0  0
  184.2450  126.2290   27.5610 C   0  0  0  0  0
  185.4700  126.8030   28.2350 C   0  0  0  0  0
  182.1530  127.5020   27.2830 C   0  0  0  0  0
  182.4790  127.5380   25.9860 O   0  0  0  0  0
  181.1580  128.0180   27.7060 O   0  0  0  0  0
  181.4400  127.7420   25.0300 C   0  0  0  0  0
  190.1030  129.7490   34.4270 C   0  0  0  0  0
  190.7180  128.8380   35.5140 C   0  0  0  0  0
  190.0940  127.9250   36.3130 C   0  0  0  0  0
  191.0670  127.3020   37.2180 N   0  0  0  0  0
  192.2470  127.8740   36.9130 C   0  0  0  0  0
  192.1390  128.7980   35.9150 N   0  0  0  0  0
  193.1990  129.6470   35.3360 C   0  0  0  0  0
  186.8288  132.5831   36.9740 H   0  0  0  0  0
  188.7723  131.3596   36.0003 H   0  0  0  0  0
  184.1575  130.2161   34.5385 H   0  0  0  0  0
  188.6438  127.3461   33.7857 H   0  0  0  0  0
  189.2652  128.3940   32.4024 H   0  0  0  0  0
  187.1336  128.9620   31.7734 H   0  0  0  0  0
  185.1199  128.6981   32.8721 H   0  0  0  0  0
  185.8599  127.6104   34.1247 H   0  0  0  0  0
  190.6909  124.4826   35.5800 H   0  0  0  0  0
  192.5619  125.3065   34.1202 H   0  0  0  0  0
  192.0738  125.7107   31.6720 H   0  0  0  0  0
  189.7043  125.5390   30.8438 H   0  0  0  0  0
  187.4771  126.6118   29.7363 H   0  0  0  0  0
  186.6087  128.2062   30.1905 H   0  0  0  0  0
  185.3038  125.5219   30.0122 H   0  0  0  0  0
  184.1930  128.2800   30.2810 H   0  0  0  0  0
  184.0175  126.8537   31.3760 H   0  0  0  0  0
  182.0229  127.4226   29.8576 H   0  0  0  0  0
  182.6235  125.7224   29.8284 H   0  0  0  0  0
  184.2978  126.4271   26.4904 H   0  0  0  0  0
  184.2077  125.1542   27.7383 H   0  0  0  0  0
  186.3591  126.3096   27.8422 H   0  0  0  0  0
  185.5187  127.8739   28.0375 H   0  0  0  0  0
  180.7091  126.9376   25.1125 H   0  0  0  0  0
  180.9533  128.6981   25.2227 H   0  0  0  0  0
  181.8665  127.7456   24.0269 H   0  0  0  0  0
  190.1195  130.7754   34.7936 H   0  0  0  0  0
  190.6866  129.6313   33.5140 H   0  0  0  0  0
  189.0295  127.6925   36.2835 H   0  0  0  0  0
  193.1855  127.6261   37.4089 H   0  0  0  0  0
  193.2704  129.4571   34.2650 H   0  0  0  0  0
  192.9554  130.6959   35.5049 H   0  0  0  0  0
  194.1511  129.4126   35.8121 H   0  0  0  0  0
  1  2  4  0  0  0
  1  6  4  0  0  0
  2  3  4  0  0  0
  3  4  4  0  0  0
  3  7  1  0  0  0
  4  5  4  0  0  0
  4 10  1  0  0  0
  5  6  4  0  0  0
  6 11  1  0  0  0
  7  8  1  0  0  0
  7 34  1  0  0  0
  8  9  1  0  0  0
  9 10  1  0  0  0
  9 13  1  0  0  0
 11 12  3  0  0  0
 13 14  1  0  0  0
 13 23  1  0  0  0
 14 15  1  0  0  0
 14 16  2  0  0  0
 14 17  2  0  0  0
 15 18  4  0  0  0
 15 22  4  0  0  0
 18 19  4  0  0  0
 19 20  4  0  0  0
 20 21  4  0  0  0
 21 22  4  0  0  0
 23 24  1  0  0  0
 24 25  1  0  0  0
 24 29  1  0  0  0
 25 26  1  0  0  0
 26 27  1  0  0  0
 27 28  1  0  0  0
 27 30  1  0  0  0
 28 29  1  0  0  0
 30 31  1  0  0  0
 30 32  2  0  0  0
 31 33  1  0  0  0
 34 35  1  0  0  0
 35 36  4  0  0  0
 35 39  4  0  0  0
 36 37  4  0  0  0
 37 38  4  0  0  0
 38 39  4  0  0  0
 39 40  1  0  0  0
  1 41  1  0  0  0
  2 42  1  0  0  0
  5 43  1  0  0  0
  8 44  1  0  0  0
  8 45  1  0  0  0
  9 46  1  0  0  0
 10 47  1  0  0  0
 10 48  1  0  0  0
 19 49  1  0  0  0
 20 50  1  0  0  0
 21 51  1  0  0  0
 22 52  1  0  0  0
 23 53  1  0  0  0
 23 54  1  0  0  0
 24 55  1  0  0  0
 25 56  1  0  0  0
 25 57  1  0  0  0
 26 58  1  0  0  0
 26 59  1  0  0  0
 28 60  1  0  0  0
 28 61  1  0  0  0
 29 62  1  0  0  0
 29 63  1  0  0  0
 33 64  1  0  0  0
 33 65  1  0  0  0
 33 66  1  0  0  0
 34 67  1  0  0  0
 34 68  1  0  0  0
 36 69  1  0  0  0
 38 70  1  0  0  0
 40 71  1  0  0  0
 40 72  1  0  0  0
 40 73  1  0  0  0
M  END
$$$$
