### 
### Created by X-TOOL on Mon Sep 10 21:13:18 2018
### 

@<TRIPOS>MOLECULE
4o2f_ligand
  120   120     1     0     0
SMALL
GAST_HUCK


@<TRIPOS>ATOM
      1 N          28.6530  -17.8990   -4.6320 N.4       1 HIS         0.2390
      2 CA         27.2160  -18.1510   -4.6240 C.3       1 HIS         0.0708
      3 C          26.5760  -17.5630   -3.3780 C.2       1 HIS         0.2282
      4 O          27.2140  -17.4780   -2.3270 O.2       1 HIS        -0.3906
      5 CB         26.9300  -19.6550   -4.6810 C.3       1 HIS         0.0347
      6 CG         27.3280  -20.2990   -5.9730 C.2       1 HIS         0.0005
      7 ND1        28.6200  -20.6880   -6.2430 N.2       1 HIS        -0.3251
      8 CD2        26.5970  -20.6240   -7.0680 C.2       1 HIS         0.0293
      9 CE1        28.6720  -21.2240   -7.4540 C.2       1 HIS         0.0907
     10 NE2        27.4590  -21.1980   -7.9710 N.pl3     1 HIS        -0.2752
     11 N          25.3130  -17.1590   -3.4960 N.am      1 VAL        -0.2606
     12 CA         24.5730  -16.6640   -2.3420 C.3       1 VAL         0.1334
     13 C          24.0590  -17.8510   -1.5360 C.2       1 VAL         0.2041
     14 O          23.5100  -18.8010   -2.0920 O.2       1 VAL        -0.3944
     15 CB         23.4150  -15.7450   -2.7480 C.3       1 VAL        -0.0063
     16 CG1        22.4110  -16.4910   -3.6250 C.3       1 VAL        -0.0584
     17 CG2        22.7330  -15.1710   -1.5150 C.3       1 VAL        -0.0584
     18 N          24.2490  -17.7980   -0.2220 N.am      1 ALA        -0.2640
     19 CA         23.8490  -18.8990    0.6490 C.3       1 ALA         0.1282
     20 C          22.4670  -18.6530    1.2430 C.2       1 ALA         0.2036
     21 O          22.2720  -18.7710    2.4520 O.2       1 ALA        -0.3944
     22 CB         24.8750  -19.1090    1.7490 C.3       1 ALA        -0.0244
     23 N          21.5140  -18.3080    0.3830 N.am      1 VAL        -0.2635
     24 CA         20.1400  -18.0750    0.8100 C.3       1 VAL         0.1332
     25 C          19.2250  -19.0910    0.1400 C.2       1 VAL         0.2042
     26 O          19.2160  -19.2150   -1.0870 O.2       1 VAL        -0.3944
     27 CB         19.6840  -16.6390    0.5020 C.3       1 VAL        -0.0063
     28 CG1        18.2290  -16.4510    0.8900 C.3       1 VAL        -0.0584
     29 CG2        20.5590  -15.6420    1.2400 C.3       1 VAL        -0.0584
     30 N          18.4450  -19.8390    0.8740 N.am      1 GLU        -0.2636
     31 CA         17.7590  -20.9990    0.3600 C.3       1 GLU         0.1325
     32 C          16.2780  -20.8910    0.4840 C.2       1 GLU         0.2041
     33 O          15.7400  -20.9850    1.5380 O.2       1 GLU        -0.3944
     34 CB         18.2370  -22.2530    1.0870 C.3       1 GLU        -0.0008
     35 CG         17.1830  -22.9390    1.8830 C.3       1 GLU         0.0044
     36 CD         17.1330  -24.4360    1.6710 C.2       1 GLU         0.0350
     37 OE1        17.8440  -25.1690    2.3790 O.co2     1 GLU        -0.5690
     38 OE2        16.3490  -24.8900    0.8210 O.co2     1 GLU        -0.5690
     39 N          15.6260  -20.7110   -0.6320 N.am      1 ASN        -0.2616
     40 CA         14.1750  -20.5580   -0.7090 C.3       1 ASN         0.1476
     41 C          13.5680  -21.1220   -1.9910 C.2       1 ASN         0.2062
     42 O          13.7760  -20.5870   -3.0790 O.2       1 ASN        -0.3942
     43 CB         13.7890  -19.0860   -0.5640 C.3       1 ASN         0.0773
     44 CG         14.3920  -18.4460    0.6690 C.2       1 ASN         0.1780
     45 OD1        13.8810  -18.6030    1.7790 O.2       1 ASN        -0.3970
     46 ND2        15.4930  -17.7290    0.4830 N.am      1 ASN        -0.3007
     47 N          12.8050  -22.2010   -1.8560 N.am      1 ALA        -0.2639
     48 CA         12.1130  -22.7790   -3.0020 C.3       1 ALA         0.1282
     49 C          11.0330  -21.8290   -3.5090 C.2       1 ALA         0.2031
     50 O          10.4260  -21.0950   -2.7280 O.2       1 ALA        -0.3944
     51 CB         11.5120  -24.1240   -2.6380 C.3       1 ALA        -0.0244
     52 N          10.7990  -21.8400   -4.8180 N.am      1 LEU        -0.2695
     53 CA          9.7140  -21.0590   -5.3960 C.3       1 LEU         0.0946
     54 C           8.3710  -21.6370   -4.9650 C.2       1 LEU         0.0601
     55 O           7.3230  -21.0090   -5.1150 O.co2     1 LEU        -0.5666
     56 CB          9.8070  -21.0350   -6.9230 C.3       1 LEU        -0.0156
     57 CG         10.8330  -20.0920   -7.5540 C.3       1 LEU        -0.0431
     58 CD1        12.2540  -20.4890   -7.1720 C.3       1 LEU        -0.0625
     59 CD2        10.6730  -20.0660   -9.0680 C.3       1 LEU        -0.0625
     60 OXT         8.3120  -22.7570   -4.4600 O.co2     1 LEU        -0.5666
     61 H          29.0591  -18.2959   -5.4648 H         1 HIS         0.2016
     62 H          29.0729  -18.3220   -3.8191 H         1 HIS         0.2016
     63 H          28.8199  -16.9050   -4.6177 H         1 HIS         0.2016
     64 H          26.7723  -17.6725   -5.5095 H         1 HIS         0.1116
     65 H          25.8505  -19.8082   -4.5357 H         1 HIS         0.0453
     66 H          27.4829  -20.1440   -3.8654 H         1 HIS         0.0453
     67 H          25.5291  -20.4609   -7.2056 H         1 HIS         0.0729
     68 H          29.5637  -21.6184   -7.9391 H         1 HIS         0.1199
     69 H          27.1993  -21.5515   -8.9029 H         1 HIS         0.2361
     70 H          24.8654  -17.1957   -4.3895 H         1 VAL         0.1885
     71 H          25.2628  -16.0835   -1.7118 H         1 VAL         0.0802
     72 H          23.8275  -14.9099   -3.3332 H         1 VAL         0.0343
     73 H          21.5913  -15.8121   -3.9027 H         1 VAL         0.0234
     74 H          22.0043  -17.3485   -3.0688 H         1 VAL         0.0234
     75 H          22.9143  -16.8495   -4.5350 H         1 VAL         0.0234
     76 H          23.4742  -14.6395   -0.9001 H         1 VAL         0.0234
     77 H          22.2880  -15.9881   -0.9282 H         1 VAL         0.0234
     78 H          21.9438  -14.4703   -1.8252 H         1 VAL         0.0234
     79 H          24.6750  -16.9868    0.1787 H         1 ALA         0.1883
     80 H          23.8025  -19.8156    0.0427 H         1 ALA         0.0797
     81 H          24.5562  -19.9414    2.3936 H         1 ALA         0.0277
     82 H          24.9610  -18.1919    2.3502 H         1 ALA         0.0277
     83 H          25.8508  -19.3460    1.2999 H         1 ALA         0.0277
     84 H          21.7463  -18.2054   -0.5842 H         1 VAL         0.1883
     85 H          20.0867  -18.2224    1.8988 H         1 VAL         0.0802
     86 H          19.7846  -16.4626   -0.5791 H         1 VAL         0.0343
     87 H          17.9194  -15.4201    0.6634 H         1 VAL         0.0234
     88 H          18.1090  -16.6416    1.9667 H         1 VAL         0.0234
     89 H          17.6039  -17.1550    0.3211 H         1 VAL         0.0234
     90 H          21.6094  -15.7902    0.9490 H         1 VAL         0.0234
     91 H          20.4540  -15.7942    2.3243 H         1 VAL         0.0234
     92 H          20.2478  -14.6191    0.9814 H         1 VAL         0.0234
     93 H          18.3178  -19.5963    1.8357 H         1 GLU         0.1883
     94 H          18.0069  -21.0952   -0.7074 H         1 GLU         0.0801
     95 H          19.0516  -21.9667    1.7685 H         1 GLU         0.0330
     96 H          18.6182  -22.9617    0.3371 H         1 GLU         0.0330
     97 H          16.2069  -22.5166    1.6025 H         1 GLU         0.0433
     98 H          17.3733  -22.7462    2.9491 H         1 GLU         0.0433
     99 H          16.1495  -20.6758   -1.4833 H         1 ASN         0.1885
    100 H          13.7402  -21.1123    0.1358 H         1 ASN         0.0826
    101 H          12.6933  -19.0136   -0.4987 H         1 ASN         0.0551
    102 H          14.1403  -18.5402   -1.4521 H         1 ASN         0.0551
    103 H          15.9362  -17.2825    1.2603 H         1 ASN         0.1814
    104 H          15.8795  -17.6352   -0.4345 H         1 ASN         0.1814
    105 H          12.7037  -22.6231   -0.9551 H         1 ALA         0.1883
    106 H          12.8455  -22.9333   -3.8080 H         1 ALA         0.0797
    107 H          10.9951  -24.5436   -3.5136 H         1 ALA         0.0277
    108 H          10.7933  -23.9940   -1.8155 H         1 ALA         0.0277
    109 H          12.3119  -24.8094   -2.3212 H         1 ALA         0.0277
    110 H          11.3781  -22.3942   -5.4159 H         1 LEU         0.1875
    111 H           9.7901  -20.0263   -5.0249 H         1 LEU         0.0726
    112 H           8.8170  -20.7503   -7.3088 H         1 LEU         0.0308
    113 H          10.0501  -22.0554   -7.2543 H         1 LEU         0.0308
    114 H          10.6467  -19.0779   -7.1707 H         1 LEU         0.0297
    115 H          12.9671  -19.7941   -7.6397 H         1 LEU         0.0232
    116 H          12.4556  -21.5120   -7.5223 H         1 LEU         0.0232
    117 H          12.3650  -20.4473   -6.0784 H         1 LEU         0.0232
    118 H           9.6425  -19.7778   -9.3229 H         1 LEU         0.0232
    119 H          10.8860  -21.0649   -9.4765 H         1 LEU         0.0232
    120 H          11.3748  -19.3365   -9.4984 H         1 LEU         0.0232
@<TRIPOS>BOND
     1    1    2 1  
     2    2    3 1  
     3    2    5 1  
     4    3    4 2  
     5    3   11 am 
     6    5    6 1  
     7    6    7 1  
     8    6    8 2  
     9    7    9 2  
    10    8   10 1  
    11    9   10 1  
    12   11   12 1  
    13   12   13 1  
    14   12   15 1  
    15   13   14 2  
    16   13   18 am 
    17   15   16 1  
    18   15   17 1  
    19   18   19 1  
    20   19   20 1  
    21   19   22 1  
    22   20   21 2  
    23   20   23 am 
    24   23   24 1  
    25   24   25 1  
    26   24   27 1  
    27   25   26 2  
    28   25   30 am 
    29   27   28 1  
    30   27   29 1  
    31   30   31 1  
    32   31   32 1  
    33   31   34 1  
    34   32   33 2  
    35   32   39 am 
    36   34   35 1  
    37   35   36 1  
    38   36   37 ar 
    39   36   38 ar 
    40   39   40 1  
    41   40   41 1  
    42   40   43 1  
    43   41   42 2  
    44   41   47 am 
    45   43   44 1  
    46   44   45 2  
    47   44   46 am 
    48   47   48 1  
    49   48   49 1  
    50   48   51 1  
    51   49   50 2  
    52   49   52 am 
    53   52   53 1  
    54   53   54 1  
    55   53   56 1  
    56   54   55 ar 
    57   54   60 ar 
    58   56   57 1  
    59   57   58 1  
    60   57   59 1  
    61    1   61 1  
    62    1   62 1  
    63    1   63 1  
    64    2   64 1  
    65    5   65 1  
    66    5   66 1  
    67    8   67 1  
    68    9   68 1  
    69   10   69 1  
    70   11   70 1  
    71   12   71 1  
    72   15   72 1  
    73   16   73 1  
    74   16   74 1  
    75   16   75 1  
    76   17   76 1  
    77   17   77 1  
    78   17   78 1  
    79   18   79 1  
    80   19   80 1  
    81   22   81 1  
    82   22   82 1  
    83   22   83 1  
    84   23   84 1  
    85   24   85 1  
    86   27   86 1  
    87   28   87 1  
    88   28   88 1  
    89   28   89 1  
    90   29   90 1  
    91   29   91 1  
    92   29   92 1  
    93   30   93 1  
    94   31   94 1  
    95   34   95 1  
    96   34   96 1  
    97   35   97 1  
    98   35   98 1  
    99   39   99 1  
   100   40  100 1  
   101   43  101 1  
   102   43  102 1  
   103   46  103 1  
   104   46  104 1  
   105   47  105 1  
   106   48  106 1  
   107   51  107 1  
   108   51  108 1  
   109   51  109 1  
   110   52  110 1  
   111   53  111 1  
   112   56  112 1  
   113   56  113 1  
   114   57  114 1  
   115   58  115 1  
   116   58  116 1  
   117   58  117 1  
   118   59  118 1  
   119   59  119 1  
   120   59  120 1  
@<TRIPOS>SUBSTRUCTURE
     1 HIS         1

