4o2f_ligand
  -I-interpret- 

121121  0  0  0  0  0  0  0  0999 V2000
   28.6530  -17.8990   -4.6320 N   0  3  0  0  0
   27.2160  -18.1510   -4.6240 C   0  0  0  0  0
   26.5760  -17.5630   -3.3780 C   0  0  0  0  0
   27.2140  -17.4780   -2.3270 O   0  0  0  0  0
   26.9300  -19.6550   -4.6810 C   0  0  0  0  0
   27.3280  -20.2990   -5.9730 C   0  0  0  0  0
   28.6200  -20.6880   -6.2430 N   0  0  0  0  0
   26.5970  -20.6240   -7.0680 C   0  0  0  0  0
   28.6720  -21.2240   -7.4540 C   0  0  0  0  0
   27.4590  -21.1980   -7.9710 N   0  0  0  0  0
   25.3130  -17.1590   -3.4960 N   0  0  0  0  0
   24.5730  -16.6640   -2.3420 C   0  0  0  0  0
   24.0590  -17.8510   -1.5360 C   0  0  0  0  0
   23.5100  -18.8010   -2.0920 O   0  0  0  0  0
   23.4150  -15.7450   -2.7480 C   0  0  0  0  0
   22.4110  -16.4910   -3.6250 C   0  0  0  0  0
   22.7330  -15.1710   -1.5150 C   0  0  0  0  0
   24.2490  -17.7980   -0.2220 N   0  0  0  0  0
   23.8490  -18.8990    0.6490 C   0  0  0  0  0
   22.4670  -18.6530    1.2430 C   0  0  0  0  0
   22.2720  -18.7710    2.4520 O   0  0  0  0  0
   24.8750  -19.1090    1.7490 C   0  0  0  0  0
   21.5140  -18.3080    0.3830 N   0  0  0  0  0
   20.1400  -18.0750    0.8100 C   0  0  0  0  0
   19.2250  -19.0910    0.1400 C   0  0  0  0  0
   19.2160  -19.2150   -1.0870 O   0  0  0  0  0
   19.6840  -16.6390    0.5020 C   0  0  0  0  0
   18.2290  -16.4510    0.8900 C   0  0  0  0  0
   20.5590  -15.6420    1.2400 C   0  0  0  0  0
   18.4450  -19.8390    0.8740 N   0  0  0  0  0
   17.7590  -20.9990    0.3600 C   0  0  0  0  0
   16.2780  -20.8910    0.4840 C   0  0  0  0  0
   15.7400  -20.9850    1.5380 O   0  0  0  0  0
   18.2370  -22.2530    1.0870 C   0  0  0  0  0
   17.1830  -22.9390    1.8830 C   0  0  0  0  0
   17.1330  -24.4360    1.6710 C   0  0  0  0  0
   17.8440  -25.1690    2.3790 O   0  0  0  0  0
   16.3490  -24.8900    0.8210 O   0  0  0  0  0
   15.6260  -20.7110   -0.6320 N   0  0  0  0  0
   14.1750  -20.5580   -0.7090 C   0  0  0  0  0
   13.5680  -21.1220   -1.9910 C   0  0  0  0  0
   13.7760  -20.5870   -3.0790 O   0  0  0  0  0
   13.7890  -19.0860   -0.5640 C   0  0  0  0  0
   14.3920  -18.4460    0.6690 C   0  0  0  0  0
   13.8810  -18.6030    1.7790 O   0  0  0  0  0
   15.4930  -17.7290    0.4830 N   0  0  0  0  0
   12.8050  -22.2010   -1.8560 N   0  0  0  0  0
   12.1130  -22.7790   -3.0020 C   0  0  0  0  0
   11.0330  -21.8290   -3.5090 C   0  0  0  0  0
   10.4260  -21.0950   -2.7280 O   0  0  0  0  0
   11.5120  -24.1240   -2.6380 C   0  0  0  0  0
   10.7990  -21.8400   -4.8180 N   0  0  0  0  0
    9.7140  -21.0590   -5.3960 C   0  0  0  0  0
    8.3710  -21.6370   -4.9650 C   0  0  0  0  0
    7.3230  -21.0090   -5.1150 O   0  0  0  0  0
    9.8070  -21.0350   -6.9230 C   0  0  0  0  0
   10.8330  -20.0920   -7.5540 C   0  0  0  0  0
   12.2540  -20.4890   -7.1720 C   0  0  0  0  0
   10.6730  -20.0660   -9.0680 C   0  0  0  0  0
    8.3120  -22.7570   -4.4600 O   0  0  0  0  0
   28.8209  -16.8936   -4.5936 H   0  0  0  0  0
   29.0801  -18.3474   -3.8215 H   0  0  0  0  0
   29.0591  -18.2803   -5.4864 H   0  0  0  0  0
   26.7887  -17.6727   -5.5053 H   0  0  0  0  0
   25.8533  -19.7849   -4.5719 H   0  0  0  0  0
   27.5135  -20.1264   -3.8902 H   0  0  0  0  0
   25.5281  -20.4608   -7.2057 H   0  0  0  0  0
   29.5645  -21.6187   -7.9395 H   0  0  0  0  0
   24.8565  -17.1964   -4.4074 H   0  0  0  0  0
   25.2488  -16.0643   -1.7322 H   0  0  0  0  0
   23.8222  -14.9187   -3.3308 H   0  0  0  0  0
   22.9110  -16.8458   -4.5263 H   0  0  0  0  0
   22.0089  -17.3404   -3.0728 H   0  0  0  0  0
   21.5993  -15.8173   -3.8995 H   0  0  0  0  0
   22.3424  -15.9856   -0.9051 H   0  0  0  0  0
   23.4558  -14.5962   -0.9360 H   0  0  0  0  0
   21.9139  -14.5214   -1.8237 H   0  0  0  0  0
   24.6835  -16.9706    0.1867 H   0  0  0  0  0
   23.7990  -19.8055    0.0458 H   0  0  0  0  0
   25.8414  -19.3437    1.3027 H   0  0  0  0  0
   24.9593  -18.1996    2.3439 H   0  0  0  0  0
   24.5581  -19.9340    2.3870 H   0  0  0  0  0
   21.7509  -18.2034   -0.6036 H   0  0  0  0  0
   20.0876  -18.1986    1.8917 H   0  0  0  0  0
   19.7816  -16.4649   -0.5696 H   0  0  0  0  0
   17.6107  -17.1491    0.3257 H   0  0  0  0  0
   18.1115  -16.6402    1.9570 H   0  0  0  0  0
   17.9234  -15.4292    0.6650 H   0  0  0  0  0
   20.4836  -15.8188    2.3129 H   0  0  0  0  0
   21.5945  -15.7643    0.9222 H   0  0  0  0  0
   20.2251  -14.6296    1.0129 H   0  0  0  0  0
   18.3152  -19.5915    1.8550 H   0  0  0  0  0
   17.9968  -21.0629   -0.7018 H   0  0  0  0  0
   19.0146  -21.9423    1.7848 H   0  0  0  0  0
   18.5727  -22.9568    0.3254 H   0  0  0  0  0
   16.2219  -22.5341    1.5661 H   0  0  0  0  0
   17.4082  -22.7677    2.9356 H   0  0  0  0  0
   18.3746  -24.6267    2.9672 H   0  0  0  0  0
   16.1600  -20.6751   -1.5003 H   0  0  0  0  0
   13.7661  -21.1407    0.1164 H   0  0  0  0  0
   12.7041  -19.0304   -0.4749 H   0  0  0  0  0
   14.1647  -18.5526   -1.4372 H   0  0  0  0  0
   15.9504  -17.2815    1.2773 H   0  0  0  0  0
   15.8819  -17.6254   -0.4543 H   0  0  0  0  0
   12.7017  -22.6316   -0.9371 H   0  0  0  0  0
   12.8385  -22.9322   -3.8009 H   0  0  0  0  0
   12.3056  -24.8022   -2.3242 H   0  0  0  0  0
   10.8001  -23.9938   -1.8229 H   0  0  0  0  0
   11.0001  -24.5388   -3.5064 H   0  0  0  0  0
   11.3897  -22.4053   -5.4279 H   0  0  0  0  0
    9.7998  -20.0346   -5.0335 H   0  0  0  0  0
    7.5156  -20.1586   -5.5166 H   0  0  0  0  0
    8.8348  -20.6853   -7.2704 H   0  0  0  0  0
   10.1143  -22.0395   -7.2138 H   0  0  0  0  0
   10.6504  -19.0892   -7.1678 H   0  0  0  0  0
   12.3626  -20.4473   -6.0882 H   0  0  0  0  0
   12.4525  -21.5028   -7.5196 H   0  0  0  0  0
   12.9596  -19.7998   -7.6360 H   0  0  0  0  0
   10.8226  -21.0700   -9.4652 H   0  0  0  0  0
    9.6707  -19.7197   -9.3203 H   0  0  0  0  0
   11.4115  -19.3898   -9.4986 H   0  0  0  0  0
  1  2  1  0  0  0
  2  3  1  0  0  0
  2  5  1  0  0  0
  3  4  2  0  0  0
  3 11  1  0  0  0
  5  6  1  0  0  0
  6  7  4  0  0  0
  6  8  4  0  0  0
  7  9  4  0  0  0
  8 10  4  0  0  0
  9 10  4  0  0  0
 11 12  1  0  0  0
 12 13  1  0  0  0
 12 15  1  0  0  0
 13 14  2  0  0  0
 13 18  1  0  0  0
 15 16  1  0  0  0
 15 17  1  0  0  0
 18 19  1  0  0  0
 19 20  1  0  0  0
 19 22  1  0  0  0
 20 21  2  0  0  0
 20 23  1  0  0  0
 23 24  1  0  0  0
 24 25  1  0  0  0
 24 27  1  0  0  0
 25 26  2  0  0  0
 25 30  1  0  0  0
 27 28  1  0  0  0
 27 29  1  0  0  0
 30 31  1  0  0  0
 31 32  1  0  0  0
 31 34  1  0  0  0
 32 33  2  0  0  0
 32 39  1  0  0  0
 34 35  1  0  0  0
 35 36  1  0  0  0
 36 37  1  0  0  0
 36 38  2  0  0  0
 39 40  1  0  0  0
 40 41  1  0  0  0
 40 43  1  0  0  0
 41 42  2  0  0  0
 41 47  1  0  0  0
 43 44  1  0  0  0
 44 45  2  0  0  0
 44 46  1  0  0  0
 47 48  1  0  0  0
 48 49  1  0  0  0
 48 51  1  0  0  0
 49 50  2  0  0  0
 49 52  1  0  0  0
 52 53  1  0  0  0
 53 54  1  0  0  0
 53 56  1  0  0  0
 54 55  1  0  0  0
 54 60  2  0  0  0
 56 57  1  0  0  0
 57 58  1  0  0  0
 57 59  1  0  0  0
  1 61  1  0  0  0
  1 62  1  0  0  0
  1 63  1  0  0  0
  2 64  1  0  0  0
  5 65  1  0  0  0
  5 66  1  0  0  0
  8 67  1  0  0  0
  9 68  1  0  0  0
 11 69  1  0  0  0
 12 70  1  0  0  0
 15 71  1  0  0  0
 16 72  1  0  0  0
 16 73  1  0  0  0
 16 74  1  0  0  0
 17 75  1  0  0  0
 17 76  1  0  0  0
 17 77  1  0  0  0
 18 78  1  0  0  0
 19 79  1  0  0  0
 22 80  1  0  0  0
 22 81  1  0  0  0
 22 82  1  0  0  0
 23 83  1  0  0  0
 24 84  1  0  0  0
 27 85  1  0  0  0
 28 86  1  0  0  0
 28 87  1  0  0  0
 28 88  1  0  0  0
 29 89  1  0  0  0
 29 90  1  0  0  0
 29 91  1  0  0  0
 30 92  1  0  0  0
 31 93  1  0  0  0
 34 94  1  0  0  0
 34 95  1  0  0  0
 35 96  1  0  0  0
 35 97  1  0  0  0
 37 98  1  0  0  0
 39 99  1  0  0  0
 40100  1  0  0  0
 43101  1  0  0  0
 43102  1  0  0  0
 46103  1  0  0  0
 46104  1  0  0  0
 47105  1  0  0  0
 48106  1  0  0  0
 51107  1  0  0  0
 51108  1  0  0  0
 51109  1  0  0  0
 52110  1  0  0  0
 53111  1  0  0  0
 55112  1  0  0  0
 56113  1  0  0  0
 56114  1  0  0  0
 57115  1  0  0  0
 58116  1  0  0  0
 58117  1  0  0  0
 58118  1  0  0  0
 59119  1  0  0  0
 59120  1  0  0  0
 59121  1  0  0  0
M  END
$$$$
