3gc4_ligand
  -I-interpret- 

 47 50  0  0  0  0  0  0  0  0999 V2000
   19.1940   17.7830   18.0840 N   0  0  0  0  0
   18.4630   17.4240   19.1900 C   0  0  0  0  0
   18.7390   17.4460   20.5560 C   0  0  0  0  0
   17.6900   17.0930   21.4020 C   0  0  0  0  0
   16.4550   16.6170   20.9130 C   0  0  0  0  0
   16.2410   16.5210   19.5190 C   0  0  0  0  0
   14.9170   16.1430   18.8990 C   0  0  0  0  0
   15.0480   14.7270   18.3610 C   0  0  0  0  0
   14.1730   14.5010   17.1950 N   0  3  0  0  0
   12.7390   14.3210   17.5730 C   0  0  0  0  0
   11.9520   15.4770   17.0370 C   0  0  0  0  0
   11.7080   16.5890   17.8340 C   0  0  0  0  0
   10.9800   17.6800   17.3630 C   0  0  0  0  0
   10.4960   17.6270   16.0620 C   0  0  0  0  0
   10.7350   16.5180   15.2530 C   0  0  0  0  0
   11.4640   15.4320   15.7310 C   0  0  0  0  0
   17.2660   16.9660   18.6650 C   0  0  0  0  0
   17.2590   17.0560   17.2950 N   0  0  0  0  0
   18.3810   17.6530   16.9790 C   0  0  0  0  0
   18.9100   17.8630   15.7620 N   0  0  0  0  0
   18.0740   17.7240   14.5990 C   0  0  0  0  0
   15.4210   16.3180   21.8320 N   0  0  0  0  0
   15.5640   16.5040   23.1180 C   0  0  0  0  0
   14.6120   16.0810   24.0300 N   0  0  0  0  0
   16.7650   16.9430   23.6460 N   0  0  0  0  0
   17.8760   17.2060   22.8550 C   0  0  0  0  0
   18.9780   17.5150   23.3130 O   0  0  0  0  0
   19.7203   17.7238   20.9407 H   0  0  0  0  0
   14.6634   16.8332   18.0944 H   0  0  0  0  0
   14.1210   16.1951   19.6418 H   0  0  0  0  0
   14.7554   14.0327   19.1487 H   0  0  0  0  0
   16.0810   14.5731   18.0491 H   0  0  0  0  0
   14.4836   13.6466   16.7325 H   0  0  0  0  0
   14.2365   15.3221   16.5932 H   0  0  0  0  0
   12.6446   14.2803   18.6581 H   0  0  0  0  0
   12.3599   13.3890   17.1538 H   0  0  0  0  0
   12.0956   16.6083   18.8526 H   0  0  0  0  0
   10.7960   18.5481   17.9959 H   0  0  0  0  0
    9.9209   18.4651   15.6683 H   0  0  0  0  0
   10.3470   16.5003   14.2345 H   0  0  0  0  0
   11.6495   14.5646   15.0976 H   0  0  0  0  0
   19.8927   18.1180   15.6636 H   0  0  0  0  0
   17.6828   16.7076   14.5537 H   0  0  0  0  0
   17.2465   18.4307   14.6614 H   0  0  0  0  0
   18.6617   17.9287   13.7041 H   0  0  0  0  0
   14.5384   15.9465   21.4806 H   0  0  0  0  0
   14.8168   16.1046   25.0290 H   0  0  0  0  0
  1  2  4  0  0  0
  1 19  4  0  0  0
  2  3  4  0  0  0
  2 17  4  0  0  0
  3  4  4  0  0  0
  4  5  4  0  0  0
  4 26  1  0  0  0
  5  6  4  0  0  0
  5 22  1  0  0  0
  6  7  1  0  0  0
  6 17  4  0  0  0
  7  8  1  0  0  0
  8  9  1  0  0  0
  9 10  1  0  0  0
 10 11  1  0  0  0
 11 12  4  0  0  0
 11 16  4  0  0  0
 12 13  4  0  0  0
 13 14  4  0  0  0
 14 15  4  0  0  0
 15 16  4  0  0  0
 17 18  4  0  0  0
 18 19  4  0  0  0
 19 20  1  0  0  0
 20 21  1  0  0  0
 22 23  1  0  0  0
 23 24  2  0  0  0
 23 25  4  0  0  0
 25 26  1  0  0  0
 26 27  2  0  0  0
  3 28  1  0  0  0
  7 29  1  0  0  0
  7 30  1  0  0  0
  8 31  1  0  0  0
  8 32  1  0  0  0
  9 33  1  0  0  0
  9 34  1  0  0  0
 10 35  1  0  0  0
 10 36  1  0  0  0
 12 37  1  0  0  0
 13 38  1  0  0  0
 14 39  1  0  0  0
 15 40  1  0  0  0
 16 41  1  0  0  0
 20 42  1  0  0  0
 21 43  1  0  0  0
 21 44  1  0  0  0
 21 45  1  0  0  0
 22 46  1  0  0  0
 24 47  1  0  0  0
M  END
$$$$
