2fx9_ligand
  -I-interpret- 

279286  0  0  0  0  0  0  0  0999 V2000
   23.3590   29.9440   33.1050 N   0  3  0  0  0
   23.1470   28.5740   32.5530 C   0  0  0  0  0
   22.0890   27.8120   33.3360 C   0  0  0  0  0
   22.1930   27.6050   34.5480 O   0  0  0  0  0
   24.4590   27.7890   32.5670 C   0  0  0  0  0
   24.2960   26.3800   32.0530 C   0  0  0  0  0
   23.2650   26.0400   31.4610 O   0  0  0  0  0
   25.3120   25.5530   32.2600 N   0  0  0  0  0
   21.0380   27.3770   32.6560 N   0  0  0  0  0
   19.9610   26.6350   33.2950 C   0  0  0  0  0
   20.4560   25.3620   33.9920 C   0  0  0  0  0
   19.9430   24.9730   35.0320 O   0  0  0  0  0
   18.9140   26.2670   32.2510 C   0  0  0  0  0
   17.7130   25.5530   32.7850 C   0  0  0  0  0
   16.5740   26.1170   33.2900 C   0  0  0  0  0
   17.5020   24.1380   32.8010 C   0  0  0  0  0
   15.6630   25.1370   33.6100 N   0  0  0  0  0
   16.2080   23.9130   33.3200 C   0  0  0  0  0
   18.2830   23.0330   32.4200 C   0  0  0  0  0
   15.6690   22.6240   33.4680 C   0  0  0  0  0
   17.7460   21.7520   32.5670 C   0  0  0  0  0
   16.4500   21.5640   33.0870 C   0  0  0  0  0
   21.4570   24.6790   33.4460 N   0  0  0  0  0
   21.9620   23.4540   34.0690 C   0  0  0  0  0
   22.7560   23.7320   35.3480 C   0  0  0  0  0
   23.3150   22.8280   35.9730 O   0  0  0  0  0
   22.8350   22.6660   33.0850 C   0  0  0  0  0
   22.0720   22.0880   31.9170 C   0  0  0  0  0
   22.0650   22.7310   30.6840 C   0  0  0  0  0
   21.3560   20.9010   32.0550 C   0  0  0  0  0
   21.3610   22.2030   29.6030 C   0  0  0  0  0
   20.6420   20.3580   30.9790 C   0  0  0  0  0
   20.6450   21.0120   29.7480 C   0  0  0  0  0
   22.8190   24.9940   35.7630 N   0  0  0  0  0
   23.5330   25.3990   36.9680 C   0  0  0  0  0
   22.5910   25.7160   38.1110 C   0  0  0  0  0
   22.9810   25.7420   39.2840 O   0  0  0  0  0
   24.3670   26.6490   36.6950 C   0  0  0  0  0
   26.1080   26.3110   36.0740 S   0  0  0  0  0
   21.3270   25.9800   37.7960 N   0  0  0  0  0
   20.3350   26.3400   38.7980 C   0  0  0  0  0
   20.1840   25.3760   39.9790 C   0  0  0  0  0
   20.1170   25.8040   41.1330 O   0  0  0  0  0
   18.9580   26.5590   38.1440 C   0  0  0  0  0
   19.0340   27.7340   37.1620 C   0  0  0  0  0
   17.9190   26.8350   39.2070 C   0  0  0  0  0
   17.7710   27.9410   36.3300 C   0  0  0  0  0
   20.0980   24.0670   39.7540 N   0  0  0  0  0
   19.9580   23.1610   40.8870 C   0  0  0  0  0
   21.2310   23.2220   41.7270 C   0  0  0  0  0
   21.2050   23.1300   42.9440 O   0  0  0  0  0
   19.6800   21.7080   40.4400 C   0  0  0  0  0
   20.6680   21.2940   39.4900 O   0  0  0  0  0
   18.2870   21.6100   39.8220 C   0  0  0  0  0
   22.3820   23.3990   41.0970 N   0  0  0  0  0
   23.6370   23.5040   41.8330 C   0  0  0  0  0
   24.7940   23.6560   40.8460 C   0  0  0  0  0
   26.1180   24.1370   41.4530 C   0  0  0  0  0
   26.9320   24.8560   40.4000 C   0  0  0  0  0
   27.0560   24.0050   39.2250 N   0  0  0  0  0
   27.2650   23.6260   37.0510 O   0  0  0  0  0
   23.5750   24.7250   42.7550 C   0  0  0  0  0
   23.9190   24.6720   43.9430 O   0  0  0  0  0
   27.1650   24.4330   37.9680 C   0  0  0  0  0
   27.1640   25.9200   37.6560 C   0  0  0  0  0
   23.1190   25.8590   42.2260 N   0  0  0  0  0
   23.0290   27.0800   43.0110 C   0  0  0  0  0
   21.9650   26.9410   44.0860 C   0  0  0  0  0
   22.1340   27.4160   45.2040 O   0  0  0  0  0
   22.7270   28.2900   42.1150 C   0  0  0  0  0
   23.8050   28.5900   41.1030 C   0  0  0  0  0
   25.1540   28.4110   41.2580 C   0  0  0  0  0
   23.6270   29.1570   39.7960 C   0  0  0  0  0
   25.8240   28.8290   40.1290 N   0  0  0  0  0
   24.9110   29.2930   39.2180 C   0  0  0  0  0
   22.5050   29.5680   39.0570 C   0  0  0  0  0
   25.1060   29.8220   37.9330 C   0  0  0  0  0
   22.7000   30.0960   37.7780 C   0  0  0  0  0
   23.9930   30.2180   37.2310 C   0  0  0  0  0
   20.8430   26.2890   43.7870 N   0  0  0  0  0
   19.7880   26.1070   44.7820 C   0  0  0  0  0
   20.3050   25.2090   45.8960 C   0  0  0  0  0
   20.0370   25.4150   47.0800 O   0  0  0  0  0
   18.5510   25.4490   44.1650 C   0  0  0  0  0
   17.7310   26.2040   43.1200 C   0  0  0  0  0
   16.5830   25.3170   42.6420 C   0  0  0  0  0
   17.1960   27.5020   43.7190 C   0  0  0  0  0
   21.0520   24.1740   45.5320 N   0  0  0  0  0
   21.5990   23.2480   46.5050 C   0  0  0  0  0
   22.6090   23.9700   47.3910 C   0  0  0  0  0
   22.6520   23.7860   48.6060 O   0  0  0  0  0
   22.2840   22.0870   45.7920 C   0  0  0  0  0
   22.7590   21.0200   46.7200 C   0  0  0  0  0
   22.0140   20.0120   47.2680 C   0  0  0  0  0
   24.0890   20.8550   47.2170 C   0  0  0  0  0
   22.8040   19.2270   48.0740 N   0  0  0  0  0
   24.0820   19.7220   48.0610 C   0  0  0  0  0
   25.2880   21.5540   47.0310 C   0  0  0  0  0
   25.2280   19.2710   48.7170 C   0  0  0  0  0
   26.4290   21.1060   47.6830 C   0  0  0  0  0
   26.3890   19.9730   48.5160 C   0  0  0  0  0
   23.4520   24.8090   46.7980 N   0  0  0  0  0
   24.4520   25.5510   47.5550 C   0  0  0  0  0
   23.7710   26.5700   48.4630 C   0  0  0  0  0
   24.1250   26.7330   49.6310 O   0  0  0  0  0
   25.4100   26.2600   46.5960 C   0  0  0  0  0
   26.5420   27.0130   47.2710 C   0  0  0  0  0
   27.5050   27.5740   46.2360 C   0  0  0  0  0
   28.7320   28.2070   46.8820 C   0  0  0  0  0
   29.7710   28.5470   45.8600 N   0  3  0  0  0
   22.7670   27.2730   47.9470 N   0  0  0  0  0
   22.0410   28.2730   48.7220 C   0  0  0  0  0
   21.4070   27.6540   49.9630 C   0  0  0  0  0
   21.2780   28.2970   51.0030 O   0  0  0  0  0
   20.9560   28.9290   47.8610 C   0  0  0  0  0
   20.1490   30.0030   48.5770 C   0  0  0  0  0
   19.0210   30.5190   47.6960 C   0  0  0  0  0
   18.1960   31.5850   48.4020 C   0  0  0  0  0
   18.9660   32.8390   48.6250 N   0  3  0  0  0
   20.9890   26.3920   49.8880 N   0  0  0  0  0
   20.3850   25.7280   51.0390 C   0  0  0  0  0
   21.4750   25.0630   51.8730 C   0  0  0  0  0
   21.5280   25.1960   53.0970 O   0  0  0  0  0
   19.3650   24.6750   50.5900 C   0  0  0  0  0
   19.9590   23.4910   49.8360 C   0  0  0  0  0
   19.5420   22.1630   50.4600 C   0  0  0  0  0
   20.0960   22.0110   51.8740 C   0  0  0  0  0
   19.6890   20.7300   52.5180 N   0  3  0  0  0
   22.3740   24.3260   51.2260 N   0  0  0  0  0
   23.4660   23.6510   51.9180 C   0  0  0  0  0
   24.2870   24.6690   52.7040 C   0  0  0  0  0
   24.5580   24.4070   53.8950 O   0  0  0  0  0
   24.3540   22.9150   50.9060 C   0  0  0  0  0
   25.7150   22.4830   51.4370 C   0  0  0  0  0
   25.5960   21.5440   52.6240 C   0  0  0  0  0
   26.9710   21.2020   53.1880 C   0  0  0  0  0
   26.8950   20.3480   54.4100 N   0  3  0  0  0
   24.6480   25.7140   52.1200 O   0  0  0  0  0
   22.4768   30.4557   33.0897 H   0  0  0  0  0
   23.6962   29.8740   34.0651 H   0  0  0  0  0
   24.0485   30.4355   32.5362 H   0  0  0  0  0
   22.7973   28.6846   31.5265 H   0  0  0  0  0
   24.8054   27.7321   33.5989 H   0  0  0  0  0
   25.1657   28.3042   31.9164 H   0  0  0  0  0
   25.2627   24.5907   31.9253 H   0  0  0  0  0
   26.1427   25.8792   32.7539 H   0  0  0  0  0
   20.9821   27.5677   31.6555 H   0  0  0  0  0
   19.5308   27.2788   34.0622 H   0  0  0  0  0
   19.3962   25.5888   31.5470 H   0  0  0  0  0
   18.5580   27.2023   31.8190 H   0  0  0  0  0
   16.4117   27.1870   33.4200 H   0  0  0  0  0
   19.2866   23.1729   32.0183 H   0  0  0  0  0
   14.6675   22.4726   33.8706 H   0  0  0  0  0
   18.3384   20.8848   32.2751 H   0  0  0  0  0
   16.0592   20.5516   33.1887 H   0  0  0  0  0
   21.8797   25.0133   32.5800 H   0  0  0  0  0
   21.0887   22.8613   34.3413 H   0  0  0  0  0
   23.2689   21.8303   33.6341 H   0  0  0  0  0
   23.5724   23.3587   32.6795 H   0  0  0  0  0
   22.6184   23.6620   30.5610 H   0  0  0  0  0
   21.3513   20.3864   33.0158 H   0  0  0  0  0
   21.3691   22.7199   28.6434 H   0  0  0  0  0
   20.0867   19.4284   31.1038 H   0  0  0  0  0
   20.0928   20.5973   28.9047 H   0  0  0  0  0
   22.3462   25.7113   35.2132 H   0  0  0  0  0
   24.1671   24.5581   37.2490 H   0  0  0  0  0
   24.4654   27.1781   37.6429 H   0  0  0  0  0
   23.8540   27.2081   35.9125 H   0  0  0  0  0
   21.0424   25.9285   36.8179 H   0  0  0  0  0
   20.7256   27.2624   39.2279 H   0  0  0  0  0
   18.6718   25.6587   37.6002 H   0  0  0  0  0
   19.8445   27.5180   36.4659 H   0  0  0  0  0
   19.1794   28.6376   37.7541 H   0  0  0  0  0
   17.8626   25.9853   39.8874 H   0  0  0  0  0
   18.1989   27.7296   39.7633 H   0  0  0  0  0
   16.9490   26.9884   38.7340 H   0  0  0  0  0
   17.5745   27.0450   35.7412 H   0  0  0  0  0
   16.9279   28.1335   36.9935 H   0  0  0  0  0
   17.9120   28.7918   35.6634 H   0  0  0  0  0
   20.1296   23.7029   38.8017 H   0  0  0  0  0
   19.0994   23.4799   41.4779 H   0  0  0  0  0
   19.7272   21.0527   41.3098 H   0  0  0  0  0
   20.4892   20.3912   39.2169 H   0  0  0  0  0
   17.5419   21.9080   40.5596 H   0  0  0  0  0
   18.2276   22.2700   38.9566 H   0  0  0  0  0
   18.1007   20.5823   39.5103 H   0  0  0  0  0
   22.3913   23.4631   40.0791 H   0  0  0  0  0
   23.7937   22.6056   42.4301 H   0  0  0  0  0
   24.4894   24.4135   40.1238 H   0  0  0  0  0
   24.9829   22.6651   40.4330 H   0  0  0  0  0
   26.6801   23.2779   41.8192 H   0  0  0  0  0
   25.9102   24.8198   42.2768 H   0  0  0  0  0
   27.9229   25.0806   40.7946 H   0  0  0  0  0
   26.4348   25.7865   40.1262 H   0  0  0  0  0
   27.0597   22.9964   39.3770 H   0  0  0  0  0
   26.7290   26.4511   38.5026 H   0  0  0  0  0
   28.1911   26.2362   37.4736 H   0  0  0  0  0
   22.8265   25.8714   41.2489 H   0  0  0  0  0
   23.9937   27.2453   43.4908 H   0  0  0  0  0
   22.6435   29.1606   42.7655 H   0  0  0  0  0
   21.8173   28.0615   41.5597 H   0  0  0  0  0
   25.6295   27.9971   42.1472 H   0  0  0  0  0
   21.5018   29.4768   39.4733 H   0  0  0  0  0
   26.1049   29.9155   37.5068 H   0  0  0  0  0
   21.8381   30.4187   37.1940 H   0  0  0  0  0
   24.1127   30.6348   36.2310 H   0  0  0  0  0
   20.7178   25.9104   42.8482 H   0  0  0  0  0
   19.5101   27.0881   45.1672 H   0  0  0  0  0
   17.8673   25.3109   45.0026 H   0  0  0  0  0
   18.9390   24.5800   43.6336 H   0  0  0  0  0
   18.3623   26.4546   42.2675 H   0  0  0  0  0
   16.9885   24.4066   42.2005 H   0  0  0  0  0
   15.9474   25.0596   43.4892 H   0  0  0  0  0
   15.9968   25.8541   41.8963 H   0  0  0  0  0
   16.5631   27.2714   44.5760 H   0  0  0  0  0
   18.0316   28.1241   44.0397 H   0  0  0  0  0
   16.6126   28.0341   42.9676 H   0  0  0  0  0
   21.2465   24.0260   44.5417 H   0  0  0  0  0
   20.7876   22.8606   47.1212 H   0  0  0  0  0
   23.1571   22.4869   45.2764 H   0  0  0  0  0
   21.5534   21.6369   45.1199 H   0  0  0  0  0
   20.9500   19.8543   47.0915 H   0  0  0  0  0
   25.3248   22.4326   46.3870 H   0  0  0  0  0
   25.2015   18.3944   49.3643 H   0  0  0  0  0
   27.3695   21.6400   47.5475 H   0  0  0  0  0
   27.3020   19.6454   49.0133 H   0  0  0  0  0
   23.3977   24.9368   45.7875 H   0  0  0  0  0
   25.0191   24.8541   48.1721 H   0  0  0  0  0
   24.8224   26.9960   46.0473 H   0  0  0  0  0
   25.8674   25.4884   45.9766 H   0  0  0  0  0
   27.0838   26.3265   47.9216 H   0  0  0  0  0
   26.1229   27.8381   47.8468 H   0  0  0  0  0
   26.9837   28.3440   45.6673 H   0  0  0  0  0
   27.8391   26.7534   45.6011 H   0  0  0  0  0
   29.1594   27.4940   47.5870 H   0  0  0  0  0
   28.4252   29.1250   47.3833 H   0  0  0  0  0
   30.5768   28.9675   46.3229 H   0  0  0  0  0
   30.0607   27.6973   45.3758 H   0  0  0  0  0
   29.3812   29.2071   45.1872 H   0  0  0  0  0
   22.4958   27.1076   46.9777 H   0  0  0  0  0
   22.7563   29.0311   49.0411 H   0  0  0  0  0
   20.2578   28.1432   47.5727 H   0  0  0  0  0
   21.4604   29.4124   47.0243 H   0  0  0  0  0
   20.8114   30.8343   48.8182 H   0  0  0  0  0
   19.7169   29.5710   49.4796 H   0  0  0  0  0
   18.3653   29.6827   47.4536 H   0  0  0  0  0
   19.4595   30.9614   46.8015 H   0  0  0  0  0
   17.8983   31.1933   49.3747 H   0  0  0  0  0
   17.3388   31.8219   47.7718 H   0  0  0  0  0
   18.3735   33.5206   49.0991 H   0  0  0  0  0
   19.7827   32.6371   49.2018 H   0  0  0  0  0
   19.2677   33.2157   47.7264 H   0  0  0  0  0
   21.0926   25.8807   49.0115 H   0  0  0  0  0
   19.8660   26.4763   51.6379 H   0  0  0  0  0
   18.6765   25.1723   49.9068 H   0  0  0  0  0
   18.9036   24.2759   51.4932 H   0  0  0  0  0
   21.0456   23.5656   49.8780 H   0  0  0  0  0
   19.5951   23.5187   48.8089 H   0  0  0  0  0
   19.9368   21.3538   49.8457 H   0  0  0  0  0
   18.4536   22.1318   50.5104 H   0  0  0  0  0
   19.7013   22.8285   52.4773 H   0  0  0  0  0
   21.1840   22.0218   51.8096 H   0  0  0  0  0
   20.0854   20.6817   53.4566 H   0  0  0  0  0
   18.6715   20.6876   52.5747 H   0  0  0  0  0
   20.0326   19.9470   51.9618 H   0  0  0  0  0
   22.2970   24.2300   50.2135 H   0  0  0  0  0
   23.0526   22.9204   52.6133 H   0  0  0  0  0
   24.5420   23.6108   50.0883 H   0  0  0  0  0
   23.8231   22.0055   50.6249 H   0  0  0  0  0
   26.2506   23.3748   51.7625 H   0  0  0  0  0
   26.2386   21.9563   50.6392 H   0  0  0  0  0
   25.1132   20.6236   52.2956 H   0  0  0  0  0
   25.0106   22.0347   53.4015 H   0  0  0  0  0
   27.4626   22.1356   53.4616 H   0  0  0  0  0
   27.5177   20.6476   52.4252 H   0  0  0  0  0
   27.8381   20.1501   54.7442 H   0  0  0  0  0
   26.3723   20.8396   55.1349 H   0  0  0  0  0
   26.4228   19.4729   54.1829 H   0  0  0  0  0
   24.3276   25.7005   51.2151 H   0  0  0  0  0
  1  2  1  0  0  0
  2  3  1  0  0  0
  2  5  1  0  0  0
  3  4  2  0  0  0
  3  9  1  0  0  0
  5  6  1  0  0  0
  6  7  2  0  0  0
  6  8  1  0  0  0
  9 10  1  0  0  0
 10 11  1  0  0  0
 10 13  1  0  0  0
 11 12  2  0  0  0
 11 23  1  0  0  0
 13 14  1  0  0  0
 14 15  4  0  0  0
 14 16  4  0  0  0
 15 17  4  0  0  0
 16 18  4  0  0  0
 16 19  4  0  0  0
 17 18  4  0  0  0
 18 20  4  0  0  0
 19 21  4  0  0  0
 20 22  4  0  0  0
 21 22  4  0  0  0
 23 24  1  0  0  0
 24 25  1  0  0  0
 24 27  1  0  0  0
 25 26  2  0  0  0
 25 34  1  0  0  0
 27 28  1  0  0  0
 28 29  4  0  0  0
 28 30  4  0  0  0
 29 31  4  0  0  0
 30 32  4  0  0  0
 31 33  4  0  0  0
 32 33  4  0  0  0
 34 35  1  0  0  0
 35 36  1  0  0  0
 35 38  1  0  0  0
 36 37  2  0  0  0
 36 40  1  0  0  0
 38 39  1  0  0  0
 39 65  1  0  0  0
 40 41  1  0  0  0
 41 42  1  0  0  0
 41 44  1  0  0  0
 42 43  2  0  0  0
 42 48  1  0  0  0
 44 45  1  0  0  0
 44 46  1  0  0  0
 45 47  1  0  0  0
 48 49  1  0  0  0
 49 50  1  0  0  0
 49 52  1  0  0  0
 50 51  2  0  0  0
 50 55  1  0  0  0
 52 53  1  0  0  0
 52 54  1  0  0  0
 55 56  1  0  0  0
 56 57  1  0  0  0
 56 62  1  0  0  0
 57 58  1  0  0  0
 58 59  1  0  0  0
 59 60  1  0  0  0
 60 64  1  0  0  0
 64 61  2  0  0  0
 62 63  2  0  0  0
 62 66  1  0  0  0
 64 65  1  0  0  0
 66 67  1  0  0  0
 67 68  1  0  0  0
 67 70  1  0  0  0
 68 69  2  0  0  0
 68 80  1  0  0  0
 70 71  1  0  0  0
 71 72  4  0  0  0
 71 73  4  0  0  0
 72 74  4  0  0  0
 73 75  4  0  0  0
 73 76  4  0  0  0
 74 75  4  0  0  0
 75 77  4  0  0  0
 76 78  4  0  0  0
 77 79  4  0  0  0
 78 79  4  0  0  0
 80 81  1  0  0  0
 81 82  1  0  0  0
 81 84  1  0  0  0
 82 83  2  0  0  0
 82 88  1  0  0  0
 84 85  1  0  0  0
 85 86  1  0  0  0
 85 87  1  0  0  0
 88 89  1  0  0  0
 89 90  1  0  0  0
 89 92  1  0  0  0
 90 91  2  0  0  0
 90102  1  0  0  0
 92 93  1  0  0  0
 93 94  4  0  0  0
 93 95  4  0  0  0
 94 96  4  0  0  0
 95 97  4  0  0  0
 95 98  4  0  0  0
 96 97  4  0  0  0
 97 99  4  0  0  0
 98100  4  0  0  0
 99101  4  0  0  0
100101  4  0  0  0
102103  1  0  0  0
103104  1  0  0  0
103106  1  0  0  0
104105  2  0  0  0
104111  1  0  0  0
106107  1  0  0  0
107108  1  0  0  0
108109  1  0  0  0
109110  1  0  0  0
111112  1  0  0  0
112113  1  0  0  0
112115  1  0  0  0
113114  2  0  0  0
113120  1  0  0  0
115116  1  0  0  0
116117  1  0  0  0
117118  1  0  0  0
118119  1  0  0  0
120121  1  0  0  0
121122  1  0  0  0
121124  1  0  0  0
122123  2  0  0  0
122129  1  0  0  0
124125  1  0  0  0
125126  1  0  0  0
126127  1  0  0  0
127128  1  0  0  0
129130  1  0  0  0
130131  1  0  0  0
130133  1  0  0  0
131132  2  0  0  0
131138  1  0  0  0
133134  1  0  0  0
134135  1  0  0  0
135136  1  0  0  0
136137  1  0  0  0
  1139  1  0  0  0
  1140  1  0  0  0
  1141  1  0  0  0
  2142  1  0  0  0
  5143  1  0  0  0
  5144  1  0  0  0
  8145  1  0  0  0
  8146  1  0  0  0
  9147  1  0  0  0
 10148  1  0  0  0
 13149  1  0  0  0
 13150  1  0  0  0
 15151  1  0  0  0
 19152  1  0  0  0
 20153  1  0  0  0
 21154  1  0  0  0
 22155  1  0  0  0
 23156  1  0  0  0
 24157  1  0  0  0
 27158  1  0  0  0
 27159  1  0  0  0
 29160  1  0  0  0
 30161  1  0  0  0
 31162  1  0  0  0
 32163  1  0  0  0
 33164  1  0  0  0
 34165  1  0  0  0
 35166  1  0  0  0
 38167  1  0  0  0
 38168  1  0  0  0
 40169  1  0  0  0
 41170  1  0  0  0
 44171  1  0  0  0
 45172  1  0  0  0
 45173  1  0  0  0
 46174  1  0  0  0
 46175  1  0  0  0
 46176  1  0  0  0
 47177  1  0  0  0
 47178  1  0  0  0
 47179  1  0  0  0
 48180  1  0  0  0
 49181  1  0  0  0
 52182  1  0  0  0
 53183  1  0  0  0
 54184  1  0  0  0
 54185  1  0  0  0
 54186  1  0  0  0
 55187  1  0  0  0
 56188  1  0  0  0
 57189  1  0  0  0
 57190  1  0  0  0
 58191  1  0  0  0
 58192  1  0  0  0
 59193  1  0  0  0
 59194  1  0  0  0
 60195  1  0  0  0
 65196  1  0  0  0
 65197  1  0  0  0
 66198  1  0  0  0
 67199  1  0  0  0
 70200  1  0  0  0
 70201  1  0  0  0
 72202  1  0  0  0
 76203  1  0  0  0
 77204  1  0  0  0
 78205  1  0  0  0
 79206  1  0  0  0
 80207  1  0  0  0
 81208  1  0  0  0
 84209  1  0  0  0
 84210  1  0  0  0
 85211  1  0  0  0
 86212  1  0  0  0
 86213  1  0  0  0
 86214  1  0  0  0
 87215  1  0  0  0
 87216  1  0  0  0
 87217  1  0  0  0
 88218  1  0  0  0
 89219  1  0  0  0
 92220  1  0  0  0
 92221  1  0  0  0
 94222  1  0  0  0
 98223  1  0  0  0
 99224  1  0  0  0
100225  1  0  0  0
101226  1  0  0  0
102227  1  0  0  0
103228  1  0  0  0
106229  1  0  0  0
106230  1  0  0  0
107231  1  0  0  0
107232  1  0  0  0
108233  1  0  0  0
108234  1  0  0  0
109235  1  0  0  0
109236  1  0  0  0
110237  1  0  0  0
110238  1  0  0  0
110239  1  0  0  0
111240  1  0  0  0
112241  1  0  0  0
115242  1  0  0  0
115243  1  0  0  0
116244  1  0  0  0
116245  1  0  0  0
117246  1  0  0  0
117247  1  0  0  0
118248  1  0  0  0
118249  1  0  0  0
119250  1  0  0  0
119251  1  0  0  0
119252  1  0  0  0
120253  1  0  0  0
121254  1  0  0  0
124255  1  0  0  0
124256  1  0  0  0
125257  1  0  0  0
125258  1  0  0  0
126259  1  0  0  0
126260  1  0  0  0
127261  1  0  0  0
127262  1  0  0  0
128263  1  0  0  0
128264  1  0  0  0
128265  1  0  0  0
129266  1  0  0  0
130267  1  0  0  0
133268  1  0  0  0
133269  1  0  0  0
134270  1  0  0  0
134271  1  0  0  0
135272  1  0  0  0
135273  1  0  0  0
136274  1  0  0  0
136275  1  0  0  0
137276  1  0  0  0
137277  1  0  0  0
137278  1  0  0  0
138279  1  0  0  0
M  END
$$$$
