### 
### Created by X-TOOL on Mon Sep 10 21:12:55 2018
### 

@<TRIPOS>MOLECULE
2fx9_ligand
  281   288     1     0     0
SMALL
GAST_HUCK


@<TRIPOS>ATOM
      1 N          23.3590   29.9440   33.1050 N.4       1 ASN         0.2396
      2 CA         23.1470   28.5740   32.5530 C.3       1 ASN         0.0818
      3 C          22.0890   27.8120   33.3360 C.2       1 ASN         0.2292
      4 O          22.1930   27.6050   34.5480 O.2       1 ASN        -0.3905
      5 CB         24.4590   27.7890   32.5670 C.3       1 ASN         0.0972
      6 CG         24.2960   26.3800   32.0530 C.2       1 ASN         0.1813
      7 OD1        23.2650   26.0400   31.4610 O.2       1 ASN        -0.3969
      8 ND2        25.3120   25.5530   32.2600 N.am      1 ASN        -0.3006
      9 N          21.0380   27.3770   32.6560 N.am      1 TRP        -0.2598
     10 CA         19.9610   26.6350   33.2950 C.3       1 TRP         0.1353
     11 C          20.4560   25.3620   33.9920 C.2       1 TRP         0.2053
     12 O          19.9430   24.9730   35.0320 O.2       1 TRP        -0.3942
     13 CB         18.9140   26.2670   32.2510 C.3       1 TRP         0.0042
     14 CG         17.7130   25.5530   32.7850 C.2       1 TRP        -0.0418
     15 CD1        16.5740   26.1170   33.2900 C.2       1 TRP         0.0167
     16 CD2        17.5020   24.1380   32.8010 C.ar      1 TRP        -0.0214
     17 NE1        15.6630   25.1370   33.6100 N.pl3     1 TRP        -0.2890
     18 CE2        16.2080   23.9130   33.3200 C.ar      1 TRP         0.0603
     19 CE3        18.2830   23.0330   32.4200 C.ar      1 TRP        -0.0747
     20 CZ2        15.6690   22.6240   33.4680 C.ar      1 TRP        -0.0443
     21 CZ3        17.7460   21.7520   32.5670 C.ar      1 TRP        -0.0792
     22 CH2        16.4500   21.5640   33.0870 C.ar      1 TRP        -0.0768
     23 N          21.4570   24.6790   33.4460 N.am      1 PHE        -0.2618
     24 CA         21.9620   23.4540   34.0690 C.3       1 PHE         0.1404
     25 C          22.7560   23.7320   35.3480 C.2       1 PHE         0.2060
     26 O          23.3150   22.8280   35.9730 O.2       1 PHE        -0.3942
     27 CB         22.8350   22.6660   33.0850 C.3       1 PHE         0.0214
     28 CG         22.0720   22.0880   31.9170 C.ar      1 PHE        -0.0386
     29 CD1        22.0650   22.7310   30.6840 C.ar      1 PHE        -0.0601
     30 CD2        21.3560   20.9010   32.0550 C.ar      1 PHE        -0.0601
     31 CE1        21.3610   22.2030   29.6030 C.ar      1 PHE        -0.0686
     32 CE2        20.6420   20.3580   30.9790 C.ar      1 PHE        -0.0686
     33 CZ         20.6450   21.0120   29.7480 C.ar      1 PHE        -0.0687
     34 N          22.8190   24.9940   35.7630 N.am      1 CYS        -0.2628
     35 CA         23.5330   25.3990   36.9680 C.3       1 CYS         0.1400
     36 C          22.5910   25.7160   38.1110 C.2       1 CYS         0.2047
     37 O          22.9810   25.7420   39.2840 O.2       1 CYS        -0.3944
     38 CB         24.3670   26.6490   36.6950 C.3       1 CYS         0.0364
     39 SG         26.1080   26.3110   36.0740 S.3       1 CYS        -0.1344
     40 N          21.3270   25.9800   37.7960 N.am      1 ILE        -0.2634
     41 CA         20.3350   26.3400   38.7980 C.3       1 ILE         0.1335
     42 C          20.1840   25.3760   39.9790 C.2       1 ILE         0.2042
     43 O          20.1170   25.8040   41.1330 O.2       1 ILE        -0.3944
     44 CB         18.9580   26.5590   38.1440 C.3       1 ILE        -0.0037
     45 CG1        19.0340   27.7340   37.1620 C.3       1 ILE        -0.0491
     46 CG2        17.9190   26.8350   39.2070 C.3       1 ILE        -0.0582
     47 CD1        17.7710   27.9410   36.3300 C.3       1 ILE        -0.0648
     48 N          20.0980   24.0670   39.7540 N.am      1 THR        -0.2613
     49 CA         19.9580   23.1610   40.8870 C.3       1 THR         0.1565
     50 C          21.2310   23.2220   41.7270 C.2       1 THR         0.2065
     51 O          21.2050   23.1300   42.9440 O.2       1 THR        -0.3943
     52 CB         19.6800   21.7080   40.4400 C.3       1 THR         0.0924
     53 OG1        20.6680   21.2940   39.4900 O.3       1 THR        -0.3874
     54 CG2        18.2870   21.6100   39.8220 C.3       1 THR        -0.0346
     55 N          22.3820   23.3990   41.0970 N.am      1 ORQ        -0.2636
     56 CA         23.6370   23.5040   41.8330 C.3       1 ORQ         0.1310
     57 CB         24.7940   23.6560   40.8460 C.3       1 ORQ        -0.0106
     58 CG         26.1180   24.1370   41.4530 C.3       1 ORQ        -0.0285
     59 CD         26.9320   24.8560   40.4000 C.3       1 ORQ         0.0311
     60 NE         27.0560   24.0050   39.2250 N.am      1 ORQ        -0.2863
     61 O1         27.2650   23.6260   37.0510 O.2       1 ORQ        -0.3962
     62 C          23.5750   24.7250   42.7550 C.2       1 ORQ         0.2040
     63 O          23.9190   24.6720   43.9430 O.2       1 ORQ        -0.3944
     64 C1         27.1650   24.4330   37.9680 C.2       1 ORQ         0.1859
     65 C2         27.1640   25.9200   37.6560 C.3       1 ORQ         0.0834
     66 N          23.1190   25.8590   42.2260 N.am      1 TRP        -0.2627
     67 CA         23.0290   27.0800   43.0110 C.3       1 TRP         0.1352
     68 C          21.9650   26.9410   44.0860 C.2       1 TRP         0.2052
     69 O          22.1340   27.4160   45.2040 O.2       1 TRP        -0.3942
     70 CB         22.7270   28.2900   42.1150 C.3       1 TRP         0.0042
     71 CG         23.8050   28.5900   41.1030 C.2       1 TRP        -0.0418
     72 CD1        25.1540   28.4110   41.2580 C.2       1 TRP         0.0167
     73 CD2        23.6270   29.1570   39.7960 C.ar      1 TRP        -0.0214
     74 NE1        25.8240   28.8290   40.1290 N.pl3     1 TRP        -0.2890
     75 CE2        24.9110   29.2930   39.2180 C.ar      1 TRP         0.0603
     76 CE3        22.5050   29.5680   39.0570 C.ar      1 TRP        -0.0747
     77 CZ2        25.1060   29.8220   37.9330 C.ar      1 TRP        -0.0443
     78 CZ3        22.7000   30.0960   37.7780 C.ar      1 TRP        -0.0792
     79 CH2        23.9930   30.2180   37.2310 C.ar      1 TRP        -0.0768
     80 N          20.8430   26.2890   43.7870 N.am      1 LEU        -0.2636
     81 CA         19.7880   26.1070   44.7820 C.3       1 LEU         0.1312
     82 C          20.3050   25.2090   45.8960 C.2       1 LEU         0.2040
     83 O          20.0370   25.4150   47.0800 O.2       1 LEU        -0.3944
     84 CB         18.5510   25.4490   44.1650 C.3       1 LEU        -0.0101
     85 CG         17.7310   26.2040   43.1200 C.3       1 LEU        -0.0425
     86 CD1        16.5830   25.3170   42.6420 C.3       1 LEU        -0.0625
     87 CD2        17.1960   27.5020   43.7190 C.3       1 LEU        -0.0625
     88 N          21.0520   24.1740   45.5320 N.am      1 TRP        -0.2627
     89 CA         21.5990   23.2480   46.5050 C.3       1 TRP         0.1352
     90 C          22.6090   23.9700   47.3910 C.2       1 TRP         0.2052
     91 O          22.6520   23.7860   48.6060 O.2       1 TRP        -0.3942
     92 CB         22.2840   22.0870   45.7920 C.3       1 TRP         0.0042
     93 CG         22.7590   21.0200   46.7200 C.2       1 TRP        -0.0418
     94 CD1        22.0140   20.0120   47.2680 C.2       1 TRP         0.0167
     95 CD2        24.0890   20.8550   47.2170 C.ar      1 TRP        -0.0214
     96 NE1        22.8040   19.2270   48.0740 N.pl3     1 TRP        -0.2890
     97 CE2        24.0820   19.7220   48.0610 C.ar      1 TRP         0.0603
     98 CE3        25.2880   21.5540   47.0310 C.ar      1 TRP        -0.0747
     99 CZ2        25.2280   19.2710   48.7170 C.ar      1 TRP        -0.0443
    100 CZ3        26.4290   21.1060   47.6830 C.ar      1 TRP        -0.0792
    101 CH2        26.3890   19.9730   48.5160 C.ar      1 TRP        -0.0768
    102 N          23.4520   24.8090   46.7980 N.am      1 LYS        -0.2636
    103 CA         24.4520   25.5510   47.5550 C.3       1 LYS         0.1310
    104 C          23.7710   26.5700   48.4630 C.2       1 LYS         0.2039
    105 O          24.1250   26.7330   49.6310 O.2       1 LYS        -0.3944
    106 CB         25.4100   26.2600   46.5960 C.3       1 LYS        -0.0122
    107 CG         26.5420   27.0130   47.2710 C.3       1 LYS        -0.0440
    108 CD         27.5050   27.5740   46.2360 C.3       1 LYS        -0.0124
    109 CE         28.7320   28.2070   46.8820 C.3       1 LYS        -0.0354
    110 NZ         29.7710   28.5470   45.8600 N.4       1 LYS         0.2185
    111 N          22.7670   27.2730   47.9470 N.am      1 LYS        -0.2637
    112 CA         22.0410   28.2730   48.7220 C.3       1 LYS         0.1310
    113 C          21.4070   27.6540   49.9630 C.2       1 LYS         0.2039
    114 O          21.2780   28.2970   51.0030 O.2       1 LYS        -0.3944
    115 CB         20.9560   28.9290   47.8610 C.3       1 LYS        -0.0122
    116 CG         20.1490   30.0030   48.5770 C.3       1 LYS        -0.0440
    117 CD         19.0210   30.5190   47.6960 C.3       1 LYS        -0.0124
    118 CE         18.1960   31.5850   48.4020 C.3       1 LYS        -0.0354
    119 NZ         18.9660   32.8390   48.6250 N.4       1 LYS         0.2185
    120 N          20.9890   26.3920   49.8880 N.am      1 LYS        -0.2637
    121 CA         20.3850   25.7280   51.0390 C.3       1 LYS         0.1309
    122 C          21.4750   25.0630   51.8730 C.2       1 LYS         0.2033
    123 O          21.5280   25.1960   53.0970 O.2       1 LYS        -0.3944
    124 CB         19.3650   24.6750   50.5900 C.3       1 LYS        -0.0122
    125 CG         19.9590   23.4910   49.8360 C.3       1 LYS        -0.0440
    126 CD         19.5420   22.1630   50.4600 C.3       1 LYS        -0.0124
    127 CE         20.0960   22.0110   51.8740 C.3       1 LYS        -0.0354
    128 NZ         19.6890   20.7300   52.5180 N.4       1 LYS         0.2185
    129 N          22.3740   24.3260   51.2260 N.am      1 LYS        -0.2695
    130 CA         23.4660   23.6510   51.9180 C.3       1 LYS         0.0944
    131 C          24.2870   24.6690   52.7040 C.2       1 LYS         0.0601
    132 O          24.5580   24.4070   53.8950 O.co2     1 LYS        -0.5666
    133 CB         24.3540   22.9150   50.9060 C.3       1 LYS        -0.0177
    134 CG         25.7150   22.4830   51.4370 C.3       1 LYS        -0.0446
    135 CD         25.5960   21.5440   52.6240 C.3       1 LYS        -0.0125
    136 CE         26.9710   21.2020   53.1880 C.3       1 LYS        -0.0354
    137 NZ         26.8950   20.3480   54.4100 N.4       1 LYS         0.2185
    138 OXT        24.6480   25.7140   52.1200 O.co2     1 LYS        -0.5666
    139 H1         24.0644   30.4189   32.5637 H         1 ASN         0.2017
    140 H2         23.6605   29.8767   34.0645 H         1 ASN         0.2017
    141 H3         22.4954   30.4619   33.0597 H         1 ASN         0.2017
    142 H4         22.8057   28.6708   31.5118 H         1 ASN         0.1125
    143 H5         24.8332   27.7461   33.6005 H         1 ASN         0.0585
    144 H6         25.1901   28.3129   31.9337 H         1 ASN         0.0585
    145 H7         25.2595   24.6067   31.9409 H         1 ASN         0.1814
    146 H8         26.1306   25.8757   32.7352 H         1 ASN         0.1814
    147 H9         20.9832   27.5640   31.6752 H         1 TRP         0.1886
    148 H10        19.4967   27.2840   34.0520 H         1 TRP         0.0815
    149 H11        19.3919   25.6181   31.5023 H         1 TRP         0.0397
    150 H12        18.5728   27.1945   31.7681 H         1 TRP         0.0397
    151 H13        16.4118   27.1860   33.4199 H         1 TRP         0.0795
    152 H14        14.7246   25.2969   34.0033 H         1 TRP         0.2216
    153 H15        19.2811   23.1722   32.0205 H         1 TRP         0.0540
    154 H16        14.6730   22.4735   33.8684 H         1 TRP         0.0541
    155 H17        18.3351   20.8896   32.2767 H         1 TRP         0.0510
    156 H18        16.0614   20.5571   33.1881 H         1 TRP         0.0530
    157 H19        21.8714   25.0067   32.5970 H         1 PHE         0.1885
    158 H20        21.0950   22.8321   34.3364 H         1 PHE         0.0823
    159 H21        23.3116   21.8384   33.6309 H         1 PHE         0.0474
    160 H22        23.6100   23.3408   32.6925 H         1 PHE         0.0474
    161 H23        22.6154   23.6569   30.5617 H         1 PHE         0.0557
    162 H24        21.3513   20.3892   33.0106 H         1 PHE         0.0557
    163 H25        21.3690   22.7170   28.6487 H         1 PHE         0.0599
    164 H26        20.0897   19.4335   31.1031 H         1 PHE         0.0599
    165 H27        20.0958   20.5996   28.9093 H         1 PHE         0.0559
    166 H28        22.3555   25.6973   35.2239 H         1 CYS         0.1884
    167 H29        24.1981   24.5769   37.2709 H         1 CYS         0.0808
    168 H30        24.4423   27.2219   37.6310 H         1 CYS         0.0426
    169 H31        23.8440   27.2512   35.9376 H         1 CYS         0.0426
    170 H32        21.0480   25.9295   36.8370 H         1 ILE         0.1883
    171 H33        20.6599   27.3024   39.2201 H         1 ILE         0.0803
    172 H34        18.6733   25.6500   37.5938 H         1 ILE         0.0345
    173 H35        19.8736   27.5544   36.4744 H         1 ILE         0.0267
    174 H36        19.2214   28.6524   37.7377 H         1 ILE         0.0267
    175 H37        17.8738   25.9858   39.9048 H         1 ILE         0.0235
    176 H38        16.9362   26.9722   38.7323 H         1 ILE         0.0235
    177 H39        18.1910   27.7477   39.7574 H         1 ILE         0.0235
    178 H40        17.9121   28.7994   35.6568 H         1 ILE         0.0230
    179 H41        16.9193   28.1354   36.9984 H         1 ILE         0.0230
    180 H42        17.5715   27.0375   35.7352 H         1 ILE         0.0230
    181 H43        20.1290   23.7101   38.8204 H         1 THR         0.1884
    182 H44        19.1105   23.4993   41.5012 H         1 THR         0.0826
    183 H45        19.7288   21.0475   41.3182 H         1 THR         0.0639
    184 H46        20.4911   20.4006   39.2198 H         1 THR         0.2101
    185 H47        18.0978   20.5732   39.5070 H         1 THR         0.0257
    186 H48        18.2258   22.2756   38.9484 H         1 THR         0.0257
    187 H49        17.5340   21.9105   40.5655 H         1 THR         0.0257
    188 H50        22.3911   23.4618   40.0990 H         1 ORQ         0.1883
    189 H51        23.7877   22.5964   42.4359 H         1 ORQ         0.0800
    190 H52        24.4905   24.3809   40.0763 H         1 ORQ         0.0313
    191 H53        24.9714   22.6766   40.3777 H         1 ORQ         0.0313
    192 H54        26.6853   23.2711   41.8251 H         1 ORQ         0.0287
    193 H55        25.9096   24.8244   42.2861 H         1 ORQ         0.0287
    194 H56        27.9324   25.0806   40.7985 H         1 ORQ         0.0520
    195 H57        26.4285   25.7940   40.1231 H         1 ORQ         0.0520
    196 H58        27.0597   23.0162   39.3740 H         1 ORQ         0.1851
    197 H59        26.7408   26.4651   38.5126 H         1 ORQ         0.0616
    198 H60        28.1992   26.2507   37.4861 H         1 ORQ         0.0616
    199 H61        22.8322   25.8712   41.2681 H         1 TRP         0.1884
    200 H62        23.9992   27.2472   43.5016 H         1 TRP         0.0815
    201 H63        22.6011   29.1735   42.7581 H         1 TRP         0.0397
    202 H64        21.7897   28.0939   41.5737 H         1 TRP         0.0397
    203 H65        25.6290   27.9975   42.1464 H         1 TRP         0.0795
    204 H66        26.8444   28.7979   39.9919 H         1 TRP         0.2216
    205 H67        21.5073   29.4773   39.4710 H         1 TRP         0.0540
    206 H68        26.0994   29.9150   37.5091 H         1 TRP         0.0541
    207 H69        21.8428   30.4169   37.1972 H         1 TRP         0.0510
    208 H70        24.1120   30.6326   36.2365 H         1 TRP         0.0530
    209 H71        20.7203   25.9178   42.8666 H         1 LEU         0.1883
    210 H72        19.5092   27.0875   45.1954 H         1 LEU         0.0800
    211 H73        17.8689   25.2121   44.9948 H         1 LEU         0.0315
    212 H74        18.8896   24.5160   43.6909 H         1 LEU         0.0315
    213 H75        18.3758   26.4474   42.2627 H         1 LEU         0.0298
    214 H76        15.9906   25.8579   41.8894 H         1 LEU         0.0232
    215 H77        15.9407   25.0565   43.4962 H         1 LEU         0.0232
    216 H78        16.9909   24.3978   42.1962 H         1 LEU         0.0232
    217 H79        18.0379   28.1246   44.0561 H         1 LEU         0.0232
    218 H80        16.5456   27.2700   44.5753 H         1 LEU         0.0232
    219 H81        16.6190   28.0469   42.9573 H         1 LEU         0.0232
    220 H82        21.2427   24.0289   44.5611 H         1 TRP         0.1884
    221 H83        20.7826   22.8572   47.1301 H         1 TRP         0.0815
    222 H84        23.1503   22.4794   45.2392 H         1 TRP         0.0397
    223 H85        21.5690   21.6412   45.0849 H         1 TRP         0.0397
    224 H86        20.9510   19.8545   47.0916 H         1 TRP         0.0795
    225 H87        22.4870   18.4012   48.6018 H         1 TRP         0.2216
    226 H88        25.3246   22.4278   46.3905 H         1 TRP         0.0540
    227 H89        25.2017   18.3993   49.3608 H         1 TRP         0.0541
    228 H90        27.3644   21.6370   47.5482 H         1 TRP         0.0510
    229 H91        27.2970   19.6472   49.0105 H         1 TRP         0.0530
    230 H92        23.3988   24.9343   45.8073 H         1 LYS         0.1883
    231 H93        25.0249   24.8467   48.1762 H         1 LYS         0.0800
    232 H94        24.8284   26.9784   45.9997 H         1 LYS         0.0312
    233 H95        25.8510   25.5032   45.9306 H         1 LYS         0.0312
    234 H96        27.0863   26.3267   47.9364 H         1 LYS         0.0269
    235 H97        26.1235   27.8413   47.8615 H         1 LYS         0.0269
    236 H98        26.9824   28.3381   45.6419 H         1 LYS         0.0317
    237 H99        27.8326   26.7572   45.5761 H         1 LYS         0.0317
    238 H100       29.1606   27.4992   47.6067 H         1 LYS         0.0813
    239 H101       28.4281   29.1266   47.4034 H         1 LYS         0.0813
    240 H102       30.5678   28.9627   46.3164 H         1 LYS         0.1994
    241 H103       29.3869   29.1994   45.1945 H         1 LYS         0.1994
    242 H104       30.0582   27.7080   45.3808 H         1 LYS         0.1994
    243 H105       22.5011   27.1108   46.9967 H         1 LYS         0.1883
    244 H106       22.7529   29.0478   49.0427 H         1 LYS         0.0800
    245 H107       20.2623   28.1443   47.5248 H         1 LYS         0.0312
    246 H108       21.4412   29.3885   46.9872 H         1 LYS         0.0312
    247 H109       20.8144   30.8399   48.8356 H         1 LYS         0.0269
    248 H110       19.7207   29.5775   49.4965 H         1 LYS         0.0269
    249 H111       18.3637   29.6781   47.4300 H         1 LYS         0.0317
    250 H112       19.4527   30.9507   46.7810 H         1 LYS         0.0317
    251 H113       17.8697   31.1923   49.3763 H         1 LYS         0.0813
    252 H114       17.3145   31.8160   47.7858 H         1 LYS         0.0813
    253 H115       18.3814   33.5134   49.0935 H         1 LYS         0.1994
    254 H116       19.2647   33.2123   47.7376 H         1 LYS         0.1994
    255 H117       19.7734   32.6407   49.1950 H         1 LYS         0.1994
    256 H118       21.0906   25.8907   49.0287 H         1 LYS         0.1883
    257 H119       19.8703   26.4809   51.6539 H         1 LYS         0.0800
    258 H120       18.6324   25.1664   49.9329 H         1 LYS         0.0312
    259 H121       18.8545   24.2896   51.4849 H         1 LYS         0.0312
    260 H122       21.0561   23.5673   49.8585 H         1 LYS         0.0269
    261 H123       19.6106   23.5206   48.7931 H         1 LYS         0.0269
    262 H124       19.9222   21.3402   49.8368 H         1 LYS         0.0317
    263 H125       18.4437   22.1158   50.4995 H         1 LYS         0.0317
    264 H126       19.7271   22.8459   52.4879 H         1 LYS         0.0813
    265 H127       21.1944   22.0476   51.8272 H         1 LYS         0.0813
    266 H128       20.0802   20.6812   53.4457 H         1 LYS         0.1994
    267 H129       20.0281   19.9554   51.9693 H         1 LYS         0.1994
    268 H130       18.6835   20.6870   52.5747 H         1 LYS         0.1994
    269 H131       22.2985   24.2318   50.2333 H         1 LYS         0.1875
    270 H132       23.0440   22.9165   52.6197 H         1 LYS         0.0726
    271 H133       24.5191   23.5831   50.0479 H         1 LYS         0.0305
    272 H134       23.8169   22.0150   50.5721 H         1 LYS         0.0305
    273 H135       26.2742   23.3778   51.7479 H         1 LYS         0.0269
    274 H136       26.2623   21.9696   50.6328 H         1 LYS         0.0269
    275 H137       25.0985   20.6174   52.3017 H         1 LYS         0.0317
    276 H138       24.9958   22.0289   53.4079 H         1 LYS         0.0317
    277 H139       27.4893   22.1378   53.4441 H         1 LYS         0.0813
    278 H140       27.5438   20.6645   52.4179 H         1 LYS         0.0813
    279 H141       27.8266   20.1518   54.7412 H         1 LYS         0.1994
    280 H142       26.4286   19.4827   54.1868 H         1 LYS         0.1994
    281 H143       26.3786   20.8328   55.1272 H         1 LYS         0.1994
@<TRIPOS>BOND
     1    1    2 1  
     2    2    3 1  
     3    2    5 1  
     4    3    4 2  
     5    3    9 am 
     6    5    6 1  
     7    6    7 2  
     8    6    8 am 
     9    9   10 1  
    10   10   11 1  
    11   10   13 1  
    12   11   12 2  
    13   11   23 am 
    14   13   14 1  
    15   14   15 2  
    16   14   16 1  
    17   15   17 1  
    18   16   18 ar 
    19   16   19 ar 
    20   17   18 1  
    21   18   20 ar 
    22   19   21 ar 
    23   20   22 ar 
    24   21   22 ar 
    25   23   24 1  
    26   24   25 1  
    27   24   27 1  
    28   25   26 2  
    29   25   34 am 
    30   27   28 1  
    31   28   29 ar 
    32   28   30 ar 
    33   29   31 ar 
    34   30   32 ar 
    35   31   33 ar 
    36   32   33 ar 
    37   34   35 1  
    38   35   36 1  
    39   35   38 1  
    40   36   37 2  
    41   36   40 am 
    42   38   39 1  
    43   39   65 1  
    44   40   41 1  
    45   41   42 1  
    46   41   44 1  
    47   42   43 2  
    48   42   48 am 
    49   44   45 1  
    50   44   46 1  
    51   45   47 1  
    52   48   49 1  
    53   49   50 1  
    54   49   52 1  
    55   50   51 2  
    56   50   55 am 
    57   52   53 1  
    58   52   54 1  
    59   55   56 1  
    60   56   57 1  
    61   56   62 1  
    62   57   58 1  
    63   58   59 1  
    64   59   60 1  
    65   60   64 am 
    66   64   61 2  
    67   62   63 2  
    68   62   66 am 
    69   64   65 1  
    70   66   67 1  
    71   67   68 1  
    72   67   70 1  
    73   68   69 2  
    74   68   80 am 
    75   70   71 1  
    76   71   72 2  
    77   71   73 1  
    78   72   74 1  
    79   73   75 ar 
    80   73   76 ar 
    81   74   75 1  
    82   75   77 ar 
    83   76   78 ar 
    84   77   79 ar 
    85   78   79 ar 
    86   80   81 1  
    87   81   82 1  
    88   81   84 1  
    89   82   83 2  
    90   82   88 am 
    91   84   85 1  
    92   85   86 1  
    93   85   87 1  
    94   88   89 1  
    95   89   90 1  
    96   89   92 1  
    97   90   91 2  
    98   90  102 am 
    99   92   93 1  
   100   93   94 2  
   101   93   95 1  
   102   94   96 1  
   103   95   97 ar 
   104   95   98 ar 
   105   96   97 1  
   106   97   99 ar 
   107   98  100 ar 
   108   99  101 ar 
   109  100  101 ar 
   110  102  103 1  
   111  103  104 1  
   112  103  106 1  
   113  104  105 2  
   114  104  111 am 
   115  106  107 1  
   116  107  108 1  
   117  108  109 1  
   118  109  110 1  
   119  111  112 1  
   120  112  113 1  
   121  112  115 1  
   122  113  114 2  
   123  113  120 am 
   124  115  116 1  
   125  116  117 1  
   126  117  118 1  
   127  118  119 1  
   128  120  121 1  
   129  121  122 1  
   130  121  124 1  
   131  122  123 2  
   132  122  129 am 
   133  124  125 1  
   134  125  126 1  
   135  126  127 1  
   136  127  128 1  
   137  129  130 1  
   138  130  131 1  
   139  130  133 1  
   140  131  132 ar 
   141  131  138 ar 
   142  133  134 1  
   143  134  135 1  
   144  135  136 1  
   145  136  137 1  
   146    1  139 1  
   147    1  140 1  
   148    1  141 1  
   149    2  142 1  
   150    5  143 1  
   151    5  144 1  
   152    8  145 1  
   153    8  146 1  
   154    9  147 1  
   155   10  148 1  
   156   13  149 1  
   157   13  150 1  
   158   15  151 1  
   159   17  152 1  
   160   19  153 1  
   161   20  154 1  
   162   21  155 1  
   163   22  156 1  
   164   23  157 1  
   165   24  158 1  
   166   27  159 1  
   167   27  160 1  
   168   29  161 1  
   169   30  162 1  
   170   31  163 1  
   171   32  164 1  
   172   33  165 1  
   173   34  166 1  
   174   35  167 1  
   175   38  168 1  
   176   38  169 1  
   177   40  170 1  
   178   41  171 1  
   179   44  172 1  
   180   45  173 1  
   181   45  174 1  
   182   46  175 1  
   183   46  176 1  
   184   46  177 1  
   185   47  178 1  
   186   47  179 1  
   187   47  180 1  
   188   48  181 1  
   189   49  182 1  
   190   52  183 1  
   191   53  184 1  
   192   54  185 1  
   193   54  186 1  
   194   54  187 1  
   195   55  188 1  
   196   56  189 1  
   197   57  190 1  
   198   57  191 1  
   199   58  192 1  
   200   58  193 1  
   201   59  194 1  
   202   59  195 1  
   203   60  196 1  
   204   65  197 1  
   205   65  198 1  
   206   66  199 1  
   207   67  200 1  
   208   70  201 1  
   209   70  202 1  
   210   72  203 1  
   211   74  204 1  
   212   76  205 1  
   213   77  206 1  
   214   78  207 1  
   215   79  208 1  
   216   80  209 1  
   217   81  210 1  
   218   84  211 1  
   219   84  212 1  
   220   85  213 1  
   221   86  214 1  
   222   86  215 1  
   223   86  216 1  
   224   87  217 1  
   225   87  218 1  
   226   87  219 1  
   227   88  220 1  
   228   89  221 1  
   229   92  222 1  
   230   92  223 1  
   231   94  224 1  
   232   96  225 1  
   233   98  226 1  
   234   99  227 1  
   235  100  228 1  
   236  101  229 1  
   237  102  230 1  
   238  103  231 1  
   239  106  232 1  
   240  106  233 1  
   241  107  234 1  
   242  107  235 1  
   243  108  236 1  
   244  108  237 1  
   245  109  238 1  
   246  109  239 1  
   247  110  240 1  
   248  110  241 1  
   249  110  242 1  
   250  111  243 1  
   251  112  244 1  
   252  115  245 1  
   253  115  246 1  
   254  116  247 1  
   255  116  248 1  
   256  117  249 1  
   257  117  250 1  
   258  118  251 1  
   259  118  252 1  
   260  119  253 1  
   261  119  254 1  
   262  119  255 1  
   263  120  256 1  
   264  121  257 1  
   265  124  258 1  
   266  124  259 1  
   267  125  260 1  
   268  125  261 1  
   269  126  262 1  
   270  126  263 1  
   271  127  264 1  
   272  127  265 1  
   273  128  266 1  
   274  128  267 1  
   275  128  268 1  
   276  129  269 1  
   277  130  270 1  
   278  133  271 1  
   279  133  272 1  
   280  134  273 1  
   281  134  274 1  
   282  135  275 1  
   283  135  276 1  
   284  136  277 1  
   285  136  278 1  
   286  137  279 1  
   287  137  280 1  
   288  137  281 1  
@<TRIPOS>SUBSTRUCTURE
     1 ASN         1

