### 
### Created by X-TOOL on Mon Sep 10 21:13:33 2018
### 

@<TRIPOS>MOLECULE
5ggz_ligand
   49    51     1     0     0
SMALL
GAST_HUCK


@<TRIPOS>ATOM
      1 C10        16.2810  -11.5000  -48.3730 C.2       1 6TN         0.1940
      2 C13        17.5530  -10.1720  -50.1730 C.ar      1 6TN        -0.0563
      3 C15        18.9750   -8.8910  -51.8550 C.3       1 6TN        -0.0186
      4 C17        20.1670   -9.8250  -51.5720 C.3       1 6TN        -0.0557
      5 C20        15.1560   -9.6990  -51.6160 C.ar      1 6TN        -0.0047
      6 C21        15.1210  -10.4300  -50.4010 C.ar      1 6TN         0.0940
      7 C24        18.6680  -13.8290  -49.5180 C.3       1 6TN         0.0185
      8 C01        20.7400  -19.1510  -45.7360 C.3       1 6TN        -0.0363
      9 C02        21.4700  -17.8120  -45.7030 C.3       1 6TN         0.0745
     10 O03        21.3350  -17.1560  -46.9640 O.3       1 6TN        -0.2835
     11 C04        20.1990  -16.2840  -47.0200 C.ar      1 6TN         0.2324
     12 N05        19.3440  -16.2180  -45.9620 N.ar      1 6TN        -0.2598
     13 C06        18.2550  -15.3920  -45.9990 C.ar      1 6TN         0.0126
     14 C07        17.9930  -14.5770  -47.1590 C.ar      1 6TN         0.0213
     15 C08        16.7590  -13.6470  -47.2170 C.3       1 6TN         0.0698
     16 N09        16.7530  -12.8450  -48.4000 N.am      1 6TN        -0.2631
     17 O11        15.8360  -10.9990  -47.3620 O.2       1 6TN        -0.3956
     18 C12        16.3140  -10.6690  -49.6980 C.ar      1 6TN         0.0606
     19 C14        17.6010   -9.4580  -51.3720 C.ar      1 6TN        -0.0157
     20 C16        19.1720   -7.5540  -51.1200 C.3       1 6TN        -0.0557
     21 C18        16.3890   -9.2020  -52.0940 C.ar      1 6TN         0.0873
     22 O19        16.4340   -8.4620  -53.3110 O.3       1 6TN        -0.3357
     23 O22        13.8950  -10.9610  -49.8610 O.3       1 6TN        -0.3346
     24 C23        17.2270  -13.3900  -49.6010 C.3       1 6TN         0.0472
     25 C25        18.8900  -14.6700  -48.2280 C.ar      1 6TN         0.0410
     26 N26        19.9770  -15.5220  -48.1340 N.ar      1 6TN        -0.2497
     27 H1         18.4611  -10.3456  -49.6071 H         1 6TN         0.0550
     28 H2         18.9264   -8.7145  -52.9396 H         1 6TN         0.0414
     29 H3         21.0933   -9.3588  -51.9390 H         1 6TN         0.0250
     30 H4         20.0110  -10.7848  -52.0862 H         1 6TN         0.0250
     31 H5         20.2480   -9.9983  -50.4888 H         1 6TN         0.0250
     32 H6         14.2433   -9.5230  -52.1737 H         1 6TN         0.0460
     33 H7         19.3188  -12.9426  -49.4923 H         1 6TN         0.0485
     34 H8         18.9149  -14.4398  -50.3989 H         1 6TN         0.0485
     35 H9         20.8476  -19.6513  -44.7623 H         1 6TN         0.0256
     36 H10        21.1726  -19.7852  -46.5238 H         1 6TN         0.0256
     37 H11        19.6734  -18.9821  -45.9456 H         1 6TN         0.0256
     38 H12        22.5361  -17.9824  -45.4924 H         1 6TN         0.0621
     39 H13        21.0370  -17.1794  -44.9142 H         1 6TN         0.0621
     40 H14        17.5832  -15.3496  -45.1493 H         1 6TN         0.0812
     41 H15        16.7705  -12.9852  -46.3385 H         1 6TN         0.0672
     42 H16        15.8479  -14.2631  -47.2001 H         1 6TN         0.0672
     43 H17        18.3176   -6.8927  -51.3266 H         1 6TN         0.0250
     44 H18        20.0987   -7.0760  -51.4703 H         1 6TN         0.0250
     45 H19        19.2404   -7.7372  -50.0375 H         1 6TN         0.0250
     46 H20        15.5555   -8.3797  -53.6629 H         1 6TN         0.2475
     47 H21        13.1719  -10.7275  -50.4311 H         1 6TN         0.2485
     48 H22        16.6086  -14.2624  -49.8587 H         1 6TN         0.0550
     49 H23        17.1365  -12.6301  -50.3911 H         1 6TN         0.0550
@<TRIPOS>BOND
     1   16    1 am 
     2    1   17 2  
     3    1   18 1  
     4   18    2 ar 
     5    2   19 ar 
     6    3    4 1  
     7   19    3 1  
     8    3   20 1  
     9    6    5 ar 
    10    5   21 ar 
    11   18    6 ar 
    12    6   23 1  
    13    7   24 1  
    14   25    7 1  
    15    9    8 1  
    16   10    9 1  
    17   11   10 1  
    18   12   11 ar 
    19   11   26 ar 
    20   13   12 ar 
    21   14   13 ar 
    22   15   14 1  
    23   14   25 ar 
    24   15   16 1  
    25   16   24 1  
    26   19   21 ar 
    27   21   22 1  
    28   25   26 ar 
    29    2   27 1  
    30    3   28 1  
    31    4   29 1  
    32    4   30 1  
    33    4   31 1  
    34    5   32 1  
    35    7   33 1  
    36    7   34 1  
    37    8   35 1  
    38    8   36 1  
    39    8   37 1  
    40    9   38 1  
    41    9   39 1  
    42   13   40 1  
    43   15   41 1  
    44   15   42 1  
    45   20   43 1  
    46   20   44 1  
    47   20   45 1  
    48   22   46 1  
    49   23   47 1  
    50   24   48 1  
    51   24   49 1  
@<TRIPOS>SUBSTRUCTURE
     1 6TN         1

