5ggz_ligand
  -I-interpret- 

 49 51  0  0  0  0  0  0  0  0999 V2000
   16.2810  -11.5000  -48.3730 C   0  0  0  0  0
   17.5530  -10.1720  -50.1730 C   0  0  0  0  0
   18.9750   -8.8910  -51.8550 C   0  0  0  0  0
   20.1670   -9.8250  -51.5720 C   0  0  0  0  0
   15.1560   -9.6990  -51.6160 C   0  0  0  0  0
   15.1210  -10.4300  -50.4010 C   0  0  0  0  0
   18.6680  -13.8290  -49.5180 C   0  0  0  0  0
   20.7400  -19.1510  -45.7360 C   0  0  0  0  0
   21.4700  -17.8120  -45.7030 C   0  0  0  0  0
   21.3350  -17.1560  -46.9640 O   0  0  0  0  0
   20.1990  -16.2840  -47.0200 C   0  0  0  0  0
   19.3440  -16.2180  -45.9620 N   0  0  0  0  0
   18.2550  -15.3920  -45.9990 C   0  0  0  0  0
   17.9930  -14.5770  -47.1590 C   0  0  0  0  0
   16.7590  -13.6470  -47.2170 C   0  0  0  0  0
   16.7530  -12.8450  -48.4000 N   0  0  0  0  0
   15.8360  -10.9990  -47.3620 O   0  0  0  0  0
   16.3140  -10.6690  -49.6980 C   0  0  0  0  0
   17.6010   -9.4580  -51.3720 C   0  0  0  0  0
   19.1720   -7.5540  -51.1200 C   0  0  0  0  0
   16.3890   -9.2020  -52.0940 C   0  0  0  0  0
   16.4340   -8.4620  -53.3110 O   0  0  0  0  0
   13.8950  -10.9610  -49.8610 O   0  0  0  0  0
   17.2270  -13.3900  -49.6010 C   0  0  0  0  0
   18.8900  -14.6700  -48.2280 C   0  0  0  0  0
   19.9770  -15.5220  -48.1340 N   0  0  0  0  0
   18.4661  -10.3466  -49.6040 H   0  0  0  0  0
   18.9497   -8.7793  -52.9390 H   0  0  0  0  0
   20.2461   -9.9959  -50.4984 H   0  0  0  0  0
   20.0112  -10.7756  -52.0820 H   0  0  0  0  0
   21.0842   -9.3620  -51.9360 H   0  0  0  0  0
   14.2383   -9.5220  -52.1768 H   0  0  0  0  0
   19.3113  -12.9496  -49.4897 H   0  0  0  0  0
   18.9102  -14.4364  -50.3900 H   0  0  0  0  0
   19.6834  -18.9823  -45.9438 H   0  0  0  0  0
   21.1695  -19.7784  -46.5170 H   0  0  0  0  0
   20.8473  -19.6458  -44.7707 H   0  0  0  0  0
   22.5267  -17.9827  -45.4970 H   0  0  0  0  0
   21.0380  -17.1853  -44.9228 H   0  0  0  0  0
   17.5795  -15.3494  -45.1446 H   0  0  0  0  0
   16.7900  -12.9828  -46.3533 H   0  0  0  0  0
   15.8627  -14.2673  -47.2194 H   0  0  0  0  0
   18.3569   -6.8769  -51.3754 H   0  0  0  0  0
   19.1767   -7.7295  -50.0442 H   0  0  0  0  0
   20.1215   -7.1116  -51.4214 H   0  0  0  0  0
   17.3397   -8.1997  -53.4914 H   0  0  0  0  0
   14.0812  -11.4200  -49.0387 H   0  0  0  0  0
   16.6238  -14.2688  -49.8288 H   0  0  0  0  0
   17.1578  -12.6179  -50.3672 H   0  0  0  0  0
 16  1  1  0  0  0
  1 17  2  0  0  0
  1 18  1  0  0  0
 18  2  4  0  0  0
  2 19  4  0  0  0
  3  4  1  0  0  0
 19  3  1  0  0  0
  3 20  1  0  0  0
  6  5  4  0  0  0
  5 21  4  0  0  0
 18  6  4  0  0  0
  6 23  1  0  0  0
  7 24  1  0  0  0
 25  7  1  0  0  0
  9  8  1  0  0  0
 10  9  1  0  0  0
 11 10  1  0  0  0
 12 11  4  0  0  0
 11 26  4  0  0  0
 13 12  4  0  0  0
 14 13  4  0  0  0
 15 14  1  0  0  0
 14 25  4  0  0  0
 15 16  1  0  0  0
 16 24  1  0  0  0
 19 21  4  0  0  0
 21 22  1  0  0  0
 25 26  4  0  0  0
  2 27  1  0  0  0
  3 28  1  0  0  0
  4 29  1  0  0  0
  4 30  1  0  0  0
  4 31  1  0  0  0
  5 32  1  0  0  0
  7 33  1  0  0  0
  7 34  1  0  0  0
  8 35  1  0  0  0
  8 36  1  0  0  0
  8 37  1  0  0  0
  9 38  1  0  0  0
  9 39  1  0  0  0
 13 40  1  0  0  0
 15 41  1  0  0  0
 15 42  1  0  0  0
 20 43  1  0  0  0
 20 44  1  0  0  0
 20 45  1  0  0  0
 22 46  1  0  0  0
 23 47  1  0  0  0
 24 48  1  0  0  0
 24 49  1  0  0  0
M  END
$$$$
