3wcg_ligand
  -I-interpret- 

 71 71  0  0  0  0  0  0  0  0999 V2000
   15.2470  -18.7520  -14.6060 O   0  0  0  0  0
   13.9670  -17.8340  -14.2730 P   0  0  0  0  0
   12.7010  -18.5990  -14.9080 O   0  0  0  0  0
   14.1070  -16.4550  -14.7910 O   0  0  0  0  0
   13.7420  -17.9030  -12.4500 C   0  0  0  0  0
   14.7780  -16.6220  -11.6370 P   0  0  0  0  0
   13.9940  -15.2250  -11.8020 O   0  0  0  0  0
   14.7410  -16.9690  -10.0660 O   0  0  0  0  0
   16.1580  -16.5680  -12.1730 O   0  0  0  0  0
   14.1610  -19.2840  -11.9400 C   0  0  0  0  0
   13.0200  -20.2270  -11.9290 N   0  3  0  0  0
   12.7040  -21.0770  -12.9030 C   0  0  0  0  0
   12.1980  -20.4430  -10.9070 C   0  0  0  0  0
   11.3740  -21.4310  -11.2470 C   0  0  0  0  0
   11.6880  -21.8210  -12.4780 N   0  0  0  0  0
   11.0560  -22.9350  -13.2220 C   0  0  0  0  0
   10.2510  -22.4180  -14.4160 C   0  0  0  0  0
   10.5340  -23.2930  -15.6390 C   0  0  0  0  0
   11.4060  -22.5190  -16.6300 C   0  0  0  0  0
   12.8280  -23.0810  -16.6100 C   0  0  0  0  0
   13.8190  -21.9750  -16.9810 C   0  0  0  0  0
   14.9140  -22.5470  -17.8830 C   0  0  0  0  0
   15.5060  -21.4280  -18.7430 C   0  0  0  0  0
   15.3900  -21.8010  -20.2220 C   0  0  0  0  0
   15.4720  -20.5360  -21.0800 C   0  0  0  0  0
   15.3310  -20.9120  -22.5560 C   0  0  0  0  0
   16.4200  -20.2100  -23.3700 C   0  0  0  0  0
   16.3680  -20.6960  -24.8200 C   0  0  0  0  0
   16.5000  -19.5000  -25.7650 C   0  0  0  0  0
   16.5650  -19.9950  -27.2110 C   0  0  0  0  0
   15.1086  -19.6331  -14.2509 H   0  0  0  0  0
   12.6495  -19.4862  -14.5448 H   0  0  0  0  0
   12.6937  -17.7202  -12.2141 H   0  0  0  0  0
   13.1087  -15.3116  -11.4410 H   0  0  0  0  0
   13.8294  -16.9927   -9.7660 H   0  0  0  0  0
   14.5313  -19.1779  -10.9203 H   0  0  0  0  0
   14.9293  -19.6792  -12.6046 H   0  0  0  0  0
   13.1912  -21.1500  -13.8753 H   0  0  0  0  0
   12.1988  -19.9060   -9.9585 H   0  0  0  0  0
   10.5812  -21.8471  -10.6254 H   0  0  0  0  0
   10.3799  -23.4627  -12.5493 H   0  0  0  0  0
   11.8405  -23.5954  -13.5915 H   0  0  0  0  0
   10.5396  -21.3891  -14.6307 H   0  0  0  0  0
    9.1873  -22.4553  -14.1807 H   0  0  0  0  0
    9.5928  -23.5633  -16.1177 H   0  0  0  0  0
   11.0557  -24.1973  -15.3256 H   0  0  0  0  0
   11.4286  -21.4665  -16.3473 H   0  0  0  0  0
   10.9910  -22.6195  -17.6329 H   0  0  0  0  0
   12.9068  -23.8958  -17.3297 H   0  0  0  0  0
   13.0571  -23.4543  -15.6119 H   0  0  0  0  0
   14.2705  -21.5744  -16.0734 H   0  0  0  0  0
   13.2929  -21.1804  -17.5101 H   0  0  0  0  0
   14.4873  -23.3139  -18.5295 H   0  0  0  0  0
   15.6994  -22.9847  -17.2668 H   0  0  0  0  0
   16.5562  -21.2906  -18.4856 H   0  0  0  0  0
   14.9601  -20.5027  -18.5591 H   0  0  0  0  0
   14.4342  -22.2951  -20.3965 H   0  0  0  0  0
   16.2047  -22.4735  -20.4904 H   0  0  0  0  0
   16.4339  -20.0492  -20.9191 H   0  0  0  0  0
   14.6690  -19.8541  -20.8001 H   0  0  0  0  0
   14.3509  -20.6006  -22.9173 H   0  0  0  0  0
   15.4349  -21.9914  -22.6666 H   0  0  0  0  0
   17.3967  -20.4410  -22.9447 H   0  0  0  0  0
   16.2561  -19.1327  -23.3423 H   0  0  0  0  0
   15.4175  -21.1981  -25.0006 H   0  0  0  0  0
   17.1874  -21.3922  -24.9990 H   0  0  0  0  0
   17.4108  -18.9499  -25.5287 H   0  0  0  0  0
   15.6369  -18.8454  -25.6442 H   0  0  0  0  0
   17.4280  -20.6499  -27.3311 H   0  0  0  0  0
   15.6541  -20.5454  -27.4466 H   0  0  0  0  0
   16.6590  -19.1412  -27.8821 H   0  0  0  0  0
  1  2  1  0  0  0
  2  3  1  0  0  0
  2  4  2  0  0  0
  2  5  1  0  0  0
  5  6  1  0  0  0
  5 10  1  0  0  0
  6  7  1  0  0  0
  6  8  1  0  0  0
  6  9  2  0  0  0
 10 11  1  0  0  0
 11 12  4  0  0  0
 11 13  4  0  0  0
 12 15  4  0  0  0
 13 14  4  0  0  0
 14 15  4  0  0  0
 15 16  1  0  0  0
 16 17  1  0  0  0
 17 18  1  0  0  0
 18 19  1  0  0  0
 19 20  1  0  0  0
 20 21  1  0  0  0
 21 22  1  0  0  0
 22 23  1  0  0  0
 23 24  1  0  0  0
 24 25  1  0  0  0
 25 26  1  0  0  0
 26 27  1  0  0  0
 27 28  1  0  0  0
 28 29  1  0  0  0
 29 30  1  0  0  0
  1 31  1  0  0  0
  3 32  1  0  0  0
  5 33  1  0  0  0
  7 34  1  0  0  0
  8 35  1  0  0  0
 10 36  1  0  0  0
 10 37  1  0  0  0
 12 38  1  0  0  0
 13 39  1  0  0  0
 14 40  1  0  0  0
 16 41  1  0  0  0
 16 42  1  0  0  0
 17 43  1  0  0  0
 17 44  1  0  0  0
 18 45  1  0  0  0
 18 46  1  0  0  0
 19 47  1  0  0  0
 19 48  1  0  0  0
 20 49  1  0  0  0
 20 50  1  0  0  0
 21 51  1  0  0  0
 21 52  1  0  0  0
 22 53  1  0  0  0
 22 54  1  0  0  0
 23 55  1  0  0  0
 23 56  1  0  0  0
 24 57  1  0  0  0
 24 58  1  0  0  0
 25 59  1  0  0  0
 25 60  1  0  0  0
 26 61  1  0  0  0
 26 62  1  0  0  0
 27 63  1  0  0  0
 27 64  1  0  0  0
 28 65  1  0  0  0
 28 66  1  0  0  0
 29 67  1  0  0  0
 29 68  1  0  0  0
 30 69  1  0  0  0
 30 70  1  0  0  0
 30 71  1  0  0  0
M  END
$$$$
