### 
### Created by X-TOOL on Mon Sep 10 21:13:20 2018
### 

@<TRIPOS>MOLECULE
3wcg_ligand
   67    67     1     0     0
SMALL
GAST_HUCK


@<TRIPOS>ATOM
      1 OAD        15.2470  -18.7520  -14.6060 O.co2     1 BH3        -0.5611
      2 PBC        13.9670  -17.8340  -14.2730 P.3       1 BH3         0.0789
      3 OAE        12.7010  -18.5990  -14.9080 O.co2     1 BH3        -0.5611
      4 OAB        14.1070  -16.4550  -14.7910 O.co2     1 BH3        -0.5611
      5 CAZ        13.7420  -17.9030  -12.4500 C.3       1 BH3         0.1132
      6 PBD        14.7780  -16.6220  -11.6370 P.3       1 BH3         0.0789
      7 OAF        13.9940  -15.2250  -11.8020 O.co2     1 BH3        -0.5611
      8 OAG        14.7410  -16.9690  -10.0660 O.co2     1 BH3        -0.5611
      9 OAC        16.1580  -16.5680  -12.1730 O.co2     1 BH3        -0.5611
     10 CAY        14.1610  -19.2840  -11.9400 C.3       1 BH3         0.0536
     11 NBB        13.0200  -20.2270  -11.9290 N.2       1 BH3        -0.2676
     12 CAJ        12.7040  -21.0770  -12.9030 C.2       1 BH3         0.1885
     13 CAI        12.1980  -20.4430  -10.9070 C.2       1 BH3         0.1185
     14 CAH        11.3740  -21.4310  -11.2470 C.2       1 BH3         0.1816
     15 NBA        11.6880  -21.8210  -12.4780 N.pl3     1 BH3        -0.1380
     16 CAX        11.0560  -22.9350  -13.2220 C.3       1 BH3         0.0877
     17 CAW        10.2510  -22.4180  -14.4160 C.3       1 BH3        -0.0215
     18 CAV        10.5340  -23.2930  -15.6390 C.3       1 BH3        -0.0503
     19 CAU        11.4060  -22.5190  -16.6300 C.3       1 BH3        -0.0530
     20 CAT        12.8280  -23.0810  -16.6100 C.3       1 BH3        -0.0531
     21 CAS        13.8190  -21.9750  -16.9810 C.3       1 BH3        -0.0531
     22 CAR        14.9140  -22.5470  -17.8830 C.3       1 BH3        -0.0531
     23 CAQ        15.5060  -21.4280  -18.7430 C.3       1 BH3        -0.0531
     24 CAP        15.3900  -21.8010  -20.2220 C.3       1 BH3        -0.0531
     25 CAO        15.4720  -20.5360  -21.0800 C.3       1 BH3        -0.0531
     26 CAN        15.3310  -20.9120  -22.5560 C.3       1 BH3        -0.0531
     27 CAM        16.4200  -20.2100  -23.3700 C.3       1 BH3        -0.0531
     28 CAL        16.3680  -20.6960  -24.8200 C.3       1 BH3        -0.0533
     29 CAK        16.5000  -19.5000  -25.7650 C.3       1 BH3        -0.0559
     30 CAA        16.5650  -19.9950  -27.2110 C.3       1 BH3        -0.0653
     31 H          12.6841  -17.7260  -12.2063 H         1 BH3         0.0688
     32 H          14.5518  -19.1838  -10.9167 H         1 BH3         0.0449
     33 H          14.9486  -19.6835  -12.5958 H         1 BH3         0.0449
     34 H          13.1908  -21.1499  -13.8744 H         1 BH3         0.1987
     35 H          12.1988  -19.9065   -9.9593 H         1 BH3         0.1406
     36 H          10.5819  -21.8467  -10.6259 H         1 BH3         0.2017
     37 H          10.3828  -23.4818  -12.5454 H         1 BH3         0.0657
     38 H          11.8410  -23.6142  -13.5859 H         1 BH3         0.0657
     39 H          10.5423  -21.3797  -14.6327 H         1 BH3         0.0294
     40 H           9.1776  -22.4558  -14.1786 H         1 BH3         0.0294
     41 H           9.5842  -23.5660  -16.1221 H         1 BH3         0.0266
     42 H          11.0603  -24.2057  -15.3229 H         1 BH3         0.0266
     43 H          11.4283  -21.4566  -16.3459 H         1 BH3         0.0265
     44 H          10.9871  -22.6192  -17.6421 H         1 BH3         0.0265
     45 H          12.9076  -23.9033  -17.3363 H         1 BH3         0.0265
     46 H          13.0593  -23.4577  -15.6027 H         1 BH3         0.0265
     47 H          14.2741  -21.5693  -16.0654 H         1 BH3         0.0265
     48 H          13.2886  -21.1720  -17.5138 H         1 BH3         0.0265
     49 H          14.4839  -23.3215  -18.5351 H         1 BH3         0.0265
     50 H          15.7065  -22.9895  -17.2615 H         1 BH3         0.0265
     51 H          16.5656  -21.2880  -18.4829 H         1 BH3         0.0265
     52 H          14.9562  -20.4936  -18.5570 H         1 BH3         0.0265
     53 H          14.4263  -22.3010  -20.3987 H         1 BH3         0.0265
     54 H          16.2111  -22.4809  -20.4933 H         1 BH3         0.0265
     55 H          16.4428  -20.0450  -20.9177 H         1 BH3         0.0265
     56 H          14.6614  -19.8481  -20.7977 H         1 BH3         0.0265
     57 H          14.3417  -20.5986  -22.9209 H         1 BH3         0.0265
     58 H          15.4350  -22.0013  -22.6680 H         1 BH3         0.0265
     59 H          17.4057  -20.4426  -22.9408 H         1 BH3         0.0265
     60 H          16.2551  -19.1228  -23.3419 H         1 BH3         0.0265
     61 H          15.4090  -21.2030  -25.0024 H         1 BH3         0.0265
     62 H          17.1946  -21.3988  -25.0008 H         1 BH3         0.0265
     63 H          17.4188  -18.9443  -25.5264 H         1 BH3         0.0263
     64 H          15.6294  -18.8388  -25.6430 H         1 BH3         0.0263
     65 H          16.6599  -19.1342  -27.8893 H         1 BH3         0.0230
     66 H          15.6462  -20.5506  -27.4500 H         1 BH3         0.0230
     67 H          17.4356  -20.6560  -27.3335 H         1 BH3         0.0230
@<TRIPOS>BOND
     1    1    2 ar 
     2    2    3 ar 
     3    2    4 ar 
     4    2    5 1  
     5    5    6 1  
     6    5   10 1  
     7    6    7 ar 
     8    6    8 ar 
     9    6    9 ar 
    10   10   11 1  
    11   11   12 2  
    12   11   13 1  
    13   12   15 1  
    14   13   14 2  
    15   14   15 1  
    16   15   16 1  
    17   16   17 1  
    18   17   18 1  
    19   18   19 1  
    20   19   20 1  
    21   20   21 1  
    22   21   22 1  
    23   22   23 1  
    24   23   24 1  
    25   24   25 1  
    26   25   26 1  
    27   26   27 1  
    28   27   28 1  
    29   28   29 1  
    30   29   30 1  
    31    5   31 1  
    32   10   32 1  
    33   10   33 1  
    34   12   34 1  
    35   13   35 1  
    36   14   36 1  
    37   16   37 1  
    38   16   38 1  
    39   17   39 1  
    40   17   40 1  
    41   18   41 1  
    42   18   42 1  
    43   19   43 1  
    44   19   44 1  
    45   20   45 1  
    46   20   46 1  
    47   21   47 1  
    48   21   48 1  
    49   22   49 1  
    50   22   50 1  
    51   23   51 1  
    52   23   52 1  
    53   24   53 1  
    54   24   54 1  
    55   25   55 1  
    56   25   56 1  
    57   26   57 1  
    58   26   58 1  
    59   27   59 1  
    60   27   60 1  
    61   28   61 1  
    62   28   62 1  
    63   29   63 1  
    64   29   64 1  
    65   30   65 1  
    66   30   66 1  
    67   30   67 1  
@<TRIPOS>SUBSTRUCTURE
     1 BH3         1

