5wkf_ligand
  -I-interpret- 

140140  0  0  0  0  0  0  0  0999 V2000
  -49.1010   15.2760    2.5770 N   0  3  0  0  0
  -48.6040   14.9860    3.9170 C   0  0  0  0  0
  -47.1170   14.7140    3.9330 C   0  0  0  0  0
  -46.6600   13.7660    3.3000 O   0  0  0  0  0
  -46.3600   15.5380    4.6740 N   0  0  0  0  0
  -44.9020   15.4510    4.8050 C   0  0  0  0  0
  -44.3820   14.1340    5.3740 C   0  0  0  0  0
  -45.0970   13.4150    6.0740 O   0  0  0  0  0
  -44.3690   16.5800    5.6880 C   0  0  0  0  0
  -45.0790   16.5850    6.9230 O   0  0  0  0  0
  -44.4330   17.9330    5.0250 C   0  0  0  0  0
  -43.1040   13.8520    5.1010 N   0  0  0  0  0
  -42.4070   12.6970    5.6390 C   0  0  0  0  0
  -41.9480   13.0430    7.0550 C   0  0  0  0  0
  -41.4830   14.1590    7.3100 O   0  0  0  0  0
  -41.1950   12.3530    4.7800 C   0  0  0  0  0
  -40.5710   11.1680    5.2480 O   0  0  0  0  0
  -42.1060   12.0900    7.9570 N   0  0  0  0  0
  -41.6720   12.2140    9.3400 C   0  0  0  0  0
  -40.6430   11.1560    9.6840 C   0  0  0  0  0
  -39.9860   11.2430   10.7240 O   0  0  0  0  0
  -40.5060   10.1420    8.8050 N   0  0  0  0  0
  -39.5920    9.0080    8.9410 C   0  0  0  0  0
  -38.9470    8.6560    7.5800 C   0  0  0  0  0
  -39.6830    8.4020    6.6190 O   0  0  0  0  0
  -40.3390    7.8000    9.5090 C   0  0  0  0  0
  -39.6880    6.5680    9.2460 O   0  0  0  0  0
  -37.5980    8.6360    7.4530 N   0  0  0  0  0
  -36.5700    8.8990    8.4660 C   0  0  0  0  0
  -36.0660   10.3460    8.4930 C   0  0  0  0  0
  -35.9170   10.9840    7.4460 O   0  0  0  0  0
  -35.4650    7.9140    8.0770 C   0  0  0  0  0
  -35.5630    7.8220    6.5580 C   0  0  0  0  0
  -36.9720    8.2600    6.1700 C   0  0  0  0  0
  -35.8290   10.8730    9.6960 N   0  0  0  0  0
  -35.2830   12.1970    9.9320 C   0  0  0  0  0
  -34.0880   11.9780   10.8450 C   0  0  0  0  0
  -34.1830   12.0560   12.0760 O   0  0  0  0  0
  -36.2770   13.2790   10.4200 C   0  0  0  0  0
  -37.4900   13.4020    9.4730 C   0  0  0  0  0
  -35.5560   14.6260   10.5290 C   0  0  0  0  0
  -38.6380   14.2810    9.9800 C   0  0  0  0  0
  -32.9770   11.5890   10.2070 N   0  0  0  0  0
  -31.6930   11.2990   10.8380 C   0  0  0  0  0
  -30.6180   12.2720   10.3430 C   0  0  0  0  0
  -30.7330   12.8160    9.2380 O   0  0  0  0  0
  -31.2680    9.8170   10.6740 C   0  0  0  0  0
  -32.1860    8.8940   11.4620 C   0  0  0  0  0
  -31.2110    9.4040    9.2080 C   0  0  0  0  0
  -29.5890   12.5040   11.1760 N   0  0  0  0  0
  -28.4850   13.3940   10.8330 C   0  0  0  0  0
  -27.7210   12.8490    9.6340 C   0  0  0  0  0
  -27.5330   11.6350    9.5040 O   0  0  0  0  0
  -27.5340   13.5710   12.0230 C   0  0  0  0  0
  -28.0780   14.3600   13.1870 C   0  0  0  0  0
  -28.0000   13.9240   14.3400 O   0  0  0  0  0
  -28.5550   15.5700   12.9330 N   0  0  0  0  0
  -27.2920   13.7510    8.7520 N   0  0  0  0  0
  -26.5370   13.3300    7.5780 C   0  0  0  0  0
  -24.9980   13.4360    7.8150 C   0  0  0  0  0
  -24.5550   14.2130    8.6850 O   0  0  0  0  0
  -27.0220   14.0520    6.3040 C   0  0  0  0  0
  -26.5650   15.4750    6.1200 C   0  0  0  0  0
  -27.1470   16.0720    4.8530 C   0  0  0  0  0
  -28.3670   16.8300    5.1300 N   0  0  0  0  0
  -29.5770   16.4890    4.7090 C   0  0  0  0  0
  -29.7440   15.4060    3.9650 N   0  0  0  0  0
  -30.6270   17.2340    5.0200 N   0  0  0  0  0
  -24.2550   12.6320    7.2200 O   0  0  0  0  0
  -50.1049   15.4518    2.6187 H   0  0  0  0  0
  -48.6252   16.1003    2.2102 H   0  0  0  0  0
  -48.9193   14.4780    1.9682 H   0  0  0  0  0
  -49.1142   14.0940    4.2805 H   0  0  0  0  0
  -48.7945   15.8574    4.5435 H   0  0  0  0  0
  -46.8352   16.2818    5.1852 H   0  0  0  0  0
  -44.5390   15.5289    3.7802 H   0  0  0  0  0
  -43.3112   16.3869    5.8666 H   0  0  0  0  0
  -45.0244   15.7153    7.3257 H   0  0  0  0  0
  -45.4738   18.1920    4.8305 H   0  0  0  0  0
  -43.9882   18.6798    5.6826 H   0  0  0  0  0
  -43.8832   17.9016    4.0844 H   0  0  0  0  0
  -42.5917   14.4809    4.4826 H   0  0  0  0  0
  -43.0735   11.8346    5.6468 H   0  0  0  0  0
  -40.4797   13.1737    4.8340 H   0  0  0  0  0
  -41.5234   12.1969    3.7524 H   0  0  0  0  0
  -39.8116   10.9680    4.6958 H   0  0  0  0  0
  -42.5561   11.2215    7.6681 H   0  0  0  0  0
  -42.5370   12.0848    9.9906 H   0  0  0  0  0
  -41.2220   13.1971    9.4782 H   0  0  0  0  0
  -41.0923   10.1683    7.9707 H   0  0  0  0  0
  -38.7944    9.2854    9.6302 H   0  0  0  0  0
  -41.3194    7.7641    9.0340 H   0  0  0  0  0
  -40.3913    7.9222   10.5909 H   0  0  0  0  0
  -40.2002    5.8496    9.6243 H   0  0  0  0  0
  -36.9522    8.7665    9.4781 H   0  0  0  0  0
  -35.5918    6.9435    8.5567 H   0  0  0  0  0
  -34.4813    8.2488    8.4060 H   0  0  0  0  0
  -35.3714    6.8030    6.2218 H   0  0  0  0  0
  -34.8180    8.4623    6.0856 H   0  0  0  0  0
  -36.9657    9.0846    5.4572 H   0  0  0  0  0
  -37.5228    7.4707    5.6583 H   0  0  0  0  0
  -36.0483   10.3017   10.5120 H   0  0  0  0  0
  -34.9910   12.6471    8.9832 H   0  0  0  0  0
  -36.6507   12.9817   11.3998 H   0  0  0  0  0
  -37.8965   12.3972    9.3581 H   0  0  0  0  0
  -37.1232   13.8683    8.5586 H   0  0  0  0  0
  -34.7344   14.5404   11.2402 H   0  0  0  0  0
  -35.1643   14.9071    9.5514 H   0  0  0  0  0
  -36.2581   15.3857   10.8727 H   0  0  0  0  0
  -39.0191   13.8741   10.9167 H   0  0  0  0  0
  -38.2724   15.2946   10.1447 H   0  0  0  0  0
  -39.4363   14.2974    9.2380 H   0  0  0  0  0
  -33.0325   11.4866    9.1937 H   0  0  0  0  0
  -31.8128   11.4511   11.9107 H   0  0  0  0  0
  -30.2607    9.7231   11.0796 H   0  0  0  0  0
  -32.1414    9.1554   12.5193 H   0  0  0  0  0
  -33.2085    9.0063   11.1015 H   0  0  0  0  0
  -31.8633    7.8615   11.3277 H   0  0  0  0  0
  -32.1956    9.5304    8.7577 H   0  0  0  0  0
  -30.4875   10.0284    8.6838 H   0  0  0  0  0
  -30.9093    8.3589    9.1377 H   0  0  0  0  0
  -29.5796   12.0394   12.0840 H   0  0  0  0  0
  -28.9022   14.3680   10.5775 H   0  0  0  0  0
  -26.6742   14.1272   11.6495 H   0  0  0  0  0
  -27.3246   12.5703   12.4008 H   0  0  0  0  0
  -28.8687   16.1657   13.6992 H   0  0  0  0  0
  -28.6085   15.9056   11.9713 H   0  0  0  0  0
  -27.4927   14.7402    8.8988 H   0  0  0  0  0
  -26.7344   12.2713    7.4096 H   0  0  0  0  0
  -25.2726   14.7511    9.0272 H   0  0  0  0  0
  -28.1089   14.0919    6.3760 H   0  0  0  0  0
  -26.6086   13.4923    5.4650 H   0  0  0  0  0
  -25.4776   15.4866    6.0451 H   0  0  0  0  0
  -26.9033   16.0644    6.9722 H   0  0  0  0  0
  -27.3927   15.2595    4.1692 H   0  0  0  0  0
  -26.4105   16.7487    4.4198 H   0  0  0  0  0
  -28.2807   17.6807    5.6861 H   0  0  0  0  0
  -30.6755   15.1516    3.6364 H   0  0  0  0  0
  -28.9411   14.8264    3.7206 H   0  0  0  0  0
  -30.5066   18.0742    5.5857 H   0  0  0  0  0
  1  2  1  0  0  0
  2  3  1  0  0  0
  3  4  2  0  0  0
  3  5  1  0  0  0
  5  6  1  0  0  0
  6  7  1  0  0  0
  6  9  1  0  0  0
  7  8  2  0  0  0
  7 12  1  0  0  0
  9 10  1  0  0  0
  9 11  1  0  0  0
 12 13  1  0  0  0
 13 14  1  0  0  0
 13 16  1  0  0  0
 14 15  2  0  0  0
 14 18  1  0  0  0
 16 17  1  0  0  0
 18 19  1  0  0  0
 19 20  1  0  0  0
 20 21  2  0  0  0
 20 22  1  0  0  0
 22 23  1  0  0  0
 23 24  1  0  0  0
 23 26  1  0  0  0
 24 25  2  0  0  0
 24 28  1  0  0  0
 26 27  1  0  0  0
 28 29  1  0  0  0
 28 34  1  0  0  0
 29 30  1  0  0  0
 29 32  1  0  0  0
 30 31  2  0  0  0
 30 35  1  0  0  0
 32 33  1  0  0  0
 33 34  1  0  0  0
 35 36  1  0  0  0
 36 37  1  0  0  0
 36 39  1  0  0  0
 37 38  2  0  0  0
 37 43  1  0  0  0
 39 40  1  0  0  0
 39 41  1  0  0  0
 40 42  1  0  0  0
 43 44  1  0  0  0
 44 45  1  0  0  0
 44 47  1  0  0  0
 45 46  2  0  0  0
 45 50  1  0  0  0
 47 48  1  0  0  0
 47 49  1  0  0  0
 50 51  1  0  0  0
 51 52  1  0  0  0
 51 54  1  0  0  0
 52 53  2  0  0  0
 52 58  1  0  0  0
 54 55  1  0  0  0
 55 56  2  0  0  0
 55 57  1  0  0  0
 58 59  1  0  0  0
 59 60  1  0  0  0
 59 62  1  0  0  0
 60 61  1  0  0  0
 60 69  2  0  0  0
 62 63  1  0  0  0
 63 64  1  0  0  0
 64 65  1  0  0  0
 65 66  1  0  0  0
 66 67  1  0  0  0
 66 68  2  0  0  0
  1 70  1  0  0  0
  1 71  1  0  0  0
  1 72  1  0  0  0
  2 73  1  0  0  0
  2 74  1  0  0  0
  5 75  1  0  0  0
  6 76  1  0  0  0
  9 77  1  0  0  0
 10 78  1  0  0  0
 11 79  1  0  0  0
 11 80  1  0  0  0
 11 81  1  0  0  0
 12 82  1  0  0  0
 13 83  1  0  0  0
 16 84  1  0  0  0
 16 85  1  0  0  0
 17 86  1  0  0  0
 18 87  1  0  0  0
 19 88  1  0  0  0
 19 89  1  0  0  0
 22 90  1  0  0  0
 23 91  1  0  0  0
 26 92  1  0  0  0
 26 93  1  0  0  0
 27 94  1  0  0  0
 29 95  1  0  0  0
 32 96  1  0  0  0
 32 97  1  0  0  0
 33 98  1  0  0  0
 33 99  1  0  0  0
 34100  1  0  0  0
 34101  1  0  0  0
 35102  1  0  0  0
 36103  1  0  0  0
 39104  1  0  0  0
 40105  1  0  0  0
 40106  1  0  0  0
 41107  1  0  0  0
 41108  1  0  0  0
 41109  1  0  0  0
 42110  1  0  0  0
 42111  1  0  0  0
 42112  1  0  0  0
 43113  1  0  0  0
 44114  1  0  0  0
 47115  1  0  0  0
 48116  1  0  0  0
 48117  1  0  0  0
 48118  1  0  0  0
 49119  1  0  0  0
 49120  1  0  0  0
 49121  1  0  0  0
 50122  1  0  0  0
 51123  1  0  0  0
 54124  1  0  0  0
 54125  1  0  0  0
 57126  1  0  0  0
 57127  1  0  0  0
 58128  1  0  0  0
 59129  1  0  0  0
 61130  1  0  0  0
 62131  1  0  0  0
 62132  1  0  0  0
 63133  1  0  0  0
 63134  1  0  0  0
 64135  1  0  0  0
 64136  1  0  0  0
 65137  1  0  0  0
 67138  1  0  0  0
 67139  1  0  0  0
 68140  1  0  0  0
M  END
$$$$
