### 
### Created by X-TOOL on Mon Sep 10 21:13:32 2018
### 

@<TRIPOS>MOLECULE
5wkf_ligand
  140   140     1     0     0
SMALL
GAST_HUCK


@<TRIPOS>ATOM
      1 N         -49.1010   15.2760    2.5770 N.4       1 GLY         0.2357
      2 CA        -48.6040   14.9860    3.9170 C.3       1 GLY         0.0545
      3 C         -47.1170   14.7140    3.9330 C.2       1 GLY         0.2237
      4 O         -46.6600   13.7660    3.3000 O.2       1 GLY        -0.3910
      5 N         -46.3600   15.5380    4.6740 N.am      1 THR        -0.2589
      6 CA        -44.9020   15.4510    4.8050 C.3       1 THR         0.1566
      7 C         -44.3820   14.1340    5.3740 C.2       1 THR         0.2065
      8 O         -45.0970   13.4150    6.0740 O.2       1 THR        -0.3943
      9 CB        -44.3690   16.5800    5.6880 C.3       1 THR         0.0924
     10 OG1       -45.0790   16.5850    6.9230 O.3       1 THR        -0.3874
     11 CG2       -44.4330   17.9330    5.0250 C.3       1 THR        -0.0346
     12 N         -43.1040   13.8520    5.1010 N.am      1 SER        -0.2615
     13 CA        -42.4070   12.6970    5.6390 C.3       1 SER         0.1539
     14 C         -41.9480   13.0430    7.0550 C.2       1 SER         0.2060
     15 O         -41.4830   14.1590    7.3100 O.2       1 SER        -0.3943
     16 CB        -41.1950   12.3530    4.7800 C.3       1 SER         0.0843
     17 OG        -40.5710   11.1680    5.2480 O.3       1 SER        -0.3903
     18 N         -42.1060   12.0900    7.9570 N.am      1 GLY        -0.2663
     19 CA        -41.6720   12.2140    9.3400 C.3       1 GLY         0.1201
     20 C         -40.6430   11.1560    9.6840 C.2       1 GLY         0.2008
     21 O         -39.9860   11.2430   10.7240 O.2       1 GLY        -0.3947
     22 N         -40.5060   10.1420    8.8050 N.am      1 SER        -0.2618
     23 CA        -39.5920    9.0080    8.9410 C.3       1 SER         0.1541
     24 C         -38.9470    8.6560    7.5800 C.2       1 SER         0.2087
     25 O         -39.6830    8.4020    6.6190 O.2       1 SER        -0.3941
     26 CB        -40.3390    7.8000    9.5090 C.3       1 SER         0.0843
     27 OG        -39.6880    6.5680    9.2460 O.3       1 SER        -0.3903
     28 N         -37.5980    8.6360    7.4530 N.am      1 PRO        -0.2498
     29 CA        -36.5700    8.8990    8.4660 C.3       1 PRO         0.1338
     30 C         -36.0660   10.3460    8.4930 C.2       1 PRO         0.2041
     31 O         -35.9170   10.9840    7.4460 O.2       1 PRO        -0.3944
     32 CB        -35.4650    7.9140    8.0770 C.3       1 PRO        -0.0104
     33 CG        -35.5630    7.8220    6.5580 C.3       1 PRO        -0.0281
     34 CD        -36.9720    8.2600    6.1700 C.3       1 PRO         0.0369
     35 N         -35.8290   10.8730    9.6960 N.am      1 ILE        -0.2635
     36 CA        -35.2830   12.1970    9.9320 C.3       1 ILE         0.1335
     37 C         -34.0880   11.9780   10.8450 C.2       1 ILE         0.2042
     38 O         -34.1830   12.0560   12.0760 O.2       1 ILE        -0.3944
     39 CB        -36.2770   13.2790   10.4200 C.3       1 ILE        -0.0037
     40 CG1       -37.4900   13.4020    9.4730 C.3       1 ILE        -0.0491
     41 CG2       -35.5560   14.6260   10.5290 C.3       1 ILE        -0.0582
     42 CD1       -38.6380   14.2810    9.9800 C.3       1 ILE        -0.0648
     43 N         -32.9770   11.5890   10.2070 N.am      1 VAL        -0.2635
     44 CA        -31.6930   11.2990   10.8380 C.3       1 VAL         0.1333
     45 C         -30.6180   12.2720   10.3430 C.2       1 VAL         0.2043
     46 O         -30.7330   12.8160    9.2380 O.2       1 VAL        -0.3944
     47 CB        -31.2680    9.8170   10.6740 C.3       1 VAL        -0.0063
     48 CG1       -32.1860    8.8940   11.4620 C.3       1 VAL        -0.0584
     49 CG2       -31.2110    9.4040    9.2080 C.3       1 VAL        -0.0584
     50 N         -29.5890   12.5040   11.1760 N.am      1 ASN        -0.2616
     51 CA        -28.4850   13.3940   10.8330 C.3       1 ASN         0.1475
     52 C         -27.7210   12.8490    9.6340 C.2       1 ASN         0.2057
     53 O         -27.5330   11.6350    9.5040 O.2       1 ASN        -0.3942
     54 CB        -27.5340   13.5710   12.0230 C.3       1 ASN         0.0773
     55 CG        -28.0780   14.3600   13.1870 C.2       1 ASN         0.1780
     56 OD1       -28.0000   13.9240   14.3400 O.2       1 ASN        -0.3970
     57 ND2       -28.5550   15.5700   12.9330 N.am      1 ASN        -0.3007
     58 N         -27.2920   13.7510    8.7520 N.am      1 ARG        -0.2693
     59 CA        -26.5370   13.3300    7.5780 C.3       1 ARG         0.0945
     60 C         -24.9980   13.4360    7.8150 C.2       1 ARG         0.0601
     61 O         -24.5550   14.2130    8.6850 O.co2     1 ARG        -0.5666
     62 CB        -27.0220   14.0520    6.3040 C.3       1 ARG        -0.0148
     63 CG        -26.5650   15.4750    6.1200 C.3       1 ARG        -0.0162
     64 CD        -27.1470   16.0720    4.8530 C.3       1 ARG         0.0627
     65 NE        -28.3670   16.8300    5.1300 N.pl3     1 ARG        -0.2723
     66 CZ        -29.5770   16.4890    4.7090 C.cat     1 ARG         0.2882
     67 NH1       -29.7440   15.4060    3.9650 N.pl3     1 ARG        -0.2849
     68 NH2       -30.6270   17.2340    5.0200 N.pl3     1 ARG        -0.2849
     69 OXT       -24.2550   12.6320    7.2200 O.co2     1 ARG        -0.5666
     70 H1        -50.0931   15.4499    2.6170 H         1 GLY         0.2012
     71 H2        -48.9221   14.4880    1.9744 H         1 GLY         0.2012
     72 H3        -48.6315   16.0905    2.2134 H         1 GLY         0.2012
     73 H4        -49.1293   14.1008    4.3049 H         1 GLY         0.1061
     74 H5        -48.8122   15.8496    4.5658 H         1 GLY         0.1061
     75 H6        -46.8259   16.2672    5.1752 H         1 THR         0.1885
     76 H7        -44.4800   15.5680    3.7959 H         1 THR         0.0826
     77 H8        -43.3109   16.3677    5.9010 H         1 THR         0.0639
     78 H9        -46.0040   16.7212    6.7547 H         1 THR         0.2101
     79 H10       -44.0365   18.6964    5.7106 H         1 THR         0.0257
     80 H11       -45.4779   18.1706    4.7766 H         1 THR         0.0257
     81 H12       -43.8313   17.9190    4.1043 H         1 THR         0.0257
     82 H13       -42.6017   14.4685    4.4947 H         1 SER         0.1884
     83 H14       -43.0889   11.8343    5.6678 H         1 SER         0.0823
     84 H15       -40.4739   13.1825    4.8235 H         1 SER         0.0606
     85 H16       -41.5199   12.2037    3.7397 H         1 SER         0.0606
     86 H17       -39.8195   10.9701    4.7015 H         1 SER         0.2097
     87 H18       -42.5473   11.2385    7.6738 H         1 GLY         0.1881
     88 H19       -42.5427   12.0973   10.0020 H         1 GLY         0.0763
     89 H20       -41.2282   13.2093    9.4898 H         1 GLY         0.0763
     90 H21       -41.0808   10.1678    7.9871 H         1 SER         0.1884
     91 H22       -38.7920    9.2865    9.6427 H         1 SER         0.0823
     92 H23       -41.3433    7.7675    9.0614 H         1 SER         0.0606
     93 H24       -40.4269    7.9236   10.5985 H         1 SER         0.0606
     94 H25       -39.6131    6.4448    8.3070 H         1 SER         0.2097
     95 H26       -36.9614    8.6577    9.4653 H         1 PRO         0.0802
     96 H27       -35.6382    6.9310    8.5392 H         1 PRO         0.0313
     97 H28       -34.4787    8.2939    8.3819 H         1 PRO         0.0313
     98 H29       -35.3866    6.7867    6.2309 H         1 PRO         0.0287
     99 H30       -34.8201    8.4856    6.0914 H         1 PRO         0.0287
    100 H31       -36.9388    9.1199    5.4848 H         1 PRO         0.0524
    101 H32       -37.5209    7.4335    5.6950 H         1 PRO         0.0524
    102 H33       -36.0440   10.3129   10.4960 H         1 ILE         0.1883
    103 H34       -34.9009   12.5663    8.9689 H         1 ILE         0.0803
    104 H35       -36.6430   12.9920   11.4168 H         1 ILE         0.0345
    105 H36       -37.8884   12.3914    9.2999 H         1 ILE         0.0267
    106 H37       -37.1352   13.8242    8.5213 H         1 ILE         0.0267
    107 H38       -34.6943   14.5269   11.2055 H         1 ILE         0.0235
    108 H39       -36.2492   15.3819   10.9266 H         1 ILE         0.0235
    109 H40       -35.2066   14.9365    9.5333 H         1 ILE         0.0235
    110 H41       -39.4444   14.2984    9.2320 H         1 ILE         0.0230
    111 H42       -38.2703   15.3043   10.1466 H         1 ILE         0.0230
    112 H43       -39.0236   13.8714   10.9253 H         1 ILE         0.0230
    113 H44       -33.0315   11.4886    9.2135 H         1 VAL         0.1883
    114 H45       -31.8167   11.4748   11.9168 H         1 VAL         0.0802
    115 H46       -30.2541    9.7147   11.0880 H         1 VAL         0.0343
    116 H47       -31.8614    7.8517   11.3273 H         1 VAL         0.0234
    117 H48       -33.2183    9.0063   11.0991 H         1 VAL         0.0234
    118 H49       -32.1419    9.1567   12.5292 H         1 VAL         0.0234
    119 H50       -30.5425   10.0851    8.6610 H         1 VAL         0.0234
    120 H51       -32.2203    9.4536    8.7735 H         1 VAL         0.0234
    121 H52       -30.8290    8.3753    9.1314 H         1 VAL         0.0234
    122 H53       -29.5798   12.0485   12.0662 H         1 ASN         0.1885
    123 H54       -28.9000   14.3777   10.5682 H         1 ASN         0.0826
    124 H55       -26.6313   14.0843   11.6601 H         1 ASN         0.0551
    125 H56       -27.2639   12.5701   12.3908 H         1 ASN         0.0551
    126 H57       -28.9255   16.1275   13.6759 H         1 ASN         0.1814
    127 H58       -28.5445   15.9256   11.9984 H         1 ASN         0.1814
    128 H59       -27.4888   14.7208    8.8960 H         1 ARG         0.1875
    129 H60       -26.7532   12.2618    7.4288 H         1 ARG         0.0726
    130 H61       -28.1219   14.0542    6.3199 H         1 ARG         0.0307
    131 H62       -26.6689   13.4735    5.4376 H         1 ARG         0.0307
    132 H63       -25.4671   15.4950    6.0559 H         1 ARG         0.0301
    133 H64       -26.8929   16.0728    6.9831 H         1 ARG         0.0301
    134 H65       -27.3828   15.2593    4.1502 H         1 ARG         0.0689
    135 H66       -26.4034   16.7443    4.4001 H         1 ARG         0.0689
    136 H67       -28.2799   17.6890    5.6916 H         1 ARG         0.2642
    137 H68       -30.6858   15.1446    3.6400 H         1 ARG         0.2615
    138 H69       -28.9321   14.8252    3.7114 H         1 ARG         0.2615
    139 H70       -30.5066   18.0779    5.5981 H         1 ARG         0.2615
    140 H71       -31.5639   16.9694    4.6838 H         1 ARG         0.2615
@<TRIPOS>BOND
     1    1    2 1  
     2    2    3 1  
     3    3    4 2  
     4    3    5 am 
     5    5    6 1  
     6    6    7 1  
     7    6    9 1  
     8    7    8 2  
     9    7   12 am 
    10    9   10 1  
    11    9   11 1  
    12   12   13 1  
    13   13   14 1  
    14   13   16 1  
    15   14   15 2  
    16   14   18 am 
    17   16   17 1  
    18   18   19 1  
    19   19   20 1  
    20   20   21 2  
    21   20   22 am 
    22   22   23 1  
    23   23   24 1  
    24   23   26 1  
    25   24   25 2  
    26   24   28 am 
    27   26   27 1  
    28   28   29 1  
    29   28   34 1  
    30   29   30 1  
    31   29   32 1  
    32   30   31 2  
    33   30   35 am 
    34   32   33 1  
    35   33   34 1  
    36   35   36 1  
    37   36   37 1  
    38   36   39 1  
    39   37   38 2  
    40   37   43 am 
    41   39   40 1  
    42   39   41 1  
    43   40   42 1  
    44   43   44 1  
    45   44   45 1  
    46   44   47 1  
    47   45   46 2  
    48   45   50 am 
    49   47   48 1  
    50   47   49 1  
    51   50   51 1  
    52   51   52 1  
    53   51   54 1  
    54   52   53 2  
    55   52   58 am 
    56   54   55 1  
    57   55   56 2  
    58   55   57 am 
    59   58   59 1  
    60   59   60 1  
    61   59   62 1  
    62   60   61 ar 
    63   60   69 ar 
    64   62   63 1  
    65   63   64 1  
    66   64   65 1  
    67   65   66 ar 
    68   66   67 ar 
    69   66   68 ar 
    70    1   70 1  
    71    1   71 1  
    72    1   72 1  
    73    2   73 1  
    74    2   74 1  
    75    5   75 1  
    76    6   76 1  
    77    9   77 1  
    78   10   78 1  
    79   11   79 1  
    80   11   80 1  
    81   11   81 1  
    82   12   82 1  
    83   13   83 1  
    84   16   84 1  
    85   16   85 1  
    86   17   86 1  
    87   18   87 1  
    88   19   88 1  
    89   19   89 1  
    90   22   90 1  
    91   23   91 1  
    92   26   92 1  
    93   26   93 1  
    94   27   94 1  
    95   29   95 1  
    96   32   96 1  
    97   32   97 1  
    98   33   98 1  
    99   33   99 1  
   100   34  100 1  
   101   34  101 1  
   102   35  102 1  
   103   36  103 1  
   104   39  104 1  
   105   40  105 1  
   106   40  106 1  
   107   41  107 1  
   108   41  108 1  
   109   41  109 1  
   110   42  110 1  
   111   42  111 1  
   112   42  112 1  
   113   43  113 1  
   114   44  114 1  
   115   47  115 1  
   116   48  116 1  
   117   48  117 1  
   118   48  118 1  
   119   49  119 1  
   120   49  120 1  
   121   49  121 1  
   122   50  122 1  
   123   51  123 1  
   124   54  124 1  
   125   54  125 1  
   126   57  126 1  
   127   57  127 1  
   128   58  128 1  
   129   59  129 1  
   130   62  130 1  
   131   62  131 1  
   132   63  132 1  
   133   63  133 1  
   134   64  134 1  
   135   64  135 1  
   136   65  136 1  
   137   67  137 1  
   138   67  138 1  
   139   68  139 1  
   140   68  140 1  
@<TRIPOS>SUBSTRUCTURE
     1 GLY         1

