3igg_ligand
  -I-interpret- 

 41 43  0  0  0  0  0  0  0  0999 V2000
   -1.4530   31.8920    8.6890 C   0  0  0  0  0
   -0.1600   31.6100    8.1410 N   0  0  0  0  0
   -3.1600   30.3130   11.1490 O   0  0  0  0  0
    0.6210   30.5100    8.1670 C   0  0  0  0  0
    1.6810   32.1370    7.0490 N   0  0  0  0  0
    2.4330   28.2990    8.5350 O   0  0  0  0  0
    0.5010   32.5740    7.4750 C   0  0  0  0  0
    2.9960   30.0580    7.1750 N   0  0  0  0  0
    4.4810   24.6730    3.2720 O   0  0  0  0  0
   -2.4830   30.7350    8.7410 C   0  0  0  0  0
   -1.4590   31.8270   10.2650 C   0  0  0  0  0
    1.7950   30.8520    7.4630 C   0  0  0  0  0
   -2.9160   31.2770   10.1230 C   0  0  0  0  0
    3.2290   28.8950    7.8150 C   0  0  0  0  0
    4.6330   28.3980    7.5700 C   0  0  0  0  0
    4.5950   27.4500    6.4140 C   0  0  0  0  0
    4.3850   26.1020    6.6270 C   0  0  0  0  0
    4.7770   27.9140    5.1070 C   0  0  0  0  0
    4.3690   25.1890    5.5890 C   0  0  0  0  0
    4.7620   26.9930    4.0720 C   0  0  0  0  0
    4.5260   25.6380    4.2890 C   0  0  0  0  0
    5.6580   24.7400    2.4610 C   0  0  0  0  0
   -1.6654   32.7842    8.0999 H   0  0  0  0  0
   -3.4203   30.7644   11.9553 H   0  0  0  0  0
    0.3919   29.5531    8.6359 H   0  0  0  0  0
    0.1188   33.5809    7.3071 H   0  0  0  0  0
    3.6640   30.3916    6.4801 H   0  0  0  0  0
   -2.1808   29.6965    8.6053 H   0  0  0  0  0
   -3.2043   30.5777    7.9391 H   0  0  0  0  0
   -1.2176   32.6892   10.8866 H   0  0  0  0  0
   -0.6890   31.3032   10.8314 H   0  0  0  0  0
   -3.8290   31.8677   10.1974 H   0  0  0  0  0
    5.0130   27.8928    8.4579 H   0  0  0  0  0
    5.2945   29.2353    7.3477 H   0  0  0  0  0
    4.2269   25.7467    7.6453 H   0  0  0  0  0
    4.9271   28.9750    4.9075 H   0  0  0  0  0
    4.2342   24.1266    5.7921 H   0  0  0  0  0
    4.9408   27.3406    3.0545 H   0  0  0  0  0
    5.7294   25.7286    2.0074 H   0  0  0  0  0
    6.5359   24.5592    3.0813 H   0  0  0  0  0
    5.6022   23.9831    1.6787 H   0  0  0  0  0
  2  1  1  0  0  0
  1 10  1  0  0  0
  1 11  1  0  0  0
  4  2  4  0  0  0
  7  2  4  0  0  0
 13  3  1  0  0  0
 12  4  4  0  0  0
  5  7  4  0  0  0
 12  5  4  0  0  0
 14  6  2  0  0  0
  8 12  1  0  0  0
 14  8  1  0  0  0
 21  9  1  0  0  0
  9 22  1  0  0  0
 10 13  1  0  0  0
 11 13  1  0  0  0
 15 14  1  0  0  0
 16 15  1  0  0  0
 17 16  4  0  0  0
 16 18  4  0  0  0
 19 17  4  0  0  0
 18 20  4  0  0  0
 19 21  4  0  0  0
 20 21  4  0  0  0
  1 23  1  0  0  0
  3 24  1  0  0  0
  4 25  1  0  0  0
  7 26  1  0  0  0
  8 27  1  0  0  0
 10 28  1  0  0  0
 10 29  1  0  0  0
 11 30  1  0  0  0
 11 31  1  0  0  0
 13 32  1  0  0  0
 15 33  1  0  0  0
 15 34  1  0  0  0
 17 35  1  0  0  0
 18 36  1  0  0  0
 19 37  1  0  0  0
 20 38  1  0  0  0
 22 39  1  0  0  0
 22 40  1  0  0  0
 22 41  1  0  0  0
M  END
$$$$
