4x50_ligand
  -I-interpret- 

 44 46  0  0  0  0  0  0  0  0999 V2000
  -21.0150   -6.8340  -11.2780 C   0  0  0  0  0
  -21.4650   -5.8590  -12.3560 C   0  0  0  0  0
  -22.7030   -5.0940  -11.8750 C   0  0  0  0  0
  -19.7810   -7.5730  -11.7600 C   0  0  0  0  0
  -21.2550   -3.5070  -19.7290 C   0  0  0  0  0
  -21.7630   -3.1600  -20.9790 C   0  0  0  0  0
  -22.5030   -4.0770  -21.7170 C   0  0  0  0  0
  -22.7360   -5.3460  -21.2050 C   0  0  0  0  0
  -22.2250   -5.6930  -19.9590 C   0  0  0  0  0
  -21.4840   -4.7780  -19.2150 C   0  0  0  0  0
  -20.9820   -5.1520  -17.9650 C   0  0  0  0  0
  -20.8570   -4.2340  -16.9210 C   0  0  0  0  0
  -20.3580   -4.6330  -15.6790 C   0  0  0  0  0
  -20.6020   -6.4720  -17.7580 C   0  0  0  0  0
  -20.1040   -6.8680  -16.5260 C   0  0  0  0  0
  -19.9790   -5.9600  -15.4820 C   0  0  0  0  0
  -19.4830   -6.4460  -14.3050 O   0  0  0  0  0
  -19.2280   -5.6120  -13.1600 C   0  0  0  0  0
  -20.4080   -4.9290  -12.6680 O   0  0  0  0  0
  -22.3900   -4.3590  -10.6880 O   0  0  0  0  0
  -22.0680   -7.7690  -11.0330 O   0  0  0  0  0
  -19.3360   -8.5030  -10.7610 O   0  0  0  0  0
  -18.6990   -6.5400  -12.0680 C   0  0  0  0  0
  -18.3780   -5.7800  -10.8930 O   0  0  0  0  0
  -20.7797   -6.2962  -10.3596 H   0  0  0  0  0
  -21.7120   -6.4213  -13.2565 H   0  0  0  0  0
  -23.5023   -5.8028  -11.6589 H   0  0  0  0  0
  -23.0225   -4.4011  -12.6534 H   0  0  0  0  0
  -20.0081   -8.1446  -12.6599 H   0  0  0  0  0
  -20.6783   -2.7822  -19.1544 H   0  0  0  0  0
  -21.5792   -2.1636  -21.3808 H   0  0  0  0  0
  -22.8988   -3.8004  -22.6942 H   0  0  0  0  0
  -23.3177   -6.0683  -21.7778 H   0  0  0  0  0
  -22.4063   -6.6913  -19.5606 H   0  0  0  0  0
  -21.1515   -3.1961  -17.0764 H   0  0  0  0  0
  -20.2654   -3.9106  -14.8680 H   0  0  0  0  0
  -20.6955   -7.1979  -18.5657 H   0  0  0  0  0
  -19.8066   -7.9057  -16.3746 H   0  0  0  0  0
  -18.5233   -4.8300  -13.4427 H   0  0  0  0  0
  -23.1696   -3.8828  -10.3929 H   0  0  0  0  0
  -22.8475   -7.2988  -10.7282 H   0  0  0  0  0
  -20.0323   -9.1402  -10.5857 H   0  0  0  0  0
  -17.7912   -7.0429  -12.4013 H   0  0  0  0  0
  -18.0466   -6.3701  -10.2122 H   0  0  0  0  0
  2  1  1  0  0  0
  1  4  1  0  0  0
  1 21  1  0  0  0
  2  3  1  0  0  0
 19  2  1  0  0  0
  3 20  1  0  0  0
  4 22  1  0  0  0
  4 23  1  0  0  0
  5  6  4  0  0  0
 10  5  4  0  0  0
  6  7  4  0  0  0
  8  7  4  0  0  0
  9  8  4  0  0  0
 10  9  4  0  0  0
 11 10  1  0  0  0
 12 11  4  0  0  0
 14 11  4  0  0  0
 13 12  4  0  0  0
 16 13  4  0  0  0
 15 14  4  0  0  0
 16 15  4  0  0  0
 17 16  1  0  0  0
 18 17  1  0  0  0
 18 19  1  0  0  0
 18 23  1  0  0  0
 23 24  1  0  0  0
  1 25  1  0  0  0
  2 26  1  0  0  0
  3 27  1  0  0  0
  3 28  1  0  0  0
  4 29  1  0  0  0
  5 30  1  0  0  0
  6 31  1  0  0  0
  7 32  1  0  0  0
  8 33  1  0  0  0
  9 34  1  0  0  0
 12 35  1  0  0  0
 13 36  1  0  0  0
 14 37  1  0  0  0
 15 38  1  0  0  0
 18 39  1  0  0  0
 20 40  1  0  0  0
 21 41  1  0  0  0
 22 42  1  0  0  0
 23 43  1  0  0  0
 24 44  1  0  0  0
M  END
$$$$
