5h5r_ligand
  -I-interpret- 

233237  0  0  0  0  0  0  0  0999 V2000
   38.0210    2.2170    9.6240 C   0  0  0  0  0
   37.3110    2.9260   10.3080 O   0  0  0  0  0
   38.9730    2.8350    8.6230 C   0  0  0  0  0
   37.9720    0.8980    9.7190 N   0  0  0  0  0
   37.0450    0.2120   10.6580 C   0  0  0  0  0
   37.2110    0.7420   12.0790 C   0  0  0  0  0
   38.3370    0.8490   12.5910 O   0  0  0  0  0
   37.3310   -1.2800   10.6530 C   0  0  0  0  0
   36.1260   -2.1830   11.6250 S   0  0  0  0  0
   36.0820    1.0470   12.7180 N   0  0  0  0  0
   36.0610    1.6060   14.0610 C   0  0  0  0  0
   35.8250    0.5780   15.1460 C   0  0  0  0  0
   36.0540    0.8640   16.3030 O   0  0  0  0  0
   35.0060    2.7050   14.1290 C   0  0  0  0  0
   35.3250    3.8710   13.2040 C   0  0  0  0  0
   34.0830    4.4010   12.5420 C   0  0  0  0  0
   33.1940    5.0200   13.5070 N   0  0  0  0  0
   31.9040    5.2830   13.3070 C   0  0  0  0  0
   31.2390    5.8800   14.2670 N   0  0  0  0  0
   31.2660    4.9540   12.1930 N   0  0  0  0  0
   35.3410   -0.6080   14.7830 N   0  0  0  0  0
   35.0900   -1.6750   15.7560 C   0  0  0  0  0
   35.0130   -2.9920   14.9890 C   0  0  0  0  0
   34.1830   -3.1560   14.0990 O   0  0  0  0  0
   33.8080   -1.4130   16.5400 C   0  0  0  0  0
   35.9150   -3.9160   15.3160 N   0  0  0  0  0
   35.9390   -5.2800   14.7570 C   0  0  0  0  0
   35.1680   -6.2290   15.6700 C   0  0  0  0  0
   35.1800   -6.0640   16.9000 O   0  0  0  0  0
   37.3950   -5.7610   14.5840 C   0  0  0  0  0
   38.0780   -5.1030   13.4280 C   0  0  0  0  0
   38.7710   -3.9280   13.4270 C   0  0  0  0  0
   38.0800   -5.5630   12.0790 C   0  0  0  0  0
   39.2130   -3.6380   12.1590 N   0  0  0  0  0
   38.7940   -4.6230   11.3110 C   0  0  0  0  0
   37.5670   -6.6870   11.4460 C   0  0  0  0  0
   38.9910   -4.7720    9.9350 C   0  0  0  0  0
   37.7660   -6.8410   10.0770 C   0  0  0  0  0
   38.4670   -5.8900    9.3440 C   0  0  0  0  0
   34.4920   -7.2100   15.0690 N   0  0  0  0  0
   33.8190   -8.2630   15.8220 C   0  0  0  0  0
   34.0790   -9.5490   15.0840 C   0  0  0  0  0
   33.8220   -9.6360   13.9030 O   0  0  0  0  0
   32.3190   -8.0000   15.9240 C   0  0  0  0  0
   31.6240   -9.0550   16.7460 C   0  0  0  0  0
   31.6910   -9.0540   18.1390 C   0  0  0  0  0
   30.9430  -10.1050   16.1320 C   0  0  0  0  0
   31.0560  -10.0460   18.8820 C   0  0  0  0  0
   30.3310  -11.0940   16.8670 C   0  0  0  0  0
   30.3800  -11.0580   18.2410 C   0  0  0  0  0
   29.7740  -12.0520   18.9690 O   0  0  0  0  0
   34.6030  -10.5420   15.8080 N   0  0  0  0  0
   35.0880  -11.7720   15.2020 C   0  0  0  0  0
   35.9470  -11.4630   13.9730 C   0  0  0  0  0
   36.9650  -10.8080   14.1350 O   0  0  0  0  0
   33.9100  -12.6800   14.9480 C   0  0  0  0  0
   33.3540  -13.1980   16.2580 C   0  0  0  0  0
   32.7850  -14.5760   16.1070 C   0  0  0  0  0
   33.5010  -15.5740   16.2650 O   0  0  0  0  0
   31.5130  -14.6520   15.7450 N   0  0  0  0  0
   35.5450  -11.8710   12.7730 N   0  0  0  0  0
   36.3810  -11.6650   11.5890 C   0  0  0  0  0
   35.8650  -10.5840   10.6350 C   0  0  0  0  0
   36.1740  -10.6200    9.4330 O   0  0  0  0  0
   36.5620  -12.9970   10.8500 C   0  0  0  0  0
   35.2690  -13.5200   10.2440 C   0  0  0  0  0
   34.1710  -13.1790   10.6890 O   0  0  0  0  0
   35.3950  -14.3620    9.2250 N   0  0  0  0  0
   35.0880   -9.6250   11.1480 N   0  0  0  0  0
   34.5530   -8.6040   10.2800 C   0  0  0  0  0
   34.4480   -7.2520   10.9730 C   0  0  0  0  0
   34.4650   -7.1130   12.2050 O   0  0  0  0  0
   33.2050   -9.0340    9.6870 C   0  0  0  0  0
   32.0660   -9.0660   10.6740 C   0  0  0  0  0
   31.7760  -10.2040   11.4160 C   0  0  0  0  0
   31.2780   -7.9450   10.8540 C   0  0  0  0  0
   30.7250  -10.2230   12.3170 C   0  0  0  0  0
   30.2260   -7.9430   11.7500 C   0  0  0  0  0
   29.9500   -9.0850   12.4680 C   0  0  0  0  0
   28.8960   -9.0640   13.3330 O   0  0  0  0  0
   34.3430   -6.2420   10.1250 N   0  0  0  0  0
   34.1700   -4.8790   10.6060 C   0  0  0  0  0
   32.7100   -4.6340   10.9400 C   0  0  0  0  0
   31.8380   -4.6360   10.0600 O   0  0  0  0  0
   34.6080   -3.8650    9.5730 C   0  0  0  0  0
   34.5040   -2.1860   10.2570 S   0  0  0  0  0
   32.4550   -4.4180   12.2160 N   0  0  0  0  0
   31.1010   -4.1670   12.7210 C   0  0  0  0  0
   30.7060   -2.6900   12.7140 C   0  0  0  0  0
   29.5600   -2.3630   12.9980 O   0  0  0  0  0
   30.9730   -4.7530   14.1040 C   0  0  0  0  0
   31.6470   -1.7970   12.4080 N   0  0  0  0  0
   31.3970   -0.3580   12.4120 C   0  0  0  0  0
   32.3620    0.2990   11.4540 C   0  0  0  0  0
   33.4790    0.6860   11.8420 O   0  0  0  0  0
   31.5610    0.1900   13.8330 C   0  0  0  0  0
   31.2570    1.6810   14.0300 C   0  0  0  0  0
   29.8120    2.0250   13.6710 C   0  0  0  0  0
   31.5230    2.0960   15.4590 C   0  0  0  0  0
   31.9410    0.4210   10.2010 N   0  0  0  0  0
   32.8050    1.0070    9.1660 C   0  0  0  0  0
   32.9720    2.5080    9.3630 C   0  0  0  0  0
   32.1300    3.1600    9.9830 O   0  0  0  0  0
   32.2360    0.8110    7.7590 C   0  0  0  0  0
   32.0360   -0.6110    7.3020 C   0  0  0  0  0
   31.1430   -0.6360    6.0600 C   0  0  0  0  0
   29.7700   -0.2600    6.3950 N   0  0  0  0  0
   28.8780    0.2810    5.5610 C   0  0  0  0  0
   27.6640    0.5720    6.0290 N   0  0  0  0  0
   29.1750    0.5300    4.2860 N   0  0  0  0  0
   34.0440    3.0550    8.8010 N   0  0  0  0  0
   34.1930    4.5100    8.7010 C   0  0  0  0  0
   32.9670    5.1360    8.0350 C   0  0  0  0  0
   32.5440    4.6270    6.9960 O   0  0  0  0  0
   35.4250    4.8490    7.8810 C   0  0  0  0  0
   35.6780    6.3480    7.6980 C   0  0  0  0  0
   36.8640    6.5800    6.7850 C   0  0  0  0  0
   38.1410    6.4080    7.4770 N   0  0  0  0  0
   39.2810    6.0070    6.9070 C   0  0  0  0  0
   40.3800    5.8980    7.6500 N   0  0  0  0  0
   39.3390    5.6960    5.6080 N   0  0  0  0  0
   32.4420    6.2480    8.5560 N   0  0  0  0  0
   38.4066    3.4183    7.8971 H   0  0  0  0  0
   39.6753    3.4850    9.1449 H   0  0  0  0  0
   39.5204    2.0452    8.1086 H   0  0  0  0  0
   38.5876    0.3358    9.1314 H   0  0  0  0  0
   36.0239    0.4044   10.3288 H   0  0  0  0  0
   38.3174   -1.4439   11.0869 H   0  0  0  0  0
   37.2827   -1.6374    9.6244 H   0  0  0  0  0
   35.1937    0.8813   12.2448 H   0  0  0  0  0
   37.0532    2.0143   14.2533 H   0  0  0  0  0
   34.9769    3.0827   15.1511 H   0  0  0  0  0
   34.0526    2.2779   13.8179 H   0  0  0  0  0
   36.0082    3.5221   12.4297 H   0  0  0  0  0
   35.7704    4.6708   13.7957 H   0  0  0  0  0
   33.5589    3.5692   12.0714 H   0  0  0  0  0
   34.3748    5.1519   11.8078 H   0  0  0  0  0
   33.5892    5.2744   14.4123 H   0  0  0  0  0
   31.7113    6.1291   15.1360 H   0  0  0  0  0
   30.2733    5.1656   12.0923 H   0  0  0  0  0
   31.7677    4.4892   11.4362 H   0  0  0  0  0
   35.1388   -0.7792   13.7980 H   0  0  0  0  0
   35.8969   -1.7162   16.4876 H   0  0  0  0  0
   33.8972   -0.4671   17.0743 H   0  0  0  0  0
   32.9654   -1.3641   15.8503 H   0  0  0  0  0
   33.6485   -2.2212   17.2537 H   0  0  0  0  0
   36.6334   -3.6644   15.9950 H   0  0  0  0  0
   35.4612   -5.2705   13.7773 H   0  0  0  0  0
   37.3760   -6.8349   14.3982 H   0  0  0  0  0
   37.9446   -5.5065   15.4903 H   0  0  0  0  0
   38.9485   -3.3083   14.3059 H   0  0  0  0  0
   37.0165   -7.4379   12.0127 H   0  0  0  0  0
   39.5393   -4.0285    9.3565 H   0  0  0  0  0
   37.3663   -7.7204    9.5720 H   0  0  0  0  0
   38.6026   -6.0383    8.2727 H   0  0  0  0  0
   34.4442   -7.2242   14.0502 H   0  0  0  0  0
   34.1981   -8.3062   16.8431 H   0  0  0  0  0
   31.8981   -8.0148   14.9186 H   0  0  0  0  0
   32.1713   -7.0345   16.4077 H   0  0  0  0  0
   32.2462   -8.2685   18.6516 H   0  0  0  0  0
   30.8942  -10.1434   15.0438 H   0  0  0  0  0
   31.0947  -10.0205   19.9710 H   0  0  0  0  0
   29.8078  -11.9053   16.3609 H   0  0  0  0  0
   29.3508  -12.6724   18.3710 H   0  0  0  0  0
   34.6651  -10.4338   16.8203 H   0  0  0  0  0
   35.7570  -12.3112   15.8727 H   0  0  0  0  0
   34.2359  -13.5245   14.3409 H   0  0  0  0  0
   33.1333  -12.1186   14.4288 H   0  0  0  0  0
   32.5570  -12.5293   16.5831 H   0  0  0  0  0
   34.1647  -13.2372   16.9856 H   0  0  0  0  0
   31.0822  -15.5624   15.5835 H   0  0  0  0  0
   30.9643  -13.8002   15.6278 H   0  0  0  0  0
   34.6414  -12.3341   12.6760 H   0  0  0  0  0
   37.3416  -11.2964   11.9489 H   0  0  0  0  0
   36.9117  -13.7335   11.5734 H   0  0  0  0  0
   37.2677  -12.8321   10.0358 H   0  0  0  0  0
   34.5642  -14.7523    8.7802 H   0  0  0  0  0
   36.3226  -14.6185    8.8871 H   0  0  0  0  0
   34.8749   -9.6150   12.1454 H   0  0  0  0  0
   35.2596   -8.4814    9.4592 H   0  0  0  0  0
   33.3314  -10.0505    9.3144 H   0  0  0  0  0
   32.9444   -8.2999    8.9246 H   0  0  0  0  0
   32.3866  -11.0976   11.2866 H   0  0  0  0  0
   31.4905   -7.0445   10.2777 H   0  0  0  0  0
   30.5107  -11.1197   12.8985 H   0  0  0  0  0
   29.6210   -7.0467   11.8869 H   0  0  0  0  0
   28.4785   -8.2000   13.3059 H   0  0  0  0  0
   34.3838   -6.4206    9.1216 H   0  0  0  0  0
   34.7901   -4.7621   11.4948 H   0  0  0  0  0
   33.9544   -3.9368    8.7036 H   0  0  0  0  0
   35.6397   -4.0702    9.2873 H   0  0  0  0  0
   33.2307   -4.4258   12.8783 H   0  0  0  0  0
   30.4049   -4.6546   12.0385 H   0  0  0  0  0
   31.1553   -5.8268   14.0605 H   0  0  0  0  0
   31.7035   -4.2856   14.7643 H   0  0  0  0  0
   29.9680   -4.5689   14.4836 H   0  0  0  0  0
   32.5784   -2.1318   12.1613 H   0  0  0  0  0
   30.3781   -0.1442   12.0892 H   0  0  0  0  0
   32.6128    0.0598   14.0876 H   0  0  0  0  0
   30.8418   -0.3491   14.4497 H   0  0  0  0  0
   31.9180    2.2270   13.3569 H   0  0  0  0  0
   29.6295    1.7758   12.6257 H   0  0  0  0  0
   29.1352    1.4530   14.3058 H   0  0  0  0  0
   29.6442    3.0907   13.8264 H   0  0  0  0  0
   30.8890    1.5150   16.1287 H   0  0  0  0  0
   32.5705    1.9145   15.6997 H   0  0  0  0  0
   31.3007    3.1567   15.5753 H   0  0  0  0  0
   31.0041    0.1034    9.9526 H   0  0  0  0  0
   33.7604    0.4912    9.2627 H   0  0  0  0  0
   32.9662    1.2458    7.0765 H   0  0  0  0  0
   31.2452    1.2651    7.7699 H   0  0  0  0  0
   31.5602   -1.1820    8.0993 H   0  0  0  0  0
   33.0033   -1.0507    7.0590 H   0  0  0  0  0
   31.1394   -1.6467    5.6518 H   0  0  0  0  0
   31.5337    0.0766    5.3336 H   0  0  0  0  0
   29.4655   -0.4263    7.3542 H   0  0  0  0  0
   26.9647    0.9844    5.4115 H   0  0  0  0  0
   27.4345    0.3823    7.0046 H   0  0  0  0  0
   30.1027    0.3067    3.9254 H   0  0  0  0  0
   34.7781    2.4508    8.4317 H   0  0  0  0  0
   34.2952    4.9100    9.7098 H   0  0  0  0  0
   35.2703    4.4293    6.8870 H   0  0  0  0  0
   36.2841    4.4450    8.4166 H   0  0  0  0  0
   35.8885    6.7923    8.6708 H   0  0  0  0  0
   34.7940    6.8038    7.2520 H   0  0  0  0  0
   36.8134    7.6057    6.4197 H   0  0  0  0  0
   36.8165    5.8494    5.9775 H   0  0  0  0  0
   38.1631    6.6107    8.4764 H   0  0  0  0  0
   40.3470    6.1198    8.6451 H   0  0  0  0  0
   40.2178    5.3798    5.1980 H   0  0  0  0  0
   38.5044    5.7749    5.0269 H   0  0  0  0  0
   31.6600    6.7092    8.0910 H   0  0  0  0  0
   32.8230    6.6361    9.4189 H   0  0  0  0  0
  1  2  2  0  0  0
  1  3  1  0  0  0
  1  4  1  0  0  0
  4  5  1  0  0  0
  5  6  1  0  0  0
  5  8  1  0  0  0
  6  7  2  0  0  0
  6 10  1  0  0  0
  8  9  1  0  0  0
  9 86  1  0  0  0
 10 11  1  0  0  0
 11 12  1  0  0  0
 11 14  1  0  0  0
 12 13  2  0  0  0
 12 21  1  0  0  0
 14 15  1  0  0  0
 15 16  1  0  0  0
 16 17  1  0  0  0
 17 18  1  0  0  0
 18 19  2  0  0  0
 18 20  1  0  0  0
 21 22  1  0  0  0
 22 23  1  0  0  0
 22 25  1  0  0  0
 23 24  2  0  0  0
 23 26  1  0  0  0
 26 27  1  0  0  0
 27 28  1  0  0  0
 27 30  1  0  0  0
 28 29  2  0  0  0
 28 40  1  0  0  0
 30 31  1  0  0  0
 31 32  4  0  0  0
 31 33  4  0  0  0
 32 34  4  0  0  0
 33 35  4  0  0  0
 33 36  4  0  0  0
 34 35  4  0  0  0
 35 37  4  0  0  0
 36 38  4  0  0  0
 37 39  4  0  0  0
 38 39  4  0  0  0
 40 41  1  0  0  0
 41 42  1  0  0  0
 41 44  1  0  0  0
 42 43  2  0  0  0
 42 52  1  0  0  0
 44 45  1  0  0  0
 45 46  4  0  0  0
 45 47  4  0  0  0
 46 48  4  0  0  0
 47 49  4  0  0  0
 48 50  4  0  0  0
 49 50  4  0  0  0
 50 51  1  0  0  0
 52 53  1  0  0  0
 53 54  1  0  0  0
 53 56  1  0  0  0
 54 55  2  0  0  0
 54 61  1  0  0  0
 56 57  1  0  0  0
 57 58  1  0  0  0
 58 59  2  0  0  0
 58 60  1  0  0  0
 61 62  1  0  0  0
 62 63  1  0  0  0
 62 65  1  0  0  0
 63 64  2  0  0  0
 63 69  1  0  0  0
 65 66  1  0  0  0
 66 67  2  0  0  0
 66 68  1  0  0  0
 69 70  1  0  0  0
 70 71  1  0  0  0
 70 73  1  0  0  0
 71 72  2  0  0  0
 71 81  1  0  0  0
 73 74  1  0  0  0
 74 75  4  0  0  0
 74 76  4  0  0  0
 75 77  4  0  0  0
 76 78  4  0  0  0
 77 79  4  0  0  0
 78 79  4  0  0  0
 79 80  1  0  0  0
 81 82  1  0  0  0
 82 83  1  0  0  0
 82 85  1  0  0  0
 83 84  2  0  0  0
 83 87  1  0  0  0
 85 86  1  0  0  0
 87 88  1  0  0  0
 88 89  1  0  0  0
 88 91  1  0  0  0
 89 90  2  0  0  0
 89 92  1  0  0  0
 92 93  1  0  0  0
 93 94  1  0  0  0
 93 96  1  0  0  0
 94 95  2  0  0  0
 94100  1  0  0  0
 96 97  1  0  0  0
 97 98  1  0  0  0
 97 99  1  0  0  0
100101  1  0  0  0
101102  1  0  0  0
101104  1  0  0  0
102103  2  0  0  0
102111  1  0  0  0
104105  1  0  0  0
105106  1  0  0  0
106107  1  0  0  0
107108  1  0  0  0
108109  1  0  0  0
108110  2  0  0  0
111112  1  0  0  0
112113  1  0  0  0
112115  1  0  0  0
113114  2  0  0  0
113122  1  0  0  0
115116  1  0  0  0
116117  1  0  0  0
117118  1  0  0  0
118119  1  0  0  0
119120  2  0  0  0
119121  1  0  0  0
  3123  1  0  0  0
  3124  1  0  0  0
  3125  1  0  0  0
  4126  1  0  0  0
  5127  1  0  0  0
  8128  1  0  0  0
  8129  1  0  0  0
 10130  1  0  0  0
 11131  1  0  0  0
 14132  1  0  0  0
 14133  1  0  0  0
 15134  1  0  0  0
 15135  1  0  0  0
 16136  1  0  0  0
 16137  1  0  0  0
 17138  1  0  0  0
 19139  1  0  0  0
 20140  1  0  0  0
 20141  1  0  0  0
 21142  1  0  0  0
 22143  1  0  0  0
 25144  1  0  0  0
 25145  1  0  0  0
 25146  1  0  0  0
 26147  1  0  0  0
 27148  1  0  0  0
 30149  1  0  0  0
 30150  1  0  0  0
 32151  1  0  0  0
 36152  1  0  0  0
 37153  1  0  0  0
 38154  1  0  0  0
 39155  1  0  0  0
 40156  1  0  0  0
 41157  1  0  0  0
 44158  1  0  0  0
 44159  1  0  0  0
 46160  1  0  0  0
 47161  1  0  0  0
 48162  1  0  0  0
 49163  1  0  0  0
 51164  1  0  0  0
 52165  1  0  0  0
 53166  1  0  0  0
 56167  1  0  0  0
 56168  1  0  0  0
 57169  1  0  0  0
 57170  1  0  0  0
 60171  1  0  0  0
 60172  1  0  0  0
 61173  1  0  0  0
 62174  1  0  0  0
 65175  1  0  0  0
 65176  1  0  0  0
 68177  1  0  0  0
 68178  1  0  0  0
 69179  1  0  0  0
 70180  1  0  0  0
 73181  1  0  0  0
 73182  1  0  0  0
 75183  1  0  0  0
 76184  1  0  0  0
 77185  1  0  0  0
 78186  1  0  0  0
 80187  1  0  0  0
 81188  1  0  0  0
 82189  1  0  0  0
 85190  1  0  0  0
 85191  1  0  0  0
 87192  1  0  0  0
 88193  1  0  0  0
 91194  1  0  0  0
 91195  1  0  0  0
 91196  1  0  0  0
 92197  1  0  0  0
 93198  1  0  0  0
 96199  1  0  0  0
 96200  1  0  0  0
 97201  1  0  0  0
 98202  1  0  0  0
 98203  1  0  0  0
 98204  1  0  0  0
 99205  1  0  0  0
 99206  1  0  0  0
 99207  1  0  0  0
100208  1  0  0  0
101209  1  0  0  0
104210  1  0  0  0
104211  1  0  0  0
105212  1  0  0  0
105213  1  0  0  0
106214  1  0  0  0
106215  1  0  0  0
107216  1  0  0  0
109217  1  0  0  0
109218  1  0  0  0
110219  1  0  0  0
111220  1  0  0  0
112221  1  0  0  0
115222  1  0  0  0
115223  1  0  0  0
116224  1  0  0  0
116225  1  0  0  0
117226  1  0  0  0
117227  1  0  0  0
118228  1  0  0  0
120229  1  0  0  0
121230  1  0  0  0
121231  1  0  0  0
122232  1  0  0  0
122233  1  0  0  0
M  END
$$$$
