### 
### Created by X-TOOL on Mon Sep 10 21:13:26 2018
### 

@<TRIPOS>MOLECULE
5h5r_ligand
  237   241     1     0     0
SMALL
GAST_HUCK


@<TRIPOS>ATOM
      1 C          38.0210    2.2170    9.6240 C.2       1 ACE         0.1752
      2 O          37.3110    2.9260   10.3080 O.2       1 ACE        -0.3972
      3 CH3        38.9730    2.8350    8.6230 C.3       1 ACE         0.0258
      4 N          37.9720    0.8980    9.7190 N.am      1 CYS        -0.2650
      5 CA         37.0450    0.2120   10.6580 C.3       1 CYS         0.1406
      6 C          37.2110    0.7420   12.0790 C.2       1 CYS         0.2047
      7 O          38.3370    0.8490   12.5910 O.2       1 CYS        -0.3944
      8 CB         37.3310   -1.2800   10.6530 C.3       1 CYS         0.0443
      9 SG         36.1260   -2.1830   11.6250 S.3       1 CYS        -0.0882
     10 N          36.0820    1.0470   12.7180 N.am      1 ARG        -0.2637
     11 CA         36.0610    1.6060   14.0610 C.3       1 ARG         0.1311
     12 C          35.8250    0.5780   15.1460 C.2       1 ARG         0.2039
     13 O          36.0540    0.8640   16.3030 O.2       1 ARG        -0.3944
     14 CB         35.0060    2.7050   14.1290 C.3       1 ARG        -0.0092
     15 CG         35.3250    3.8710   13.2040 C.3       1 ARG        -0.0156
     16 CD         34.0830    4.4010   12.5420 C.3       1 ARG         0.0627
     17 NE         33.1940    5.0200   13.5070 N.pl3     1 ARG        -0.2723
     18 CZ         31.9040    5.2830   13.3070 C.cat     1 ARG         0.2882
     19 NH1        31.2390    5.8800   14.2670 N.pl3     1 ARG        -0.2849
     20 NH2        31.2660    4.9540   12.1930 N.pl3     1 ARG        -0.2849
     21 N          35.3410   -0.6080   14.7830 N.am      1 ALA        -0.2640
     22 CA         35.0900   -1.6750   15.7560 C.3       1 ALA         0.1282
     23 C          35.0130   -2.9920   14.9890 C.2       1 ALA         0.2037
     24 O          34.1830   -3.1560   14.0990 O.2       1 ALA        -0.3944
     25 CB         33.8080   -1.4130   16.5400 C.3       1 ALA        -0.0244
     26 N          35.9150   -3.9160   15.3160 N.am      1 TRP        -0.2627
     27 CA         35.9390   -5.2800   14.7570 C.3       1 TRP         0.1352
     28 C          35.1680   -6.2290   15.6700 C.2       1 TRP         0.2053
     29 O          35.1800   -6.0640   16.9000 O.2       1 TRP        -0.3942
     30 CB         37.3950   -5.7610   14.5840 C.3       1 TRP         0.0042
     31 CG         38.0780   -5.1030   13.4280 C.2       1 TRP        -0.0418
     32 CD1        38.7710   -3.9280   13.4270 C.2       1 TRP         0.0167
     33 CD2        38.0800   -5.5630   12.0790 C.ar      1 TRP        -0.0214
     34 NE1        39.2130   -3.6380   12.1590 N.pl3     1 TRP        -0.2890
     35 CE2        38.7940   -4.6230   11.3110 C.ar      1 TRP         0.0603
     36 CE3        37.5670   -6.6870   11.4460 C.ar      1 TRP        -0.0747
     37 CZ2        38.9910   -4.7720    9.9350 C.ar      1 TRP        -0.0443
     38 CZ3        37.7660   -6.8410   10.0770 C.ar      1 TRP        -0.0792
     39 CH2        38.4670   -5.8900    9.3440 C.ar      1 TRP        -0.0768
     40 N          34.4920   -7.2100   15.0690 N.am      1 TYR        -0.2620
     41 CA         33.8190   -8.2630   15.8220 C.3       1 TYR         0.1390
     42 C          34.0790   -9.5490   15.0840 C.2       1 TYR         0.2057
     43 O          33.8220   -9.6360   13.9030 O.2       1 TYR        -0.3942
     44 CB         32.3190   -8.0000   15.9240 C.3       1 TYR         0.0163
     45 CG         31.6240   -9.0550   16.7460 C.ar      1 TYR        -0.0493
     46 CD1        31.6910   -9.0540   18.1390 C.ar      1 TYR        -0.0685
     47 CD2        30.9430  -10.1050   16.1320 C.ar      1 TYR        -0.0685
     48 CE1        31.0560  -10.0460   18.8820 C.ar      1 TYR        -0.0398
     49 CE2        30.3310  -11.0940   16.8670 C.ar      1 TYR        -0.0398
     50 CZ         30.3800  -11.0580   18.2410 C.ar      1 TYR         0.0805
     51 OH         29.7740  -12.0520   18.9690 O.3       1 TYR        -0.3376
     52 N          34.6030  -10.5420   15.8080 N.am      1 GLN        -0.2634
     53 CA         35.0880  -11.7720   15.2020 C.3       1 GLN         0.1330
     54 C          35.9470  -11.4630   13.9730 C.2       1 GLN         0.2042
     55 O          36.9650  -10.8080   14.1350 O.2       1 GLN        -0.3944
     56 CB         33.9100  -12.6800   14.9480 C.3       1 GLN         0.0045
     57 CG         33.3540  -13.1980   16.2580 C.3       1 GLN         0.0412
     58 CD         32.7850  -14.5760   16.1070 C.2       1 GLN         0.1737
     59 OE1        33.5010  -15.5740   16.2650 O.2       1 GLN        -0.3973
     60 NE2        31.5130  -14.6520   15.7450 N.am      1 GLN        -0.3009
     61 N          35.5450  -11.8710   12.7730 N.am      1 ASN        -0.2616
     62 CA         36.3810  -11.6650   11.5890 C.3       1 ASN         0.1476
     63 C          35.8650  -10.5840   10.6350 C.2       1 ASN         0.2064
     64 O          36.1740  -10.6200    9.4330 O.2       1 ASN        -0.3942
     65 CB         36.5620  -12.9970   10.8500 C.3       1 ASN         0.0773
     66 CG         35.2690  -13.5200   10.2440 C.2       1 ASN         0.1780
     67 OD1        34.1710  -13.1790   10.6890 O.2       1 ASN        -0.3970
     68 ND2        35.3950  -14.3620    9.2250 N.am      1 ASN        -0.3007
     69 N          35.0880   -9.6250   11.1480 N.am      1 TYR        -0.2620
     70 CA         34.5530   -8.6040   10.2800 C.3       1 TYR         0.1390
     71 C          34.4480   -7.2520   10.9730 C.2       1 TYR         0.2058
     72 O          34.4650   -7.1130   12.2050 O.2       1 TYR        -0.3942
     73 CB         33.2050   -9.0340    9.6870 C.3       1 TYR         0.0163
     74 CG         32.0660   -9.0660   10.6740 C.ar      1 TYR        -0.0493
     75 CD1        31.7760  -10.2040   11.4160 C.ar      1 TYR        -0.0685
     76 CD2        31.2780   -7.9450   10.8540 C.ar      1 TYR        -0.0685
     77 CE1        30.7250  -10.2230   12.3170 C.ar      1 TYR        -0.0398
     78 CE2        30.2260   -7.9430   11.7500 C.ar      1 TYR        -0.0398
     79 CZ         29.9500   -9.0850   12.4680 C.ar      1 TYR         0.0805
     80 OH         28.8960   -9.0640   13.3330 O.3       1 TYR        -0.3376
     81 N          34.3430   -6.2420   10.1250 N.am      1 CYS        -0.2628
     82 CA         34.1700   -4.8790   10.6060 C.3       1 CYS         0.1406
     83 C          32.7100   -4.6340   10.9400 C.2       1 CYS         0.2047
     84 O          31.8380   -4.6360   10.0600 O.2       1 CYS        -0.3944
     85 CB         34.6080   -3.8650    9.5730 C.3       1 CYS         0.0443
     86 SG         34.5040   -2.1860   10.2570 S.3       1 CYS        -0.0882
     87 N          32.4550   -4.4180   12.2160 N.am      1 ALA        -0.2640
     88 CA         31.1010   -4.1670   12.7210 C.3       1 ALA         0.1282
     89 C          30.7060   -2.6900   12.7140 C.2       1 ALA         0.2036
     90 O          29.5600   -2.3630   12.9980 O.2       1 ALA        -0.3944
     91 CB         30.9730   -4.7530   14.1040 C.3       1 ALA        -0.0244
     92 N          31.6470   -1.7970   12.4080 N.am      1 LEU        -0.2637
     93 CA         31.3970   -0.3580   12.4120 C.3       1 LEU         0.1312
     94 C          32.3620    0.2990   11.4540 C.2       1 LEU         0.2039
     95 O          33.4790    0.6860   11.8420 O.2       1 LEU        -0.3944
     96 CB         31.5610    0.1900   13.8330 C.3       1 LEU        -0.0101
     97 CG         31.2570    1.6810   14.0300 C.3       1 LEU        -0.0425
     98 CD1        29.8120    2.0250   13.6710 C.3       1 LEU        -0.0625
     99 CD2        31.5230    2.0960   15.4590 C.3       1 LEU        -0.0625
    100 N          31.9410    0.4210   10.2010 N.am      1 ARG        -0.2637
    101 CA         32.8050    1.0070    9.1660 C.3       1 ARG         0.1311
    102 C          32.9720    2.5080    9.3630 C.2       1 ARG         0.2039
    103 O          32.1300    3.1600    9.9830 O.2       1 ARG        -0.3944
    104 CB         32.2360    0.8110    7.7590 C.3       1 ARG        -0.0092
    105 CG         32.0360   -0.6110    7.3020 C.3       1 ARG        -0.0156
    106 CD         31.1430   -0.6360    6.0600 C.3       1 ARG         0.0627
    107 NE         29.7700   -0.2600    6.3950 N.pl3     1 ARG        -0.2723
    108 CZ         28.8780    0.2810    5.5610 C.cat     1 ARG         0.2882
    109 NH1        27.6640    0.5720    6.0290 N.pl3     1 ARG        -0.2849
    110 NH2        29.1750    0.5300    4.2860 N.pl3     1 ARG        -0.2849
    111 N          34.0440    3.0550    8.8010 N.am      1 ARG        -0.2637
    112 CA         34.1930    4.5100    8.7010 C.3       1 ARG         0.1307
    113 C          32.9670    5.1360    8.0350 C.2       1 ARG         0.1992
    114 O          32.5440    4.6270    6.9960 O.2       1 ARG        -0.3947
    115 CB         35.4250    4.8490    7.8810 C.3       1 ARG        -0.0092
    116 CG         35.6780    6.3480    7.6980 C.3       1 ARG        -0.0156
    117 CD         36.8640    6.5800    6.7850 C.3       1 ARG         0.0627
    118 NE         38.1410    6.4080    7.4770 N.pl3     1 ARG        -0.2723
    119 CZ         39.2810    6.0070    6.9070 C.cat     1 ARG         0.2882
    120 NH1        40.3800    5.8980    7.6500 N.pl3     1 ARG        -0.2849
    121 NH2        39.3390    5.6960    5.6080 N.pl3     1 ARG        -0.2849
    122 N          32.4420    6.2480    8.5560 N.am      1 NH2        -0.2990
    123 H1         39.5261    2.0388    8.1032 H         1 ACE         0.0467
    124 H2         39.6824    3.4913    9.1484 H         1 ACE         0.0467
    125 H3         38.4026    3.4240    7.8897 H         1 ACE         0.0467
    126 H4         38.5756    0.3468    9.1429 H         1 CYS         0.1883
    127 H5         36.0100    0.3861   10.3286 H         1 CYS         0.0808
    128 H6         38.3323   -1.4535   11.0741 H         1 CYS         0.0432
    129 H7         37.3008   -1.6463    9.6162 H         1 CYS         0.0432
    130 H8         35.2112    0.8845   12.2541 H         1 ARG         0.1883
    131 H9         37.0451    2.0605   14.2479 H         1 ARG         0.0800
    132 H10        34.9503    3.0783   15.1622 H         1 ARG         0.0313
    133 H11        34.0335    2.2800   13.8397 H         1 ARG         0.0313
    134 H12        36.0268    3.5310   12.4283 H         1 ARG         0.0301
    135 H13        35.7895    4.6770   13.7910 H         1 ARG         0.0301
    136 H14        33.5559    3.5695   12.0513 H         1 ARG         0.0689
    137 H15        34.3701    5.1489   11.7883 H         1 ARG         0.0689
    138 H16        33.5931    5.2769   14.4211 H         1 ARG         0.2642
    139 H17        30.2398    6.0973   14.1433 H         1 ARG         0.2615
    140 H18        31.7160    6.1316   15.1446 H         1 ARG         0.2615
    141 H19        31.7726    4.4846   11.4288 H         1 ARG         0.2615
    142 H20        30.2635    5.1676   12.0914 H         1 ARG         0.2615
    143 H21        35.1427   -0.7759   13.8173 H         1 ALA         0.1883
    144 H22        35.9287   -1.7205   16.4663 H         1 ALA         0.0797
    145 H23        33.6459   -2.2281   17.2607 H         1 ALA         0.0277
    146 H24        32.9568   -1.3634   15.8450 H         1 ALA         0.0277
    147 H25        33.8968   -0.4586   17.0797 H         1 ALA         0.0277
    148 H26        36.6193   -3.6693   15.9817 H         1 TRP         0.1884
    149 H27        35.4532   -5.2668   13.7702 H         1 TRP         0.0815
    150 H28        37.3908   -6.8486   14.4196 H         1 TRP         0.0397
    151 H29        37.9547   -5.5312   15.5026 H         1 TRP         0.0397
    152 H30        38.9484   -3.3089   14.3051 H         1 TRP         0.0795
    153 H31        39.7690   -2.8132   11.8918 H         1 TRP         0.2216
    154 H32        37.0195   -7.4338   12.0096 H         1 TRP         0.0540
    155 H33        39.5363   -4.0326    9.3597 H         1 TRP         0.0541
    156 H34        37.3685   -7.7155    9.5748 H         1 TRP         0.0510
    157 H35        38.6019   -6.0375    8.2786 H         1 TRP         0.0530
    158 H36        34.4451   -7.2239   14.0702 H         1 TYR         0.1885
    159 H37        34.2408   -8.3216   16.8362 H         1 TYR         0.0821
    160 H38        31.8880   -7.9951   14.9120 H         1 TYR         0.0453
    161 H39        32.1601   -7.0187   16.3950 H         1 TYR         0.0453
    162 H40        32.2432   -8.2728   18.6488 H         1 TYR         0.0530
    163 H41        30.8945  -10.1432   15.0498 H         1 TYR         0.0530
    164 H42        31.0944  -10.0206   19.9650 H         1 TYR         0.0525
    165 H43        29.8107  -11.9008   16.3636 H         1 TYR         0.0525
    166 H44        30.1620  -12.8894   18.7438 H         1 TYR         0.2458
    167 H45        34.6638  -10.4360   16.8005 H         1 GLN         0.1883
    168 H46        35.7401  -12.2788   15.9285 H         1 GLN         0.0801
    169 H47        34.2338  -13.5302   14.3297 H         1 GLN         0.0337
    170 H48        33.1266  -12.1185   14.4180 H         1 GLN         0.0337
    171 H49        32.5599  -12.5193   16.6025 H         1 GLN         0.0504
    172 H50        34.1623  -13.2249   17.0036 H         1 GLN         0.0504
    173 H51        31.0788  -15.5453   15.6285 H         1 GLN         0.1814
    174 H52        30.9870  -13.8161   15.5882 H         1 GLN         0.1814
    175 H53        34.6591  -12.3250   12.6779 H         1 ASN         0.1885
    176 H54        37.3698  -11.3368   11.9420 H         1 ASN         0.0826
    177 H55        36.9429  -13.7441   11.5619 H         1 ASN         0.0551
    178 H56        37.2947  -12.8532   10.0423 H         1 ASN         0.0551
    179 H57        34.5804  -14.7398    8.7849 H         1 ASN         0.1814
    180 H58        36.3045  -14.6183    8.8977 H         1 ASN         0.1814
    181 H59        34.8791   -9.6152   12.1259 H         1 TYR         0.1885
    182 H60        35.2576   -8.4860    9.4436 H         1 TYR         0.0821
    183 H61        33.3220  -10.0433    9.2656 H         1 TYR         0.0453
    184 H62        32.9432   -8.3294    8.8839 H         1 TYR         0.0453
    185 H63        32.3832  -11.0927   11.2873 H         1 TYR         0.0530
    186 H64        31.4894   -7.0495   10.2809 H         1 TYR         0.0530
    187 H65        30.5119  -11.1147   12.8953 H         1 TYR         0.0525
    188 H66        29.6243   -7.0517   11.8862 H         1 TYR         0.0525
    189 H67        28.8200   -9.9100   13.7584 H         1 TYR         0.2458
    190 H68        34.3830   -6.4171    9.1413 H         1 CYS         0.1884
    191 H69        34.7766   -4.7465   11.5140 H         1 CYS         0.0808
    192 H70        33.9543   -3.9391    8.6914 H         1 CYS         0.0432
    193 H71        35.6470   -4.0730    9.2776 H         1 CYS         0.0432
    194 H72        33.2155   -4.4257   12.8653 H         1 ALA         0.1883
    195 H73        30.3976   -4.6946   12.0601 H         1 ALA         0.0797
    196 H74        29.9591   -4.5678   14.4883 H         1 ALA         0.0277
    197 H75        31.7097   -4.2821   14.7714 H         1 ALA         0.0277
    198 H76        31.1567   -5.8367   14.0615 H         1 ALA         0.0277
    199 H77        32.5601   -2.1252   12.1662 H         1 LEU         0.1883
    200 H78        30.3682   -0.1651   12.0739 H         1 LEU         0.0800
    201 H79        32.6033    0.0179   14.1396 H         1 LEU         0.0315
    202 H80        30.8868   -0.3784   14.4905 H         1 LEU         0.0315
    203 H81        31.9234    2.2541   13.3685 H         1 LEU         0.0298
    204 H82        29.6414    3.1004   13.8274 H         1 LEU         0.0232
    205 H83        29.1279    1.4484   14.3110 H         1 LEU         0.0232
    206 H84        29.6265    1.7740   12.6162 H         1 LEU         0.0232
    207 H85        32.5620    1.8512   15.7245 H         1 LEU         0.0232
    208 H86        30.8368    1.5592   16.1305 H         1 LEU         0.0232
    209 H87        31.3638    3.1795   15.5619 H         1 LEU         0.0232
    210 H88        31.0224    0.1096    9.9575 H         1 ARG         0.1883
    211 H89        33.7901    0.5214    9.2267 H         1 ARG         0.0800
    212 H90        32.9244    1.2950    7.0506 H         1 ARG         0.0313
    213 H91        31.2583    1.3137    7.7218 H         1 ARG         0.0313
    214 H92        31.5585   -1.1894    8.1066 H         1 ARG         0.0301
    215 H93        33.0117   -1.0571    7.0591 H         1 ARG         0.0301
    216 H94        31.1448   -1.6509    5.6358 H         1 ARG         0.0689
    217 H95        31.5391    0.0725    5.3176 H         1 ARG         0.0689
    218 H96        29.4625   -0.4279    7.3636 H         1 ARG         0.2642
    219 H97        26.9583    0.9898    5.4058 H         1 ARG         0.2615
    220 H98        27.4318    0.3790    7.0137 H         1 ARG         0.2615
    221 H99        30.1123    0.3060    3.9223 H         1 ARG         0.2615
    222 H100       28.4673    0.9465    3.6642 H         1 ARG         0.2615
    223 H101       34.7637    2.4626    8.4389 H         1 ARG         0.1883
    224 H102       34.3048    4.9268    9.7128 H         1 ARG         0.0800
    225 H103       35.3090    4.3969    6.8850 H         1 ARG         0.0313
    226 H104       36.3013    4.4122    8.3822 H         1 ARG         0.0313
    227 H105       35.8821    6.8027    8.6786 H         1 ARG         0.0301
    228 H106       34.7850    6.8143    7.2563 H         1 ARG         0.0301
    229 H107       36.8111    7.6054    6.3905 H         1 ARG         0.0689
    230 H108       36.8142    5.8635    5.9518 H         1 ARG         0.0689
    231 H109       38.1633    6.6127    8.4862 H         1 ARG         0.2642
    232 H110       41.2638    5.5897    7.2201 H         1 ARG         0.2615
    233 H111       40.3466    6.1219    8.6548 H         1 ARG         0.2615
    234 H112       38.4962    5.7757    5.0212 H         1 ARG         0.2615
    235 H113       40.2265    5.3767    5.1940 H         1 ARG         0.2615
    236 H114       31.6403    6.6689    8.1315 H         1 NH2         0.1815
    237 H115       32.8506    6.6598    9.3706 H         1 NH2         0.1815
@<TRIPOS>BOND
     1    1    2 2  
     2    1    3 1  
     3    1    4 am 
     4    4    5 1  
     5    5    6 1  
     6    5    8 1  
     7    6    7 2  
     8    6   10 am 
     9    8    9 1  
    10    9   86 1  
    11   10   11 1  
    12   11   12 1  
    13   11   14 1  
    14   12   13 2  
    15   12   21 am 
    16   14   15 1  
    17   15   16 1  
    18   16   17 1  
    19   17   18 ar 
    20   18   19 ar 
    21   18   20 ar 
    22   21   22 1  
    23   22   23 1  
    24   22   25 1  
    25   23   24 2  
    26   23   26 am 
    27   26   27 1  
    28   27   28 1  
    29   27   30 1  
    30   28   29 2  
    31   28   40 am 
    32   30   31 1  
    33   31   32 2  
    34   31   33 1  
    35   32   34 1  
    36   33   35 ar 
    37   33   36 ar 
    38   34   35 1  
    39   35   37 ar 
    40   36   38 ar 
    41   37   39 ar 
    42   38   39 ar 
    43   40   41 1  
    44   41   42 1  
    45   41   44 1  
    46   42   43 2  
    47   42   52 am 
    48   44   45 1  
    49   45   46 ar 
    50   45   47 ar 
    51   46   48 ar 
    52   47   49 ar 
    53   48   50 ar 
    54   49   50 ar 
    55   50   51 1  
    56   52   53 1  
    57   53   54 1  
    58   53   56 1  
    59   54   55 2  
    60   54   61 am 
    61   56   57 1  
    62   57   58 1  
    63   58   59 2  
    64   58   60 am 
    65   61   62 1  
    66   62   63 1  
    67   62   65 1  
    68   63   64 2  
    69   63   69 am 
    70   65   66 1  
    71   66   67 2  
    72   66   68 am 
    73   69   70 1  
    74   70   71 1  
    75   70   73 1  
    76   71   72 2  
    77   71   81 am 
    78   73   74 1  
    79   74   75 ar 
    80   74   76 ar 
    81   75   77 ar 
    82   76   78 ar 
    83   77   79 ar 
    84   78   79 ar 
    85   79   80 1  
    86   81   82 1  
    87   82   83 1  
    88   82   85 1  
    89   83   84 2  
    90   83   87 am 
    91   85   86 1  
    92   87   88 1  
    93   88   89 1  
    94   88   91 1  
    95   89   90 2  
    96   89   92 am 
    97   92   93 1  
    98   93   94 1  
    99   93   96 1  
   100   94   95 2  
   101   94  100 am 
   102   96   97 1  
   103   97   98 1  
   104   97   99 1  
   105  100  101 1  
   106  101  102 1  
   107  101  104 1  
   108  102  103 2  
   109  102  111 am 
   110  104  105 1  
   111  105  106 1  
   112  106  107 1  
   113  107  108 ar 
   114  108  109 ar 
   115  108  110 ar 
   116  111  112 1  
   117  112  113 1  
   118  112  115 1  
   119  113  114 2  
   120  113  122 am 
   121  115  116 1  
   122  116  117 1  
   123  117  118 1  
   124  118  119 ar 
   125  119  120 ar 
   126  119  121 ar 
   127    3  123 1  
   128    3  124 1  
   129    3  125 1  
   130    4  126 1  
   131    5  127 1  
   132    8  128 1  
   133    8  129 1  
   134   10  130 1  
   135   11  131 1  
   136   14  132 1  
   137   14  133 1  
   138   15  134 1  
   139   15  135 1  
   140   16  136 1  
   141   16  137 1  
   142   17  138 1  
   143   19  139 1  
   144   19  140 1  
   145   20  141 1  
   146   20  142 1  
   147   21  143 1  
   148   22  144 1  
   149   25  145 1  
   150   25  146 1  
   151   25  147 1  
   152   26  148 1  
   153   27  149 1  
   154   30  150 1  
   155   30  151 1  
   156   32  152 1  
   157   34  153 1  
   158   36  154 1  
   159   37  155 1  
   160   38  156 1  
   161   39  157 1  
   162   40  158 1  
   163   41  159 1  
   164   44  160 1  
   165   44  161 1  
   166   46  162 1  
   167   47  163 1  
   168   48  164 1  
   169   49  165 1  
   170   51  166 1  
   171   52  167 1  
   172   53  168 1  
   173   56  169 1  
   174   56  170 1  
   175   57  171 1  
   176   57  172 1  
   177   60  173 1  
   178   60  174 1  
   179   61  175 1  
   180   62  176 1  
   181   65  177 1  
   182   65  178 1  
   183   68  179 1  
   184   68  180 1  
   185   69  181 1  
   186   70  182 1  
   187   73  183 1  
   188   73  184 1  
   189   75  185 1  
   190   76  186 1  
   191   77  187 1  
   192   78  188 1  
   193   80  189 1  
   194   81  190 1  
   195   82  191 1  
   196   85  192 1  
   197   85  193 1  
   198   87  194 1  
   199   88  195 1  
   200   91  196 1  
   201   91  197 1  
   202   91  198 1  
   203   92  199 1  
   204   93  200 1  
   205   96  201 1  
   206   96  202 1  
   207   97  203 1  
   208   98  204 1  
   209   98  205 1  
   210   98  206 1  
   211   99  207 1  
   212   99  208 1  
   213   99  209 1  
   214  100  210 1  
   215  101  211 1  
   216  104  212 1  
   217  104  213 1  
   218  105  214 1  
   219  105  215 1  
   220  106  216 1  
   221  106  217 1  
   222  107  218 1  
   223  109  219 1  
   224  109  220 1  
   225  110  221 1  
   226  110  222 1  
   227  111  223 1  
   228  112  224 1  
   229  115  225 1  
   230  115  226 1  
   231  116  227 1  
   232  116  228 1  
   233  117  229 1  
   234  117  230 1  
   235  118  231 1  
   236  120  232 1  
   237  120  233 1  
   238  121  234 1  
   239  121  235 1  
   240  122  236 1  
   241  122  237 1  
@<TRIPOS>SUBSTRUCTURE
     1 ACE         1

