5ezh_ligand
  -I-interpret- 

 45 47  0  0  0  0  0  0  0  0999 V2000
   21.8180   31.5440   -1.5030 O   0  0  0  0  0
   20.7300   31.8170   -0.9430 C   0  0  0  0  0
   19.6200   31.7760   -1.6470 N   0  0  0  0  0
   19.6720   31.3630   -3.0960 C   0  0  0  0  0
   18.2910   31.9010   -3.4600 C   0  0  0  0  0
   17.3880   31.8410   -2.2460 C   0  0  0  0  0
   18.3230   32.1830   -1.1140 C   0  0  0  0  0
   20.6910   32.1290    0.3830 N   0  0  0  0  0
   21.9220   32.4020    1.1840 C   0  0  0  0  0
   22.6270   33.7390    0.7830 C   0  0  0  0  0
   23.3300   34.2440    2.0460 C   0  0  0  0  0
   23.9840   35.5950    1.7490 C   0  0  0  0  0
   21.6380   34.7980    0.2840 C   0  0  0  0  0
   22.3840   36.1460    0.0110 C   0  0  0  0  0
   22.8660   36.4280    1.3700 N   0  0  0  0  0
   22.0680   37.1450    2.2960 C   0  0  0  0  0
   22.4430   37.3070    3.6470 C   0  0  0  0  0
   21.5930   37.9920    4.5580 C   0  0  0  0  0
   20.8640   37.6100    1.8540 N   0  0  0  0  0
   19.9920   38.2480    2.6920 C   0  0  0  0  0
   20.3360   38.4800    4.0810 C   0  0  0  0  0
   19.8553   30.3077   -3.2982 H   0  0  0  0  0
   20.5126   31.7354   -3.6815 H   0  0  0  0  0
   17.8648   31.2949   -4.2594 H   0  0  0  0  0
   18.3809   32.9345   -3.7944 H   0  0  0  0  0
   16.9100   30.8693   -2.1215 H   0  0  0  0  0
   16.5399   32.5222   -2.3151 H   0  0  0  0  0
   18.2868   33.2351   -0.8312 H   0  0  0  0  0
   18.0670   31.6821   -0.1804 H   0  0  0  0  0
   19.7842   32.1781    0.8475 H   0  0  0  0  0
   22.6242   31.5884    1.0019 H   0  0  0  0  0
   21.6266   32.4828    2.2301 H   0  0  0  0  0
   23.3199   33.5586   -0.0389 H   0  0  0  0  0
   24.0919   33.5274    2.3528 H   0  0  0  0  0
   22.6027   34.3576    2.8498 H   0  0  0  0  0
   24.7438   35.5317    0.9700 H   0  0  0  0  0
   24.5336   35.9923    2.6024 H   0  0  0  0  0
   20.8742   34.9600    1.0445 H   0  0  0  0  0
   21.1787   34.4501   -0.6413 H   0  0  0  0  0
   21.7666   36.9300   -0.4274 H   0  0  0  0  0
   23.1635   36.0918   -0.7490 H   0  0  0  0  0
   23.3935   36.9030    3.9954 H   0  0  0  0  0
   21.8922   38.1417    5.5954 H   0  0  0  0  0
   19.0280   38.5857    2.3116 H   0  0  0  0  0
   19.6545   39.0124    4.7445 H   0  0  0  0  0
  1  2  2  0  0  0
  2  3  1  0  0  0
  2  8  1  0  0  0
  3  4  1  0  0  0
  3  7  1  0  0  0
  4  5  1  0  0  0
  5  6  1  0  0  0
  6  7  1  0  0  0
  8  9  1  0  0  0
  9 10  1  0  0  0
 10 11  1  0  0  0
 10 13  1  0  0  0
 11 12  1  0  0  0
 12 15  1  0  0  0
 13 14  1  0  0  0
 14 15  1  0  0  0
 15 16  1  0  0  0
 16 17  4  0  0  0
 16 19  4  0  0  0
 17 18  4  0  0  0
 18 21  4  0  0  0
 19 20  4  0  0  0
 20 21  4  0  0  0
  4 22  1  0  0  0
  4 23  1  0  0  0
  5 24  1  0  0  0
  5 25  1  0  0  0
  6 26  1  0  0  0
  6 27  1  0  0  0
  7 28  1  0  0  0
  7 29  1  0  0  0
  8 30  1  0  0  0
  9 31  1  0  0  0
  9 32  1  0  0  0
 10 33  1  0  0  0
 11 34  1  0  0  0
 11 35  1  0  0  0
 12 36  1  0  0  0
 12 37  1  0  0  0
 13 38  1  0  0  0
 13 39  1  0  0  0
 14 40  1  0  0  0
 14 41  1  0  0  0
 17 42  1  0  0  0
 18 43  1  0  0  0
 20 44  1  0  0  0
 21 45  1  0  0  0
M  END
$$$$
