4f6x_ligand
  -I-interpret- 

 48 49  0  0  0  0  0  0  0  0999 V2000
  -23.3210   22.7610    7.7520 C   0  0  0  0  0
  -25.0520    6.0660    7.1780 O   0  0  0  0  0
  -24.3330    9.3130    5.0440 O   0  0  0  0  0
  -25.0550    6.9200    5.1390 O   0  0  0  0  0
  -23.0040    6.6910    8.6430 O   0  0  0  0  0
  -26.0150   13.1780    6.0640 C   0  0  0  0  0
  -25.0530   12.2530    5.6860 C   0  0  0  0  0
  -25.6540   14.3030    6.7910 C   0  0  0  0  0
  -22.0500    8.8460    8.3030 C   0  0  0  0  0
  -21.9630   10.0220    7.5640 C   0  0  0  0  0
  -23.3650   13.5740    6.7660 C   0  0  0  0  0
  -23.7200   21.3360    8.1380 C   0  0  0  0  0
  -22.6650   20.3320    7.6770 C   0  0  0  0  0
  -23.3000   19.1700    6.9160 C   0  0  0  0  0
  -23.3100   17.9010    7.7620 C   0  0  0  0  0
  -23.9580   16.7470    7.0030 C   0  0  0  0  0
  -22.6650   11.4360    5.6260 C   0  0  0  0  0
  -23.9710   15.6010    7.8560 O   0  0  0  0  0
  -24.6860    6.9090    6.3340 C   0  0  0  0  0
  -23.7280   12.4490    6.0410 C   0  0  0  0  0
  -24.3280   14.5020    7.1420 C   0  0  0  0  0
  -22.9270    7.8370    7.9140 C   0  0  0  0  0
  -23.7190    8.0040    6.7830 C   0  0  0  0  0
  -23.6310    9.1750    6.0410 C   0  0  0  0  0
  -22.7590   10.1940    6.4280 N   0  0  0  0  0
  -22.3695   23.0104    8.2217 H   0  0  0  0  0
  -23.2215   22.8282    6.6686 H   0  0  0  0  0
  -24.0886   23.4565    8.0915 H   0  0  0  0  0
  -24.6437    7.6592    4.6851 H   0  0  0  0  0
  -22.3948    6.7424    9.3832 H   0  0  0  0  0
  -27.0579   13.0205    5.7890 H   0  0  0  0  0
  -25.3390   11.3728    5.1103 H   0  0  0  0  0
  -26.4117   15.0291    7.0856 H   0  0  0  0  0
  -21.4294    8.7144    9.1894 H   0  0  0  0  0
  -21.2741   10.8089    7.8711 H   0  0  0  0  0
  -22.3220   13.7305    7.0414 H   0  0  0  0  0
  -24.6680   21.0946    7.6573 H   0  0  0  0  0
  -23.8092   21.2782    9.2228 H   0  0  0  0  0
  -22.1566   19.9349    8.5556 H   0  0  0  0  0
  -21.9675   20.8420    7.0126 H   0  0  0  0  0
  -22.7174   18.9836    6.0138 H   0  0  0  0  0
  -24.3286   19.4340    6.6705 H   0  0  0  0  0
  -23.8827   18.0892    8.6701 H   0  0  0  0  0
  -22.2815   17.6303    8.0007 H   0  0  0  0  0
  -23.3932   16.5318    6.0959 H   0  0  0  0  0
  -24.9759   17.0121    6.7170 H   0  0  0  0  0
  -21.6825   11.8792    5.7884 H   0  0  0  0  0
  -22.8190   11.1830    4.5770 H   0  0  0  0  0
 12  1  1  0  0  0
 19  2  2  0  0  0
 24  3  2  0  0  0
 19  4  1  0  0  0
 22  5  1  0  0  0
  7  6  4  0  0  0
  6  8  4  0  0  0
 20  7  4  0  0  0
 21  8  4  0  0  0
  9 10  2  0  0  0
 22  9  1  0  0  0
 10 25  1  0  0  0
 20 11  4  0  0  0
 11 21  4  0  0  0
 13 12  1  0  0  0
 14 13  1  0  0  0
 15 14  1  0  0  0
 16 15  1  0  0  0
 18 16  1  0  0  0
 17 20  1  0  0  0
 25 17  1  0  0  0
 21 18  1  0  0  0
 23 19  1  0  0  0
 23 22  2  0  0  0
 23 24  1  0  0  0
 24 25  1  0  0  0
  1 26  1  0  0  0
  1 27  1  0  0  0
  1 28  1  0  0  0
  4 29  1  0  0  0
  5 30  1  0  0  0
  6 31  1  0  0  0
  7 32  1  0  0  0
  8 33  1  0  0  0
  9 34  1  0  0  0
 10 35  1  0  0  0
 11 36  1  0  0  0
 12 37  1  0  0  0
 12 38  1  0  0  0
 13 39  1  0  0  0
 13 40  1  0  0  0
 14 41  1  0  0  0
 14 42  1  0  0  0
 15 43  1  0  0  0
 15 44  1  0  0  0
 16 45  1  0  0  0
 16 46  1  0  0  0
 17 47  1  0  0  0
 17 48  1  0  0  0
M  END
$$$$
