5wf5_ligand
  -I-interpret- 

104110  0  0  0  0  0  0  0  0999 V2000
  -21.2800   -8.9320    6.9600 C   0  0  0  0  0
  -20.3580   -7.5870    8.8630 N   0  0  0  0  0
  -19.0260   -8.2270    7.0590 O   0  0  0  0  0
  -21.0140   -7.9530    5.8160 C   0  0  0  0  0
  -18.1370   -6.6710    4.2070 N   0  0  0  0  0
  -21.6150   -8.3870    4.6020 O   0  0  0  0  0
  -19.4860   -7.9980    5.7200 C   0  0  0  0  0
  -20.3110   -5.5660    9.8510 N   0  0  0  0  0
  -21.2480  -10.2900    6.5330 O   0  0  0  0  0
  -20.1010   -8.6370    7.8830 C   0  0  0  0  0
  -21.9920   -7.5290   12.5170 N   0  0  0  0  0
  -19.4460   -5.6020    5.7010 O   0  0  0  0  0
  -19.0190   -6.6420    5.2060 C   0  0  0  0  0
  -21.4880   -8.8490   10.6030 N   0  0  0  0  0
  -22.6820  -10.9650   11.7760 O   0  0  0  0  0
  -17.5830   -5.4750    3.5750 C   0  0  0  0  0
  -21.3640   -5.3040   12.7430 N   0  0  0  0  0
  -25.5440  -10.2080   17.0950 O   0  0  0  0  0
  -16.8440   -5.8060    2.3190 C   0  0  0  0  0
  -23.3430   -9.7330   13.5410 N   0  0  0  0  0
  -20.0020   -6.2670    8.7870 C   0  0  0  0  0
  -23.4110   -9.9280   16.4150 N   0  0  0  0  0
  -20.9160   -6.4950   10.6870 C   0  0  0  0  0
  -24.2840   -8.5530   18.0010 N   0  0  0  0  0
  -20.9650   -7.7360   10.0870 C   0  0  0  0  0
  -26.5470   -5.9600   20.4730 N   0  0  0  0  0
  -21.4490   -6.4140   11.9930 C   0  0  0  0  0
  -25.2850   -4.3870   21.5930 N   0  0  0  0  0
  -22.0030   -8.6770   11.8240 C   0  0  0  0  0
  -21.6420   -5.2760   14.1700 C   0  0  0  0  0
  -22.9500   -4.5520   14.4880 C   0  0  0  0  0
  -23.0780   -4.1500   15.9520 C   0  0  0  0  0
  -24.1400   -5.3890   14.0430 C   0  0  0  0  0
  -22.1840   -4.6100   16.9090 C   0  0  0  0  0
  -22.3350   -4.2650   18.2400 C   0  0  0  0  0
  -23.3790   -3.4570   18.6320 C   0  0  0  0  0
  -24.2690   -2.9890   17.6930 C   0  0  0  0  0
  -24.1210   -3.3310   16.3610 C   0  0  0  0  0
  -24.8550   -5.0610   12.9000 C   0  0  0  0  0
  -25.9320   -5.8310   12.4970 C   0  0  0  0  0
  -26.3080   -6.9350   13.2290 C   0  0  0  0  0
  -25.6080   -7.2700   14.3660 C   0  0  0  0  0
  -24.5310   -6.5030   14.7730 C   0  0  0  0  0
  -22.7120   -9.8940   12.3770 C   0  0  0  0  0
  -24.0250  -10.8280   14.2140 C   0  0  0  0  0
  -23.4070  -11.1110   15.5660 C   0  0  0  0  0
  -24.4790   -9.6000   17.1650 C   0  0  0  0  0
  -25.3210   -8.0600   18.9040 C   0  0  0  0  0
  -24.7140   -7.5890   20.2120 C   0  0  0  0  0
  -25.8000   -7.0380   21.1280 C   0  0  0  0  0
  -27.1650   -6.4140   19.2240 C   0  0  0  0  0
  -26.1160   -6.9450   18.2560 C   0  0  0  0  0
  -26.9780   -3.6180   20.0720 C   0  0  0  0  0
  -26.6480   -2.3090   20.3710 C   0  0  0  0  0
  -25.6480   -2.0410   21.2730 C   0  0  0  0  0
  -24.9980   -3.1040   21.8560 C   0  0  0  0  0
  -26.2650   -4.6340   20.7120 C   0  0  0  0  0
  -22.2650   -8.8099    7.4106 H   0  0  0  0  0
  -21.4236   -6.9576    5.9875 H   0  0  0  0  0
  -17.8307   -7.5812    3.8634 H   0  0  0  0  0
  -22.5704   -8.3495    4.6880 H   0  0  0  0  0
  -19.1093   -8.7707    5.0498 H   0  0  0  0  0
  -21.9947  -10.4599    5.9540 H   0  0  0  0  0
  -19.8915   -9.5414    8.4542 H   0  0  0  0  0
  -16.8855   -5.0100    4.2717 H   0  0  0  0  0
  -18.4065   -4.8067    3.3232 H   0  0  0  0  0
  -21.0897   -4.4335   12.2875 H   0  0  0  0  0
  -16.0228   -6.4845    2.5502 H   0  0  0  0  0
  -17.5242   -6.2838    1.6139 H   0  0  0  0  0
  -16.4478   -4.8903    1.8800 H   0  0  0  0  0
  -23.3476   -8.8098   13.9746 H   0  0  0  0  0
  -19.5050   -5.8365    7.9176 H   0  0  0  0  0
  -22.5831   -9.3328   16.4419 H   0  0  0  0  0
  -23.3755   -8.0893   18.0002 H   0  0  0  0  0
  -20.8298   -4.7425   14.6638 H   0  0  0  0  0
  -21.7298   -6.3048   14.5191 H   0  0  0  0  0
  -22.9372   -3.6198   13.9233 H   0  0  0  0  0
  -21.3543   -5.2498   16.6085 H   0  0  0  0  0
  -21.6255   -4.6338   18.9808 H   0  0  0  0  0
  -23.4997   -3.1894   19.6817 H   0  0  0  0  0
  -25.0940   -2.3462   18.0000 H   0  0  0  0  0
  -24.8308   -2.9534   15.6250 H   0  0  0  0  0
  -24.5657   -4.1887   12.3140 H   0  0  0  0  0
  -26.4847   -5.5625   11.5967 H   0  0  0  0  0
  -27.1560   -7.5409   12.9096 H   0  0  0  0  0
  -25.9035   -8.1430   14.9479 H   0  0  0  0  0
  -23.9842   -6.7761   15.6755 H   0  0  0  0  0
  -23.9374  -11.7229   13.5978 H   0  0  0  0  0
  -25.0686  -10.5496   14.3605 H   0  0  0  0  0
  -23.9923  -11.8889   16.0563 H   0  0  0  0  0
  -22.3736  -11.4225   15.4140 H   0  0  0  0  0
  -26.0015   -8.8843   19.1175 H   0  0  0  0  0
  -23.9883   -6.8023   20.0057 H   0  0  0  0  0
  -24.2267   -8.4314   20.7030 H   0  0  0  0  0
  -26.4924   -7.8438   21.3716 H   0  0  0  0  0
  -25.3290   -6.6396   22.0266 H   0  0  0  0  0
  -27.6737   -5.5696   18.7590 H   0  0  0  0  0
  -27.8667   -7.2160   19.4530 H   0  0  0  0  0
  -26.6147   -7.3327   17.3677 H   0  0  0  0  0
  -25.4385   -6.1351   17.9853 H   0  0  0  0  0
  -27.7696   -3.8496   19.3593 H   0  0  0  0  0
  -27.1820   -1.4893   19.8904 H   0  0  0  0  0
  -25.3768   -1.0146   21.5202 H   0  0  0  0  0
  -24.2046   -2.8912   22.5724 H   0  0  0  0  0
  1  4  1  0  0  0
  1  9  1  0  0  0
 10  1  1  0  0  0
  2 10  1  0  0  0
  2 21  4  0  0  0
 25  2  4  0  0  0
  3  7  1  0  0  0
 10  3  1  0  0  0
  4  6  1  0  0  0
  7  4  1  0  0  0
 13  5  1  0  0  0
  5 16  1  0  0  0
  7 13  1  0  0  0
  8 21  4  0  0  0
 23  8  4  0  0  0
 11 27  4  0  0  0
 29 11  4  0  0  0
 13 12  2  0  0  0
 14 25  4  0  0  0
 29 14  4  0  0  0
 44 15  2  0  0  0
 16 19  1  0  0  0
 27 17  1  0  0  0
 17 30  1  0  0  0
 47 18  2  0  0  0
 20 44  1  0  0  0
 45 20  1  0  0  0
 22 46  1  0  0  0
 47 22  1  0  0  0
 25 23  4  0  0  0
 27 23  4  0  0  0
 24 47  1  0  0  0
 48 24  1  0  0  0
 26 50  1  0  0  0
 26 51  1  0  0  0
 57 26  1  0  0  0
 28 56  4  0  0  0
 57 28  4  0  0  0
 44 29  1  0  0  0
 30 31  1  0  0  0
 31 32  1  0  0  0
 31 33  1  0  0  0
 32 34  4  0  0  0
 32 38  4  0  0  0
 33 39  4  0  0  0
 33 43  4  0  0  0
 34 35  4  0  0  0
 35 36  4  0  0  0
 37 36  4  0  0  0
 38 37  4  0  0  0
 39 40  4  0  0  0
 40 41  4  0  0  0
 42 41  4  0  0  0
 43 42  4  0  0  0
 46 45  1  0  0  0
 49 48  1  0  0  0
 52 48  1  0  0  0
 50 49  1  0  0  0
 51 52  1  0  0  0
 53 54  4  0  0  0
 53 57  4  0  0  0
 54 55  4  0  0  0
 55 56  4  0  0  0
  1 58  1  0  0  0
  4 59  1  0  0  0
  5 60  1  0  0  0
  6 61  1  0  0  0
  7 62  1  0  0  0
  9 63  1  0  0  0
 10 64  1  0  0  0
 16 65  1  0  0  0
 16 66  1  0  0  0
 17 67  1  0  0  0
 19 68  1  0  0  0
 19 69  1  0  0  0
 19 70  1  0  0  0
 20 71  1  0  0  0
 21 72  1  0  0  0
 22 73  1  0  0  0
 24 74  1  0  0  0
 30 75  1  0  0  0
 30 76  1  0  0  0
 31 77  1  0  0  0
 34 78  1  0  0  0
 35 79  1  0  0  0
 36 80  1  0  0  0
 37 81  1  0  0  0
 38 82  1  0  0  0
 39 83  1  0  0  0
 40 84  1  0  0  0
 41 85  1  0  0  0
 42 86  1  0  0  0
 43 87  1  0  0  0
 45 88  1  0  0  0
 45 89  1  0  0  0
 46 90  1  0  0  0
 46 91  1  0  0  0
 48 92  1  0  0  0
 49 93  1  0  0  0
 49 94  1  0  0  0
 50 95  1  0  0  0
 50 96  1  0  0  0
 51 97  1  0  0  0
 51 98  1  0  0  0
 52 99  1  0  0  0
 52100  1  0  0  0
 53101  1  0  0  0
 54102  1  0  0  0
 55103  1  0  0  0
 56104  1  0  0  0
M  END
$$$$
