3vdc_ligand
  -I-interpret- 

 33 33  0  0  0  0  0  0  0  0999 V2000
  -14.3050  -27.6140  -26.3700 C   0  0  0  0  0
  -13.0010  -27.4150  -25.6020 C   0  0  0  0  0
  -13.1240  -26.2020  -24.8560 O   0  0  0  0  0
  -11.7910  -27.2960  -26.5400 C   0  0  0  0  0
  -10.5710  -27.4580  -25.8060 O   0  0  0  0  0
  -11.8200  -28.2710  -27.7240 C   0  0  0  0  0
  -11.4360  -29.5650  -27.2670 O   0  0  0  0  0
  -13.2240  -28.3270  -28.3220 C   0  0  0  0  0
  -14.1170  -28.6960  -27.2770 O   0  0  0  0  0
  -13.4000  -29.2960  -29.4870 C   0  0  0  0  0
  -12.3040  -29.1790  -30.4000 O   0  0  0  0  0
  -15.6200  -27.9490  -25.2320 S   0  0  0  0  0
  -17.2440  -28.2260  -25.9020 C   0  0  0  0  0
  -18.2550  -27.3100  -25.2140 C   0  0  0  0  0
  -17.3090  -28.0510  -27.4160 C   0  0  0  0  0
  -14.5723  -26.7166  -26.9280 H   0  0  0  0  0
  -12.8355  -28.2794  -24.9589 H   0  0  0  0  0
  -13.8784  -26.2658  -24.2657 H   0  0  0  0  0
  -11.8450  -26.2941  -26.9660 H   0  0  0  0  0
  -10.5596  -26.8452  -25.0671 H   0  0  0  0  0
  -11.1270  -27.9315  -28.4938 H   0  0  0  0  0
  -10.5530  -29.5219  -26.8927 H   0  0  0  0  0
  -13.4271  -27.3404  -28.7385 H   0  0  0  0  0
  -14.3262  -29.0588  -30.0105 H   0  0  0  0  0
  -13.4342  -30.3147  -29.1006 H   0  0  0  0  0
  -12.4277  -29.7936  -31.1271 H   0  0  0  0  0
  -17.4942  -29.2682  -25.7038 H   0  0  0  0  0
  -18.2662  -27.5215  -24.1448 H   0  0  0  0  0
  -17.9712  -26.2703  -25.3771 H   0  0  0  0  0
  -19.2464  -27.4870  -25.6311 H   0  0  0  0  0
  -17.0146  -27.0342  -27.6759 H   0  0  0  0  0
  -16.6312  -28.7597  -27.8918 H   0  0  0  0  0
  -18.3275  -28.2345  -27.7583 H   0  0  0  0  0
  1  2  1  0  0  0
  1  9  1  0  0  0
  1 12  1  0  0  0
  2  3  1  0  0  0
  2  4  1  0  0  0
  4  5  1  0  0  0
  4  6  1  0  0  0
  6  7  1  0  0  0
  6  8  1  0  0  0
  8  9  1  0  0  0
  8 10  1  0  0  0
 10 11  1  0  0  0
 12 13  1  0  0  0
 13 14  1  0  0  0
 13 15  1  0  0  0
  1 16  1  0  0  0
  2 17  1  0  0  0
  3 18  1  0  0  0
  4 19  1  0  0  0
  5 20  1  0  0  0
  6 21  1  0  0  0
  7 22  1  0  0  0
  8 23  1  0  0  0
 10 24  1  0  0  0
 10 25  1  0  0  0
 11 26  1  0  0  0
 13 27  1  0  0  0
 14 28  1  0  0  0
 14 29  1  0  0  0
 14 30  1  0  0  0
 15 31  1  0  0  0
 15 32  1  0  0  0
 15 33  1  0  0  0
M  END
$$$$
