1c5o_ligand
  -I-interpret- 

 17 17  0  0  0  0  0  0  0  0999 V2000
   11.8270  -11.7370   23.1510 C   0  0  0  0  0
   12.2520  -12.9160   22.5400 C   0  0  0  0  0
   13.1770  -12.8950   21.5060 C   0  0  0  0  0
   13.7030  -11.6970   21.0520 C   0  0  0  0  0
   13.3090  -10.5250   21.6260 C   0  0  0  0  0
   12.3830  -10.5490   22.6610 C   0  0  0  0  0
   10.9010  -11.7410   24.2070 C   0  0  0  0  0
   10.3210  -12.8610   24.5160 N   0  0  0  0  0
   10.6290  -10.6390   24.8750 N   0  0  0  0  0
   11.8507  -13.8706   22.8805 H   0  0  0  0  0
   13.4930  -13.8314   21.0461 H   0  0  0  0  0
   14.4291  -11.6913   20.2390 H   0  0  0  0  0
   13.7172   -9.5770   21.2757 H   0  0  0  0  0
   12.0766   -9.6043   23.1102 H   0  0  0  0  0
    9.6482  -12.8926   25.2820 H   0  0  0  0  0
    9.9576  -10.6605   25.6426 H   0  0  0  0  0
   11.0898   -9.7641   24.6248 H   0  0  0  0  0
  7  1  1  0  0  0
  1  6  4  0  0  0
  1  2  4  0  0  0
  2  3  4  0  0  0
  3  4  4  0  0  0
  4  5  4  0  0  0
  6  5  4  0  0  0
  7  9  1  0  0  0
  7  8  2  0  0  0
  2 10  1  0  0  0
  3 11  1  0  0  0
  4 12  1  0  0  0
  5 13  1  0  0  0
  6 14  1  0  0  0
  8 15  1  0  0  0
  9 16  1  0  0  0
  9 17  1  0  0  0
M  END
$$$$
