2iws_ligand
  -I-interpret- 

 39 40  0  0  0  0  0  0  0  0999 V2000
   18.4650  -34.9290  -60.3030 C   0  0  0  0  0
   18.4250  -33.9530  -59.1610 C   0  0  0  0  0
   19.7270  -35.1970  -60.9690 O   0  0  0  0  0
   17.4640  -32.9540  -59.1340 C   0  0  0  0  0
   17.4290  -32.0480  -58.0840 C   0  0  0  0  0
   18.3790  -32.1530  -57.0610 C   0  0  0  0  0
   19.3380  -33.1400  -57.0890 C   0  0  0  0  0
   19.3750  -34.0400  -58.1350 C   0  0  0  0  0
   20.4150  -35.1380  -58.1850 C   0  0  0  0  0
   21.7050  -34.7130  -58.8540 C   0  0  0  0  0
   21.9060  -33.2980  -59.3390 C   0  0  0  0  0
   23.0010  -33.2730  -60.4030 C   0  0  0  0  0
   22.4170  -33.2520  -61.8100 C   0  0  0  0  0
   22.7320  -34.5640  -62.4860 C   0  0  0  0  0
   21.7910  -35.2420  -63.1410 C   0  0  0  0  0
   20.3800  -34.7180  -63.2330 C   0  0  0  0  0
   19.4780  -35.5460  -62.3300 C   0  0  0  0  0
   17.4560  -35.5070  -60.6830 O   0  0  0  0  0
   16.5410  -32.8560  -60.1320 O   0  0  0  0  0
   18.3460  -31.2700  -56.0350 O   0  0  0  0  0
   20.4000  -33.2140  -55.8910 Cl  0  0  0  0  0
   22.6010  -35.5290  -59.0130 O   0  0  0  0  0
   16.6717  -31.2646  -58.0558 H   0  0  0  0  0
   19.9979  -35.9598  -58.7670 H   0  0  0  0  0
   20.6525  -35.4131  -57.1574 H   0  0  0  0  0
   22.2001  -32.6659  -58.5011 H   0  0  0  0  0
   20.9754  -32.9260  -59.7676 H   0  0  0  0  0
   23.6061  -34.1732  -60.2951 H   0  0  0  0  0
   23.5954  -32.3700  -60.2638 H   0  0  0  0  0
   22.8515  -32.4296  -62.3784 H   0  0  0  0  0
   21.3372  -33.1118  -61.7600 H   0  0  0  0  0
   23.7452  -34.9629  -62.4375 H   0  0  0  0  0
   22.0445  -36.1891  -63.6173 H   0  0  0  0  0
   20.0303  -34.7888  -64.2629 H   0  0  0  0  0
   20.3560  -33.6752  -62.9165 H   0  0  0  0  0
   18.4345  -35.3461  -62.5734 H   0  0  0  0  0
   19.6850  -36.6057  -62.4792 H   0  0  0  0  0
   15.9576  -32.1144  -59.9551 H   0  0  0  0  0
   19.0546  -31.4702  -55.4191 H   0  0  0  0  0
  1  2  1  0  0  0
  1  3  1  0  0  0
  1 18  2  0  0  0
  2  4  4  0  0  0
  2  8  4  0  0  0
  3 17  1  0  0  0
  4  5  4  0  0  0
  4 19  1  0  0  0
  5  6  4  0  0  0
  6  7  4  0  0  0
  6 20  1  0  0  0
  7  8  4  0  0  0
  7 21  1  0  0  0
  8  9  1  0  0  0
  9 10  1  0  0  0
 10 11  1  0  0  0
 10 22  2  0  0  0
 11 12  1  0  0  0
 12 13  1  0  0  0
 13 14  1  0  0  0
 14 15  2  0  0  0
 15 16  1  0  0  0
 16 17  1  0  0  0
  5 23  1  0  0  0
  9 24  1  0  0  0
  9 25  1  0  0  0
 11 26  1  0  0  0
 11 27  1  0  0  0
 12 28  1  0  0  0
 12 29  1  0  0  0
 13 30  1  0  0  0
 13 31  1  0  0  0
 14 32  1  0  0  0
 15 33  1  0  0  0
 16 34  1  0  0  0
 16 35  1  0  0  0
 17 36  1  0  0  0
 17 37  1  0  0  0
 19 38  1  0  0  0
 20 39  1  0  0  0
M  END
$$$$
