### 
### Created by X-TOOL on Tue Oct 16 15:17:46 2018
### 

@<TRIPOS>MOLECULE
5uwp_ligand
  188   187     1     0     0
SMALL
GAST_HUCK


@<TRIPOS>ATOM
      1 N         -47.4120   71.6550   32.8690 N.4       1 VAL         0.2381
      2 CA        -46.7750   70.9940   31.7360 C.3       1 VAL         0.0673
      3 C         -46.4350   72.0060   30.6460 C.2       1 VAL         0.2270
      4 O         -45.3480   71.9630   30.0670 O.2       1 VAL        -0.3907
      5 CB        -47.6660   69.8690   31.1680 C.3       1 VAL         0.0139
      6 CG1       -47.7160   68.6930   32.1300 C.3       1 VAL        -0.0553
      7 CG2       -49.0760   70.3850   30.8760 C.3       1 VAL        -0.0553
      8 N         -47.3700   72.9200   30.3700 N.am      1 VAL        -0.2609
      9 CA        -47.1690   73.8850   29.2950 C.3       1 VAL         0.1326
     10 C         -46.2260   75.0080   29.7040 C.2       1 VAL         0.2040
     11 O         -45.5660   75.5990   28.8420 O.2       1 VAL        -0.3944
     12 CB        -48.5080   74.4730   28.8510 C.3       1 VAL        -0.0008
     13 CG        -48.4050   75.3590   27.6140 C.3       1 VAL         0.0044
     14 CD        -49.7080   76.0580   27.2810 C.2       1 VAL         0.0350
     15 OE1       -50.7090   75.8200   27.9890 O.co2     1 VAL        -0.5690
     16 OE2       -49.7290   76.8500   26.3140 O.co2     1 VAL        -0.5690
     17 N         -46.1540   75.3240   30.9990 N.am      1 VAL        -0.2640
     18 CA        -45.2190   76.3470   31.4520 C.3       1 VAL         0.1282
     19 C         -43.7760   75.9160   31.2220 C.2       1 VAL         0.2036
     20 O         -42.8880   76.7650   31.0870 O.2       1 VAL        -0.3944
     21 CB        -45.4580   76.6600   32.9290 C.3       1 VAL        -0.0244
     22 N         -43.5250   74.6050   31.1700 N.am      1 VAL        -0.2637
     23 CA        -42.1800   74.1200   30.8780 C.3       1 VAL         0.1312
     24 C         -41.8120   74.3540   29.4190 C.2       1 VAL         0.2039
     25 O         -40.6670   74.7040   29.1120 O.2       1 VAL        -0.3944
     26 CB        -42.0720   72.6310   31.2090 C.3       1 VAL        -0.0101
     27 CG        -42.0570   72.2200   32.6820 C.3       1 VAL        -0.0425
     28 CD1       -41.9710   70.7070   32.7840 C.3       1 VAL        -0.0625
     29 CD2       -40.9000   72.8680   33.4270 C.3       1 VAL        -0.0625
     30 N         -42.7680   74.1570   28.5070 N.am      1 VAL        -0.2637
     31 CA        -42.4760   74.2720   27.0820 C.3       1 VAL         0.1312
     32 C         -41.7970   75.5980   26.7660 C.2       1 VAL         0.2039
     33 O         -40.7340   75.6310   26.1350 O.2       1 VAL        -0.3944
     34 CB        -43.7640   74.1200   26.2710 C.3       1 VAL        -0.0101
     35 CG        -44.5950   72.8630   26.5480 C.3       1 VAL        -0.0425
     36 CD1       -45.7370   72.7530   25.5450 C.3       1 VAL        -0.0625
     37 CD2       -43.7370   71.6030   26.5280 C.3       1 VAL        -0.0625
     38 N         -42.3950   76.7060   27.2060 N.am      1 VAL        -0.2640
     39 CA        -41.8170   78.0170   26.9360 C.3       1 VAL         0.1282
     40 C         -40.4030   78.1160   27.4950 C.2       1 VAL         0.2036
     41 O         -39.4830   78.5820   26.8130 O.2       1 VAL        -0.3944
     42 CB        -42.7080   79.1110   27.5240 C.3       1 VAL        -0.0244
     43 N         -40.2120   77.6840   28.7440 N.am      1 VAL        -0.2637
     44 CA        -38.8770   77.6840   29.3340 C.3       1 VAL         0.1311
     45 C         -37.9330   76.7860   28.5450 C.2       1 VAL         0.2039
     46 O         -36.7440   77.0930   28.3990 O.2       1 VAL        -0.3944
     47 CB        -38.9500   77.2260   30.7910 C.3       1 VAL        -0.0092
     48 CG        -39.8900   78.0460   31.6600 C.3       1 VAL        -0.0156
     49 CD        -39.1320   78.9140   32.6510 C.3       1 VAL         0.0627
     50 NE        -38.4390   78.1250   33.6670 N.pl3     1 VAL        -0.2723
     51 CZ        -39.0380   77.5380   34.7000 C.cat     1 VAL         0.2882
     52 NH1       -40.3520   77.6300   34.8570 N.pl3     1 VAL        -0.2849
     53 NH2       -38.3230   76.8480   35.5750 N.pl3     1 VAL        -0.2849
     54 N         -38.4480   75.6670   28.0310 N.am      1 VAL        -0.2637
     55 CA        -37.6140   74.7410   27.2720 C.3       1 VAL         0.1312
     56 C         -37.0520   75.4040   26.0190 C.2       1 VAL         0.2039
     57 O         -35.8870   75.1920   25.6660 O.2       1 VAL        -0.3944
     58 CB        -38.4250   73.4980   26.8990 C.3       1 VAL        -0.0101
     59 CG        -37.8730   72.1440   27.3500 C.3       1 VAL        -0.0425
     60 CD1       -38.8750   71.0410   27.0530 C.3       1 VAL        -0.0625
     61 CD2       -36.5430   71.8480   26.6780 C.3       1 VAL        -0.0625
     62 N         -37.8610   76.2240   25.3440 N.am      1 VAL        -0.2637
     63 CA        -37.4610   76.7630   24.0480 C.3       1 VAL         0.1311
     64 C         -36.4010   77.8510   24.1750 C.2       1 VAL         0.2039
     65 O         -35.6200   78.0580   23.2390 O.2       1 VAL        -0.3944
     66 CB        -38.6810   77.3110   23.3160 C.3       1 VAL        -0.0092
     67 CG        -39.7690   76.2830   23.0760 C.3       1 VAL        -0.0156
     68 CD        -40.9320   76.8870   22.3070 C.3       1 VAL         0.0627
     69 NE        -41.9640   75.8930   22.0100 N.pl3     1 VAL        -0.2723
     70 CZ        -43.1490   75.8110   22.6100 C.cat     1 VAL         0.2882
     71 NH1       -43.5010   76.6730   23.5580 N.pl3     1 VAL        -0.2849
     72 NH2       -44.0000   74.8590   22.2490 N.pl3     1 VAL        -0.2849
     73 N         -36.3550   78.5530   25.3070 N.am      1 VAL        -0.2640
     74 CA        -35.4150   79.6540   25.4820 C.3       1 VAL         0.1282
     75 C         -34.0000   79.1910   25.8090 C.2       1 VAL         0.2031
     76 O         -33.0970   80.0310   25.8850 O.2       1 VAL        -0.3944
     77 CB        -35.9090   80.5960   26.5830 C.3       1 VAL        -0.0244
     78 N         -33.7820   77.8940   26.0020 N.am      1 VAL        -0.2695
     79 CA        -32.4500   77.3760   26.3000 C.3       1 VAL         0.0946
     80 C         -31.4440   77.7650   25.2210 C.2       1 VAL         0.0601
     81 O         -31.7360   77.7020   24.0260 O.co2     1 VAL        -0.5666
     82 CB        -32.4960   75.8540   26.4450 C.3       1 VAL        -0.0156
     83 CG        -32.9920   75.3260   27.7910 C.3       1 VAL        -0.0431
     84 CD1       -33.5800   73.9380   27.6340 C.3       1 VAL        -0.0625
     85 CD2       -31.8560   75.3040   28.7900 C.3       1 VAL        -0.0625
     86 OXT       -30.3110   78.1450   25.5200 O.co2     1 VAL        -0.5666
     87 H1        -46.8073   72.3826   33.2168 H         1 VAL         0.2015
     88 H2        -47.5814   70.9812   33.5993 H         1 VAL         0.2015
     89 H3        -48.2875   72.0581   32.5741 H         1 VAL         0.2015
     90 H4        -45.8370   70.5408   32.0893 H         1 VAL         0.1101
     91 H5        -47.2234   69.5233   30.2222 H         1 VAL         0.0376
     92 H6        -48.3544   67.9021   31.7094 H         1 VAL         0.0236
     93 H7        -48.1301   69.0248   33.0935 H         1 VAL         0.0236
     94 H8        -46.6997   68.3010   32.2831 H         1 VAL         0.0236
     95 H9        -49.0186   71.2343   30.1793 H         1 VAL         0.0236
     96 H10       -49.5485   70.7116   31.8141 H         1 VAL         0.0236
     97 H11       -49.6748   69.5803   30.4245 H         1 VAL         0.0236
     98 H12       -48.2146   72.9425   30.9050 H         1 VAL         0.1885
     99 H13       -46.7208   73.3551   28.4416 H         1 VAL         0.0801
    100 H14       -48.9147   75.0749   29.6770 H         1 VAL         0.0330
    101 H15       -49.1955   73.6436   28.6285 H         1 VAL         0.0330
    102 H16       -48.1129   74.7338   26.7574 H         1 VAL         0.0433
    103 H17       -47.6326   76.1218   27.7915 H         1 VAL         0.0433
    104 H18       -46.7425   74.8581   31.6598 H         1 VAL         0.1883
    105 H19       -45.4005   77.2623   30.8696 H         1 VAL         0.0797
    106 H20       -44.7478   77.4322   33.2597 H         1 VAL         0.0277
    107 H21       -45.3115   75.7475   33.5256 H         1 VAL         0.0277
    108 H22       -46.4866   77.0256   33.0646 H         1 VAL         0.0277
    109 H23       -44.2641   73.9512   31.3323 H         1 VAL         0.1883
    110 H24       -41.4682   74.6726   31.5088 H         1 VAL         0.0800
    111 H25       -41.1389   72.2629   30.7577 H         1 VAL         0.0315
    112 H26       -42.9300   72.1287   30.7385 H         1 VAL         0.0315
    113 H27       -42.9970   72.5522   33.1469 H         1 VAL         0.0298
    114 H28       -41.9602   70.4110   33.8434 H         1 VAL         0.0232
    115 H29       -41.0486   70.3584   32.2965 H         1 VAL         0.0232
    116 H30       -42.8419   70.2558   32.2861 H         1 VAL         0.0232
    117 H31       -40.9770   73.9621   33.3435 H         1 VAL         0.0232
    118 H32       -39.9482   72.5329   32.9890 H         1 VAL         0.0232
    119 H33       -40.9381   72.5777   34.4873 H         1 VAL         0.0232
    120 H34       -43.6949   73.9280   28.8044 H         1 VAL         0.1883
    121 H35       -41.7901   73.4588   26.8021 H         1 VAL         0.0800
    122 H36       -43.4906   74.1131   25.2056 H         1 VAL         0.0315
    123 H37       -44.3979   74.9941   26.4813 H         1 VAL         0.0315
    124 H38       -45.0301   72.9590   27.5537 H         1 VAL         0.0298
    125 H39       -46.3242   71.8471   25.7559 H         1 VAL         0.0232
    126 H40       -45.3260   72.6947   24.5263 H         1 VAL         0.0232
    127 H41       -46.3852   73.6378   25.6288 H         1 VAL         0.0232
    128 H42       -42.9204   71.7039   27.2580 H         1 VAL         0.0232
    129 H43       -43.3143   71.4631   25.5221 H         1 VAL         0.0232
    130 H44       -44.3571   70.7329   26.7895 H         1 VAL         0.0232
    131 H45       -43.2468   76.6370   27.7253 H         1 VAL         0.1883
    132 H46       -41.7672   78.1567   25.8461 H         1 VAL         0.0797
    133 H47       -42.2649   80.0960   27.3159 H         1 VAL         0.0277
    134 H48       -42.7930   78.9696   28.6115 H         1 VAL         0.0277
    135 H49       -43.7073   79.0547   27.0677 H         1 VAL         0.0277
    136 H50       -40.9906   77.3576   29.2799 H         1 VAL         0.1883
    137 H51       -38.4836   78.7109   29.3077 H         1 VAL         0.0800
    138 H52       -37.9401   77.2885   31.2225 H         1 VAL         0.0313
    139 H53       -39.2913   76.1804   30.8064 H         1 VAL         0.0313
    140 H54       -40.5476   77.3620   32.2165 H         1 VAL         0.0301
    141 H55       -40.4987   78.6941   31.0124 H         1 VAL         0.0301
    142 H56       -39.8460   79.5849   33.1511 H         1 VAL         0.0689
    143 H57       -38.3901   79.5120   32.1015 H         1 VAL         0.0689
    144 H58       -37.4187   78.0159   33.5776 H         1 VAL         0.2642
    145 H59       -40.8081   77.1727   35.6594 H         1 VAL         0.2615
    146 H60       -40.9162   78.1587   34.1765 H         1 VAL         0.2615
    147 H61       -37.3023   76.7718   35.4601 H         1 VAL         0.2615
    148 H62       -38.7875   76.3874   36.3706 H         1 VAL         0.2615
    149 H63       -39.4169   75.4608   28.1677 H         1 VAL         0.1883
    150 H64       -36.7709   74.4319   27.9073 H         1 VAL         0.0800
    151 H65       -38.5080   73.4733   25.8024 H         1 VAL         0.0315
    152 H66       -39.4263   73.6110   27.3401 H         1 VAL         0.0315
    153 H67       -37.7096   72.1819   28.4371 H         1 VAL         0.0298
    154 H68       -38.4650   70.0748   27.3822 H         1 VAL         0.0232
    155 H69       -39.0722   71.0062   25.9714 H         1 VAL         0.0232
    156 H70       -39.8132   71.2434   27.5904 H         1 VAL         0.0232
    157 H71       -35.8307   72.6554   26.9032 H         1 VAL         0.0232
    158 H72       -36.6889   71.7808   25.5898 H         1 VAL         0.0232
    159 H73       -36.1463   70.8936   27.0544 H         1 VAL         0.0232
    160 H74       -38.7497   76.4713   25.7302 H         1 VAL         0.1883
    161 H75       -37.0362   75.9409   23.4533 H         1 VAL         0.0800
    162 H76       -38.3531   77.7016   22.3414 H         1 VAL         0.0313
    163 H77       -39.1051   78.1300   23.9154 H         1 VAL         0.0313
    164 H78       -40.1332   75.9123   24.0455 H         1 VAL         0.0301
    165 H79       -39.3513   75.4463   22.4969 H         1 VAL         0.0301
    166 H80       -40.5553   77.3023   21.3606 H         1 VAL         0.0689
    167 H81       -41.3769   77.6925   22.9096 H         1 VAL         0.0689
    168 H82       -41.7563   75.2002   21.2766 H         1 VAL         0.2642
    169 H83       -44.4228   76.5928   24.0105 H         1 VAL         0.2615
    170 H84       -42.8520   77.4214   23.8403 H         1 VAL         0.2615
    171 H85       -43.7381   74.1852   21.5153 H         1 VAL         0.2615
    172 H86       -44.9225   74.7938   22.7025 H         1 VAL         0.2615
    173 H87       -36.9789   78.3195   26.0528 H         1 VAL         0.1883
    174 H88       -35.3759   80.2140   24.5360 H         1 VAL         0.0797
    175 H89       -35.1935   81.4222   26.7069 H         1 VAL         0.0277
    176 H90       -35.9956   80.0411   27.5288 H         1 VAL         0.0277
    177 H91       -36.8928   81.0016   26.3044 H         1 VAL         0.0277
    178 H92       -34.5502   77.2567   25.9415 H         1 VAL         0.1875
    179 H93       -32.1174   77.8091   27.2549 H         1 VAL         0.0726
    180 H94       -31.4776   75.4695   26.2868 H         1 VAL         0.0308
    181 H95       -33.1620   75.4609   25.6628 H         1 VAL         0.0308
    182 H96       -33.7773   75.9994   28.1650 H         1 VAL         0.0297
    183 H97       -33.9308   73.5757   28.6116 H         1 VAL         0.0232
    184 H98       -32.8101   73.2555   27.2448 H         1 VAL         0.0232
    185 H99       -34.4259   73.9754   26.9318 H         1 VAL         0.0232
    186 H100      -31.4393   76.3167   28.8937 H         1 VAL         0.0232
    187 H101      -31.0709   74.6189   28.4375 H         1 VAL         0.0232
    188 H102      -32.2318   74.9605   29.7651 H         1 VAL         0.0232
@<TRIPOS>BOND
     1    1    2 1  
     2    2    3 1  
     3    2    5 1  
     4    3    4 2  
     5    3    8 am 
     6    5    6 1  
     7    5    7 1  
     8    8    9 1  
     9    9   10 1  
    10    9   12 1  
    11   10   11 2  
    12   10   17 am 
    13   12   13 1  
    14   13   14 1  
    15   14   15 ar 
    16   14   16 ar 
    17   17   18 1  
    18   18   19 1  
    19   18   21 1  
    20   19   20 2  
    21   19   22 am 
    22   22   23 1  
    23   23   24 1  
    24   23   26 1  
    25   24   25 2  
    26   24   30 am 
    27   26   27 1  
    28   27   28 1  
    29   27   29 1  
    30   30   31 1  
    31   31   32 1  
    32   31   34 1  
    33   32   33 2  
    34   32   38 am 
    35   34   35 1  
    36   35   36 1  
    37   35   37 1  
    38   38   39 1  
    39   39   40 1  
    40   39   42 1  
    41   40   41 2  
    42   40   43 am 
    43   43   44 1  
    44   44   45 1  
    45   44   47 1  
    46   45   46 2  
    47   45   54 am 
    48   47   48 1  
    49   48   49 1  
    50   49   50 1  
    51   50   51 ar 
    52   51   52 ar 
    53   51   53 ar 
    54   54   55 1  
    55   55   56 1  
    56   55   58 1  
    57   56   57 2  
    58   56   62 am 
    59   58   59 1  
    60   59   60 1  
    61   59   61 1  
    62   62   63 1  
    63   63   64 1  
    64   63   66 1  
    65   64   65 2  
    66   64   73 am 
    67   66   67 1  
    68   67   68 1  
    69   68   69 1  
    70   69   70 ar 
    71   70   71 ar 
    72   70   72 ar 
    73   73   74 1  
    74   74   75 1  
    75   74   77 1  
    76   75   76 2  
    77   75   78 am 
    78   78   79 1  
    79   79   80 1  
    80   79   82 1  
    81   80   81 ar 
    82   80   86 ar 
    83   82   83 1  
    84   83   84 1  
    85   83   85 1  
    86    1   87 1  
    87    1   88 1  
    88    1   89 1  
    89    2   90 1  
    90    5   91 1  
    91    6   92 1  
    92    6   93 1  
    93    6   94 1  
    94    7   95 1  
    95    7   96 1  
    96    7   97 1  
    97    8   98 1  
    98    9   99 1  
    99   12  100 1  
   100   12  101 1  
   101   13  102 1  
   102   13  103 1  
   103   17  104 1  
   104   18  105 1  
   105   21  106 1  
   106   21  107 1  
   107   21  108 1  
   108   22  109 1  
   109   23  110 1  
   110   26  111 1  
   111   26  112 1  
   112   27  113 1  
   113   28  114 1  
   114   28  115 1  
   115   28  116 1  
   116   29  117 1  
   117   29  118 1  
   118   29  119 1  
   119   30  120 1  
   120   31  121 1  
   121   34  122 1  
   122   34  123 1  
   123   35  124 1  
   124   36  125 1  
   125   36  126 1  
   126   36  127 1  
   127   37  128 1  
   128   37  129 1  
   129   37  130 1  
   130   38  131 1  
   131   39  132 1  
   132   42  133 1  
   133   42  134 1  
   134   42  135 1  
   135   43  136 1  
   136   44  137 1  
   137   47  138 1  
   138   47  139 1  
   139   48  140 1  
   140   48  141 1  
   141   49  142 1  
   142   49  143 1  
   143   50  144 1  
   144   52  145 1  
   145   52  146 1  
   146   53  147 1  
   147   53  148 1  
   148   54  149 1  
   149   55  150 1  
   150   58  151 1  
   151   58  152 1  
   152   59  153 1  
   153   60  154 1  
   154   60  155 1  
   155   60  156 1  
   156   61  157 1  
   157   61  158 1  
   158   61  159 1  
   159   62  160 1  
   160   63  161 1  
   161   66  162 1  
   162   66  163 1  
   163   67  164 1  
   164   67  165 1  
   165   68  166 1  
   166   68  167 1  
   167   69  168 1  
   168   71  169 1  
   169   71  170 1  
   170   72  171 1  
   171   72  172 1  
   172   73  173 1  
   173   74  174 1  
   174   77  175 1  
   175   77  176 1  
   176   77  177 1  
   177   78  178 1  
   178   79  179 1  
   179   82  180 1  
   180   82  181 1  
   181   83  182 1  
   182   84  183 1  
   183   84  184 1  
   184   84  185 1  
   185   85  186 1  
   186   85  187 1  
   187   85  188 1  
@<TRIPOS>SUBSTRUCTURE
     1 VAL         1

