5uwp_ligand
  -I-interpret- 

188187  0  0  0  0  0  0  0  0999 V2000
  -47.4120   71.6550   32.8690 N   0  3  0  0  0
  -46.7750   70.9940   31.7360 C   0  0  0  0  0
  -46.4350   72.0060   30.6460 C   0  0  0  0  0
  -45.3480   71.9630   30.0670 O   0  0  0  0  0
  -47.6660   69.8690   31.1680 C   0  0  0  0  0
  -47.7160   68.6930   32.1300 C   0  0  0  0  0
  -49.0760   70.3850   30.8760 C   0  0  0  0  0
  -47.3700   72.9200   30.3700 N   0  0  0  0  0
  -47.1690   73.8850   29.2950 C   0  0  0  0  0
  -46.2260   75.0080   29.7040 C   0  0  0  0  0
  -45.5660   75.5990   28.8420 O   0  0  0  0  0
  -48.5080   74.4730   28.8510 C   0  0  0  0  0
  -48.4050   75.3590   27.6140 C   0  0  0  0  0
  -49.7080   76.0580   27.2810 C   0  0  0  0  0
  -50.7090   75.8200   27.9890 O   0  0  0  0  0
  -49.7290   76.8500   26.3140 O   0  0  0  0  0
  -46.1540   75.3240   30.9990 N   0  0  0  0  0
  -45.2190   76.3470   31.4520 C   0  0  0  0  0
  -43.7760   75.9160   31.2220 C   0  0  0  0  0
  -42.8880   76.7650   31.0870 O   0  0  0  0  0
  -45.4580   76.6600   32.9290 C   0  0  0  0  0
  -43.5250   74.6050   31.1700 N   0  0  0  0  0
  -42.1800   74.1200   30.8780 C   0  0  0  0  0
  -41.8120   74.3540   29.4190 C   0  0  0  0  0
  -40.6670   74.7040   29.1120 O   0  0  0  0  0
  -42.0720   72.6310   31.2090 C   0  0  0  0  0
  -42.0570   72.2200   32.6820 C   0  0  0  0  0
  -41.9710   70.7070   32.7840 C   0  0  0  0  0
  -40.9000   72.8680   33.4270 C   0  0  0  0  0
  -42.7680   74.1570   28.5070 N   0  0  0  0  0
  -42.4760   74.2720   27.0820 C   0  0  0  0  0
  -41.7970   75.5980   26.7660 C   0  0  0  0  0
  -40.7340   75.6310   26.1350 O   0  0  0  0  0
  -43.7640   74.1200   26.2710 C   0  0  0  0  0
  -44.5950   72.8630   26.5480 C   0  0  0  0  0
  -45.7370   72.7530   25.5450 C   0  0  0  0  0
  -43.7370   71.6030   26.5280 C   0  0  0  0  0
  -42.3950   76.7060   27.2060 N   0  0  0  0  0
  -41.8170   78.0170   26.9360 C   0  0  0  0  0
  -40.4030   78.1160   27.4950 C   0  0  0  0  0
  -39.4830   78.5820   26.8130 O   0  0  0  0  0
  -42.7080   79.1110   27.5240 C   0  0  0  0  0
  -40.2120   77.6840   28.7440 N   0  0  0  0  0
  -38.8770   77.6840   29.3340 C   0  0  0  0  0
  -37.9330   76.7860   28.5450 C   0  0  0  0  0
  -36.7440   77.0930   28.3990 O   0  0  0  0  0
  -38.9500   77.2260   30.7910 C   0  0  0  0  0
  -39.8900   78.0460   31.6600 C   0  0  0  0  0
  -39.1320   78.9140   32.6510 C   0  0  0  0  0
  -38.4390   78.1250   33.6670 N   0  0  0  0  0
  -39.0380   77.5380   34.7000 C   0  0  0  0  0
  -40.3520   77.6300   34.8570 N   0  0  0  0  0
  -38.3230   76.8480   35.5750 N   0  0  0  0  0
  -38.4480   75.6670   28.0310 N   0  0  0  0  0
  -37.6140   74.7410   27.2720 C   0  0  0  0  0
  -37.0520   75.4040   26.0190 C   0  0  0  0  0
  -35.8870   75.1920   25.6660 O   0  0  0  0  0
  -38.4250   73.4980   26.8990 C   0  0  0  0  0
  -37.8730   72.1440   27.3500 C   0  0  0  0  0
  -38.8750   71.0410   27.0530 C   0  0  0  0  0
  -36.5430   71.8480   26.6780 C   0  0  0  0  0
  -37.8610   76.2240   25.3440 N   0  0  0  0  0
  -37.4610   76.7630   24.0480 C   0  0  0  0  0
  -36.4010   77.8510   24.1750 C   0  0  0  0  0
  -35.6200   78.0580   23.2390 O   0  0  0  0  0
  -38.6810   77.3110   23.3160 C   0  0  0  0  0
  -39.7690   76.2830   23.0760 C   0  0  0  0  0
  -40.9320   76.8870   22.3070 C   0  0  0  0  0
  -41.9640   75.8930   22.0100 N   0  0  0  0  0
  -43.1490   75.8110   22.6100 C   0  0  0  0  0
  -43.5010   76.6730   23.5580 N   0  0  0  0  0
  -44.0000   74.8590   22.2490 N   0  0  0  0  0
  -36.3550   78.5530   25.3070 N   0  0  0  0  0
  -35.4150   79.6540   25.4820 C   0  0  0  0  0
  -34.0000   79.1910   25.8090 C   0  0  0  0  0
  -33.0970   80.0310   25.8850 O   0  0  0  0  0
  -35.9090   80.5960   26.5830 C   0  0  0  0  0
  -33.7820   77.8940   26.0020 N   0  0  0  0  0
  -32.4500   77.3760   26.3000 C   0  0  0  0  0
  -31.4440   77.7650   25.2210 C   0  0  0  0  0
  -31.7360   77.7020   24.0260 O   0  0  0  0  0
  -32.4960   75.8540   26.4450 C   0  0  0  0  0
  -32.9920   75.3260   27.7910 C   0  0  0  0  0
  -33.5800   73.9380   27.6340 C   0  0  0  0  0
  -31.8560   75.3040   28.7900 C   0  0  0  0  0
  -30.3110   78.1450   25.5200 O   0  0  0  0  0
  -46.7993   72.3910   33.2201 H   0  0  0  0  0
  -48.2978   72.0625   32.5693 H   0  0  0  0  0
  -47.5829   70.9723   33.6073 H   0  0  0  0  0
  -45.8502   70.5409   32.0930 H   0  0  0  0  0
  -47.2285   69.5297   30.2291 H   0  0  0  0  0
  -48.1778   69.0096   33.0652 H   0  0  0  0  0
  -48.3030   67.8881   31.6877 H   0  0  0  0  0
  -46.7029   68.3410   32.3245 H   0  0  0  0  0
  -49.6683   69.5867   30.4288 H   0  0  0  0  0
  -49.5431   70.7082   31.8063 H   0  0  0  0  0
  -49.0178   71.2265   30.1856 H   0  0  0  0  0
  -48.2314   72.9430   30.9157 H   0  0  0  0  0
  -46.7105   73.3495   28.4637 H   0  0  0  0  0
  -48.8797   75.0927   29.6670 H   0  0  0  0  0
  -49.1649   73.6394   28.6024 H   0  0  0  0  0
  -48.1425   74.7226   26.7689 H   0  0  0  0  0
  -47.6569   76.1259   27.8145 H   0  0  0  0  0
  -48.8584   76.8843   25.9110 H   0  0  0  0  0
  -46.7543   74.8488   31.6730 H   0  0  0  0  0
  -45.3923   77.2505   30.8674 H   0  0  0  0  0
  -46.4775   77.0221   33.0620 H   0  0  0  0  0
  -45.3126   75.7551   33.5190 H   0  0  0  0  0
  -44.7538   77.4252   33.2555 H   0  0  0  0  0
  -44.2789   73.9382   31.3356 H   0  0  0  0  0
  -41.4808   74.6796   31.4994 H   0  0  0  0  0
  -41.1068   72.3166   30.8120 H   0  0  0  0  0
  -42.9709   72.1770   30.7921 H   0  0  0  0  0
  -42.9807   72.5648   33.1467 H   0  0  0  0  0
  -42.8345   70.2612   32.2903 H   0  0  0  0  0
  -41.0567   70.3629   32.3006 H   0  0  0  0  0
  -41.9604   70.4149   33.8341 H   0  0  0  0  0
  -39.9586   72.5604   32.9717 H   0  0  0  0  0
  -40.9951   73.9524   33.3707 H   0  0  0  0  0
  -40.9201   72.5539   34.4706 H   0  0  0  0  0
  -43.7134   73.9234   28.8104 H   0  0  0  0  0
  -41.7879   73.4729   26.8063 H   0  0  0  0  0
  -43.4598   74.0590   25.2261 H   0  0  0  0  0
  -44.3948   74.9669   26.5409 H   0  0  0  0  0
  -45.0135   72.9550   27.5502 H   0  0  0  0  0
  -46.3784   73.6303   25.6290 H   0  0  0  0  0
  -45.3285   72.6953   24.5361 H   0  0  0  0  0
  -46.3181   71.8550   25.7550 H   0  0  0  0  0
  -43.2712   71.4977   25.5482 H   0  0  0  0  0
  -42.9641   71.6791   27.2928 H   0  0  0  0  0
  -44.3644   70.7345   26.7287 H   0  0  0  0  0
  -43.2638   76.6356   27.7357 H   0  0  0  0  0
  -41.7578   78.1536   25.8562 H   0  0  0  0  0
  -43.6978   79.0541   27.0711 H   0  0  0  0  0
  -42.7914   78.9697   28.6016 H   0  0  0  0  0
  -42.2679   80.0865   27.3171 H   0  0  0  0  0
  -41.0062   77.3510   29.2906 H   0  0  0  0  0
  -38.4852   78.7006   29.2989 H   0  0  0  0  0
  -37.9499   77.3339   31.2110 H   0  0  0  0  0
  -39.3281   76.2037   30.7866 H   0  0  0  0  0
  -40.5233   77.3591   32.2214 H   0  0  0  0  0
  -40.4742   78.6983   31.0109 H   0  0  0  0  0
  -39.8529   79.5563   33.1568 H   0  0  0  0  0
  -38.3844   79.4827   32.0980 H   0  0  0  0  0
  -37.4286   78.0170   33.5785 H   0  0  0  0  0
  -40.8046   77.1710   35.6475 H   0  0  0  0  0
  -40.9098   78.1597   34.1872 H   0  0  0  0  0
  -37.3131   76.7665   35.4572 H   0  0  0  0  0
  -39.4363   75.4567   28.1704 H   0  0  0  0  0
  -36.7722   74.4457   27.8982 H   0  0  0  0  0
  -38.4350   73.4663   25.8095 H   0  0  0  0  0
  -39.3859   73.6089   27.4016 H   0  0  0  0  0
  -37.7059   72.1854   28.4263 H   0  0  0  0  0
  -39.8041   71.2427   27.5861 H   0  0  0  0  0
  -39.0695   71.0076   25.9810 H   0  0  0  0  0
  -38.4676   70.0842   27.3796 H   0  0  0  0  0
  -36.6801   71.8280   25.5968 H   0  0  0  0  0
  -35.8242   72.6244   26.9401 H   0  0  0  0  0
  -36.1738   70.8800   27.0166 H   0  0  0  0  0
  -38.7674   76.4762   25.7379 H   0  0  0  0  0
  -37.0209   75.9452   23.4774 H   0  0  0  0  0
  -38.3433   77.6585   22.3396 H   0  0  0  0  0
  -39.1086   78.0945   23.9416 H   0  0  0  0  0
  -40.1342   75.9300   24.0404 H   0  0  0  0  0
  -39.3518   75.4636   22.4907 H   0  0  0  0  0
  -40.5518   77.2777   21.3631 H   0  0  0  0  0
  -41.3778   77.6700   22.9204 H   0  0  0  0  0
  -41.7583   75.2069   21.2838 H   0  0  0  0  0
  -44.4172   76.5988   24.0001 H   0  0  0  0  0
  -42.8550   77.4089   23.8436 H   0  0  0  0  0
  -43.7439   74.1969   21.5166 H   0  0  0  0  0
  -36.9914   78.3149   26.0677 H   0  0  0  0  0
  -35.3691   80.1751   24.5257 H   0  0  0  0  0
  -36.8838   80.9972   26.3058 H   0  0  0  0  0
  -35.9944   80.0449   27.5196 H   0  0  0  0  0
  -35.1992   81.4142   26.7048 H   0  0  0  0  0
  -34.5656   77.2439   25.9403 H   0  0  0  0  0
  -32.1239   77.8198   27.2406 H   0  0  0  0  0
  -31.4692   75.5044   26.3377 H   0  0  0  0  0
  -33.2019   75.4956   25.6958 H   0  0  0  0  0
  -33.7733   75.9909   28.1591 H   0  0  0  0  0
  -34.4180   73.9764   26.9380 H   0  0  0  0  0
  -32.8162   73.2627   27.2483 H   0  0  0  0  0
  -33.9272   73.5801   28.6033 H   0  0  0  0  0
  -31.0617   74.6553   28.4208 H   0  0  0  0  0
  -31.4698   76.3148   28.9214 H   0  0  0  0  0
  -32.2210   74.9261   29.7450 H   0  0  0  0  0
  -30.2172   78.1474   26.4754 H   0  0  0  0  0
  1  2  1  0  0  0
  2  3  1  0  0  0
  2  5  1  0  0  0
  3  4  2  0  0  0
  3  8  1  0  0  0
  5  6  1  0  0  0
  5  7  1  0  0  0
  8  9  1  0  0  0
  9 10  1  0  0  0
  9 12  1  0  0  0
 10 11  2  0  0  0
 10 17  1  0  0  0
 12 13  1  0  0  0
 13 14  1  0  0  0
 14 15  2  0  0  0
 14 16  1  0  0  0
 17 18  1  0  0  0
 18 19  1  0  0  0
 18 21  1  0  0  0
 19 20  2  0  0  0
 19 22  1  0  0  0
 22 23  1  0  0  0
 23 24  1  0  0  0
 23 26  1  0  0  0
 24 25  2  0  0  0
 24 30  1  0  0  0
 26 27  1  0  0  0
 27 28  1  0  0  0
 27 29  1  0  0  0
 30 31  1  0  0  0
 31 32  1  0  0  0
 31 34  1  0  0  0
 32 33  2  0  0  0
 32 38  1  0  0  0
 34 35  1  0  0  0
 35 36  1  0  0  0
 35 37  1  0  0  0
 38 39  1  0  0  0
 39 40  1  0  0  0
 39 42  1  0  0  0
 40 41  2  0  0  0
 40 43  1  0  0  0
 43 44  1  0  0  0
 44 45  1  0  0  0
 44 47  1  0  0  0
 45 46  2  0  0  0
 45 54  1  0  0  0
 47 48  1  0  0  0
 48 49  1  0  0  0
 49 50  1  0  0  0
 50 51  1  0  0  0
 51 52  1  0  0  0
 51 53  2  0  0  0
 54 55  1  0  0  0
 55 56  1  0  0  0
 55 58  1  0  0  0
 56 57  2  0  0  0
 56 62  1  0  0  0
 58 59  1  0  0  0
 59 60  1  0  0  0
 59 61  1  0  0  0
 62 63  1  0  0  0
 63 64  1  0  0  0
 63 66  1  0  0  0
 64 65  2  0  0  0
 64 73  1  0  0  0
 66 67  1  0  0  0
 67 68  1  0  0  0
 68 69  1  0  0  0
 69 70  1  0  0  0
 70 71  1  0  0  0
 70 72  2  0  0  0
 73 74  1  0  0  0
 74 75  1  0  0  0
 74 77  1  0  0  0
 75 76  2  0  0  0
 75 78  1  0  0  0
 78 79  1  0  0  0
 79 80  1  0  0  0
 79 82  1  0  0  0
 80 81  2  0  0  0
 80 86  1  0  0  0
 82 83  1  0  0  0
 83 84  1  0  0  0
 83 85  1  0  0  0
  1 87  1  0  0  0
  1 88  1  0  0  0
  1 89  1  0  0  0
  2 90  1  0  0  0
  5 91  1  0  0  0
  6 92  1  0  0  0
  6 93  1  0  0  0
  6 94  1  0  0  0
  7 95  1  0  0  0
  7 96  1  0  0  0
  7 97  1  0  0  0
  8 98  1  0  0  0
  9 99  1  0  0  0
 12100  1  0  0  0
 12101  1  0  0  0
 13102  1  0  0  0
 13103  1  0  0  0
 16104  1  0  0  0
 17105  1  0  0  0
 18106  1  0  0  0
 21107  1  0  0  0
 21108  1  0  0  0
 21109  1  0  0  0
 22110  1  0  0  0
 23111  1  0  0  0
 26112  1  0  0  0
 26113  1  0  0  0
 27114  1  0  0  0
 28115  1  0  0  0
 28116  1  0  0  0
 28117  1  0  0  0
 29118  1  0  0  0
 29119  1  0  0  0
 29120  1  0  0  0
 30121  1  0  0  0
 31122  1  0  0  0
 34123  1  0  0  0
 34124  1  0  0  0
 35125  1  0  0  0
 36126  1  0  0  0
 36127  1  0  0  0
 36128  1  0  0  0
 37129  1  0  0  0
 37130  1  0  0  0
 37131  1  0  0  0
 38132  1  0  0  0
 39133  1  0  0  0
 42134  1  0  0  0
 42135  1  0  0  0
 42136  1  0  0  0
 43137  1  0  0  0
 44138  1  0  0  0
 47139  1  0  0  0
 47140  1  0  0  0
 48141  1  0  0  0
 48142  1  0  0  0
 49143  1  0  0  0
 49144  1  0  0  0
 50145  1  0  0  0
 52146  1  0  0  0
 52147  1  0  0  0
 53148  1  0  0  0
 54149  1  0  0  0
 55150  1  0  0  0
 58151  1  0  0  0
 58152  1  0  0  0
 59153  1  0  0  0
 60154  1  0  0  0
 60155  1  0  0  0
 60156  1  0  0  0
 61157  1  0  0  0
 61158  1  0  0  0
 61159  1  0  0  0
 62160  1  0  0  0
 63161  1  0  0  0
 66162  1  0  0  0
 66163  1  0  0  0
 67164  1  0  0  0
 67165  1  0  0  0
 68166  1  0  0  0
 68167  1  0  0  0
 69168  1  0  0  0
 71169  1  0  0  0
 71170  1  0  0  0
 72171  1  0  0  0
 73172  1  0  0  0
 74173  1  0  0  0
 77174  1  0  0  0
 77175  1  0  0  0
 77176  1  0  0  0
 78177  1  0  0  0
 79178  1  0  0  0
 82179  1  0  0  0
 82180  1  0  0  0
 83181  1  0  0  0
 84182  1  0  0  0
 84183  1  0  0  0
 84184  1  0  0  0
 85185  1  0  0  0
 85186  1  0  0  0
 85187  1  0  0  0
 86188  1  0  0  0
M  END
$$$$
