2wi5_ligand
  -I-interpret- 

 40 42  0  0  0  0  0  0  0  0999 V2000
   31.9090   11.8660   21.6460 N   0  0  0  0  0
   31.6460   11.3750   22.6610 C   0  0  0  0  0
   31.3540   10.8300   23.7880 C   0  0  0  0  0
   29.9940   10.9960   24.3770 C   0  0  0  0  0
   29.0690   11.7290   23.7110 N   0  0  0  0  0
   29.6630   10.4300   25.5650 N   0  0  0  0  0
   30.5440    9.6850   26.2810 C   0  0  0  0  0
   30.1580    8.9680   27.7650 S   0  0  0  0  0
   31.7160    8.2410   28.0130 C   0  0  0  0  0
   32.0050    7.4280   29.2280 C   0  0  0  0  0
   30.9910    7.0510   30.0050 N   0  0  0  0  0
   33.1590    7.1260   29.4850 O   0  0  0  0  0
   32.5890    8.5860   26.8570 C   0  0  0  0  0
   33.8720    8.1630   26.7600 N   0  0  0  0  0
   31.9390    9.4370   25.8110 C   0  0  0  0  0
   32.3650   10.0280   24.5190 C   0  0  0  0  0
   33.7370    9.8250   23.9830 C   0  0  0  0  0
   34.6250   10.8930   23.9250 C   0  0  0  0  0
   35.9080   10.7040   23.4250 C   0  0  0  0  0
   34.1320    8.5680   23.5410 C   0  0  0  0  0
   35.4150    8.3790   23.0400 C   0  0  0  0  0
   36.3030    9.4470   22.9820 C   0  0  0  0  0
   37.5670    9.2610   22.4890 O   0  0  0  0  0
   38.2400   10.3310   21.8290 C   0  0  0  0  0
   39.6780   10.3870   22.2980 C   0  0  0  0  0
   29.3065   12.1597   22.8174 H   0  0  0  0  0
   28.1353   11.8500   24.1033 H   0  0  0  0  0
   31.1687    6.4943   30.8410 H   0  0  0  0  0
   30.0368    7.3190   29.7640 H   0  0  0  0  0
   34.2754    7.5845   27.4969 H   0  0  0  0  0
   34.4349    8.4230   25.9501 H   0  0  0  0  0
   34.3150   11.8788   24.2717 H   0  0  0  0  0
   36.6044   11.5414   23.3803 H   0  0  0  0  0
   33.4360    7.7304   23.5871 H   0  0  0  0  0
   35.7247    7.3933   22.6926 H   0  0  0  0  0
   37.7439   11.2727   22.0640 H   0  0  0  0  0
   38.2150   10.1669   20.7517 H   0  0  0  0  0
   39.7013   10.5513   23.3753 H   0  0  0  0  0
   40.1727    9.4448   22.0621 H   0  0  0  0  0
   40.1919   11.2050   21.7932 H   0  0  0  0  0
  1  2  3  0  0  0
  2  3  1  0  0  0
  3  4  4  0  0  0
  3 16  4  0  0  0
  4  5  1  0  0  0
  4  6  4  0  0  0
  6  7  4  0  0  0
  7  8  4  0  0  0
  7 15  4  0  0  0
  8  9  4  0  0  0
  9 10  1  0  0  0
  9 13  4  0  0  0
 10 11  1  0  0  0
 10 12  2  0  0  0
 13 14  1  0  0  0
 13 15  4  0  0  0
 15 16  4  0  0  0
 16 17  1  0  0  0
 17 18  4  0  0  0
 17 20  4  0  0  0
 18 19  4  0  0  0
 19 22  4  0  0  0
 20 21  4  0  0  0
 21 22  4  0  0  0
 22 23  1  0  0  0
 23 24  1  0  0  0
 24 25  1  0  0  0
  5 26  1  0  0  0
  5 27  1  0  0  0
 11 28  1  0  0  0
 11 29  1  0  0  0
 14 30  1  0  0  0
 14 31  1  0  0  0
 18 32  1  0  0  0
 19 33  1  0  0  0
 20 34  1  0  0  0
 21 35  1  0  0  0
 24 36  1  0  0  0
 24 37  1  0  0  0
 25 38  1  0  0  0
 25 39  1  0  0  0
 25 40  1  0  0  0
M  END
$$$$
