6dq4_ligand
  -I-interpret- 

 52 55  0  0  0  0  0  0  0  0999 V2000
  -21.3240   18.5740    8.1470 O   0  0  0  0  0
  -22.2720   19.2050    7.6100 C   0  0  0  0  0
  -23.1130   19.8040    8.3280 O   0  0  0  0  0
  -22.4040   19.2450    6.0890 C   0  0  0  0  0
  -23.8700   19.0260    5.7150 C   0  0  0  0  0
  -24.0600   19.1920    4.2810 N   0  0  0  0  0
  -24.3460   20.4150    3.7580 C   0  0  0  0  0
  -24.2350   20.6080    2.4570 N   0  0  0  0  0
  -24.5320   21.8400    1.9770 C   0  0  0  0  0
  -24.4090   22.0600    0.5070 C   0  0  0  0  0
  -24.2150   20.9630   -0.2630 N   0  0  0  0  0
  -24.1030   21.1490   -1.5970 C   0  0  0  0  0
  -24.1840   22.4020   -2.1790 C   0  0  0  0  0
  -24.3810   23.4870   -1.3900 C   0  0  0  0  0
  -24.4950   23.3280   -0.0480 C   0  0  0  0  0
  -24.9300   22.8990    2.7280 N   0  0  0  0  0
  -25.0350   22.6730    4.0280 C   0  0  0  0  0
  -24.7420   21.4270    4.5640 C   0  0  0  0  0
  -25.4350   23.7220    4.8200 N   0  0  0  0  0
  -25.6390   25.0490    4.2600 C   0  0  0  0  0
  -26.9250   25.1560    3.4330 C   0  0  0  0  0
  -28.2450   25.0720    4.2080 C   0  0  0  0  0
  -28.3200   24.8620    5.6000 C   0  0  0  0  0
  -27.0170   24.7090    6.4070 C   0  0  0  0  0
  -26.2220   23.4820    6.0070 C   0  0  0  0  0
  -29.4440   25.2070    3.4970 C   0  0  0  0  0
  -30.6820   25.1390    4.1180 C   0  0  0  0  0
  -30.7510   24.9320    5.4860 C   0  0  0  0  0
  -29.5770   24.7940    6.2100 C   0  0  0  0  0
  -20.7776   18.1777    7.4644 H   0  0  0  0  0
  -21.7888   18.4627    5.6444 H   0  0  0  0  0
  -22.0681   20.2120    5.7147 H   0  0  0  0  0
  -24.4830   19.7580    6.2408 H   0  0  0  0  0
  -24.1600   18.0136    5.9961 H   0  0  0  0  0
  -23.9780   18.3845    3.6632 H   0  0  0  0  0
  -23.9432   20.2814   -2.2372 H   0  0  0  0  0
  -24.0905   22.5153   -3.2591 H   0  0  0  0  0
  -24.4474   24.4812   -1.8318 H   0  0  0  0  0
  -24.6539   24.1951    0.5931 H   0  0  0  0  0
  -24.8312   21.2630    5.6379 H   0  0  0  0  0
  -24.7993   25.2642    3.5992 H   0  0  0  0  0
  -25.7170   25.7520    5.0893 H   0  0  0  0  0
  -26.9189   24.3037    2.7536 H   0  0  0  0  0
  -26.9071   26.1441    2.9733 H   0  0  0  0  0
  -27.2847   24.6062    7.4586 H   0  0  0  0  0
  -26.3989   25.5858    6.2141 H   0  0  0  0  0
  -25.5455   23.2288    6.8233 H   0  0  0  0  0
  -26.9207   22.6717    5.7989 H   0  0  0  0  0
  -29.4027   25.3709    2.4202 H   0  0  0  0  0
  -31.5954   25.2478    3.5332 H   0  0  0  0  0
  -31.7174   24.8783    5.9873 H   0  0  0  0  0
  -29.6350   24.6277    7.2857 H   0  0  0  0  0
  1  2  1  0  0  0
  2  3  2  0  0  0
  2  4  1  0  0  0
  4  5  1  0  0  0
  5  6  1  0  0  0
  6  7  1  0  0  0
  7  8  4  0  0  0
  7 18  4  0  0  0
  8  9  4  0  0  0
  9 10  1  0  0  0
  9 16  4  0  0  0
 10 11  4  0  0  0
 10 15  4  0  0  0
 11 12  4  0  0  0
 12 13  4  0  0  0
 13 14  4  0  0  0
 14 15  4  0  0  0
 16 17  4  0  0  0
 17 18  4  0  0  0
 17 19  1  0  0  0
 19 20  1  0  0  0
 19 25  1  0  0  0
 20 21  1  0  0  0
 21 22  1  0  0  0
 22 23  4  0  0  0
 22 26  4  0  0  0
 23 24  1  0  0  0
 23 29  4  0  0  0
 24 25  1  0  0  0
 26 27  4  0  0  0
 27 28  4  0  0  0
 28 29  4  0  0  0
  1 30  1  0  0  0
  4 31  1  0  0  0
  4 32  1  0  0  0
  5 33  1  0  0  0
  5 34  1  0  0  0
  6 35  1  0  0  0
 12 36  1  0  0  0
 13 37  1  0  0  0
 14 38  1  0  0  0
 15 39  1  0  0  0
 18 40  1  0  0  0
 20 41  1  0  0  0
 20 42  1  0  0  0
 21 43  1  0  0  0
 21 44  1  0  0  0
 24 45  1  0  0  0
 24 46  1  0  0  0
 25 47  1  0  0  0
 25 48  1  0  0  0
 26 49  1  0  0  0
 27 50  1  0  0  0
 28 51  1  0  0  0
 29 52  1  0  0  0
M  END
$$$$
