5nw1_ligand
  -I-interpret- 

 72 75  0  0  0  0  0  0  0  0999 V2000
   10.0320   56.3290   97.5660 C   0  0  0  0  0
   10.1300   57.7790   97.9960 C   0  0  0  0  0
   10.0090   58.2050   96.5450 C   0  0  0  0  0
   10.1620   56.7580   96.1190 C   0  0  0  0  0
   11.5620   56.4560   95.5820 C   0  0  0  0  0
   12.5090   57.2220   95.7970 O   0  0  0  0  0
   11.7060   55.2820   94.9690 N   0  0  0  0  0
   12.7410   54.5350   94.2370 C   0  0  0  0  0
   12.8660   53.1050   94.7770 C   0  0  0  0  0
   13.3620   53.1830   96.2330 C   0  0  0  0  0
   13.9050   52.3220   93.9560 C   0  0  0  0  0
   11.5140   52.3550   94.7860 C   0  0  0  0  0
   12.3950   54.6440   92.7240 C   0  0  0  0  0
   11.2440   54.4830   92.3490 O   0  0  0  0  0
   13.3790   55.0000   91.8600 N   0  0  0  0  0
   14.8190   55.3630   92.0910 C   0  0  0  0  0
   15.2420   56.1490   90.8500 C   0  0  0  0  0
   14.9240   57.5570   90.9600 O   0  0  0  0  0
   14.4030   55.4910   89.7530 C   0  0  0  0  0
   13.0530   55.1290   90.4010 C   0  0  0  0  0
   12.5650   53.9250   89.7940 C   0  0  0  0  0
   12.9640   52.8230   90.1470 O   0  0  0  0  0
   11.7480   54.0630   88.7380 N   0  0  0  0  0
   11.2720   52.9050   87.9320 C   0  0  0  0  0
   12.0810   52.6780   86.7610 C   0  0  0  0  0
   12.9680   53.6310   86.2540 C   0  0  0  0  0
   13.7440   53.3800   85.1090 C   0  0  0  0  0
   12.0060   51.4660   86.0770 C   0  0  0  0  0
   12.7740   51.2210   84.9290 C   0  0  0  0  0
   13.6590   52.1780   84.4100 C   0  0  0  0  0
   14.4070   51.9650   83.2910 C   0  0  0  0  0
   16.0790   52.4270   83.0400 S   0  0  0  0  0
   16.1770   51.8200   81.5060 C   0  0  0  0  0
   14.9870   51.3020   81.1770 N   0  0  0  0  0
   14.0310   51.3780   82.1310 C   0  0  0  0  0
   12.6360   50.7940   81.8210 C   0  0  0  0  0
    9.1858   55.7194   97.8829 H   0  0  0  0  0
   10.7142   55.5871   97.9810 H   0  0  0  0  0
   10.9724   58.1173   98.5994 H   0  0  0  0  0
    9.4450   58.1775   98.7444 H   0  0  0  0  0
   10.6721   58.9695   96.1402 H   0  0  0  0  0
    9.1489   58.7869   96.2136 H   0  0  0  0  0
    9.5218   56.3417   95.3412 H   0  0  0  0  0
   10.8432   54.7406   95.0231 H   0  0  0  0  0
   13.7370   54.9534   94.3819 H   0  0  0  0  0
   14.3316   53.6803   96.2590 H   0  0  0  0  0
   12.6461   53.7484   96.8296 H   0  0  0  0  0
   13.4581   52.1753   96.6372 H   0  0  0  0  0
   13.5900   52.2861   92.9131 H   0  0  0  0  0
   14.8724   52.8191   94.0277 H   0  0  0  0  0
   13.9862   51.3080   94.3475 H   0  0  0  0  0
   10.8062   52.8921   95.4174 H   0  0  0  0  0
   11.1250   52.2976   93.7694 H   0  0  0  0  0
   11.6610   51.3484   95.1775 H   0  0  0  0  0
   15.4376   54.4771   92.2345 H   0  0  0  0  0
   14.9431   55.9517   92.9999 H   0  0  0  0  0
   16.3173   56.1199   90.6743 H   0  0  0  0  0
   15.2057   58.0108   90.1623 H   0  0  0  0  0
   14.8991   54.6043   89.3583 H   0  0  0  0  0
   14.2643   56.1650   88.9076 H   0  0  0  0  0
   12.2559   55.8599   90.2651 H   0  0  0  0  0
   11.4405   54.9998   88.4769 H   0  0  0  0  0
   10.2556   53.1199   87.6021 H   0  0  0  0  0
   11.3281   52.0141   88.5575 H   0  0  0  0  0
   13.0606   54.5927   86.7586 H   0  0  0  0  0
   14.4325   54.1486   84.7578 H   0  0  0  0  0
   11.3342   50.6896   86.4430 H   0  0  0  0  0
   12.6805   50.2589   84.4254 H   0  0  0  0  0
   17.0615   51.8383   80.8693 H   0  0  0  0  0
   12.4091   50.0008   82.5333 H   0  0  0  0  0
   11.8874   51.5821   81.9022 H   0  0  0  0  0
   12.6300   50.3883   80.8093 H   0  0  0  0  0
  1  2  1  0  0  0
  1  4  1  0  0  0
  2  3  1  0  0  0
  3  4  1  0  0  0
  4  5  1  0  0  0
  5  6  2  0  0  0
  5  7  1  0  0  0
  7  8  1  0  0  0
  8  9  1  0  0  0
  8 13  1  0  0  0
  9 10  1  0  0  0
  9 11  1  0  0  0
  9 12  1  0  0  0
 13 14  2  0  0  0
 13 15  1  0  0  0
 15 16  1  0  0  0
 15 20  1  0  0  0
 16 17  1  0  0  0
 17 18  1  0  0  0
 17 19  1  0  0  0
 19 20  1  0  0  0
 20 21  1  0  0  0
 21 22  2  0  0  0
 21 23  1  0  0  0
 23 24  1  0  0  0
 24 25  1  0  0  0
 25 26  4  0  0  0
 25 28  4  0  0  0
 26 27  4  0  0  0
 27 30  4  0  0  0
 28 29  4  0  0  0
 29 30  4  0  0  0
 30 31  1  0  0  0
 31 32  4  0  0  0
 31 35  4  0  0  0
 32 33  4  0  0  0
 33 34  4  0  0  0
 34 35  4  0  0  0
 35 36  1  0  0  0
  1 37  1  0  0  0
  1 38  1  0  0  0
  2 39  1  0  0  0
  2 40  1  0  0  0
  3 41  1  0  0  0
  3 42  1  0  0  0
  4 43  1  0  0  0
  7 44  1  0  0  0
  8 45  1  0  0  0
 10 46  1  0  0  0
 10 47  1  0  0  0
 10 48  1  0  0  0
 11 49  1  0  0  0
 11 50  1  0  0  0
 11 51  1  0  0  0
 12 52  1  0  0  0
 12 53  1  0  0  0
 12 54  1  0  0  0
 16 55  1  0  0  0
 16 56  1  0  0  0
 17 57  1  0  0  0
 18 58  1  0  0  0
 19 59  1  0  0  0
 19 60  1  0  0  0
 20 61  1  0  0  0
 23 62  1  0  0  0
 24 63  1  0  0  0
 24 64  1  0  0  0
 26 65  1  0  0  0
 27 66  1  0  0  0
 28 67  1  0  0  0
 29 68  1  0  0  0
 33 69  1  0  0  0
 36 70  1  0  0  0
 36 71  1  0  0  0
 36 72  1  0  0  0
M  END
$$$$
