3zxh_ligand
  -I-interpret- 

 55 56  0  0  0  0  0  0  0  0999 V2000
   -2.5380   24.5660   54.7530 O   0  0  0  0  0
   -2.6630   25.3820   55.8810 N   0  0  0  0  0
   -3.0270   28.7710   56.7250 N   0  0  0  0  0
   -2.2750   27.5360   56.9150 C   0  0  0  0  0
   -2.2940   26.6300   55.6900 C   0  0  0  0  0
   -1.9050   27.0110   54.5560 O   0  0  0  0  0
   -0.8190   27.8130   57.3380 C   0  0  0  0  0
   -0.7500   28.4810   58.7200 C   0  0  0  0  0
    0.0630   26.5620   57.3490 C   0  0  0  0  0
   -4.6790   28.6660   57.0250 S   0  0  0  0  0
   -4.8620   27.8000   58.1900 O   0  0  0  0  0
   -5.1770   30.0400   57.0660 O   0  0  0  0  0
   -5.4510   27.8640   55.6480 C   0  0  0  0  0
   -5.6550   26.4900   55.7170 C   0  0  0  0  0
   -6.2110   25.8260   54.6260 C   0  0  0  0  0
   -5.8250   28.6290   54.5380 C   0  0  0  0  0
   -6.3970   27.9610   53.4420 C   0  0  0  0  0
   -6.5850   26.5460   53.4820 C   0  0  0  0  0
   -7.1840   25.9090   52.3790 C   0  0  0  0  0
   -7.5470   26.6330   51.2340 C   0  0  0  0  0
   -7.3590   28.0110   51.1940 C   0  0  0  0  0
   -6.7610   28.6910   52.2670 C   0  0  0  0  0
   -2.2080   31.1040   56.3350 C   0  0  0  0  0
   -1.8120   32.0820   55.2310 C   0  0  0  0  0
   -2.6110   29.7590   55.7110 C   0  0  0  0  0
   -1.8830   33.5310   55.7510 C   0  0  0  0  0
   -0.4220   31.6960   54.7080 C   0  0  0  0  0
   -2.8248   23.6759   54.9700 H   0  0  0  0  0
   -3.0109   25.0388   56.7763 H   0  0  0  0  0
   -2.7841   27.0081   57.7214 H   0  0  0  0  0
   -0.4297   28.4896   56.5773 H   0  0  0  0  0
   -1.1074   27.7835   59.4775 H   0  0  0  0  0
    0.2816   28.7580   58.9371 H   0  0  0  0  0
   -1.3754   29.3737   58.7223 H   0  0  0  0  0
    1.0916   26.8461   57.5712 H   0  0  0  0  0
   -0.2974   25.8716   58.1116 H   0  0  0  0  0
    0.0207   26.0806   56.3720 H   0  0  0  0  0
   -5.3823   25.9379   56.6164 H   0  0  0  0  0
   -6.3555   24.7462   54.6614 H   0  0  0  0  0
   -5.6774   29.7089   54.5238 H   0  0  0  0  0
   -7.3688   24.8354   52.4153 H   0  0  0  0  0
   -7.9763   26.1163   50.3756 H   0  0  0  0  0
   -7.6809   28.5713   50.3162 H   0  0  0  0  0
   -6.5762   29.7634   52.2053 H   0  0  0  0  0
   -3.0503   31.5108   56.8945 H   0  0  0  0  0
   -1.3624   30.9533   57.0061 H   0  0  0  0  0
   -2.5095   32.0259   54.3952 H   0  0  0  0  0
   -3.4560   29.9356   55.0454 H   0  0  0  0  0
   -1.7446   29.3581   55.1849 H   0  0  0  0  0
   -2.9007   33.7503   56.0739 H   0  0  0  0  0
   -1.2003   33.6475   56.5927 H   0  0  0  0  0
   -1.5980   34.2165   54.9529 H   0  0  0  0  0
    0.2987   31.7461   55.5242 H   0  0  0  0  0
   -0.4534   30.6813   54.3111 H   0  0  0  0  0
   -0.1274   32.3873   53.9185 H   0  0  0  0  0
  2  1  1  0  0  0
  5  2  1  0  0  0
  3  4  1  0  0  0
  3 10  1  0  0  0
 25  3  1  0  0  0
  4  5  1  0  0  0
  4  7  1  0  0  0
  5  6  2  0  0  0
  7  8  1  0  0  0
  7  9  1  0  0  0
 10 11  2  0  0  0
 10 12  2  0  0  0
 10 13  1  0  0  0
 13 14  4  0  0  0
 13 16  4  0  0  0
 14 15  4  0  0  0
 15 18  4  0  0  0
 16 17  4  0  0  0
 17 18  4  0  0  0
 17 22  4  0  0  0
 18 19  4  0  0  0
 19 20  4  0  0  0
 21 20  4  0  0  0
 22 21  4  0  0  0
 23 24  1  0  0  0
 23 25  1  0  0  0
 24 26  1  0  0  0
 24 27  1  0  0  0
  1 28  1  0  0  0
  2 29  1  0  0  0
  4 30  1  0  0  0
  7 31  1  0  0  0
  8 32  1  0  0  0
  8 33  1  0  0  0
  8 34  1  0  0  0
  9 35  1  0  0  0
  9 36  1  0  0  0
  9 37  1  0  0  0
 14 38  1  0  0  0
 15 39  1  0  0  0
 16 40  1  0  0  0
 19 41  1  0  0  0
 20 42  1  0  0  0
 21 43  1  0  0  0
 22 44  1  0  0  0
 23 45  1  0  0  0
 23 46  1  0  0  0
 24 47  1  0  0  0
 25 48  1  0  0  0
 25 49  1  0  0  0
 26 50  1  0  0  0
 26 51  1  0  0  0
 26 52  1  0  0  0
 27 53  1  0  0  0
 27 54  1  0  0  0
 27 55  1  0  0  0
M  END
$$$$
