5drt_ligand
  -I-interpret- 

 44 46  0  0  0  0  0  0  0  0999 V2000
  -39.0980    6.7000   15.6520 C   0  0  0  0  0
  -39.7090    7.7160   14.7190 C   0  0  0  0  0
  -39.2570    6.7810   16.8560 O   0  0  0  0  0
  -36.6340   10.5290   14.5850 C   0  0  0  0  0
  -35.6240   10.6480   15.5700 C   0  0  0  0  0
  -34.2770   10.8320   15.1750 C   0  0  0  0  0
  -33.9080   10.8520   13.8120 C   0  0  0  0  0
  -34.8990   10.7290   12.8270 C   0  0  0  0  0
  -36.2380   10.5690   13.2320 C   0  0  0  0  0
  -37.1020    6.0440   13.0950 C   0  0  0  0  0
  -35.8040    6.2680   11.0010 C   0  0  0  0  0
  -35.1230    5.3140   10.2290 C   0  0  0  0  0
  -34.0280    5.6680    9.4350 C   0  0  0  0  0
  -33.6080    6.9960    9.4490 C   0  0  0  0  0
  -34.2490    7.9440   10.2490 C   0  0  0  0  0
  -35.3550    7.5900   11.0280 C   0  0  0  0  0
  -40.4990    8.7300   15.4110 N   0  0  0  0  0
  -41.8410    8.6550   15.5720 N   0  0  0  0  0
  -42.2200    9.7530   16.2540 N   0  0  0  0  0
  -41.0660   10.5370   16.5170 N   0  0  0  0  0
  -40.1260    9.8600   15.9860 C   0  0  0  0  0
  -38.7020   10.3900   16.1100 C   0  0  0  0  0
  -38.0240   10.3750   14.8300 O   0  0  0  0  0
  -37.4800   10.3990   12.0290 Cl  0  0  0  0  0
  -38.4120    5.6540   15.1730 N   0  0  0  0  0
  -38.1280    5.4450   13.7610 N   0  0  0  0  0
  -36.4070    6.8390   13.7130 O   0  0  0  0  0
  -36.8790    5.7840   11.7860 N   0  0  0  0  0
  -32.2440    7.4870    8.4930 Cl  0  0  0  0  0
  -40.3760    7.1831   14.0413 H   0  0  0  0  0
  -38.8936    8.2258   14.2059 H   0  0  0  0  0
  -35.8824   10.5982   16.6278 H   0  0  0  0  0
  -33.5094   10.9608   15.9381 H   0  0  0  0  0
  -32.8615   10.9621   13.5277 H   0  0  0  0  0
  -34.6378   10.7567   11.7691 H   0  0  0  0  0
  -35.4546    4.2759   10.2489 H   0  0  0  0  0
  -33.5172    4.9254    8.8221 H   0  0  0  0  0
  -33.8835    8.9707   10.2665 H   0  0  0  0  0
  -35.8583    8.3336   11.6460 H   0  0  0  0  0
  -38.1525    9.7521   16.8022 H   0  0  0  0  0
  -38.7436   11.4181   16.4696 H   0  0  0  0  0
  -38.0677    4.9618   15.8384 H   0  0  0  0  0
  -38.7337    4.8119   13.2388 H   0  0  0  0  0
  -37.5529    5.1785   11.3174 H   0  0  0  0  0
  1  2  1  0  0  0
  1  3  2  0  0  0
 25  1  1  0  0  0
  2 17  1  0  0  0
  4  5  4  0  0  0
  4  9  4  0  0  0
 23  4  1  0  0  0
  5  6  4  0  0  0
  6  7  4  0  0  0
  8  7  4  0  0  0
  9  8  4  0  0  0
  9 24  1  0  0  0
 26 10  1  0  0  0
 10 27  2  0  0  0
 10 28  1  0  0  0
 11 12  4  0  0  0
 11 16  4  0  0  0
 28 11  1  0  0  0
 12 13  4  0  0  0
 13 14  4  0  0  0
 15 14  4  0  0  0
 14 29  1  0  0  0
 16 15  4  0  0  0
 17 18  4  0  0  0
 17 21  4  0  0  0
 18 19  4  0  0  0
 20 19  4  0  0  0
 21 20  4  0  0  0
 21 22  1  0  0  0
 22 23  1  0  0  0
 25 26  1  0  0  0
  2 30  1  0  0  0
  2 31  1  0  0  0
  5 32  1  0  0  0
  6 33  1  0  0  0
  7 34  1  0  0  0
  8 35  1  0  0  0
 12 36  1  0  0  0
 13 37  1  0  0  0
 15 38  1  0  0  0
 16 39  1  0  0  0
 22 40  1  0  0  0
 22 41  1  0  0  0
 25 42  1  0  0  0
 26 43  1  0  0  0
 28 44  1  0  0  0
M  END
$$$$
