5iep_ligand
  -I-interpret- 

 77 79  0  0  0  0  0  0  0  0999 V2000
   17.5020  -10.7380   -6.8270 O   0  0  0  0  0
   16.1770    2.0560    3.7060 O   0  0  0  0  0
   20.0730   -8.4300   -5.2600 C   0  0  0  0  0
   19.4880   -9.5490   -6.1240 C   0  0  0  0  0
   17.9840   -9.7660   -5.9050 C   0  0  0  0  0
   17.1820   -8.4960   -6.1310 C   0  0  0  0  0
   17.8260   -7.3480   -5.3960 C   0  0  0  0  0
   17.1950   -6.7060   -4.4160 C   0  0  0  0  0
   17.7080   -5.4370   -3.9120 C   0  0  0  0  0
   16.8890   -4.5940   -3.3120 C   0  0  0  0  0
   15.4300   -4.6090   -3.6340 C   0  0  0  0  0
   19.2660   -7.2020   -5.5270 C   0  0  0  0  0
   14.6770   -4.1630   -2.4320 C   0  0  0  0  0
   15.1060   -2.7780   -2.0170 C   0  0  0  0  0
   16.5420   -2.7830   -1.6390 C   0  0  0  0  0
   17.3360   -3.2330   -2.8860 C   0  0  0  0  0
   18.7590   -3.1190   -2.4040 C   0  0  0  0  0
   18.7110   -1.9020   -1.4560 C   0  0  0  0  0
   17.2460   -1.4840   -1.3620 C   0  0  0  0  0
   16.7250   -3.7250   -0.4920 C   0  0  0  0  0
   19.7520   -6.2390   -6.2590 C   0  0  0  0  0
   16.9860   -0.8550   -0.0200 C   0  0  0  0  0
   15.5000   -0.6780    0.1300 C   0  0  0  0  0
   17.7040    0.4880    0.0240 C   0  0  0  0  0
   17.2850    1.3900    1.1760 C   0  0  0  0  0
   17.9600    0.9920    2.4670 C   0  0  0  0  0
   17.5460    1.8320    3.6590 C   0  0  0  0  0
   17.9000    1.0990    4.9140 C   0  0  0  0  0
   18.2690    3.1580    3.6780 C   0  0  0  0  0
   17.9894  -11.5569   -6.7110 H   0  0  0  0  0
   15.9675    2.5902    4.4756 H   0  0  0  0  0
   21.1217   -8.2623   -5.5056 H   0  0  0  0  0
   20.0301   -8.6967   -4.2040 H   0  0  0  0  0
   19.9963  -10.4740   -5.8518 H   0  0  0  0  0
   19.6307   -9.2672   -7.1672 H   0  0  0  0  0
   17.8596  -10.0903   -4.8718 H   0  0  0  0  0
   16.1677   -8.6390   -5.7583 H   0  0  0  0  0
   17.1551   -8.2716   -7.1973 H   0  0  0  0  0
   17.4437   -6.5852   -6.0743 H   0  0  0  0  0
   17.2655   -7.3816   -3.5635 H   0  0  0  0  0
   16.2243   -6.4528   -4.8424 H   0  0  0  0  0
   18.7622   -5.1864   -4.0303 H   0  0  0  0  0
   15.1211   -5.6161   -3.9141 H   0  0  0  0  0
   15.2266   -3.9398   -4.4700 H   0  0  0  0  0
   19.5051   -6.6359   -4.6267 H   0  0  0  0  0
   14.8787   -4.8541   -1.6136 H   0  0  0  0  0
   13.6132   -4.1459   -2.6691 H   0  0  0  0  0
   14.5110   -2.4597   -1.1610 H   0  0  0  0  0
   14.9570   -2.0916   -2.8505 H   0  0  0  0  0
   17.1942   -2.6466   -3.7938 H   0  0  0  0  0
   19.4710   -2.9903   -3.2192 H   0  0  0  0  0
   19.1103   -4.0247   -1.9096 H   0  0  0  0  0
   19.3261   -1.0864   -1.8362 H   0  0  0  0  0
   19.1082   -2.1566   -0.4734 H   0  0  0  0  0
   16.9049   -0.7135   -2.0534 H   0  0  0  0  0
   16.1183   -3.3922    0.3502 H   0  0  0  0  0
   16.4144   -4.7257   -0.7923 H   0  0  0  0  0
   17.7753   -3.7412   -0.2008 H   0  0  0  0  0
   19.3996   -6.3505   -7.2844 H   0  0  0  0  0
   19.4204   -5.2796   -5.8618 H   0  0  0  0  0
   20.8409   -6.2845   -6.2407 H   0  0  0  0  0
   17.3539   -1.4766    0.7963 H   0  0  0  0  0
   15.1300   -0.0329   -0.6669 H   0  0  0  0  0
   15.0115   -1.6505    0.0683 H   0  0  0  0  0
   15.2854   -0.2228    1.0969 H   0  0  0  0  0
   17.4560    1.0128   -0.8986 H   0  0  0  0  0
   18.7658    0.2781    0.1530 H   0  0  0  0  0
   16.2069    1.3005    1.3091 H   0  0  0  0  0
   17.5759    2.4127    0.9362 H   0  0  0  0  0
   19.0323    1.1304    2.3289 H   0  0  0  0  0
   17.6726   -0.0377    2.6798 H   0  0  0  0  0
   17.3756    0.1437    4.9355 H   0  0  0  0  0
   18.9757    0.9251    4.9406 H   0  0  0  0  0
   17.6057    1.6960    5.7772 H   0  0  0  0  0
   19.3435    2.9837    3.7339 H   0  0  0  0  0
   18.0361    3.7104    2.7677 H   0  0  0  0  0
   17.9473    3.7334    4.5461 H   0  0  0  0  0
  5  1  1  0  0  0
 27  2  1  0  0  0
  3  4  1  0  0  0
 12  3  1  0  0  0
  5  4  1  0  0  0
  6  5  1  0  0  0
  7  6  1  0  0  0
  8  7  1  0  0  0
  7 12  1  0  0  0
  9  8  1  0  0  0
 10  9  2  0  0  0
 10 11  1  0  0  0
 16 10  1  0  0  0
 13 11  1  0  0  0
 12 21  1  0  0  0
 14 13  1  0  0  0
 15 14  1  0  0  0
 15 16  1  0  0  0
 19 15  1  0  0  0
 15 20  1  0  0  0
 17 16  1  0  0  0
 18 17  1  0  0  0
 19 18  1  0  0  0
 22 19  1  0  0  0
 22 23  1  0  0  0
 24 22  1  0  0  0
 25 24  1  0  0  0
 26 25  1  0  0  0
 26 27  1  0  0  0
 27 28  1  0  0  0
 27 29  1  0  0  0
  1 30  1  0  0  0
  2 31  1  0  0  0
  3 32  1  0  0  0
  3 33  1  0  0  0
  4 34  1  0  0  0
  4 35  1  0  0  0
  5 36  1  0  0  0
  6 37  1  0  0  0
  6 38  1  0  0  0
  7 39  1  0  0  0
  8 40  1  0  0  0
  8 41  1  0  0  0
  9 42  1  0  0  0
 11 43  1  0  0  0
 11 44  1  0  0  0
 12 45  1  0  0  0
 13 46  1  0  0  0
 13 47  1  0  0  0
 14 48  1  0  0  0
 14 49  1  0  0  0
 16 50  1  0  0  0
 17 51  1  0  0  0
 17 52  1  0  0  0
 18 53  1  0  0  0
 18 54  1  0  0  0
 19 55  1  0  0  0
 20 56  1  0  0  0
 20 57  1  0  0  0
 20 58  1  0  0  0
 21 59  1  0  0  0
 21 60  1  0  0  0
 21 61  1  0  0  0
 22 62  1  0  0  0
 23 63  1  0  0  0
 23 64  1  0  0  0
 23 65  1  0  0  0
 24 66  1  0  0  0
 24 67  1  0  0  0
 25 68  1  0  0  0
 25 69  1  0  0  0
 26 70  1  0  0  0
 26 71  1  0  0  0
 28 72  1  0  0  0
 28 73  1  0  0  0
 28 74  1  0  0  0
 29 75  1  0  0  0
 29 76  1  0  0  0
 29 77  1  0  0  0
M  END
$$$$
