### 
### Created by X-TOOL on Mon Sep 10 21:12:44 2018
### 

@<TRIPOS>MOLECULE
7lpr_ligand
   58    58     1     0     0
SMALL
GAST_HUCK


@<TRIPOS>ATOM
      1 N          14.0270   42.0650   18.3700 N.4       1 ALA         0.2377
      2 CA         14.3310   40.6400   18.2050 C.3       1 ALA         0.0621
      3 C          13.4040   39.4800   18.5660 C.2       1 ALA         0.2264
      4 O          12.7240   39.3530   19.6150 O.2       1 ALA        -0.3907
      5 CB         15.5330   40.2290   19.0910 C.3       1 ALA        -0.0040
      6 N          13.4700   38.5160   17.6510 N.am      1 ALA        -0.2613
      7 CA         12.6800   37.2710   17.8890 C.3       1 ALA         0.1285
      8 C          13.6360   36.1110   17.5940 C.2       1 ALA         0.2061
      9 O          14.5190   36.4260   16.8030 O.2       1 ALA        -0.3942
     10 CB         11.4660   37.1600   16.9950 C.3       1 ALA        -0.0244
     11 N          13.3670   34.9770   18.1750 N.am      1 PRO        -0.2498
     12 CA         14.1710   33.7820   17.8970 C.3       1 PRO         0.1336
     13 C          13.8380   33.3480   16.4520 C.2       1 PRO         0.2010
     14 O          12.6230   33.4390   16.0700 O.2       1 PRO        -0.3946
     15 CB         13.5700   32.7150   18.8440 C.3       1 PRO        -0.0104
     16 CG         12.5920   33.4000   19.7360 C.3       1 PRO        -0.0281
     17 CD         12.2250   34.7340   19.1030 C.3       1 PRO         0.0369
     18 CA         14.5320   32.3950   14.3130 C.3       1 BLE         0.0535
     19 CB         15.3410   33.3480   13.3360 C.3       1 BLE        -0.0365
     20 CG         15.0330   34.8400   13.4990 C.3       1 BLE        -0.0458
     21 CD1        16.0010   35.7270   12.7170 C.3       1 BLE        -0.0626
     22 CD2        13.6530   35.0710   12.8710 C.3       1 BLE        -0.0626
     23 N          14.8130   32.8620   15.7120 N.am      1 BLE        -0.2918
     24 B          14.8540   30.8770   14.1120 B         1 BLE         0.7164
     25 O1         14.8690   30.3800   12.7030 O.3       1 BLE        -0.4967
     26 O2         14.0080   30.0250   14.9890 O.3       1 BLE        -0.4967
     27 H1         14.8106   42.6145   18.0537 H         1 ALA         0.2015
     28 H2         13.8505   42.2605   19.3430 H         1 ALA         0.2015
     29 H3         13.2110   42.2996   17.8267 H         1 ALA         0.2015
     30 H4         14.5861   40.5298   17.1407 H         1 ALA         0.1095
     31 H5         15.7424   39.1582   18.9511 H         1 ALA         0.0310
     32 H6         15.2925   40.4206   20.1471 H         1 ALA         0.0310
     33 H7         16.4178   40.8162   18.8040 H         1 ALA         0.0310
     34 H8         14.0309   38.6218   16.8299 H         1 ALA         0.1884
     35 H9         12.3522   37.2381   18.9385 H         1 ALA         0.0797
     36 H10        10.9300   36.2259   17.2189 H         1 ALA         0.0277
     37 H11        11.7849   37.1564   15.9423 H         1 ALA         0.0277
     38 H12        10.7997   38.0169   17.1733 H         1 ALA         0.0277
     39 H13        15.2488   33.9388   18.0511 H         1 PRO         0.0802
     40 H14        14.3682   32.2560   19.4458 H         1 PRO         0.0313
     41 H15        13.0602   31.9372   18.2565 H         1 PRO         0.0313
     42 H16        13.0441   33.5687   20.7245 H         1 PRO         0.0287
     43 H17        11.6904   32.7796   19.8462 H         1 PRO         0.0287
     44 H18        11.2744   34.6650   18.5538 H         1 PRO         0.0524
     45 H19        12.1536   35.5274   19.8615 H         1 PRO         0.0524
     46 H20        13.4588   32.5277   14.1117 H         1 BLE         0.0432
     47 H21        15.1034   33.0599   12.3013 H         1 BLE         0.0277
     48 H22        16.4148   33.1973   13.5212 H         1 BLE         0.0277
     49 H23        15.0418   35.1139   14.5643 H         1 BLE         0.0296
     50 H24        15.7348   36.7834   12.8692 H         1 BLE         0.0232
     51 H25        15.9378   35.4836   11.6461 H         1 BLE         0.0232
     52 H26        17.0271   35.5526   13.0728 H         1 BLE         0.0232
     53 H27        12.9050   34.4562   13.3931 H         1 BLE         0.0232
     54 H28        13.6820   34.7892   11.8081 H         1 BLE         0.0232
     55 H29        13.3821   36.1333   12.9615 H         1 BLE         0.0232
     56 H30        15.7403   32.8040   16.0818 H         1 BLE         0.1840
     57 H31        15.4177   30.9472   12.1741 H         1 BLE         0.1667
     58 H32        14.0227   30.3705   15.8738 H         1 BLE         0.1667
@<TRIPOS>BOND
     1    2    1 1  
     2    3    2 1  
     3    2    5 1  
     4    3    4 2  
     5    6    3 am 
     6    7    6 1  
     7    8    7 1  
     8    7   10 1  
     9    8    9 2  
    10   11    8 am 
    11   12   11 1  
    12   11   17 1  
    13   13   12 1  
    14   12   15 1  
    15   13   14 2  
    16   23   13 am 
    17   15   16 1  
    18   16   17 1  
    19   18   19 1  
    20   18   23 1  
    21   18   24 1  
    22   19   20 1  
    23   20   21 1  
    24   20   22 1  
    25   24   25 1  
    26   24   26 1  
    27    1   27 1  
    28    1   28 1  
    29    1   29 1  
    30    2   30 1  
    31    5   31 1  
    32    5   32 1  
    33    5   33 1  
    34    6   34 1  
    35    7   35 1  
    36   10   36 1  
    37   10   37 1  
    38   10   38 1  
    39   12   39 1  
    40   15   40 1  
    41   15   41 1  
    42   16   42 1  
    43   16   43 1  
    44   17   44 1  
    45   17   45 1  
    46   18   46 1  
    47   19   47 1  
    48   19   48 1  
    49   20   49 1  
    50   21   50 1  
    51   21   51 1  
    52   21   52 1  
    53   22   53 1  
    54   22   54 1  
    55   22   55 1  
    56   23   56 1  
    57   25   57 1  
    58   26   58 1  
@<TRIPOS>SUBSTRUCTURE
     1 ALA         1

