7lpr_ligand
  -I-interpret- 

 58 58  0  0  0  0  0  0  0  0999 V2000
   14.0270   42.0650   18.3700 N   0  3  0  0  0
   14.3310   40.6400   18.2050 C   0  0  0  0  0
   13.4040   39.4800   18.5660 C   0  0  0  0  0
   12.7240   39.3530   19.6150 O   0  0  0  0  0
   15.5330   40.2290   19.0910 C   0  0  0  0  0
   13.4700   38.5160   17.6510 N   0  0  0  0  0
   12.6800   37.2710   17.8890 C   0  0  0  0  0
   13.6360   36.1110   17.5940 C   0  0  0  0  0
   14.5190   36.4260   16.8030 O   0  0  0  0  0
   11.4660   37.1600   16.9950 C   0  0  0  0  0
   13.3670   34.9770   18.1750 N   0  0  0  0  0
   14.1710   33.7820   17.8970 C   0  0  0  0  0
   13.8380   33.3480   16.4520 C   0  0  0  0  0
   12.6230   33.4390   16.0700 O   0  0  0  0  0
   13.5700   32.7150   18.8440 C   0  0  0  0  0
   12.5920   33.4000   19.7360 C   0  0  0  0  0
   12.2250   34.7340   19.1030 C   0  0  0  0  0
   14.5320   32.3950   14.3130 C   0  0  0  0  0
   15.3410   33.3480   13.3360 C   0  0  0  0  0
   15.0330   34.8400   13.4990 C   0  0  0  0  0
   16.0010   35.7270   12.7170 C   0  0  0  0  0
   13.6530   35.0710   12.8710 C   0  0  0  0  0
   14.8130   32.8620   15.7120 N   0  0  0  0  0
   14.8540   30.8770   14.1120 B   0  0  0  0  0
   14.8690   30.3800   12.7030 O   0  0  0  0  0
   14.0080   30.0250   14.9890 O   0  0  0  0  0
   13.2339   42.3129   17.7785 H   0  0  0  0  0
   13.7963   42.2514   19.3459 H   0  0  0  0  0
   14.8402   42.6184   18.0999 H   0  0  0  0  0
   14.3757   40.7022   17.1177 H   0  0  0  0  0
   15.2195   40.1972   20.1345 H   0  0  0  0  0
   15.8872   39.2441   18.7865 H   0  0  0  0  0
   16.3353   40.9574   18.9734 H   0  0  0  0  0
   14.0421   38.6239   16.8135 H   0  0  0  0  0
   12.3009   37.2679   18.9109 H   0  0  0  0  0
   11.7795   37.2018   15.9519 H   0  0  0  0  0
   10.9609   36.2132   17.1863 H   0  0  0  0  0
   10.7854   37.9852   17.2045 H   0  0  0  0  0
   15.2441   33.9269   18.0218 H   0  0  0  0  0
   14.3569   32.2451   19.4339 H   0  0  0  0  0
   13.0752   31.9327   18.2685 H   0  0  0  0  0
   13.0312   33.5605   20.7206 H   0  0  0  0  0
   11.7004   32.7848   19.8572 H   0  0  0  0  0
   11.2601   34.7148   18.5964 H   0  0  0  0  0
   12.0924   35.5313   19.8344 H   0  0  0  0  0
   13.4669   32.4639   14.0918 H   0  0  0  0  0
   15.0587   33.0745   12.3194 H   0  0  0  0  0
   16.3982   33.2148   13.5655 H   0  0  0  0  0
   15.1003   35.0901   14.5578 H   0  0  0  0  0
   17.0174   35.5532   13.0705 H   0  0  0  0  0
   15.9375   35.4848   11.6561 H   0  0  0  0  0
   15.7362   36.7734   12.8686 H   0  0  0  0  0
   13.6832   34.7917   11.8178 H   0  0  0  0  0
   12.9128   34.4611   13.3889 H   0  0  0  0  0
   13.3857   36.1238   12.9615 H   0  0  0  0  0
   15.7588   32.8029   16.0892 H   0  0  0  0  0
   15.0759   29.4426   12.6977 H   0  0  0  0  0
   14.2273   29.1017   14.8442 H   0  0  0  0  0
  2  1  1  0  0  0
  3  2  1  0  0  0
  2  5  1  0  0  0
  3  4  2  0  0  0
  6  3  1  0  0  0
  7  6  1  0  0  0
  8  7  1  0  0  0
  7 10  1  0  0  0
  8  9  2  0  0  0
 11  8  1  0  0  0
 12 11  1  0  0  0
 11 17  1  0  0  0
 13 12  1  0  0  0
 12 15  1  0  0  0
 13 14  2  0  0  0
 23 13  1  0  0  0
 15 16  1  0  0  0
 16 17  1  0  0  0
 18 19  1  0  0  0
 18 23  1  0  0  0
 18 24  1  0  0  0
 19 20  1  0  0  0
 20 21  1  0  0  0
 20 22  1  0  0  0
 24 25  1  0  0  0
 24 26  1  0  0  0
  1 27  1  0  0  0
  1 28  1  0  0  0
  1 29  1  0  0  0
  2 30  1  0  0  0
  5 31  1  0  0  0
  5 32  1  0  0  0
  5 33  1  0  0  0
  6 34  1  0  0  0
  7 35  1  0  0  0
 10 36  1  0  0  0
 10 37  1  0  0  0
 10 38  1  0  0  0
 12 39  1  0  0  0
 15 40  1  0  0  0
 15 41  1  0  0  0
 16 42  1  0  0  0
 16 43  1  0  0  0
 17 44  1  0  0  0
 17 45  1  0  0  0
 18 46  1  0  0  0
 19 47  1  0  0  0
 19 48  1  0  0  0
 20 49  1  0  0  0
 21 50  1  0  0  0
 21 51  1  0  0  0
 21 52  1  0  0  0
 22 53  1  0  0  0
 22 54  1  0  0  0
 22 55  1  0  0  0
 23 56  1  0  0  0
 25 57  1  0  0  0
 26 58  1  0  0  0
M  END
$$$$
