5zeq_ligand
  -I-interpret- 

 25 25  0  0  0  0  0  0  0  0999 V2000
   35.6110  -23.6730    1.4350 C   0  0  0  0  0
   35.4010  -25.0120    1.1490 C   0  0  0  0  0
   35.9860  -26.0850    2.3240 Cl  0  0  0  0  0
   34.7080  -25.4460    0.0210 C   0  0  0  0  0
   34.5900  -26.7610   -0.1110 N   0  0  0  0  0
   34.1950  -24.5700   -0.8870 N   0  0  0  0  0
   34.4140  -23.1790   -0.5740 C   0  0  0  0  0
   35.1100  -22.6880    0.6010 C   0  0  0  0  0
   35.3650  -21.2300    0.9160 C   0  0  0  0  0
   34.7000  -20.5880    2.2330 C   0  0  0  0  0
   35.3030  -21.2270    3.4490 C   0  0  0  0  0
   34.5230  -22.0860    3.9370 O   0  0  0  0  0
   36.5340  -21.0160    3.8270 O   0  0  0  0  0
   34.7810  -19.0080    2.2580 C   0  0  0  0  0
   34.3770  -18.2600    3.8610 Se  0  0  0  0  0
   36.1755  -23.3925    2.3242 H   0  0  0  0  0
   34.9944  -27.3822    0.5896 H   0  0  0  0  0
   34.0948  -27.1507   -0.9131 H   0  0  0  0  0
   34.0266  -22.4392   -1.2745 H   0  0  0  0  0
   34.9242  -20.6818    0.0834 H   0  0  0  0  0
   36.4400  -21.1629    1.0833 H   0  0  0  0  0
   33.6313  -20.8021    2.2233 H   0  0  0  0  0
   36.9129  -20.3091    3.2994 H   0  0  0  0  0
   34.0484  -18.6394    1.5400 H   0  0  0  0  0
   35.8121  -18.7375    2.0303 H   0  0  0  0  0
  1  2  4  0  0  0
  1  8  4  0  0  0
  2  3  1  0  0  0
  2  4  4  0  0  0
  4  5  1  0  0  0
  4  6  4  0  0  0
  6  7  4  0  0  0
  7  8  4  0  0  0
  8  9  1  0  0  0
  9 10  1  0  0  0
 10 11  1  0  0  0
 10 14  1  0  0  0
 11 12  2  0  0  0
 11 13  1  0  0  0
 14 15  1  0  0  0
  1 16  1  0  0  0
  5 17  1  0  0  0
  5 18  1  0  0  0
  7 19  1  0  0  0
  9 20  1  0  0  0
  9 21  1  0  0  0
 10 22  1  0  0  0
 13 23  1  0  0  0
 14 24  1  0  0  0
 14 25  1  0  0  0
M  END
$$$$
