2idk_ligand
  -I-interpret- 

 57 59  0  0  0  0  0  0  0  0999 V2000
    7.4540  -23.7380   20.3090 N   0  0  0  0  0
    6.9230  -23.2360   21.4200 C   0  0  0  0  0
    5.8930  -23.8970   22.0460 N   0  0  0  0  0
    7.3960  -22.0560   21.9510 N   0  0  0  0  0
    8.4280  -21.3590   21.3520 C   0  0  0  0  0
    8.8160  -20.3200   21.8520 O   0  0  0  0  0
    9.0170  -21.8790   20.1520 C   0  0  0  0  0
   10.1320  -21.2220   19.4180 N   0  0  0  0  0
   10.6950  -21.8850   18.1480 C   0  0  0  0  0
   10.4380  -23.4020   18.2870 C   0  0  0  0  0
    9.0180  -23.6340   18.5220 N   0  0  0  0  0
    8.4800  -23.1010   19.6630 C   0  0  0  0  0
   12.2310  -21.7180   18.0210 C   0  0  0  0  0
   12.6740  -20.3160   17.8170 N   0  0  0  0  0
   10.7030  -19.9330   19.8930 C   0  0  0  0  0
   16.8000  -19.3870   17.5890 C   0  0  0  0  0
   15.8330  -18.3540   17.4460 C   0  0  0  0  0
   14.4630  -18.6630   17.5220 C   0  0  0  0  0
   14.0440  -20.0060   17.7320 C   0  0  0  0  0
   15.0160  -21.0350   17.8650 C   0  0  0  0  0
   16.3630  -20.7310   17.7950 C   0  0  0  0  0
   18.2680  -19.1330   17.5330 C   0  0  0  0  0
   18.7180  -18.0150   17.3590 O   0  0  0  0  0
   19.0400  -20.2470   17.6960 N   0  0  0  0  0
   20.5190  -20.5440   17.7220 C   0  0  0  0  0
   21.5010  -19.5280   18.3930 C   0  0  0  0  0
   21.6340  -18.1520   17.7290 C   0  0  0  0  0
   22.6260  -17.2860   18.5120 C   0  0  0  0  0
   23.1770  -17.7050   19.5110 O   0  0  0  0  0
   22.8950  -16.0360   18.0920 O   0  0  0  0  0
   20.5780  -21.8520   18.4630 C   0  0  0  0  0
   21.6070  -22.5140   18.4790 O   0  0  0  0  0
   19.4680  -22.2930   19.1110 O   0  0  0  0  0
    7.0907  -24.6130   19.9312 H   0  0  0  0  0
    5.4840  -23.5134   22.8980 H   0  0  0  0  0
   10.2185  -21.4243   17.2826 H   0  0  0  0  0
   11.0140  -23.7930   19.1257 H   0  0  0  0  0
   10.7423  -23.9078   17.3707 H   0  0  0  0  0
    8.4502  -24.1697   17.8655 H   0  0  0  0  0
   12.5456  -22.2860   17.1455 H   0  0  0  0  0
   12.6711  -22.0621   18.9570 H   0  0  0  0  0
   11.9806  -19.5722   17.7379 H   0  0  0  0  0
    9.9216  -19.1732   19.9044 H   0  0  0  0  0
   11.1006  -20.0622   20.8996 H   0  0  0  0  0
   11.5037  -19.6225   19.2218 H   0  0  0  0  0
   16.1527  -17.3256   17.2780 H   0  0  0  0  0
   13.7206  -17.8715   17.4197 H   0  0  0  0  0
   14.6986  -22.0658   18.0225 H   0  0  0  0  0
   17.1005  -21.5269   17.8983 H   0  0  0  0  0
   18.4776  -21.0866   17.8345 H   0  0  0  0  0
   20.8757  -20.5178   16.6924 H   0  0  0  0  0
   22.4891  -19.9846   18.3352 H   0  0  0  0  0
   21.1027  -19.3414   19.3903 H   0  0  0  0  0
   20.6601  -17.6626   17.7199 H   0  0  0  0  0
   21.9966  -18.2796   16.7090 H   0  0  0  0  0
   22.3883  -15.8504   17.2980 H   0  0  0  0  0
   18.7581  -21.6569   18.9966 H   0  0  0  0  0
  1  2  1  0  0  0
 12  1  1  0  0  0
  2  3  2  0  0  0
  4  2  4  0  0  0
  5  4  1  0  0  0
  5  6  2  0  0  0
  7  5  1  0  0  0
  8  7  1  0  0  0
  7 12  2  0  0  0
  9  8  1  0  0  0
  8 15  1  0  0  0
  9 10  1  0  0  0
 13  9  1  0  0  0
 10 11  1  0  0  0
 11 12  1  0  0  0
 14 13  1  0  0  0
 19 14  1  0  0  0
 17 16  4  0  0  0
 16 21  4  0  0  0
 16 22  1  0  0  0
 18 17  4  0  0  0
 18 19  4  0  0  0
 19 20  4  0  0  0
 20 21  4  0  0  0
 22 23  2  0  0  0
 22 24  1  0  0  0
 24 25  1  0  0  0
 25 26  1  0  0  0
 25 31  1  0  0  0
 26 27  1  0  0  0
 27 28  1  0  0  0
 28 29  2  0  0  0
 28 30  1  0  0  0
 31 32  2  0  0  0
 31 33  1  0  0  0
  1 34  1  0  0  0
  3 35  1  0  0  0
  9 36  1  0  0  0
 10 37  1  0  0  0
 10 38  1  0  0  0
 11 39  1  0  0  0
 13 40  1  0  0  0
 13 41  1  0  0  0
 14 42  1  0  0  0
 15 43  1  0  0  0
 15 44  1  0  0  0
 15 45  1  0  0  0
 17 46  1  0  0  0
 18 47  1  0  0  0
 20 48  1  0  0  0
 21 49  1  0  0  0
 24 50  1  0  0  0
 25 51  1  0  0  0
 26 52  1  0  0  0
 26 53  1  0  0  0
 27 54  1  0  0  0
 27 55  1  0  0  0
 30 56  1  0  0  0
 33 57  1  0  0  0
M  END
$$$$
