5q0s_ligand
  -I-interpret- 

 59 63  0  0  0  0  0  0  0  0999 V2000
   11.0100   26.6580    2.4750 C   0  0  0  0  0
   12.1020   25.8690    2.8400 C   0  0  0  0  0
   11.9450   24.8790    3.8090 C   0  0  0  0  0
   14.0430   24.9450    3.0500 C   0  0  0  0  0
   15.7990   23.4780    2.1310 C   0  0  0  0  0
   18.1200   23.8900    2.4740 C   0  0  0  0  0
   16.4990   25.3840    3.4070 C   0  0  0  0  0
   13.5330   23.4890    6.3230 C   0  0  0  0  0
   12.8640   21.8430    4.3910 C   0  0  0  0  0
   14.4010   22.5290    7.1480 C   0  0  0  0  0
   14.7810   24.2750    8.9170 C   0  0  0  0  0
   13.9580   24.9470    6.6200 C   0  0  0  0  0
    9.8030   26.4120    3.1050 C   0  0  0  0  0
    9.6670   25.4210    4.0710 C   0  0  0  0  0
   10.7290   24.6280    4.4470 C   0  0  0  0  0
   13.4210   25.8940    2.3750 N   0  0  0  0  0
   13.2130   24.2930    3.9410 N   0  0  0  0  0
   13.6210   23.1700    4.8220 C   0  0  0  0  0
   14.3500   22.8480    8.6420 C   0  0  0  0  0
   13.9330   25.2650    8.1280 C   0  0  0  0  0
   12.6010   20.9600    5.2010 O   0  0  0  0  0
   12.5480   21.7880    3.0740 N   0  0  0  0  0
   11.8760   20.7620    2.3540 C   0  0  0  0  0
   12.5860   19.5880    2.0070 C   0  0  0  0  0
   11.9540   18.5650    1.2990 C   0  0  0  0  0
   10.6240   18.6930    0.9320 C   0  0  0  0  0
    9.9170   19.8340    1.2620 C   0  0  0  0  0
   10.5320   20.8740    1.9700 C   0  0  0  0  0
   13.9660   19.4410    2.3850 C   0  0  0  0  0
   15.0600   19.3590    2.7010 N   0  0  0  0  0
   15.4690   24.6150    2.8670 C   0  0  0  0  0
   17.1210   23.1140    1.9340 C   0  0  0  0  0
   17.8290   25.0250    3.2100 C   0  0  0  0  0
   19.7840   23.4270    2.2240 Cl  0  0  0  0  0
    8.4600   25.2330    4.6520 F   0  0  0  0  0
    8.7270   27.1510    2.7760 F   0  0  0  0  0
   11.1047   27.4395    1.7211 H   0  0  0  0  0
   15.0046   22.8660    1.7039 H   0  0  0  0  0
   16.2604   26.2744    3.9887 H   0  0  0  0  0
   12.4893   23.3620    6.6104 H   0  0  0  0  0
   15.4333   22.6312    6.8135 H   0  0  0  0  0
   14.0215   21.5175    7.0031 H   0  0  0  0  0
   15.8222   24.3894    8.6156 H   0  0  0  0  0
   14.6563   24.4785    9.9805 H   0  0  0  0  0
   13.2546   25.6136    6.1211 H   0  0  0  0  0
   14.9785   25.0825    6.2617 H   0  0  0  0  0
   10.6255   23.8477    5.2010 H   0  0  0  0  0
   14.6877   23.0012    4.6749 H   0  0  0  0  0
   15.0297   22.1742    9.1635 H   0  0  0  0  0
   13.3240   22.7232    8.9881 H   0  0  0  0  0
   14.3382   26.2657    8.2782 H   0  0  0  0  0
   12.9035   25.1974    8.4797 H   0  0  0  0  0
   12.8323   22.5967    2.5213 H   0  0  0  0  0
   12.5073   17.6640    1.0343 H   0  0  0  0  0
   10.1333   17.8907    0.3809 H   0  0  0  0  0
    8.8712   19.9251    0.9685 H   0  0  0  0  0
    9.9659   21.7706    2.2226 H   0  0  0  0  0
   17.3668   22.2223    1.3573 H   0  0  0  0  0
   18.6319   25.6306    3.6304 H   0  0  0  0  0
  2  1  4  0  0  0
  1 13  4  0  0  0
  3  2  4  0  0  0
 16  2  4  0  0  0
  3 15  4  0  0  0
 17  3  4  0  0  0
  4 16  4  0  0  0
 17  4  4  0  0  0
  4 31  1  0  0  0
 31  5  4  0  0  0
  5 32  4  0  0  0
 32  6  4  0  0  0
 33  6  4  0  0  0
  6 34  1  0  0  0
 31  7  4  0  0  0
  7 33  4  0  0  0
  8 10  1  0  0  0
  8 12  1  0  0  0
 18  8  1  0  0  0
 18  9  1  0  0  0
  9 21  2  0  0  0
  9 22  1  0  0  0
 10 19  1  0  0  0
 19 11  1  0  0  0
 20 11  1  0  0  0
 12 20  1  0  0  0
 14 13  4  0  0  0
 13 36  1  0  0  0
 15 14  4  0  0  0
 14 35  1  0  0  0
 17 18  1  0  0  0
 22 23  1  0  0  0
 23 24  4  0  0  0
 23 28  4  0  0  0
 24 25  4  0  0  0
 24 29  1  0  0  0
 25 26  4  0  0  0
 26 27  4  0  0  0
 27 28  4  0  0  0
 29 30  3  0  0  0
  1 37  1  0  0  0
  5 38  1  0  0  0
  7 39  1  0  0  0
  8 40  1  0  0  0
 10 41  1  0  0  0
 10 42  1  0  0  0
 11 43  1  0  0  0
 11 44  1  0  0  0
 12 45  1  0  0  0
 12 46  1  0  0  0
 15 47  1  0  0  0
 18 48  1  0  0  0
 19 49  1  0  0  0
 19 50  1  0  0  0
 20 51  1  0  0  0
 20 52  1  0  0  0
 22 53  1  0  0  0
 25 54  1  0  0  0
 26 55  1  0  0  0
 27 56  1  0  0  0
 28 57  1  0  0  0
 32 58  1  0  0  0
 33 59  1  0  0  0
M  END
$$$$
