4lvt_ligand
  -I-interpret- 

122128  0  0  0  0  0  0  0  0999 V2000
    9.9910    5.7590   -4.5290 C   0  0  0  0  0
    8.0250    4.4560   -4.1250 C   0  0  0  0  0
    8.0570   -1.3920  -11.3280 C   0  0  0  0  0
    5.7850   -0.9660  -10.6380 C   0  0  0  0  0
    8.4510   -0.2480  -10.6760 C   0  0  0  0  0
    7.2300   -7.6080  -11.5980 C   0  0  0  0  0
    6.4660   -6.6220  -12.2060 C   0  0  0  0  0
    8.7010    3.7190   -3.1770 C   0  0  0  0  0
    8.6700    5.4680   -4.8080 C   0  0  0  0  0
    6.9060   -8.0140  -10.3210 C   0  0  0  0  0
    9.5500   -6.7900   -8.4610 C   0  0  0  0  0
    5.3950   -6.0570  -11.5350 C   0  0  0  0  0
   10.0250    4.0090   -2.9180 C   0  0  0  0  0
    8.2160    6.2570   -7.1020 C   0  0  0  0  0
    6.8740    7.1220   -5.1880 C   0  0  0  0  0
    8.1010   -4.4240   -8.2700 C   0  0  0  0  0
    8.8730   -4.6880   -9.3780 C   0  0  0  0  0
    8.0420   -5.3460   -7.2510 C   0  0  0  0  0
    6.2040    0.1810   -9.9880 C   0  0  0  0  0
    9.5970   -5.8600   -9.4700 C   0  0  0  0  0
    8.7660   -6.5200   -7.3550 C   0  0  0  0  0
   10.6840    5.0170   -3.5910 C   0  0  0  0  0
    5.0590   -6.4400  -10.2590 C   0  0  0  0  0
    6.7220   -1.7320  -11.3070 C   0  0  0  0  0
    7.5440    0.5470  -10.0080 C   0  0  0  0  0
    5.8490   -7.3970   -9.6870 C   0  0  0  0  0
    7.9390    6.2750   -5.7860 C   0  0  0  0  0
    6.3250   -2.9820  -11.9580 C   0  0  0  0  0
    7.4750    7.1200   -8.0620 C   0  0  0  0  0
    5.9670    7.6930   -6.2610 C   0  0  0  0  0
    6.9480    2.6030   -8.9670 C   0  0  0  0  0
    9.0880    2.3470  -10.0700 C   0  0  0  0  0
    7.5170    3.6500   -8.0320 C   0  0  0  0  0
    9.6920    3.4540   -9.2200 C   0  0  0  0  0
   10.4660  -12.9520   -8.6360 C   0  0  0  0  0
   10.1070  -14.3610  -10.5970 C   0  0  0  0  0
   10.5900  -14.2320   -7.8450 C   0  0  0  0  0
   10.3390  -15.5480   -9.6970 C   0  0  0  0  0
    6.7890    8.2780   -7.3740 C   0  0  0  0  0
    5.9040    9.0090   -8.3590 C   0  0  0  0  0
    7.7770    9.2640   -6.8040 C   0  0  0  0  0
    9.2380    5.3690   -7.7390 C   0  0  0  0  0
    8.8790  -10.9580   -9.6150 C   0  0  0  0  0
    9.2050  -12.0720  -10.5680 C   0  0  0  0  0
    9.9650   -8.8220  -10.2950 C   0  0  0  0  0
    8.6830   -9.6440  -10.3400 C   0  0  0  0  0
    4.3540   -9.3150   -8.5120 C   0  0  0  0  0
    8.0220    1.7010   -9.3400 N   0  0  0  0  0
    7.6150   -8.9860   -9.6030 N   0  0  0  0  0
    5.0060   -3.3430  -11.6540 N   0  0  0  0  0
    8.6410    4.3760   -8.6950 N   0  3  0  0  0
    9.5680  -13.2640   -9.7600 N   0  3  0  0  0
    7.0790   -3.7020  -12.5920 O   0  0  0  0  0
    6.5150   -8.5000   -7.3440 O   0  0  0  0  0
    4.5460   -6.9290   -7.4770 O   0  0  0  0  0
    3.0600   -4.9640  -11.6600 O   0  0  0  0  0
    4.4910   -4.7600  -13.6850 O   0  0  0  0  0
   11.2480  -15.1760   -8.6740 O   0  0  0  0  0
    3.8020   -9.8590   -7.4190 F   0  0  0  0  0
    3.2990   -8.9640   -9.2980 F   0  0  0  0  0
    5.0300  -10.3050   -9.1560 F   0  0  0  0  0
   10.4410   -8.3240   -8.6020 S   0  0  0  0  0
    5.4030   -7.9350   -8.0850 S   0  0  0  0  0
    4.3720   -4.7860  -12.2420 S   0  0  0  0  0
   10.8630    3.0740   -1.7390 Cl  0  0  0  0  0
   10.4888    6.5766   -5.0503 H   0  0  0  0  0
    6.9779    4.2394   -4.3364 H   0  0  0  0  0
    8.7834   -2.0154  -11.8493 H   0  0  0  0  0
    4.7357   -1.2605  -10.6231 H   0  0  0  0  0
    9.5031    0.0368  -10.6873 H   0  0  0  0  0
    8.0743   -8.0552  -12.1226 H   0  0  0  0  0
    6.7100   -6.2912  -13.2155 H   0  0  0  0  0
    8.1962    2.9170   -2.6384 H   0  0  0  0  0
    7.3432    7.9467   -4.6515 H   0  0  0  0  0
    6.2757    6.5080   -4.5148 H   0  0  0  0  0
    7.5407   -3.4916   -8.2004 H   0  0  0  0  0
    8.9134   -3.9641  -10.1919 H   0  0  0  0  0
    7.4303   -5.1533   -6.3696 H   0  0  0  0  0
    5.4800    0.8000   -9.4581 H   0  0  0  0  0
   10.2109   -6.0485  -10.3508 H   0  0  0  0  0
    8.7172   -7.2491   -6.5462 H   0  0  0  0  0
   11.7342    5.2249   -3.3864 H   0  0  0  0  0
    4.2097   -6.0047   -9.7324 H   0  0  0  0  0
    6.7111    6.5116   -8.5461 H   0  0  0  0  0
    8.1909    7.5254   -8.7770 H   0  0  0  0  0
    5.3461    8.4758   -5.8253 H   0  0  0  0  0
    5.3396    6.8962   -6.6603 H   0  0  0  0  0
    6.5311    3.0786   -9.8548 H   0  0  0  0  0
    6.1488    2.0514   -8.4719 H   0  0  0  0  0
    9.8582    1.6140  -10.3099 H   0  0  0  0  0
    8.6893    2.7741  -10.9902 H   0  0  0  0  0
    7.8895    3.1606   -7.1321 H   0  0  0  0  0
    6.7336    4.3630   -7.7751 H   0  0  0  0  0
   10.3783    4.0303   -9.8404 H   0  0  0  0  0
   10.2057    2.9982   -8.3735 H   0  0  0  0  0
   11.4380  -12.6062   -8.9878 H   0  0  0  0  0
   10.0694  -12.1426   -8.0230 H   0  0  0  0  0
    9.4033  -14.6160  -11.3894 H   0  0  0  0  0
   11.0395  -14.0549  -11.0712 H   0  0  0  0  0
    9.6062  -14.5987   -7.5520 H   0  0  0  0  0
   11.1576  -14.0639   -6.9297 H   0  0  0  0  0
   10.7521  -16.3745  -10.2752 H   0  0  0  0  0
    9.3950  -15.8657   -9.2543 H   0  0  0  0  0
    6.5121    9.3868   -9.1810 H   0  0  0  0  0
    5.1512    8.3231   -8.7476 H   0  0  0  0  0
    5.4132    9.8420   -7.8558 H   0  0  0  0  0
    8.4103    8.7607   -6.0734 H   0  0  0  0  0
    8.3948    9.6635   -7.6082 H   0  0  0  0  0
    7.2377   10.0781   -6.3198 H   0  0  0  0  0
    9.7317    4.8090   -6.9448 H   0  0  0  0  0
    9.9220    6.0027   -8.3035 H   0  0  0  0  0
    9.7100  -10.8464   -8.9185 H   0  0  0  0  0
    7.9526  -11.2074   -9.0977 H   0  0  0  0  0
   10.0330  -11.7866  -11.2169 H   0  0  0  0  0
    8.3472  -12.2911  -11.2038 H   0  0  0  0  0
    9.7950   -7.9127  -10.8716 H   0  0  0  0  0
   10.7683   -9.4402  -10.6959 H   0  0  0  0  0
    8.4370   -9.7723  -11.3941 H   0  0  0  0  0
    7.3980   -9.2158   -8.6332 H   0  0  0  0  0
    4.4300   -2.7309  -11.0761 H   0  0  0  0  0
    8.2551    4.8660   -9.5021 H   0  0  0  0  0
    8.6952  -13.5919   -9.3465 H   0  0  0  0  0
  9  1  4  0  0  0
  1 22  4  0  0  0
  2  8  4  0  0  0
  9  2  4  0  0  0
  3  5  4  0  0  0
 24  3  4  0  0  0
  4 19  4  0  0  0
 24  4  4  0  0  0
  5 25  4  0  0  0
  7  6  4  0  0  0
  6 10  4  0  0  0
 12  7  4  0  0  0
  8 13  4  0  0  0
 27  9  1  0  0  0
 26 10  4  0  0  0
 10 49  1  0  0  0
 11 20  4  0  0  0
 11 21  4  0  0  0
 62 11  1  0  0  0
 12 23  4  0  0  0
 64 12  1  0  0  0
 22 13  4  0  0  0
 13 65  1  0  0  0
 14 27  2  0  0  0
 14 29  1  0  0  0
 42 14  1  0  0  0
 27 15  1  0  0  0
 15 30  1  0  0  0
 17 16  4  0  0  0
 18 16  4  0  0  0
 20 17  4  0  0  0
 21 18  4  0  0  0
 19 25  4  0  0  0
 23 26  4  0  0  0
 28 24  1  0  0  0
 25 48  1  0  0  0
 26 63  1  0  0  0
 50 28  1  0  0  0
 28 53  2  0  0  0
 29 39  1  0  0  0
 39 30  1  0  0  0
 31 33  1  0  0  0
 48 31  1  0  0  0
 32 34  1  0  0  0
 48 32  1  0  0  0
 33 51  1  0  0  0
 34 51  1  0  0  0
 35 37  1  0  0  0
 52 35  1  0  0  0
 36 38  1  0  0  0
 52 36  1  0  0  0
 37 58  1  0  0  0
 38 58  1  0  0  0
 39 40  1  0  0  0
 39 41  1  0  0  0
 51 42  1  0  0  0
 43 44  1  0  0  0
 46 43  1  0  0  0
 44 52  1  0  0  0
 46 45  1  0  0  0
 45 62  1  0  0  0
 49 46  1  0  0  0
 47 59  1  0  0  0
 47 60  1  0  0  0
 47 61  1  0  0  0
 63 47  1  0  0  0
 50 64  1  0  0  0
 63 54  2  0  0  0
 63 55  2  0  0  0
 64 56  2  0  0  0
 64 57  2  0  0  0
  1 66  1  0  0  0
  2 67  1  0  0  0
  3 68  1  0  0  0
  4 69  1  0  0  0
  5 70  1  0  0  0
  6 71  1  0  0  0
  7 72  1  0  0  0
  8 73  1  0  0  0
 15 74  1  0  0  0
 15 75  1  0  0  0
 16 76  1  0  0  0
 17 77  1  0  0  0
 18 78  1  0  0  0
 19 79  1  0  0  0
 20 80  1  0  0  0
 21 81  1  0  0  0
 22 82  1  0  0  0
 23 83  1  0  0  0
 29 84  1  0  0  0
 29 85  1  0  0  0
 30 86  1  0  0  0
 30 87  1  0  0  0
 31 88  1  0  0  0
 31 89  1  0  0  0
 32 90  1  0  0  0
 32 91  1  0  0  0
 33 92  1  0  0  0
 33 93  1  0  0  0
 34 94  1  0  0  0
 34 95  1  0  0  0
 35 96  1  0  0  0
 35 97  1  0  0  0
 36 98  1  0  0  0
 36 99  1  0  0  0
 37100  1  0  0  0
 37101  1  0  0  0
 38102  1  0  0  0
 38103  1  0  0  0
 40104  1  0  0  0
 40105  1  0  0  0
 40106  1  0  0  0
 41107  1  0  0  0
 41108  1  0  0  0
 41109  1  0  0  0
 42110  1  0  0  0
 42111  1  0  0  0
 43112  1  0  0  0
 43113  1  0  0  0
 44114  1  0  0  0
 44115  1  0  0  0
 45116  1  0  0  0
 45117  1  0  0  0
 46118  1  0  0  0
 49119  1  0  0  0
 50120  1  0  0  0
 51121  1  0  0  0
 52122  1  0  0  0
M  END
$$$$
