3dp9_ligand
  -I-interpret- 

 48 50  0  0  0  0  0  0  0  0999 V2000
   -1.3210   -4.1280    5.2950 C   0  0  0  0  0
   -3.9340   -3.4640    4.5930 C   0  0  0  0  0
   -3.2350   -2.9140    5.7560 C   0  0  0  0  0
   -5.3260   -2.0460    5.6130 C   0  0  0  0  0
   -1.2630    2.0820    8.2140 O   0  0  0  0  0
   -1.2190    1.1140    7.1580 C   0  0  0  0  0
   -2.1170    1.5100    5.9920 C   0  0  0  0  0
   -1.6440    0.8960    4.6760 C   0  0  0  0  0
   -0.3930    1.8620    3.8830 S   0  0  0  0  0
   -1.3380    3.1080    3.0540 C   0  0  0  0  0
   -0.4020    4.1510    2.4530 C   0  0  0  0  0
   -1.1350    5.4570    2.1610 C   0  0  0  0  0
   -0.9770    5.8260    0.7040 C   0  0  0  0  0
   -3.4590    0.8790    6.3220 C   0  0  0  0  0
   -3.2550    0.1140    7.5710 N   0  3  0  0  0
   -1.8250   -0.1550    7.7090 C   0  0  0  0  0
   -3.9750   -1.1760    7.6470 C   0  0  0  0  0
   -5.1580   -2.9030    4.5550 N   0  0  0  0  0
   -3.1590   -4.4310    3.7900 C   0  0  0  0  0
   -3.6840   -5.0230    2.6890 N   0  0  0  0  0
   -1.9620   -3.2580    6.0820 N   0  0  0  0  0
   -4.1760   -1.9810    6.3960 C   0  0  0  0  0
   -1.8920   -4.6950    4.2040 N   0  0  0  0  0
   -0.2930   -4.3934    5.5416 H   0  0  0  0  0
   -6.2406   -1.4884    5.8146 H   0  0  0  0  0
   -0.6874    1.8004    8.9289 H   0  0  0  0  0
   -0.1878    1.0180    6.8181 H   0  0  0  0  0
   -2.1327    2.5931    5.8707 H   0  0  0  0  0
   -2.5010    0.8421    4.0047 H   0  0  0  0  0
   -1.2205   -0.0838    4.8969 H   0  0  0  0  0
   -2.0042    3.5907    3.7691 H   0  0  0  0  0
   -1.9229    2.6471    2.2580 H   0  0  0  0  0
   -0.0055    3.7603    1.5159 H   0  0  0  0  0
    0.3942    4.3543    3.1691 H   0  0  0  0  0
   -0.7134    6.2499    2.7788 H   0  0  0  0  0
   -2.1942    5.3309    2.3855 H   0  0  0  0  0
    0.0814    5.9498    0.4746 H   0  0  0  0  0
   -1.3945    5.0338    0.0825 H   0  0  0  0  0
   -1.5043    6.7596    0.5077 H   0  0  0  0  0
   -3.7996    0.2314    5.5141 H   0  0  0  0  0
   -4.2317    1.6378    6.4461 H   0  0  0  0  0
   -3.6345    0.6921    8.3208 H   0  0  0  0  0
   -1.5210   -0.3723    8.7329 H   0  0  0  0  0
   -1.4999   -1.0542    7.1856 H   0  0  0  0  0
   -4.9814   -0.9138    7.9735 H   0  0  0  0  0
   -3.3532   -1.8042    8.2849 H   0  0  0  0  0
   -4.6365   -4.8038    2.3973 H   0  0  0  0  0
   -3.1264   -5.6875    2.1524 H   0  0  0  0  0
 21  1  4  0  0  0
  1 23  4  0  0  0
  3  2  4  0  0  0
 18  2  4  0  0  0
  2 19  4  0  0  0
  3 21  4  0  0  0
 22  3  4  0  0  0
  4 18  4  0  0  0
 22  4  4  0  0  0
  6  5  1  0  0  0
  6  7  1  0  0  0
 16  6  1  0  0  0
  7  8  1  0  0  0
 14  7  1  0  0  0
  8  9  1  0  0  0
  9 10  1  0  0  0
 10 11  1  0  0  0
 11 12  1  0  0  0
 12 13  1  0  0  0
 15 14  1  0  0  0
 15 16  1  0  0  0
 17 15  1  0  0  0
 17 22  1  0  0  0
 19 20  1  0  0  0
 19 23  4  0  0  0
  1 24  1  0  0  0
  4 25  1  0  0  0
  5 26  1  0  0  0
  6 27  1  0  0  0
  7 28  1  0  0  0
  8 29  1  0  0  0
  8 30  1  0  0  0
 10 31  1  0  0  0
 10 32  1  0  0  0
 11 33  1  0  0  0
 11 34  1  0  0  0
 12 35  1  0  0  0
 12 36  1  0  0  0
 13 37  1  0  0  0
 13 38  1  0  0  0
 13 39  1  0  0  0
 14 40  1  0  0  0
 14 41  1  0  0  0
 15 42  1  0  0  0
 16 43  1  0  0  0
 16 44  1  0  0  0
 17 45  1  0  0  0
 17 46  1  0  0  0
 20 47  1  0  0  0
 20 48  1  0  0  0
M  END
$$$$
