5m6u_ligand
  -I-interpret- 

 44 47  0  0  0  0  0  0  0  0999 V2000
   38.4480   14.0640   31.6650 N   0  0  0  0  0
   37.4920   14.1490   32.6830 N   0  0  0  0  0
   37.7590   14.6490   33.8450 C   0  0  0  0  0
   39.0250   15.1290   34.1410 N   0  0  0  0  0
   40.0220   15.0760   33.2160 C   0  0  0  0  0
   39.7320   14.5080   31.9040 C   0  0  0  0  0
   40.4730   14.3130   30.7610 C   0  0  0  0  0
   39.6150   13.7290   29.8280 C   0  0  0  0  0
   38.3940   13.5910   30.4060 C   0  0  0  0  0
   41.1390   15.4920   33.4520 O   0  0  0  0  0
   39.3340   15.7120   35.3750 C   0  0  0  0  0
   40.0050   15.0140   36.3760 C   0  0  0  0  0
   40.2960   15.6580   37.5680 C   0  0  0  0  0
   39.9260   16.9840   37.7580 C   0  0  0  0  0
   39.2610   17.6790   36.7630 C   0  0  0  0  0
   38.9720   17.0450   35.5690 C   0  0  0  0  0
   36.6280   14.6500   34.8420 C   0  0  0  0  0
   35.3650   14.8050   34.1070 N   0  0  0  0  0
   34.8720   16.0660   33.7970 C   0  0  0  0  0
   35.6220   17.1480   34.0400 N   0  0  0  0  0
   35.1970   18.3720   33.7700 C   0  0  0  0  0
   34.0070   18.6010   33.2320 N   0  0  0  0  0
   33.1830   17.5940   32.9410 C   0  0  0  0  0
   33.5860   16.2600   33.2170 C   0  0  0  0  0
   32.6870   15.1920   32.8960 C   0  0  0  0  0
   31.9860   14.3280   32.6550 N   0  0  0  0  0
   31.9500   17.8790   32.3930 N   0  0  0  0  0
   36.6440   13.3120   35.5790 C   0  0  0  0  0
   41.5231   14.5650   30.6134 H   0  0  0  0  0
   39.8790   13.4349   28.8122 H   0  0  0  0  0
   37.5120   13.1656   29.9273 H   0  0  0  0  0
   40.2974   13.9750   36.2239 H   0  0  0  0  0
   40.8178   15.1218   38.3607 H   0  0  0  0  0
   40.1616   17.4810   38.6990 H   0  0  0  0  0
   38.9677   18.7171   36.9194 H   0  0  0  0  0
   38.4591   17.5891   34.7759 H   0  0  0  0  0
   36.7324   15.4643   35.5591 H   0  0  0  0  0
   34.8438   13.9762   33.8209 H   0  0  0  0  0
   35.8455   19.2182   33.9970 H   0  0  0  0  0
   31.6817   18.8472   32.2168 H   0  0  0  0  0
   31.3064   17.1216   32.1639 H   0  0  0  0  0
   35.8125   13.2764   36.2829 H   0  0  0  0  0
   36.5464   12.5003   34.8580 H   0  0  0  0  0
   37.5845   13.2079   36.1201 H   0  0  0  0  0
  1  2  1  0  0  0
  1  6  4  0  0  0
  1  9  4  0  0  0
  2  3  2  0  0  0
  3  4  1  0  0  0
  3 17  1  0  0  0
  4  5  1  0  0  0
  4 11  1  0  0  0
  5  6  1  0  0  0
  5 10  2  0  0  0
  6  7  4  0  0  0
  7  8  4  0  0  0
  8  9  4  0  0  0
 11 12  4  0  0  0
 11 16  4  0  0  0
 12 13  4  0  0  0
 13 14  4  0  0  0
 14 15  4  0  0  0
 15 16  4  0  0  0
 17 18  1  0  0  0
 17 28  1  0  0  0
 18 19  1  0  0  0
 19 20  4  0  0  0
 19 24  4  0  0  0
 20 21  4  0  0  0
 21 22  4  0  0  0
 22 23  4  0  0  0
 23 24  4  0  0  0
 23 27  1  0  0  0
 24 25  1  0  0  0
 25 26  3  0  0  0
  7 29  1  0  0  0
  8 30  1  0  0  0
  9 31  1  0  0  0
 12 32  1  0  0  0
 13 33  1  0  0  0
 14 34  1  0  0  0
 15 35  1  0  0  0
 16 36  1  0  0  0
 17 37  1  0  0  0
 18 38  1  0  0  0
 21 39  1  0  0  0
 27 40  1  0  0  0
 27 41  1  0  0  0
 28 42  1  0  0  0
 28 43  1  0  0  0
 28 44  1  0  0  0
M  END
$$$$
