5eyr_ligand
  -I-interpret- 

 52 54  0  0  0  0  0  0  0  0999 V2000
    3.9110   28.5340    4.2460 C   0  0  0  0  0
    5.2790   28.3820    4.0000 C   0  0  0  0  0
    3.1130   27.4010    4.4340 C   0  0  0  0  0
    5.0610   25.9880    4.1430 C   0  0  0  0  0
    3.6900   26.1250    4.3870 C   0  0  0  0  0
    9.1080   26.0480    2.3280 C   0  0  0  0  0
    8.2120   27.8210    4.5090 C   0  0  0  0  0
    7.7260   25.8270    2.9420 C   0  0  0  0  0
    7.2700   26.9650    3.7620 N   0  0  0  0  0
    5.8740   27.1180    3.9450 C   0  0  0  0  0
    9.4360   28.1420    3.6500 C   0  0  0  0  0
   16.3590   29.7450    2.8150 C   0  0  0  0  0
   16.6080   29.9070    1.3240 C   0  0  0  0  0
   15.5370   29.1020    0.6170 C   0  0  0  0  0
   13.4600   28.0160    1.3940 C   0  0  0  0  0
   12.4680   27.8050    2.5270 C   0  0  0  0  0
   11.1600   27.1760    2.0540 C   0  0  0  0  0
   10.1160   26.8670    3.1240 C   0  0  0  0  0
   13.2050   27.6270    0.2430 O   0  0  0  0  0
   14.6020   28.6790    1.6680 N   0  0  0  0  0
   15.0140   29.0710    3.0190 C   0  0  0  0  0
    1.6270   27.5600    4.6650 C   0  0  0  0  0
    1.3170   27.4860    6.0780 N   0  3  0  0  0
    0.9220   26.2200    6.6750 C   0  0  0  0  0
    3.4692   29.5295    4.2910 H   0  0  0  0  0
    5.8950   29.2683    3.8478 H   0  0  0  0  0
    5.5043   24.9929    4.1060 H   0  0  0  0  0
    3.0718   25.2404    4.5403 H   0  0  0  0  0
    8.9326   26.6127    1.4123 H   0  0  0  0  0
    9.5478   25.0549    2.2362 H   0  0  0  0  0
    8.5361   27.2937    5.4062 H   0  0  0  0  0
    7.7113   28.7517    4.7757 H   0  0  0  0  0
    7.7873   24.9537    3.5914 H   0  0  0  0  0
    7.0160   25.7016    2.1245 H   0  0  0  0  0
   10.1539   28.6836    4.2660 H   0  0  0  0  0
    9.1084   28.7330    2.7947 H   0  0  0  0  0
   17.0360   30.0613    3.6085 H   0  0  0  0  0
   17.4019   30.4886    0.8554 H   0  0  0  0  0
   15.4735   28.8825   -0.4488 H   0  0  0  0  0
   12.2354   28.7803    2.9546 H   0  0  0  0  0
   12.9235   27.1276    3.2493 H   0  0  0  0  0
   11.4318   26.2156    1.6160 H   0  0  0  0  0
   10.6997   27.9079    1.3903 H   0  0  0  0  0
   10.5344   26.3750    4.0020 H   0  0  0  0  0
   14.4779   28.9145    3.9551 H   0  0  0  0  0
    1.1023   26.7573    4.1469 H   0  0  0  0  0
    1.3139   28.5330    4.2863 H   0  0  0  0  0
    0.4991   28.0851    6.1897 H   0  0  0  0  0
    2.1937   27.7227    6.5426 H   0  0  0  0  0
    0.0165   25.8572    6.1886 H   0  0  0  0  0
    1.7229   25.4923    6.5439 H   0  0  0  0  0
    0.7316   26.3649    7.7384 H   0  0  0  0  0
  2  1  4  0  0  0
  1  3  4  0  0  0
 10  2  4  0  0  0
  5  3  4  0  0  0
  3 22  1  0  0  0
  4  5  4  0  0  0
 10  4  4  0  0  0
  6  8  1  0  0  0
 18  6  1  0  0  0
  7  9  1  0  0  0
 11  7  1  0  0  0
  8  9  1  0  0  0
  9 10  1  0  0  0
 18 11  1  0  0  0
 13 12  4  0  0  0
 12 21  4  0  0  0
 14 13  4  0  0  0
 20 14  4  0  0  0
 16 15  1  0  0  0
 15 19  2  0  0  0
 15 20  1  0  0  0
 17 16  1  0  0  0
 17 18  1  0  0  0
 20 21  4  0  0  0
 22 23  1  0  0  0
 23 24  1  0  0  0
  1 25  1  0  0  0
  2 26  1  0  0  0
  4 27  1  0  0  0
  5 28  1  0  0  0
  6 29  1  0  0  0
  6 30  1  0  0  0
  7 31  1  0  0  0
  7 32  1  0  0  0
  8 33  1  0  0  0
  8 34  1  0  0  0
 11 35  1  0  0  0
 11 36  1  0  0  0
 12 37  1  0  0  0
 13 38  1  0  0  0
 14 39  1  0  0  0
 16 40  1  0  0  0
 16 41  1  0  0  0
 17 42  1  0  0  0
 17 43  1  0  0  0
 18 44  1  0  0  0
 21 45  1  0  0  0
 22 46  1  0  0  0
 22 47  1  0  0  0
 23 48  1  0  0  0
 23 49  1  0  0  0
 24 50  1  0  0  0
 24 51  1  0  0  0
 24 52  1  0  0  0
M  END
$$$$
