3mbz_ligand
  -I-interpret- 

 48 49  0  0  0  0  0  0  0  0999 V2000
  107.7910   32.8210   27.8330 C   0  0  0  0  0
  107.0570   31.6450   27.9670 C   0  0  0  0  0
  105.8770   31.6250   28.7000 C   0  0  0  0  0
  105.0370   30.6230   28.9550 C   0  0  0  0  0
  104.0460   31.0730   29.7120 C   0  0  0  0  0
  104.2250   32.4320   29.9670 C   0  0  0  0  0
  106.1500   34.0060   29.1730 C   0  0  0  0  0
  107.3390   34.0040   28.4360 C   0  0  0  0  0
  109.0900   32.7610   27.0110 C   0  0  0  0  0
  102.8920   30.1720   30.1600 C   0  0  0  0  0
  103.5760   33.5220   32.0970 C   0  0  0  0  0
  104.4410   34.7770   32.2350 C   0  0  0  0  0
  102.2010   33.7440   32.8030 C   0  0  0  0  0
  101.6760   35.1980   32.6760 C   0  0  0  0  0
  102.4250   33.3840   34.2980 C   0  0  0  0  0
  101.4520   33.2640   36.3590 C   0  0  0  0  0
  105.4070   32.8050   29.3140 N   0  0  0  0  0
  109.8150   33.8780   27.0160 N   0  0  0  0  0
  103.4060   33.2230   30.6650 N   0  0  0  0  0
  100.1940   33.3020   36.8190 N   0  0  0  0  0
  102.0240   30.0680   29.2890 O   0  0  0  0  0
  109.4110   31.7350   26.4050 O   0  0  0  0  0
  104.7760   35.3360   31.1630 O   0  0  0  0  0
  104.7080   35.1780   33.4010 O   0  0  0  0  0
   99.6480   32.7240   32.9140 O   0  0  0  0  0
  101.3800   31.2560   32.0660 O   0  0  0  0  0
  101.8130   34.1490   35.3720 O   0  0  0  0  0
  102.2860   32.4440   36.7650 O   0  0  0  0  0
  100.9130   32.6210   32.1030 S   0  0  0  0  0
  107.4121   30.7306   27.4917 H   0  0  0  0  0
  105.1467   29.5987   28.5988 H   0  0  0  0  0
  105.7956   34.9263   29.6372 H   0  0  0  0  0
  107.9151   34.9232   28.3302 H   0  0  0  0  0
  102.4362   30.6155   31.0453 H   0  0  0  0  0
  103.2929   29.1790   30.3630 H   0  0  0  0  0
  104.0586   32.6716   32.5787 H   0  0  0  0  0
  101.5004   35.4291   31.6253 H   0  0  0  0  0
  100.7434   35.2960   33.2317 H   0  0  0  0  0
  102.4165   35.8871   33.0821 H   0  0  0  0  0
  103.4931   33.5449   34.4440 H   0  0  0  0  0
  101.9729   32.3970   34.3954 H   0  0  0  0  0
  110.6925   33.9188   26.4976 H   0  0  0  0  0
  109.4928   34.6928   27.5382 H   0  0  0  0  0
  102.6158   33.6451   30.1773 H   0  0  0  0  0
   99.8913   32.6381   37.5317 H   0  0  0  0  0
   99.5391   33.9948   36.4564 H   0  0  0  0  0
  101.3203   29.4975   29.6066 H   0  0  0  0  0
  104.3350   34.5677   34.0413 H   0  0  0  0  0
  2  1  4  0  0  0
  8  1  4  0  0  0
  1  9  1  0  0  0
  3  2  4  0  0  0
  3  4  4  0  0  0
 17  3  4  0  0  0
  5  4  4  0  0  0
  6  5  4  0  0  0
  5 10  1  0  0  0
  6 17  4  0  0  0
 19  6  1  0  0  0
  7  8  4  0  0  0
 17  7  4  0  0  0
  9 18  1  0  0  0
  9 22  2  0  0  0
 10 21  1  0  0  0
 11 12  1  0  0  0
 13 11  1  0  0  0
 11 19  1  0  0  0
 12 23  2  0  0  0
 12 24  1  0  0  0
 13 14  1  0  0  0
 15 13  1  0  0  0
 13 29  1  0  0  0
 27 15  1  0  0  0
 16 20  1  0  0  0
 16 27  1  0  0  0
 16 28  2  0  0  0
 29 25  4  0  0  0
 29 26  4  0  0  0
  2 30  1  0  0  0
  4 31  1  0  0  0
  7 32  1  0  0  0
  8 33  1  0  0  0
 10 34  1  0  0  0
 10 35  1  0  0  0
 11 36  1  0  0  0
 14 37  1  0  0  0
 14 38  1  0  0  0
 14 39  1  0  0  0
 15 40  1  0  0  0
 15 41  1  0  0  0
 18 42  1  0  0  0
 18 43  1  0  0  0
 19 44  1  0  0  0
 20 45  1  0  0  0
 20 46  1  0  0  0
 21 47  1  0  0  0
 24 48  1  0  0  0
M  END
$$$$
