5ftq_ligand
  -I-interpret- 

 78 83  0  0  0  0  0  0  0  0999 V2000
  -17.3170    9.0460   -7.8730 F   0  0  0  0  0
  -17.3670   10.2130   -8.6230 C   0  0  0  0  0
  -16.9280   10.1600   -9.9180 C   0  0  0  0  0
  -17.0230   11.3200  -10.6830 C   0  0  0  0  0
  -16.6220   11.3100  -11.9500 F   0  0  0  0  0
  -17.5340   12.5290  -10.1600 C   0  0  0  0  0
  -17.9050   11.3960   -8.0490 C   0  0  0  0  0
  -17.9450   12.5770   -8.8000 C   0  0  0  0  0
  -18.5430   13.8440   -8.1930 C   0  0  0  0  0
  -19.9100   13.9960   -8.7910 C   0  0  0  0  0
  -20.1570   15.0810   -9.7170 C   0  0  0  0  0
  -21.4130   15.1160  -10.2990 C   0  0  0  0  0
  -22.4780   14.2220  -10.0240 C   0  0  0  0  0
  -23.7190   14.1070  -10.5370 N   0  0  0  0  0
  -24.3390   12.9880   -9.9850 N   0  0  0  0  0
  -20.9420   13.0750   -8.5260 C   0  0  0  0  0
  -22.1980   13.1660   -9.1550 C   0  0  0  0  0
  -23.4460   12.4220   -9.1770 C   0  0  0  0  0
  -23.7940   11.2300   -8.5300 N   0  0  0  0  0
  -23.2640   10.7610   -7.3980 C   0  0  0  0  0
  -22.5100   11.4140   -6.7130 O   0  0  0  0  0
  -23.7730    9.3500   -7.0010 C   0  0  0  0  0
  -22.9810    8.5860   -6.1060 C   0  0  0  0  0
  -21.8050    9.0810   -5.6890 N   0  0  0  0  0
  -20.7690    8.3530   -4.9400 C   0  0  0  0  0
  -19.9160    7.5960   -5.9200 C   0  0  0  0  0
  -19.0070    6.6230   -5.1310 C   0  0  0  0  0
  -18.0360    7.6140   -4.5180 C   0  0  0  0  0
  -17.0410    6.8200   -3.7870 O   0  0  0  0  0
  -18.7440    8.5020   -3.4500 C   0  0  0  0  0
  -19.8210    9.3070   -4.2080 C   0  0  0  0  0
  -23.4330    7.2910   -5.7670 C   0  0  0  0  0
  -24.6420    6.8600   -6.2170 C   0  0  0  0  0
  -25.4500    7.6380   -7.0600 C   0  0  0  0  0
  -25.0180    8.9470   -7.4060 C   0  0  0  0  0
  -25.1460    5.5220   -5.8620 N   0  0  0  0  0
  -25.4700    4.7710   -7.0400 C   0  0  0  0  0
  -26.1600    3.4560   -6.6220 C   0  0  0  0  0
  -25.2250    2.7830   -5.7340 N   0  3  0  0  0
  -25.8100    1.4510   -5.3530 C   0  0  0  0  0
  -24.9560    3.6050   -4.5290 C   0  0  0  0  0
  -24.1630    4.8330   -4.9740 C   0  0  0  0  0
  -16.5178    9.2410  -10.3367 H   0  0  0  0  0
  -17.6121   13.4140  -10.7915 H   0  0  0  0  0
  -18.2853   11.3843   -7.0276 H   0  0  0  0  0
  -17.9220   14.7128   -8.4111 H   0  0  0  0  0
  -18.5974   13.7692   -7.1069 H   0  0  0  0  0
  -19.3968   15.8286   -9.9434 H   0  0  0  0  0
  -21.5990   15.8999  -11.0331 H   0  0  0  0  0
  -20.7632   12.2693   -7.8140 H   0  0  0  0  0
  -24.5231   10.6653   -8.9658 H   0  0  0  0  0
  -21.6108   10.0569   -5.9133 H   0  0  0  0  0
  -21.2756    7.7074   -4.2226 H   0  0  0  0  0
  -19.3053    8.2911   -6.4962 H   0  0  0  0  0
  -20.5485    7.0374   -6.6099 H   0  0  0  0  0
  -18.5387    5.8490   -5.7390 H   0  0  0  0  0
  -19.5329    5.9996   -4.4078 H   0  0  0  0  0
  -17.6164    8.2434   -5.3028 H   0  0  0  0  0
  -16.4010    7.4079   -3.3792 H   0  0  0  0  0
  -18.0336    9.1639   -2.9546 H   0  0  0  0  0
  -19.1888    7.8925   -2.6634 H   0  0  0  0  0
  -20.3914    9.9027   -3.4954 H   0  0  0  0  0
  -19.3363    9.9588   -4.9348 H   0  0  0  0  0
  -22.8156    6.6403   -5.1477 H   0  0  0  0  0
  -26.3921    7.2455   -7.4426 H   0  0  0  0  0
  -25.6616    9.6140   -7.9796 H   0  0  0  0  0
  -24.5595    4.5481   -7.5963 H   0  0  0  0  0
  -26.1392    5.3522   -7.6744 H   0  0  0  0  0
  -26.3972    2.8396   -7.4891 H   0  0  0  0  0
  -27.1110    3.6477   -6.1250 H   0  0  0  0  0
  -24.3339    2.6456   -6.2110 H   0  0  0  0  0
  -26.7624    1.6056   -4.8459 H   0  0  0  0  0
  -25.9679    0.8546   -6.2516 H   0  0  0  0  0
  -25.1222    0.9308   -4.6864 H   0  0  0  0  0
  -24.3883    3.0311   -3.7966 H   0  0  0  0  0
  -25.8917    3.9070   -4.0585 H   0  0  0  0  0
  -23.8179    5.4513   -4.1454 H   0  0  0  0  0
  -23.2249    4.5877   -5.4719 H   0  0  0  0  0
  1  2  1  0  0  0
  2  3  4  0  0  0
  2  7  4  0  0  0
  3  4  4  0  0  0
  4  5  1  0  0  0
  4  6  4  0  0  0
  6  8  4  0  0  0
  7  8  4  0  0  0
  8  9  1  0  0  0
  9 10  1  0  0  0
 10 11  4  0  0  0
 10 16  4  0  0  0
 11 12  4  0  0  0
 12 13  4  0  0  0
 13 14  4  0  0  0
 13 17  4  0  0  0
 14 15  4  0  0  0
 15 18  4  0  0  0
 16 17  4  0  0  0
 17 18  4  0  0  0
 18 19  1  0  0  0
 19 20  1  0  0  0
 20 21  2  0  0  0
 20 22  1  0  0  0
 22 23  4  0  0  0
 22 35  4  0  0  0
 23 24  1  0  0  0
 23 32  4  0  0  0
 24 25  1  0  0  0
 25 26  1  0  0  0
 25 31  1  0  0  0
 26 27  1  0  0  0
 27 28  1  0  0  0
 28 29  1  0  0  0
 28 30  1  0  0  0
 30 31  1  0  0  0
 32 33  4  0  0  0
 33 34  4  0  0  0
 33 36  1  0  0  0
 34 35  4  0  0  0
 36 37  1  0  0  0
 36 42  1  0  0  0
 37 38  1  0  0  0
 38 39  1  0  0  0
 39 40  1  0  0  0
 39 41  1  0  0  0
 41 42  1  0  0  0
  3 43  1  0  0  0
  6 44  1  0  0  0
  7 45  1  0  0  0
  9 46  1  0  0  0
  9 47  1  0  0  0
 11 48  1  0  0  0
 12 49  1  0  0  0
 16 50  1  0  0  0
 19 51  1  0  0  0
 24 52  1  0  0  0
 25 53  1  0  0  0
 26 54  1  0  0  0
 26 55  1  0  0  0
 27 56  1  0  0  0
 27 57  1  0  0  0
 28 58  1  0  0  0
 29 59  1  0  0  0
 30 60  1  0  0  0
 30 61  1  0  0  0
 31 62  1  0  0  0
 31 63  1  0  0  0
 32 64  1  0  0  0
 34 65  1  0  0  0
 35 66  1  0  0  0
 37 67  1  0  0  0
 37 68  1  0  0  0
 38 69  1  0  0  0
 38 70  1  0  0  0
 39 71  1  0  0  0
 40 72  1  0  0  0
 40 73  1  0  0  0
 40 74  1  0  0  0
 41 75  1  0  0  0
 41 76  1  0  0  0
 42 77  1  0  0  0
 42 78  1  0  0  0
M  END
$$$$
