2rjs_ligand
  -I-interpret- 

 28 28  0  0  0  0  0  0  0  0999 V2000
   26.1110    8.5940    6.2560 C   0  0  0  0  0
   24.6900    8.7640    6.2790 O   0  0  0  0  0
   24.3910   10.0440    6.6220 C   0  0  0  0  0
   24.2060   10.3900    7.9570 C   0  0  0  0  0
   23.9230   11.7070    8.3050 C   0  0  0  0  0
   24.2890   11.0190    5.6360 C   0  0  0  0  0
   24.0050   12.3350    5.9820 C   0  0  0  0  0
   23.8260   12.6790    7.3170 C   0  0  0  0  0
   23.5640   14.1410    7.6840 C   0  0  0  0  0
   22.1260   14.4240    7.5720 N   0  3  0  0  0
   24.0250   14.3980    9.1200 C   0  0  0  0  0
   24.1650   15.9060    9.3500 C   0  0  0  0  0
   24.1160   16.7430    8.4230 O   0  0  0  0  0
   24.3580   16.2850   10.5260 O   0  0  0  0  0
   25.2180   13.8000    9.3240 F   0  0  0  0  0
   23.1150   13.8940    9.9800 F   0  0  0  0  0
   26.5456    9.2768    5.5259 H   0  0  0  0  0
   26.5175    8.8098    7.2441 H   0  0  0  0  0
   26.3483    7.5664    5.9806 H   0  0  0  0  0
   24.2830    9.6274    8.7320 H   0  0  0  0  0
   23.7776   11.9759    9.3513 H   0  0  0  0  0
   24.4321   10.7508    4.5892 H   0  0  0  0  0
   23.9227   13.0969    5.2069 H   0  0  0  0  0
   24.1160   14.7904    7.0046 H   0  0  0  0  0
   21.9525   15.3988    7.8169 H   0  0  0  0  0
   21.8207   14.2533    6.6138 H   0  0  0  0  0
   21.6104   13.8155    8.2079 H   0  0  0  0  0
   24.3674   15.5226   11.1093 H   0  0  0  0  0
  1  2  1  0  0  0
  2  3  1  0  0  0
  3  4  4  0  0  0
  3  6  4  0  0  0
  4  5  4  0  0  0
  5  8  4  0  0  0
  6  7  4  0  0  0
  7  8  4  0  0  0
  8  9  1  0  0  0
  9 10  1  0  0  0
  9 11  1  0  0  0
 11 12  1  0  0  0
 11 15  1  0  0  0
 11 16  1  0  0  0
 12 13  2  0  0  0
 12 14  1  0  0  0
  1 17  1  0  0  0
  1 18  1  0  0  0
  1 19  1  0  0  0
  4 20  1  0  0  0
  5 21  1  0  0  0
  6 22  1  0  0  0
  7 23  1  0  0  0
  9 24  1  0  0  0
 10 25  1  0  0  0
 10 26  1  0  0  0
 10 27  1  0  0  0
 14 28  1  0  0  0
M  END
$$$$
