1rtf_ligand
  -I-interpret- 

 17 17  0  0  0  0  0  0  0  0999 V2000
   -6.9210   31.2060   33.8930 C   0  0  0  0  0
   -8.1890   30.8360   34.3440 C   0  0  0  0  0
   -8.3350   29.8630   35.3420 C   0  0  0  0  0
   -7.2060   29.2540   35.8930 C   0  0  0  0  0
   -5.9320   29.6180   35.4450 C   0  0  0  0  0
   -5.7940   30.5890   34.4500 C   0  0  0  0  0
   -6.7670   32.2490   32.8590 C   0  0  0  0  0
   -5.5700   32.6410   32.4970 N   0  0  0  0  0
   -7.8240   32.7850   32.2990 N   0  0  0  0  0
   -9.0735   31.3080   33.9162 H   0  0  0  0  0
   -9.3297   29.5818   35.6879 H   0  0  0  0  0
   -7.3170   28.4974   36.6697 H   0  0  0  0  0
   -5.0477   29.1446   35.8717 H   0  0  0  0  0
   -4.7991   30.8691   34.1038 H   0  0  0  0  0
   -5.4635   33.3606   31.7820 H   0  0  0  0  0
   -7.7131   33.5043   31.5844 H   0  0  0  0  0
   -8.7574   32.4828   32.5778 H   0  0  0  0  0
  1  2  4  0  0  0
  1  6  4  0  0  0
  1  7  1  0  0  0
  2  3  4  0  0  0
  3  4  4  0  0  0
  4  5  4  0  0  0
  5  6  4  0  0  0
  7  8  2  0  0  0
  7  9  1  0  0  0
  2 10  1  0  0  0
  3 11  1  0  0  0
  4 12  1  0  0  0
  5 13  1  0  0  0
  6 14  1  0  0  0
  8 15  1  0  0  0
  9 16  1  0  0  0
  9 17  1  0  0  0
M  END
$$$$
