1wax_ligand
  -I-interpret- 

 25 25  0  0  0  0  0  0  0  0999 V2000
   42.4890   16.7100   64.1080 C   0  0  0  0  0
   43.6980   17.1380   64.1070 O   0  0  0  0  0
   41.4680   17.3540   63.6650 O   0  0  0  0  0
   42.2500   15.3770   64.6800 C   0  0  0  0  0
   41.7020   14.5610   63.9600 O   0  0  0  0  0
   42.6030   14.0600   66.7720 C   0  0  0  0  0
   43.5000   13.9710   67.8270 C   0  0  0  0  0
   43.4860   12.8690   68.6610 C   0  0  0  0  0
   42.5770   11.8590   68.4510 C   0  0  0  0  0
   41.6690   11.9400   67.4130 C   0  0  0  0  0
   41.6730   13.0350   66.5680 C   0  0  0  0  0
   42.5730   10.6750   69.3680 C   0  0  0  0  0
   41.5260   10.9510   70.3490 N   0  3  0  0  0
   42.6730   15.2070   65.9650 N   0  0  0  0  0
   40.6793   16.8186   63.7788 H   0  0  0  0  0
   44.2181   14.7729   67.9985 H   0  0  0  0  0
   44.1957   12.8006   69.4854 H   0  0  0  0  0
   40.9469   11.1381   67.2594 H   0  0  0  0  0
   40.9566   13.0989   65.7490 H   0  0  0  0  0
   43.5428   10.5337   69.8451 H   0  0  0  0  0
   42.3814    9.7487   68.8265 H   0  0  0  0  0
   41.4690   10.1768   71.0106 H   0  0  0  0  0
   41.7487   11.8116   70.8492 H   0  0  0  0  0
   40.6319   11.0567   69.8696 H   0  0  0  0  0
   43.0988   16.0255   66.3999 H   0  0  0  0  0
  1  2  2  0  0  0
  1  3  1  0  0  0
  4  1  1  0  0  0
  4  5  2  0  0  0
 14  4  1  0  0  0
  6  7  4  0  0  0
  6 11  4  0  0  0
  6 14  1  0  0  0
  7  8  4  0  0  0
  8  9  4  0  0  0
  9 10  4  0  0  0
  9 12  1  0  0  0
 10 11  4  0  0  0
 12 13  1  0  0  0
  3 15  1  0  0  0
  7 16  1  0  0  0
  8 17  1  0  0  0
 10 18  1  0  0  0
 11 19  1  0  0  0
 12 20  1  0  0  0
 12 21  1  0  0  0
 13 22  1  0  0  0
 13 23  1  0  0  0
 13 24  1  0  0  0
 14 25  1  0  0  0
M  END
$$$$
