6ekn_ligand
  -I-interpret- 

 54 56  0  0  0  0  0  0  0  0999 V2000
    0.0670  -15.7390    3.9850 O   0  0  0  0  0
    0.3410  -14.3260    4.4130 S   0  0  0  0  0
   -0.7310  -13.7300    5.1380 O   0  0  0  0  0
    0.7640  -13.4930    3.0280 C   0  0  0  0  0
    0.8320  -12.0610    2.8950 C   0  0  0  0  0
    0.4920  -11.1400    4.0440 C   0  0  0  0  0
    1.7220  -10.5390    4.6060 C   0  0  0  0  0
    1.6930   -9.9200    5.6890 O   0  0  0  0  0
    2.7420  -10.6930    4.0000 O   0  0  0  0  0
   -0.4810  -10.0610    3.6190 C   0  0  0  0  0
   -1.8250  -10.6420    3.2410 C   0  0  0  0  0
   -2.8460   -9.6720    2.7080 C   0  0  0  0  0
   -2.5620   -8.8580    1.8350 O   0  0  0  0  0
   -4.0490   -9.6450    3.1230 O   0  0  0  0  0
    1.2600  -11.5010    1.6550 C   0  0  0  0  0
    1.6440  -12.3710    0.5530 C   0  0  0  0  0
    1.5900  -13.7130    0.7630 C   0  0  0  0  0
    1.1830  -14.2730    1.9550 C   0  0  0  0  0
    1.6620  -14.3200    5.3730 C   0  0  0  0  0
    1.7530  -13.8530    6.6500 C   0  0  0  0  0
    2.7770  -15.0640    4.9430 C   0  0  0  0  0
    3.9530  -15.2530    5.7170 C   0  0  0  0  0
    3.9670  -14.6750    7.0620 C   0  0  0  0  0
    2.8170  -14.0690    7.4740 C   0  0  0  0  0
    5.1190  -14.9710    7.7780 C   0  0  0  0  0
    4.8560  -15.2440    9.1280 C   0  0  0  0  0
    5.9310  -15.6670    9.9220 C   0  0  0  0  0
    7.2010  -15.7690    9.5000 C   0  0  0  0  0
    8.1020  -16.1940   10.4610 O   0  0  0  0  0
    9.2940  -16.4330    9.8760 C   0  0  0  0  0
    7.5560  -15.5170    8.1270 C   0  0  0  0  0
    6.4640  -15.0820    7.3530 C   0  0  0  0  0
    0.0083  -11.7362    4.8178 H   0  0  0  0  0
    0.7926   -9.9009    6.0214 H   0  0  0  0  0
   -0.0697   -9.5493    2.7489 H   0  0  0  0  0
   -0.6241   -9.3770    4.4555 H   0  0  0  0  0
   -2.2467  -11.0525    4.1584 H   0  0  0  0  0
   -1.6329  -11.3524    2.4369 H   0  0  0  0  0
   -4.1679  -10.3153    3.7998 H   0  0  0  0  0
    1.2996  -10.4187    1.5323 H   0  0  0  0  0
    1.9631  -11.9615   -0.4054 H   0  0  0  0  0
    1.8824  -14.3778   -0.0498 H   0  0  0  0  0
    1.1897  -15.3579    2.0598 H   0  0  0  0  0
    0.9194  -13.2678    7.0383 H   0  0  0  0  0
    2.7354  -15.5233    3.9554 H   0  0  0  0  0
    4.8081  -15.8046    5.3264 H   0  0  0  0  0
    2.7453  -13.7419    8.5113 H   0  0  0  0  0
    3.8547  -15.1317    9.5438 H   0  0  0  0  0
    5.7201  -15.9325   10.9579 H   0  0  0  0  0
    9.1761  -17.2060    9.1166 H   0  0  0  0  0
    9.6590  -15.5174    9.4107 H   0  0  0  0  0
   10.0065  -16.7680   10.6298 H   0  0  0  0  0
    8.5625  -15.6490    7.7300 H   0  0  0  0  0
    6.6760  -14.8021    6.3211 H   0  0  0  0  0
  1  2  2  0  0  0
  2  3  2  0  0  0
  2  4  1  0  0  0
  2 19  1  0  0  0
  4  5  4  0  0  0
  4 18  4  0  0  0
  5  6  1  0  0  0
  5 15  4  0  0  0
  6  7  1  0  0  0
  6 10  1  0  0  0
  7  8  1  0  0  0
  7  9  2  0  0  0
 10 11  1  0  0  0
 11 12  1  0  0  0
 12 13  2  0  0  0
 12 14  1  0  0  0
 15 16  4  0  0  0
 16 17  4  0  0  0
 17 18  4  0  0  0
 19 20  4  0  0  0
 19 21  4  0  0  0
 20 24  4  0  0  0
 21 22  4  0  0  0
 22 23  4  0  0  0
 23 24  4  0  0  0
 23 25  1  0  0  0
 25 26  4  0  0  0
 25 32  4  0  0  0
 26 27  4  0  0  0
 27 28  4  0  0  0
 28 29  1  0  0  0
 28 31  4  0  0  0
 29 30  1  0  0  0
 31 32  4  0  0  0
  6 33  1  0  0  0
  8 34  1  0  0  0
 10 35  1  0  0  0
 10 36  1  0  0  0
 11 37  1  0  0  0
 11 38  1  0  0  0
 14 39  1  0  0  0
 15 40  1  0  0  0
 16 41  1  0  0  0
 17 42  1  0  0  0
 18 43  1  0  0  0
 20 44  1  0  0  0
 21 45  1  0  0  0
 22 46  1  0  0  0
 24 47  1  0  0  0
 26 48  1  0  0  0
 27 49  1  0  0  0
 30 50  1  0  0  0
 30 51  1  0  0  0
 30 52  1  0  0  0
 31 53  1  0  0  0
 32 54  1  0  0  0
M  END
$$$$
