6quw_ligand
  -I-interpret- 

 37 39  0  0  0  0  0  0  0  0999 V2000
   -6.5300  -17.0560   28.1830 C   0  0  0  0  0
   -5.1450  -19.1090   27.6330 C   0  0  0  0  0
   -4.9670  -16.8680   25.0350 C   0  0  0  0  0
   -7.0480  -18.0650   25.1530 C   0  0  0  0  0
   -3.0890  -16.8950   28.1150 C   0  0  0  0  0
   -7.2420  -17.8190   23.8000 C   0  0  0  0  0
   -7.3700  -14.9060   27.1030 C   0  0  0  0  0
   -5.4660  -17.6650   27.2210 C   0  0  0  0  0
   -6.3950  -15.5250   28.1040 C   0  0  0  0  0
   -5.1490  -16.6230   23.6730 C   0  0  0  0  0
   -6.6500  -14.8730   29.4610 C   0  0  0  0  0
   -6.2970  -17.1150   23.0650 C   0  0  0  0  0
   -5.8920  -17.6050   25.7730 C   0  0  0  0  0
   -4.2970  -16.6160   27.2380 C   0  0  0  0  0
   -3.9060  -16.4610   25.8410 N   0  0  0  0  0
   -4.9460  -15.3090   27.6590 N   0  3  0  0  0
   -6.3669  -17.4028   29.2034 H   0  0  0  0  0
   -7.5330  -17.3676   27.8914 H   0  0  0  0  0
   -6.0315  -19.7290   27.5000 H   0  0  0  0  0
   -4.3358  -19.4916   27.0110 H   0  0  0  0  0
   -4.8406  -19.1278   28.6795 H   0  0  0  0  0
   -7.7963  -18.6144   25.7242 H   0  0  0  0  0
   -3.4072  -16.9765   29.1543 H   0  0  0  0  0
   -2.6225  -17.8291   27.8022 H   0  0  0  0  0
   -2.3733  -16.0789   28.0158 H   0  0  0  0  0
   -8.1453  -18.1822   23.3099 H   0  0  0  0  0
   -8.3927  -15.0948   27.4296 H   0  0  0  0  0
   -7.1977  -13.8312   27.0470 H   0  0  0  0  0
   -7.2126  -15.3521   26.1210 H   0  0  0  0  0
   -4.4102  -16.0608   23.1019 H   0  0  0  0  0
   -5.9849  -15.3123   30.2044 H   0  0  0  0  0
   -6.4603  -13.8020   29.3895 H   0  0  0  0  0
   -7.6863  -15.0409   29.7543 H   0  0  0  0  0
   -6.4578  -16.9468   22.0001 H   0  0  0  0  0
   -3.0063  -16.1129   25.5098 H   0  0  0  0  0
   -4.4198  -14.9231   28.4429 H   0  0  0  0  0
   -4.9428  -14.6733   26.8613 H   0  0  0  0  0
  8  1  1  0  0  0
  1  9  1  0  0  0
  8  2  1  0  0  0
  3 10  4  0  0  0
 13  3  4  0  0  0
  3 15  1  0  0  0
  4  6  4  0  0  0
 13  4  4  0  0  0
 14  5  1  0  0  0
  6 12  4  0  0  0
  9  7  1  0  0  0
  8 13  1  0  0  0
  8 14  1  0  0  0
  9 11  1  0  0  0
  9 16  1  0  0  0
 10 12  4  0  0  0
 14 15  1  0  0  0
 14 16  1  0  0  0
  1 17  1  0  0  0
  1 18  1  0  0  0
  2 19  1  0  0  0
  2 20  1  0  0  0
  2 21  1  0  0  0
  4 22  1  0  0  0
  5 23  1  0  0  0
  5 24  1  0  0  0
  5 25  1  0  0  0
  6 26  1  0  0  0
  7 27  1  0  0  0
  7 28  1  0  0  0
  7 29  1  0  0  0
 10 30  1  0  0  0
 11 31  1  0  0  0
 11 32  1  0  0  0
 11 33  1  0  0  0
 12 34  1  0  0  0
 15 35  1  0  0  0
 16 36  1  0  0  0
 16 37  1  0  0  0
M  END
$$$$
