1u59_ligand
  -I-interpret- 

 62 69  0  0  0  0  0  0  0  0999 V2000
   14.9460    2.1030   53.3350 C   0  0  0  0  0
   15.1960    1.2830   52.1980 C   0  0  0  0  0
   14.2640    1.2580   51.0790 C   0  0  0  0  0
   13.0810    2.0490   51.0900 C   0  0  0  0  0
   12.7910    2.9110   52.2610 C   0  0  0  0  0
   11.7100    3.8090   52.5710 N   0  0  0  0  0
   11.9810    4.3510   53.8330 C   0  0  0  0  0
   11.1950    5.3250   54.6270 C   0  0  0  0  0
    9.9760    5.9330   54.3140 N   0  0  0  0  0
    9.6460    6.7910   55.3940 C   0  0  0  0  0
    8.4340    7.6600   55.5150 C   0  0  0  0  0
    8.3910    8.4240   56.7300 C   0  0  0  0  0
    9.4080    8.3620   57.7380 C   0  0  0  0  0
   10.5770    7.5170   57.6210 C   0  0  0  0  0
   10.6790    6.7130   56.3930 C   0  0  0  0  0
   11.6520    5.7800   55.9050 C   0  0  0  0  0
   12.9240    5.2440   56.4070 C   0  0  0  0  0
   13.6680    5.5040   57.6540 C   0  0  0  0  0
   14.7940    4.7350   57.6030 N   0  0  0  0  0
   14.9220    3.9410   56.4180 C   0  0  0  0  0
   13.6730    4.2960   55.6400 C   0  0  0  0  0
   13.2150    3.8430   54.3560 C   0  0  0  0  0
   13.7300    2.9310   53.3740 C   0  0  0  0  0
   10.4830    4.1680   51.7400 C   0  0  0  0  0
   10.8130    5.4580   50.7940 C   0  0  0  0  0
    9.5820    6.4060   50.5740 C   0  0  0  0  0
    9.1140    6.8570   51.9850 C   0  0  0  0  0
    9.1070    5.7860   53.1290 C   0  0  0  0  0
    9.3440    4.4400   52.6750 O   0  0  0  0  0
   13.3300    6.2860   58.5780 O   0  0  0  0  0
   10.0190    7.5100   49.6830 N   0  3  0  0  0
    9.8970    7.1980   48.2210 C   0  0  0  0  0
   11.8280    6.2980   51.4740 O   0  0  0  0  0
   13.1780    6.2910   50.9420 C   0  0  0  0  0
    9.8400    3.0430   50.8720 C   0  0  0  0  0
   15.6484    2.1173   54.1683 H   0  0  0  0  0
   16.0948    0.6672   52.1647 H   0  0  0  0  0
   14.4761    0.6229   50.2189 H   0  0  0  0  0
   12.3937    2.0214   50.2444 H   0  0  0  0  0
    7.6567    7.7085   54.7524 H   0  0  0  0  0
    7.5405    9.0857   56.8943 H   0  0  0  0  0
    9.2962    8.9775   58.6306 H   0  0  0  0  0
   11.3393    7.4783   58.3991 H   0  0  0  0  0
   15.4892    4.7263   58.3494 H   0  0  0  0  0
   15.0020    2.8745   56.6285 H   0  0  0  0  0
   15.8388    4.1476   55.8659 H   0  0  0  0  0
   11.1354    5.0513   49.8355 H   0  0  0  0  0
    8.7303    5.9352   50.0830 H   0  0  0  0  0
    8.0740    7.1600   51.8636 H   0  0  0  0  0
    9.8305    7.6154   52.3007 H   0  0  0  0  0
    8.0874    5.9902   53.4559 H   0  0  0  0  0
   11.0061    7.6811   49.8747 H   0  0  0  0  0
    9.4151    8.3097   49.8733 H   0  0  0  0  0
   10.5114    6.3295   47.9836 H   0  0  0  0  0
    8.8553    6.9839   47.9822 H   0  0  0  0  0
   10.2360    8.0546   47.6385 H   0  0  0  0  0
   13.5758    5.2768   50.9773 H   0  0  0  0  0
   13.1622    6.6408   49.9098 H   0  0  0  0  0
   13.8065    6.9502   51.5407 H   0  0  0  0  0
    8.9177    3.4135   50.4245 H   0  0  0  0  0
   10.5353    2.7508   50.0851 H   0  0  0  0  0
    9.6191    2.1813   51.5019 H   0  0  0  0  0
  1  2  4  0  0  0
  1 23  4  0  0  0
  2  3  4  0  0  0
  3  4  4  0  0  0
  4  5  4  0  0  0
  5  6  4  0  0  0
  5 23  4  0  0  0
  6  7  4  0  0  0
  6 24  1  0  0  0
  7  8  4  0  0  0
  7 22  4  0  0  0
  8  9  4  0  0  0
  8 16  4  0  0  0
  9 10  4  0  0  0
  9 28  1  0  0  0
 10 11  4  0  0  0
 10 15  4  0  0  0
 11 12  4  0  0  0
 12 13  4  0  0  0
 13 14  4  0  0  0
 14 15  4  0  0  0
 15 16  4  0  0  0
 16 17  4  0  0  0
 17 18  1  0  0  0
 17 21  4  0  0  0
 18 19  1  0  0  0
 18 30  2  0  0  0
 19 20  1  0  0  0
 20 21  1  0  0  0
 21 22  4  0  0  0
 22 23  4  0  0  0
 24 25  1  0  0  0
 24 29  1  0  0  0
 24 35  1  0  0  0
 25 26  1  0  0  0
 25 33  1  0  0  0
 26 27  1  0  0  0
 26 31  1  0  0  0
 27 28  1  0  0  0
 28 29  1  0  0  0
 31 32  1  0  0  0
 33 34  1  0  0  0
  1 36  1  0  0  0
  2 37  1  0  0  0
  3 38  1  0  0  0
  4 39  1  0  0  0
 11 40  1  0  0  0
 12 41  1  0  0  0
 13 42  1  0  0  0
 14 43  1  0  0  0
 19 44  1  0  0  0
 20 45  1  0  0  0
 20 46  1  0  0  0
 25 47  1  0  0  0
 26 48  1  0  0  0
 27 49  1  0  0  0
 27 50  1  0  0  0
 28 51  1  0  0  0
 31 52  1  0  0  0
 31 53  1  0  0  0
 32 54  1  0  0  0
 32 55  1  0  0  0
 32 56  1  0  0  0
 34 57  1  0  0  0
 34 58  1  0  0  0
 34 59  1  0  0  0
 35 60  1  0  0  0
 35 61  1  0  0  0
 35 62  1  0  0  0
M  END
$$$$
