5u0y_ligand
  -I-interpret- 

 22 23  0  0  0  0  0  0  0  0999 V2000
    9.0020    0.0540   24.3400 C   0  0  0  0  0
    9.2580   -0.3890   25.6130 C   0  0  0  0  0
    9.8530    0.9450   23.7450 C   0  0  0  0  0
   11.0930    0.9060   25.6920 C   0  0  0  0  0
    7.4830   -1.3660   25.0100 C   0  0  0  0  0
    5.7430   -3.1310   22.2590 C   0  0  0  0  0
    5.2540   -2.1500   23.3610 C   0  0  0  0  0
   10.3120    0.0280   26.3320 N   0  0  0  0  0
    8.3100   -1.2770   26.0240 N   0  0  0  0  0
   10.9100    1.3730   24.4440 N   0  0  0  0  0
    7.8600   -0.5840   23.9560 N   0  0  0  0  0
   12.1970    1.3700   26.4140 N   0  0  0  0  0
    5.0190   -3.0640   21.2220 O   0  0  0  0  0
    6.7580   -3.8690   22.4250 O   0  0  0  0  0
    9.6440    1.4240   22.4970 O   0  0  0  0  0
    6.0530   -2.3720   24.9910 S   0  0  0  0  0
    4.1892   -2.3360   23.5016 H   0  0  0  0  0
    5.4996   -1.1437   23.0217 H   0  0  0  0  0
   11.5652    2.0412   24.0381 H   0  0  0  0  0
   12.3617    1.0369   27.3639 H   0  0  0  0  0
   12.8375    2.0415   25.9907 H   0  0  0  0  0
    4.3168   -2.4250   21.3641 H   0  0  0  0  0
  1  2  4  0  0  0
  1  3  1  0  0  0
 11  1  4  0  0  0
  2  8  1  0  0  0
  9  2  4  0  0  0
  3 10  1  0  0  0
  3 15  2  0  0  0
  8  4  2  0  0  0
 10  4  1  0  0  0
  4 12  1  0  0  0
  5  9  4  0  0  0
  5 11  4  0  0  0
 16  5  1  0  0  0
  7  6  1  0  0  0
  6 13  1  0  0  0
  6 14  2  0  0  0
  7 16  1  0  0  0
  7 17  1  0  0  0
  7 18  1  0  0  0
 10 19  1  0  0  0
 12 20  1  0  0  0
 12 21  1  0  0  0
 13 22  1  0  0  0
M  END
$$$$
