2ovq_ligand
  -I-interpret- 

180182  0  0  0  0  0  0  0  0999 V2000
   37.5240   64.9980   21.7850 N   0  3  0  0  0
   36.9580   63.8540   22.5750 C   0  0  0  0  0
   35.8050   63.1750   21.8320 C   0  0  0  0  0
   34.8860   63.8480   21.3520 O   0  0  0  0  0
   36.4440   64.3550   23.9360 C   0  0  0  0  0
   35.7730   63.3820   24.9250 C   0  0  0  0  0
   36.8160   62.5490   25.6660 C   0  0  0  0  0
   34.9530   64.1760   25.9340 C   0  0  0  0  0
   35.8250   61.8330   21.7380 N   0  0  0  0  0
   34.7100   61.1990   21.0260 C   0  0  0  0  0
   33.3440   61.7880   21.4120 C   0  0  0  0  0
   33.1070   62.1620   22.5680 O   0  0  0  0  0
   34.8560   59.7120   21.3840 C   0  0  0  0  0
   35.7420   59.7030   22.6140 C   0  0  0  0  0
   36.7100   60.8230   22.3410 C   0  0  0  0  0
   32.4610   61.8900   20.4250 N   0  0  0  0  0
   31.1190   62.4400   20.6220 C   0  0  0  0  0
   30.1970   61.4870   21.3990 C   0  0  0  0  0
   29.9950   60.3310   21.0110 O   0  0  0  0  0
   30.4950   62.7810   19.2600 C   0  0  0  0  0
   31.3300   63.6560   18.5160 O   0  0  0  0  0
   29.6350   61.9910   22.4940 N   0  0  0  0  0
   28.7600   61.1830   23.3220 C   0  0  0  0  0
   29.3390   61.0830   24.7220 C   0  0  0  0  0
   28.6550   60.6920   25.6700 O   0  0  0  0  0
   30.6200   61.4320   24.8370 N   0  0  0  0  0
   31.3370   61.4160   26.1120 C   0  0  0  0  0
   31.4460   62.8550   26.6300 C   0  0  0  0  0
   31.4080   63.8010   25.8420 O   0  0  0  0  0
   32.7270   60.8000   25.9220 C   0  0  0  0  0
   32.8700   59.2740   26.0570 C   0  0  0  0  0
   31.7880   58.5290   25.2950 C   0  0  0  0  0
   34.2480   58.8780   25.5560 C   0  0  0  0  0
   31.5850   63.0240   27.9430 N   0  0  0  0  0
   31.6520   64.3640   28.5220 C   0  0  0  0  0
   32.6460   64.5490   29.6790 C   0  0  0  0  0
   33.2570   63.5930   30.1550 O   0  0  0  0  0
   30.2580   64.7410   29.0170 C   0  0  0  0  0
   29.0730   64.1920   28.2110 C   0  0  0  0  0
   27.8400   64.0670   29.0950 C   0  0  0  0  0
   28.8000   65.0940   27.0260 C   0  0  0  0  0
   32.7990   65.8110   30.0820 N   0  0  0  0  0
   33.6120   66.3050   31.2230 C   0  0  0  0  0
   35.1050   66.3140   30.8550 C   0  0  0  0  0
   35.2920   66.8470   29.4410 C   0  0  0  0  0
   35.5450   65.0160   30.8110 O   0  0  0  0  0
   36.9040   64.7210   31.6430 P   0  0  0  0  0
   36.6380   65.1410   33.1260 O   0  0  0  0  0
   38.0790   65.5840   31.0150 O   0  0  0  0  0
   37.1420   63.1570   31.4630 O   0  0  0  0  0
   33.1920   67.7190   31.4320 C   0  0  0  0  0
   32.7230   68.3960   30.5180 O   0  0  0  0  0
   33.3550   68.1850   32.6770 N   0  0  0  0  0
   33.0080   69.5490   33.0560 C   0  0  0  0  0
   33.9490   70.4470   32.2760 C   0  0  0  0  0
   35.0580   70.0350   31.9150 O   0  0  0  0  0
   33.3130   69.5800   34.5530 C   0  0  0  0  0
   33.1300   68.1680   34.9740 C   0  0  0  0  0
   33.7710   67.4060   33.8570 C   0  0  0  0  0
   33.5090   71.6720   31.9740 N   0  0  0  0  0
   34.3740   72.5910   31.2330 C   0  0  0  0  0
   35.5410   72.9590   32.1430 C   0  0  0  0  0
   35.4100   72.9020   33.3650 O   0  0  0  0  0
   33.4490   73.7720   30.9430 C   0  0  0  0  0
   32.4720   73.7340   32.0980 C   0  0  0  0  0
   32.1840   72.2660   32.2240 C   0  0  0  0  0
   36.6820   73.3120   31.5650 N   0  0  0  0  0
   37.8380   73.6790   32.3760 C   0  0  0  0  0
   37.5240   74.8540   33.2970 C   0  0  0  0  0
   36.8320   75.7960   32.9170 O   0  0  0  0  0
   39.0250   74.0020   31.4760 C   0  0  0  0  0
   39.6770   72.7620   30.8890 C   0  0  0  0  0
   40.5920   72.0690   31.8830 C   0  0  0  0  0
   41.6450   72.5990   32.2430 O   0  0  0  0  0
   40.1940   70.8830   32.3380 N   0  0  0  0  0
   38.0350   74.7740   34.5180 N   0  0  0  0  0
   37.8130   75.7920   35.5420 C   0  0  0  0  0
   37.9600   75.0770   36.8980 C   0  0  0  0  0
   38.9030   74.4420   37.1430 O   0  0  0  0  0
   38.8490   76.9110   35.4690 C   0  0  0  0  0
   38.5190   78.0920   35.6160 O   0  0  0  0  0
   38.1810   73.1420   37.5300 P   0  0  0  0  0
   37.0890   72.9870   38.6650 O   0  0  0  0  0
   39.5600   72.4490   37.9420 O   0  0  0  0  0
   37.6200   72.6140   36.1060 O   0  0  0  0  0
   40.1020   76.5230   35.2500 N   0  0  0  0  0
   41.1840   77.4860   35.1610 C   0  0  0  0  0
   42.4060   76.9260   34.4510 C   0  0  0  0  0
   42.3350   75.7780   33.9530 O   0  0  0  0  0
   43.4360   77.6380   34.3870 O   0  0  0  0  0
   37.8613   64.6546   20.8857 H   0  0  0  0  0
   36.7969   65.6969   21.6324 H   0  0  0  0  0
   38.2970   65.4171   22.3019 H   0  0  0  0  0
   37.7585   63.1282   22.7184 H   0  0  0  0  0
   35.6564   65.0641   23.6810 H   0  0  0  0  0
   37.3420   64.6890   24.4557 H   0  0  0  0  0
   35.1278   62.7072   24.3625 H   0  0  0  0  0
   37.4728   63.2104   26.2310 H   0  0  0  0  0
   36.3136   61.8637   26.3487 H   0  0  0  0  0
   37.4036   61.9802   24.9454 H   0  0  0  0  0
   34.4537   63.4880   26.6163 H   0  0  0  0  0
   35.6129   64.8347   26.4986 H   0  0  0  0  0
   34.2078   64.7714   25.4065 H   0  0  0  0  0
   34.7475   61.3682   19.9499 H   0  0  0  0  0
   35.2871   59.1352   20.5657 H   0  0  0  0  0
   33.8914   59.2404   21.5718 H   0  0  0  0  0
   36.2374   58.7449   22.7712 H   0  0  0  0  0
   35.1827   59.8436   23.5389 H   0  0  0  0  0
   37.2329   61.1751   23.2302 H   0  0  0  0  0
   37.5434   60.5340   21.7006 H   0  0  0  0  0
   32.7286   61.5726   19.4933 H   0  0  0  0  0
   31.2230   63.3430   21.2235 H   0  0  0  0  0
   29.5382   63.2747   19.4300 H   0  0  0  0  0
   30.3682   61.8576   18.6949 H   0  0  0  0  0
   30.9159   63.8512   17.6722 H   0  0  0  0  0
   29.8219   62.9591   22.7552 H   0  0  0  0  0
   28.6727   60.1850   22.8926 H   0  0  0  0  0
   27.7742   61.6457   23.3685 H   0  0  0  0  0
   31.1229   61.7232   23.9987 H   0  0  0  0  0
   30.7969   60.8103   26.8397 H   0  0  0  0  0
   33.3387   61.2181   26.7215 H   0  0  0  0  0
   33.0029   61.0248   24.8917 H   0  0  0  0  0
   32.7538   58.9997   27.1055 H   0  0  0  0  0
   30.8101   58.8145   25.6828 H   0  0  0  0  0
   31.8493   58.7840   24.2370 H   0  0  0  0  0
   31.9307   57.4557   25.4202 H   0  0  0  0  0
   34.3521   59.1729   24.5118 H   0  0  0  0  0
   35.0087   59.3797   26.1541 H   0  0  0  0  0
   34.3687   57.7983   25.6437 H   0  0  0  0  0
   31.6455   62.2083   28.5524 H   0  0  0  0  0
   32.0181   65.0088   27.7231 H   0  0  0  0  0
   30.1953   65.8267   28.9440 H   0  0  0  0  0
   30.1669   64.3144   30.0159 H   0  0  0  0  0
   29.3221   63.1971   27.8419 H   0  0  0  0  0
   28.0534   63.3874   29.9200 H   0  0  0  0  0
   27.5766   65.0482   29.4898 H   0  0  0  0  0
   27.0103   63.6762   28.5060 H   0  0  0  0  0
   28.5624   66.0967   27.3814 H   0  0  0  0  0
   29.6838   65.1327   26.3893 H   0  0  0  0  0
   27.9579   64.6997   26.4573 H   0  0  0  0  0
   32.2997   66.5195   29.5443 H   0  0  0  0  0
   33.4685   65.6749   32.1008 H   0  0  0  0  0
   35.6383   66.9233   31.5847 H   0  0  0  0  0
   34.7538   66.2094   28.7396 H   0  0  0  0  0
   34.9024   67.8633   29.3827 H   0  0  0  0  0
   36.3532   66.8485   29.1920 H   0  0  0  0  0
   38.2252   65.3103   30.1065 H   0  0  0  0  0
   37.2990   62.9629   30.5360 H   0  0  0  0  0
   31.9831   69.8623   32.8571 H   0  0  0  0  0
   32.6635   70.2655   35.0973 H   0  0  0  0  0
   34.3144   69.9532   34.7674 H   0  0  0  0  0
   32.0839   67.9015   35.1251 H   0  0  0  0  0
   33.5748   67.9529   35.9456 H   0  0  0  0  0
   34.8529   67.3198   33.9581 H   0  0  0  0  0
   33.4637   66.3611   33.8149 H   0  0  0  0  0
   34.8086   72.2016   30.3124 H   0  0  0  0  0
   32.9581   73.6946   29.9729 H   0  0  0  0  0
   33.9838   74.7193   30.8743 H   0  0  0  0  0
   31.5783   74.3333   31.9241 H   0  0  0  0  0
   32.8711   74.1731   33.0123 H   0  0  0  0  0
   31.7623   71.9900   33.1905 H   0  0  0  0  0
   31.4164   71.9156   31.5340 H   0  0  0  0  0
   36.7514   73.3269   30.5475 H   0  0  0  0  0
   38.0935   72.8283   33.0078 H   0  0  0  0  0
   39.7717   74.5155   32.0816 H   0  0  0  0  0
   38.6592   74.6092   30.6480 H   0  0  0  0  0
   40.2773   73.0681   30.0322 H   0  0  0  0  0
   38.8877   72.0635   30.6110 H   0  0  0  0  0
   40.7684   70.3762   33.0116 H   0  0  0  0  0
   39.3147   70.4810   32.0131 H   0  0  0  0  0
   38.6094   73.9646   34.7530 H   0  0  0  0  0
   36.8318   76.2457   35.4024 H   0  0  0  0  0
   37.1456   74.3525   36.9036 H   0  0  0  0  0
   37.9946   75.8906   37.6226 H   0  0  0  0  0
   40.1977   72.5616   37.2333 H   0  0  0  0  0
   38.3001   72.7189   35.4366 H   0  0  0  0  0
   40.3065   75.5295   35.1425 H   0  0  0  0  0
   41.4787   77.7550   36.1754 H   0  0  0  0  0
   40.8258   78.3419   34.5889 H   0  0  0  0  0
   43.2739   78.4739   34.8304 H   0  0  0  0  0
  1  2  1  0  0  0
  2  3  1  0  0  0
  2  5  1  0  0  0
  3  4  2  0  0  0
  3  9  1  0  0  0
  5  6  1  0  0  0
  6  7  1  0  0  0
  6  8  1  0  0  0
  9 10  1  0  0  0
  9 15  1  0  0  0
 10 11  1  0  0  0
 10 13  1  0  0  0
 11 12  2  0  0  0
 11 16  1  0  0  0
 13 14  1  0  0  0
 14 15  1  0  0  0
 16 17  1  0  0  0
 17 18  1  0  0  0
 17 20  1  0  0  0
 18 19  2  0  0  0
 18 22  1  0  0  0
 20 21  1  0  0  0
 22 23  1  0  0  0
 23 24  1  0  0  0
 24 25  2  0  0  0
 24 26  1  0  0  0
 26 27  1  0  0  0
 27 28  1  0  0  0
 27 30  1  0  0  0
 28 29  2  0  0  0
 28 34  1  0  0  0
 30 31  1  0  0  0
 31 32  1  0  0  0
 31 33  1  0  0  0
 34 35  1  0  0  0
 35 36  1  0  0  0
 35 38  1  0  0  0
 36 37  2  0  0  0
 36 42  1  0  0  0
 38 39  1  0  0  0
 39 40  1  0  0  0
 39 41  1  0  0  0
 42 43  1  0  0  0
 43 44  1  0  0  0
 43 51  1  0  0  0
 44 45  1  0  0  0
 44 46  1  0  0  0
 46 47  1  0  0  0
 47 48  2  0  0  0
 47 49  1  0  0  0
 47 50  1  0  0  0
 51 52  2  0  0  0
 51 53  1  0  0  0
 53 54  1  0  0  0
 53 59  1  0  0  0
 54 55  1  0  0  0
 54 57  1  0  0  0
 55 56  2  0  0  0
 55 60  1  0  0  0
 57 58  1  0  0  0
 58 59  1  0  0  0
 60 61  1  0  0  0
 60 66  1  0  0  0
 61 62  1  0  0  0
 61 64  1  0  0  0
 62 63  2  0  0  0
 62 67  1  0  0  0
 64 65  1  0  0  0
 65 66  1  0  0  0
 67 68  1  0  0  0
 68 69  1  0  0  0
 68 71  1  0  0  0
 69 70  2  0  0  0
 69 76  1  0  0  0
 71 72  1  0  0  0
 72 73  1  0  0  0
 73 74  2  0  0  0
 73 75  1  0  0  0
 76 77  1  0  0  0
 77 78  1  0  0  0
 77 80  1  0  0  0
 78 79  1  0  0  0
 79 82  1  0  0  0
 80 81  2  0  0  0
 80 86  1  0  0  0
 82 83  2  0  0  0
 82 84  1  0  0  0
 82 85  1  0  0  0
 86 87  1  0  0  0
 87 88  1  0  0  0
 88 89  2  0  0  0
 88 90  1  0  0  0
  1 91  1  0  0  0
  1 92  1  0  0  0
  1 93  1  0  0  0
  2 94  1  0  0  0
  5 95  1  0  0  0
  5 96  1  0  0  0
  6 97  1  0  0  0
  7 98  1  0  0  0
  7 99  1  0  0  0
  7100  1  0  0  0
  8101  1  0  0  0
  8102  1  0  0  0
  8103  1  0  0  0
 10104  1  0  0  0
 13105  1  0  0  0
 13106  1  0  0  0
 14107  1  0  0  0
 14108  1  0  0  0
 15109  1  0  0  0
 15110  1  0  0  0
 16111  1  0  0  0
 17112  1  0  0  0
 20113  1  0  0  0
 20114  1  0  0  0
 21115  1  0  0  0
 22116  1  0  0  0
 23117  1  0  0  0
 23118  1  0  0  0
 26119  1  0  0  0
 27120  1  0  0  0
 30121  1  0  0  0
 30122  1  0  0  0
 31123  1  0  0  0
 32124  1  0  0  0
 32125  1  0  0  0
 32126  1  0  0  0
 33127  1  0  0  0
 33128  1  0  0  0
 33129  1  0  0  0
 34130  1  0  0  0
 35131  1  0  0  0
 38132  1  0  0  0
 38133  1  0  0  0
 39134  1  0  0  0
 40135  1  0  0  0
 40136  1  0  0  0
 40137  1  0  0  0
 41138  1  0  0  0
 41139  1  0  0  0
 41140  1  0  0  0
 42141  1  0  0  0
 43142  1  0  0  0
 44143  1  0  0  0
 45144  1  0  0  0
 45145  1  0  0  0
 45146  1  0  0  0
 49147  1  0  0  0
 50148  1  0  0  0
 54149  1  0  0  0
 57150  1  0  0  0
 57151  1  0  0  0
 58152  1  0  0  0
 58153  1  0  0  0
 59154  1  0  0  0
 59155  1  0  0  0
 61156  1  0  0  0
 64157  1  0  0  0
 64158  1  0  0  0
 65159  1  0  0  0
 65160  1  0  0  0
 66161  1  0  0  0
 66162  1  0  0  0
 67163  1  0  0  0
 68164  1  0  0  0
 71165  1  0  0  0
 71166  1  0  0  0
 72167  1  0  0  0
 72168  1  0  0  0
 75169  1  0  0  0
 75170  1  0  0  0
 76171  1  0  0  0
 77172  1  0  0  0
 78173  1  0  0  0
 78174  1  0  0  0
 84175  1  0  0  0
 85176  1  0  0  0
 86177  1  0  0  0
 87178  1  0  0  0
 87179  1  0  0  0
 90180  1  0  0  0
M  END
$$$$
