### 
### Created by X-TOOL on Mon Sep 10 21:12:56 2018
### 

@<TRIPOS>MOLECULE
2ovq_ligand
  175   177     1     0     0
SMALL
GAST_HUCK


@<TRIPOS>ATOM
      1 N          37.5240   64.9980   21.7850 N.4       1 LEU         0.2379
      2 CA         36.9580   63.8540   22.5750 C.3       1 LEU         0.0654
      3 C          35.8050   63.1750   21.8320 C.2       1 LEU         0.2292
      4 O          34.8860   63.8480   21.3520 O.2       1 LEU        -0.3905
      5 CB         36.4440   64.3550   23.9360 C.3       1 LEU         0.0102
      6 CG         35.7730   63.3820   24.9250 C.3       1 LEU        -0.0394
      7 CD1        36.8160   62.5490   25.6660 C.3       1 LEU        -0.0623
      8 CD2        34.9530   64.1760   25.9340 C.3       1 LEU        -0.0623
      9 N          35.8250   61.8330   21.7380 N.am      1 PRO        -0.2471
     10 CA         34.7100   61.1990   21.0260 C.3       1 PRO         0.1339
     11 C          33.3440   61.7880   21.4120 C.2       1 PRO         0.2042
     12 O          33.1070   62.1620   22.5680 O.2       1 PRO        -0.3944
     13 CB         34.8560   59.7120   21.3840 C.3       1 PRO        -0.0104
     14 CG         35.7420   59.7030   22.6140 C.3       1 PRO        -0.0281
     15 CD         36.7100   60.8230   22.3410 C.3       1 PRO         0.0371
     16 N          32.4610   61.8900   20.4250 N.am      1 SER        -0.2616
     17 CA         31.1190   62.4400   20.6220 C.3       1 SER         0.1539
     18 C          30.1970   61.4870   21.3990 C.2       1 SER         0.2060
     19 O          29.9950   60.3310   21.0110 O.2       1 SER        -0.3943
     20 CB         30.4950   62.7810   19.2600 C.3       1 SER         0.0843
     21 OG         31.3300   63.6560   18.5160 O.3       1 SER        -0.3903
     22 N          29.6350   61.9910   22.4940 N.am      1 GLY        -0.2663
     23 CA         28.7600   61.1830   23.3220 C.3       1 GLY         0.1201
     24 C          29.3390   61.0830   24.7220 C.2       1 GLY         0.2007
     25 O          28.6550   60.6920   25.6700 O.2       1 GLY        -0.3947
     26 N          30.6200   61.4320   24.8370 N.am      1 LEU        -0.2640
     27 CA         31.3370   61.4160   26.1120 C.3       1 LEU         0.1312
     28 C          31.4460   62.8550   26.6300 C.2       1 LEU         0.2039
     29 O          31.4080   63.8010   25.8420 O.2       1 LEU        -0.3944
     30 CB         32.7270   60.8000   25.9220 C.3       1 LEU        -0.0101
     31 CG         32.8700   59.2740   26.0570 C.3       1 LEU        -0.0425
     32 CD1        31.7880   58.5290   25.2950 C.3       1 LEU        -0.0625
     33 CD2        34.2480   58.8780   25.5560 C.3       1 LEU        -0.0625
     34 N          31.5850   63.0240   27.9430 N.am      1 LEU        -0.2637
     35 CA         31.6520   64.3640   28.5220 C.3       1 LEU         0.1312
     36 C          32.6460   64.5490   29.6790 C.2       1 LEU         0.2040
     37 O          33.2570   63.5930   30.1550 O.2       1 LEU        -0.3944
     38 CB         30.2580   64.7410   29.0170 C.3       1 LEU        -0.0101
     39 CG         29.0730   64.1920   28.2110 C.3       1 LEU        -0.0425
     40 CD1        27.8400   64.0670   29.0950 C.3       1 LEU        -0.0625
     41 CD2        28.8000   65.0940   27.0260 C.3       1 LEU        -0.0625
     42 N          32.7990   65.8110   30.0820 N.am      1 TPO        -0.2611
     43 CA         33.6120   66.3050   31.2230 C.3       1 TPO         0.1614
     44 CB         35.1050   66.3140   30.8550 C.3       1 TPO         0.1262
     45 CG2        35.2920   66.8470   29.4410 C.3       1 TPO        -0.0298
     46 OG1        35.5450   65.0160   30.8110 O.3       1 TPO        -0.2685
     47 P          36.9040   64.7210   31.6430 P.3       1 TPO         0.2014
     48 O1P        36.6380   65.1410   33.1260 O.co2     1 TPO        -0.5537
     49 O2P        38.0790   65.5840   31.0150 O.co2     1 TPO        -0.5537
     50 O3P        37.1420   63.1570   31.4630 O.co2     1 TPO        -0.5537
     51 C          33.1920   67.7190   31.4320 C.2       1 TPO         0.2093
     52 O          32.7230   68.3960   30.5180 O.2       1 TPO        -0.3941
     53 N          33.3550   68.1850   32.6770 N.am      1 PRO        -0.2497
     54 CA         33.0080   69.5490   33.0560 C.3       1 PRO         0.1340
     55 C          33.9490   70.4470   32.2760 C.2       1 PRO         0.2066
     56 O          35.0580   70.0350   31.9150 O.2       1 PRO        -0.3942
     57 CB         33.3130   69.5800   34.5530 C.3       1 PRO        -0.0104
     58 CG         33.1300   68.1680   34.9740 C.3       1 PRO        -0.0281
     59 CD         33.7710   67.4060   33.8570 C.3       1 PRO         0.0369
     60 N          33.5090   71.6720   31.9740 N.am      1 PRO        -0.2498
     61 CA         34.3740   72.5910   31.2330 C.3       1 PRO         0.1338
     62 C          35.5410   72.9590   32.1430 C.2       1 PRO         0.2041
     63 O          35.4100   72.9020   33.3650 O.2       1 PRO        -0.3944
     64 CB         33.4490   73.7720   30.9430 C.3       1 PRO        -0.0104
     65 CG         32.4720   73.7340   32.0980 C.3       1 PRO        -0.0281
     66 CD         32.1840   72.2660   32.2240 C.3       1 PRO         0.0369
     67 N          36.6820   73.3120   31.5650 N.am      1 GLN        -0.2636
     68 CA         37.8380   73.6790   32.3760 C.3       1 GLN         0.1330
     69 C          37.5240   74.8540   33.2970 C.2       1 GLN         0.2041
     70 O          36.8320   75.7960   32.9170 O.2       1 GLN        -0.3944
     71 CB         39.0250   74.0020   31.4760 C.3       1 GLN         0.0045
     72 CG         39.6770   72.7620   30.8890 C.3       1 GLN         0.0412
     73 CD         40.5920   72.0690   31.8830 C.2       1 GLN         0.1737
     74 OE1        41.6450   72.5990   32.2430 O.2       1 GLN        -0.3973
     75 NE2        40.1940   70.8830   32.3380 N.am      1 GLN        -0.3009
     76 N          38.0350   74.7740   34.5180 N.am      1 SEP        -0.2613
     77 CA         37.8130   75.7920   35.5420 C.3       1 SEP         0.1585
     78 CB         37.9600   75.0770   36.8980 C.3       1 SEP         0.1184
     79 OG         38.9030   74.4420   37.1430 O.3       1 SEP        -0.2714
     80 C          38.8490   76.9110   35.4690 C.2       1 SEP         0.2058
     81 O          38.5190   78.0920   35.6160 O.2       1 SEP        -0.3943
     82 P          38.1810   73.1420   37.5300 P.3       1 SEP         0.2010
     83 O1P        37.0890   72.9870   38.6650 O.co2     1 SEP        -0.5537
     84 O2P        39.5600   72.4490   37.9420 O.co2     1 SEP        -0.5537
     85 O3P        37.6200   72.6140   36.1060 O.co2     1 SEP        -0.5537
     86 N          40.1020   76.5230   35.2500 N.am      1 GLY        -0.2721
     87 CA         41.1840   77.4860   35.1610 C.3       1 GLY         0.0833
     88 C          42.4060   76.9260   34.4510 C.2       1 GLY         0.0570
     89 O          42.3350   75.7780   33.9530 O.co2     1 GLY        -0.5669
     90 OXT        43.4360   77.6380   34.3870 O.co2     1 GLY        -0.5669
     91 H1         38.2790   65.4218   22.3012 H         1 LEU         0.2015
     92 H2         36.8027   65.6829   21.6216 H         1 LEU         0.2015
     93 H3         37.8704   64.6576   20.9018 H         1 LEU         0.2015
     94 H4         37.7559   63.1154   22.7418 H         1 LEU         0.1098
     95 H5         35.7089   65.1453   23.7238 H         1 LEU         0.0348
     96 H6         37.3087   64.7894   24.4590 H         1 LEU         0.0348
     97 H7         35.1077   62.7071   24.3666 H         1 LEU         0.0299
     98 H8         36.3107   61.8649   26.3636 H         1 LEU         0.0232
     99 H9         37.4864   63.2161   26.2277 H         1 LEU         0.0232
    100 H10        37.4023   61.9658   24.9407 H         1 LEU         0.0232
    101 H11        34.2005   64.7773   25.4028 H         1 LEU         0.0232
    102 H12        35.6178   64.8413   26.5045 H         1 LEU         0.0232
    103 H13        34.4485   63.4828   26.6232 H         1 LEU         0.0232
    104 H14        34.8387   61.3317   19.9417 H         1 PRO         0.0802
    105 H15        35.3294   59.1583   20.5598 H         1 PRO         0.0313
    106 H16        33.8750   59.2679   21.6083 H         1 PRO         0.0313
    107 H17        36.2676   58.7421   22.7159 H         1 PRO         0.0287
    108 H18        35.1568   59.8992   23.5245 H         1 PRO         0.0287
    109 H19        37.1687   61.1933   23.2697 H         1 PRO         0.0524
    110 H20        37.4992   60.5107   21.6413 H         1 PRO         0.0524
    111 H21        32.7234   61.5788   19.5116 H         1 SER         0.1884
    112 H22        31.2145   63.3682   21.2045 H         1 SER         0.0823
    113 H23        29.5216   63.2667   19.4230 H         1 SER         0.0606
    114 H24        30.3502   61.8519   18.6892 H         1 SER         0.0606
    115 H25        30.9202   63.8491   17.6810 H         1 SER         0.2097
    116 H26        29.8182   62.9401   22.7500 H         1 GLY         0.1881
    117 H27        28.6721   60.1758   22.8887 H         1 GLY         0.0763
    118 H28        27.7652   61.6501   23.3691 H         1 GLY         0.0763
    119 H29        31.1130   61.7175   24.0152 H         1 LEU         0.1883
    120 H30        30.7750   60.8114   26.8390 H         1 LEU         0.0800
    121 H31        33.3916   61.2573   26.6698 H         1 LEU         0.0315
    122 H32        33.0691   61.0716   24.9125 H         1 LEU         0.0315
    123 H33        32.7867   59.0060   27.1206 H         1 LEU         0.0298
    124 H34        31.9309   57.4456   25.4206 H         1 LEU         0.0232
    125 H35        31.8488   58.7855   24.2271 H         1 LEU         0.0232
    126 H36        30.8006   58.8162   25.6854 H         1 LEU         0.0232
    127 H37        35.0154   59.4282   26.1203 H         1 LEU         0.0232
    128 H38        34.3336   59.1221   24.4869 H         1 LEU         0.0232
    129 H39        34.3931   57.7969   25.6980 H         1 LEU         0.0232
    130 H40        31.6443   62.2243   28.5404 H         1 LEU         0.1883
    131 H41        31.9468   65.0565   27.7198 H         1 LEU         0.0800
    132 H42        30.1866   65.8386   29.0104 H         1 LEU         0.0315
    133 H43        30.1591   64.3733   30.0490 H         1 LEU         0.0315
    134 H44        29.3352   63.1915   27.8366 H         1 LEU         0.0298
    135 H45        27.0019   63.6727   28.5016 H         1 LEU         0.0232
    136 H46        27.5730   65.0567   29.4940 H         1 LEU         0.0232
    137 H47        28.0540   63.3813   29.9280 H         1 LEU         0.0232
    138 H48        29.7049   65.1672   26.4048 H         1 LEU         0.0232
    139 H49        28.5193   66.0954   27.3844 H         1 LEU         0.0232
    140 H50        27.9776   64.6748   26.4278 H         1 LEU         0.0232
    141 H51        32.3095   66.5056   29.5548 H         1 TPO         0.1884
    142 H52        33.4394   65.6953   32.1221 H         1 TPO         0.0830
    143 H53        35.6774   66.9091   31.5818 H         1 TPO         0.0695
    144 H54        36.3626   66.8490   29.1885 H         1 TPO         0.0260
    145 H55        34.8992   67.8727   29.3808 H         1 TPO         0.0260
    146 H56        34.7494   66.2043   28.7321 H         1 TPO         0.0260
    147 H57        31.9568   69.7980   32.8488 H         1 PRO         0.0802
    148 H58        32.6127   70.2421   35.0832 H         1 PRO         0.0313
    149 H59        34.3446   69.9145   34.7371 H         1 PRO         0.0313
    150 H60        32.0631   67.9162   35.0648 H         1 PRO         0.0287
    151 H61        33.6361   67.9705   35.9305 H         1 PRO         0.0287
    152 H62        34.8660   67.3908   33.9603 H         1 PRO         0.0524
    153 H63        33.3929   66.3742   33.8085 H         1 PRO         0.0524
    154 H64        34.7486   72.1456   30.2996 H         1 PRO         0.0802
    155 H65        32.9299   73.6404   29.9822 H         1 PRO         0.0313
    156 H66        34.0091   74.7186   30.9306 H         1 PRO         0.0313
    157 H67        31.5583   74.3008   31.8659 H         1 PRO         0.0287
    158 H68        32.9264   74.1313   33.0176 H         1 PRO         0.0287
    159 H69        31.8170   72.0156   33.2303 H         1 PRO         0.0524
    160 H70        31.4502   71.9367   31.4736 H         1 PRO         0.0524
    161 H71        36.7500   73.3266   30.5674 H         1 GLN         0.1883
    162 H72        38.1047   72.8160   33.0037 H         1 GLN         0.0801
    163 H73        39.7758   74.5466   32.0674 H         1 GLN         0.0337
    164 H74        38.6760   74.6392   30.6501 H         1 GLN         0.0337
    165 H75        40.2679   73.0556   30.0089 H         1 GLN         0.0504
    166 H76        38.8887   72.0584   30.5833 H         1 GLN         0.0504
    167 H77        40.7595   70.3839   32.9946 H         1 GLN         0.1814
    168 H78        39.3295   70.4911   32.0232 H         1 GLN         0.1814
    169 H79        38.5982   73.9804   34.7484 H         1 SEP         0.1884
    170 H80        36.8045   76.2180   35.4353 H         1 SEP         0.0827
    171 H81        37.0964   74.4020   36.9904 H         1 SEP         0.0662
    172 H82        37.8997   75.8575   37.6708 H         1 SEP         0.0662
    173 H83        40.3025   75.5490   35.1446 H         1 GLY         0.1873
    174 H84        41.4741   77.7855   36.1789 H         1 GLY         0.0689
    175 H85        40.8273   78.3669   34.6072 H         1 GLY         0.0689
@<TRIPOS>BOND
     1    1    2 1  
     2    2    3 1  
     3    2    5 1  
     4    3    4 2  
     5    3    9 am 
     6    5    6 1  
     7    6    7 1  
     8    6    8 1  
     9    9   10 1  
    10    9   15 1  
    11   10   11 1  
    12   10   13 1  
    13   11   12 2  
    14   11   16 am 
    15   13   14 1  
    16   14   15 1  
    17   16   17 1  
    18   17   18 1  
    19   17   20 1  
    20   18   19 2  
    21   18   22 am 
    22   20   21 1  
    23   22   23 1  
    24   23   24 1  
    25   24   25 2  
    26   24   26 am 
    27   26   27 1  
    28   27   28 1  
    29   27   30 1  
    30   28   29 2  
    31   28   34 am 
    32   30   31 1  
    33   31   32 1  
    34   31   33 1  
    35   34   35 1  
    36   35   36 1  
    37   35   38 1  
    38   36   37 2  
    39   36   42 am 
    40   38   39 1  
    41   39   40 1  
    42   39   41 1  
    43   42   43 1  
    44   43   44 1  
    45   43   51 1  
    46   44   45 1  
    47   44   46 1  
    48   46   47 1  
    49   47   48 ar 
    50   47   49 ar 
    51   47   50 ar 
    52   51   52 2  
    53   51   53 am 
    54   53   54 1  
    55   53   59 1  
    56   54   55 1  
    57   54   57 1  
    58   55   56 2  
    59   55   60 am 
    60   57   58 1  
    61   58   59 1  
    62   60   61 1  
    63   60   66 1  
    64   61   62 1  
    65   61   64 1  
    66   62   63 2  
    67   62   67 am 
    68   64   65 1  
    69   65   66 1  
    70   67   68 1  
    71   68   69 1  
    72   68   71 1  
    73   69   70 2  
    74   69   76 am 
    75   71   72 1  
    76   72   73 1  
    77   73   74 2  
    78   73   75 am 
    79   76   77 1  
    80   77   78 1  
    81   77   80 1  
    82   78   79 1  
    83   79   82 1  
    84   80   81 2  
    85   80   86 am 
    86   82   83 ar 
    87   82   84 ar 
    88   82   85 ar 
    89   86   87 1  
    90   87   88 1  
    91   88   89 ar 
    92   88   90 ar 
    93    1   91 1  
    94    1   92 1  
    95    1   93 1  
    96    2   94 1  
    97    5   95 1  
    98    5   96 1  
    99    6   97 1  
   100    7   98 1  
   101    7   99 1  
   102    7  100 1  
   103    8  101 1  
   104    8  102 1  
   105    8  103 1  
   106   10  104 1  
   107   13  105 1  
   108   13  106 1  
   109   14  107 1  
   110   14  108 1  
   111   15  109 1  
   112   15  110 1  
   113   16  111 1  
   114   17  112 1  
   115   20  113 1  
   116   20  114 1  
   117   21  115 1  
   118   22  116 1  
   119   23  117 1  
   120   23  118 1  
   121   26  119 1  
   122   27  120 1  
   123   30  121 1  
   124   30  122 1  
   125   31  123 1  
   126   32  124 1  
   127   32  125 1  
   128   32  126 1  
   129   33  127 1  
   130   33  128 1  
   131   33  129 1  
   132   34  130 1  
   133   35  131 1  
   134   38  132 1  
   135   38  133 1  
   136   39  134 1  
   137   40  135 1  
   138   40  136 1  
   139   40  137 1  
   140   41  138 1  
   141   41  139 1  
   142   41  140 1  
   143   42  141 1  
   144   43  142 1  
   145   44  143 1  
   146   45  144 1  
   147   45  145 1  
   148   45  146 1  
   149   54  147 1  
   150   57  148 1  
   151   57  149 1  
   152   58  150 1  
   153   58  151 1  
   154   59  152 1  
   155   59  153 1  
   156   61  154 1  
   157   64  155 1  
   158   64  156 1  
   159   65  157 1  
   160   65  158 1  
   161   66  159 1  
   162   66  160 1  
   163   67  161 1  
   164   68  162 1  
   165   71  163 1  
   166   71  164 1  
   167   72  165 1  
   168   72  166 1  
   169   75  167 1  
   170   75  168 1  
   171   76  169 1  
   172   77  170 1  
   173   78  171 1  
   174   78  172 1  
   175   86  173 1  
   176   87  174 1  
   177   87  175 1  
@<TRIPOS>SUBSTRUCTURE
     1 LEU         1

