5dht_ligand
  -I-interpret- 

 57 60  0  0  0  0  0  0  0  0999 V2000
   11.3970  -19.5190  -44.7310 C   0  0  0  0  0
   11.3940  -19.1230  -46.0090 C   0  0  0  0  0
   12.5130  -19.1510  -46.7310 C   0  0  0  0  0
    9.4150  -18.9160  -45.2410 C   0  0  0  0  0
   13.6770  -19.5710  -46.2200 N   0  0  0  0  0
   12.5270  -19.9520  -44.1530 N   0  0  0  0  0
    9.7150  -21.3930  -48.5230 C   0  0  0  0  0
    9.9440  -22.1150  -47.3570 C   0  0  0  0  0
   11.6560  -22.7860  -46.9900 Br  0  0  0  0  0
    8.9030  -22.3400  -46.4630 C   0  0  0  0  0
    7.6340  -21.8420  -46.7350 C   0  0  0  0  0
    7.4050  -21.1210  -47.9010 C   0  0  0  0  0
    8.4460  -20.8960  -48.7940 C   0  0  0  0  0
    8.2170  -20.1740  -49.9600 C   0  0  0  0  0
    7.3960  -18.9250  -49.6340 C   0  0  0  0  0
    7.8050  -18.3970  -48.3250 N   0  0  0  0  0
    7.0120  -17.5910  -47.6050 C   0  0  0  0  0
    5.8940  -17.2260  -47.9650 O   0  0  0  0  0
    7.5970  -17.1360  -46.2660 C   0  0  0  0  0
    7.7040  -18.5660  -45.1290 S   0  0  0  0  0
   10.1560  -18.7460  -46.3280 N   0  0  0  0  0
   12.4110  -18.7380  -47.9910 N   0  0  0  0  0
   13.7140  -19.9910  -44.8900 C   0  0  0  0  0
   10.1610  -19.3890  -44.2530 N   0  0  0  0  0
    9.7080  -19.7120  -42.8820 C   0  0  0  0  0
    8.6440  -20.6720  -42.9420 O   0  0  0  0  0
    9.0720  -18.5010  -42.2190 C   0  0  0  0  0
   10.0290  -17.8690  -41.3570 O   0  0  0  0  0
    7.9450  -19.0870  -41.3830 C   0  0  0  0  0
    8.1990  -18.8360  -39.9930 O   0  0  0  0  0
    8.0240  -20.5820  -41.6510 C   0  0  0  0  0
    6.6100  -21.1630  -41.7210 C   0  0  0  0  0
    6.6810  -22.6310  -41.6970 N   0  0  0  0  0
    6.8240  -23.1320  -42.6890 N   0  0  0  0  0
    6.9660  -23.6330  -43.6800 N   0  0  0  0  0
   10.5307  -21.2169  -49.2243 H   0  0  0  0  0
    9.0820  -22.9067  -45.5492 H   0  0  0  0  0
    6.8182  -22.0170  -46.0336 H   0  0  0  0  0
    6.4094  -20.7322  -48.1150 H   0  0  0  0  0
    7.6688  -20.7940  -50.6693 H   0  0  0  0  0
    9.1706  -19.8779  -50.3970 H   0  0  0  0  0
    6.3374  -19.1833  -49.6067 H   0  0  0  0  0
    7.5663  -18.1684  -50.4000 H   0  0  0  0  0
    8.7200  -18.6515  -47.9530 H   0  0  0  0  0
    6.9536  -16.3722  -45.8293 H   0  0  0  0  0
    8.5934  -16.7240  -46.4262 H   0  0  0  0  0
   11.5109  -18.4235  -48.3533 H   0  0  0  0  0
   13.2329  -18.7357  -48.5951 H   0  0  0  0  0
   14.6427  -20.3398  -44.4383 H   0  0  0  0  0
   10.5829  -20.0661  -42.3367 H   0  0  0  0  0
    8.7263  -17.7566  -42.9362 H   0  0  0  0  0
    9.6258  -17.1045  -40.9391 H   0  0  0  0  0
    6.9710  -18.6626  -41.6266 H   0  0  0  0  0
    7.4867  -19.2065  -39.4667 H   0  0  0  0  0
    8.5698  -21.1245  -40.8791 H   0  0  0  0  0
    6.1291  -20.8378  -42.6435 H   0  0  0  0  0
    6.0311  -20.8135  -40.8661 H   0  0  0  0  0
  1  2  4  0  0  0
  1  6  4  0  0  0
 24  1  4  0  0  0
  2  3  4  0  0  0
 21  2  4  0  0  0
  3  5  4  0  0  0
  3 22  1  0  0  0
 20  4  1  0  0  0
  4 21  4  0  0  0
  4 24  4  0  0  0
 23  5  4  0  0  0
  6 23  4  0  0  0
  7  8  4  0  0  0
 13  7  4  0  0  0
  8  9  1  0  0  0
  8 10  4  0  0  0
 11 10  4  0  0  0
 12 11  4  0  0  0
 13 12  4  0  0  0
 14 13  1  0  0  0
 15 14  1  0  0  0
 16 15  1  0  0  0
 17 16  1  0  0  0
 17 18  2  0  0  0
 19 17  1  0  0  0
 19 20  1  0  0  0
 24 25  1  0  0  0
 25 26  1  0  0  0
 25 27  1  0  0  0
 26 31  1  0  0  0
 27 28  1  0  0  0
 27 29  1  0  0  0
 29 30  1  0  0  0
 29 31  1  0  0  0
 31 32  1  0  0  0
 32 33  1  0  0  0
 33 34  2  0  0  0
 34 35  3  0  0  0
  7 36  1  0  0  0
 10 37  1  0  0  0
 11 38  1  0  0  0
 12 39  1  0  0  0
 14 40  1  0  0  0
 14 41  1  0  0  0
 15 42  1  0  0  0
 15 43  1  0  0  0
 16 44  1  0  0  0
 19 45  1  0  0  0
 19 46  1  0  0  0
 22 47  1  0  0  0
 22 48  1  0  0  0
 23 49  1  0  0  0
 25 50  1  0  0  0
 27 51  1  0  0  0
 28 52  1  0  0  0
 29 53  1  0  0  0
 30 54  1  0  0  0
 31 55  1  0  0  0
 32 56  1  0  0  0
 32 57  1  0  0  0
M  END
$$$$
