3c1k_ligand
  -I-interpret- 

 72 74  0  0  0  0  0  0  0  0999 V2000
   22.0550  -15.9300   25.2250 C   0  0  0  0  0
   20.9050  -16.6570   25.5380 C   0  0  0  0  0
   19.7870  -16.0110   26.0790 C   0  0  0  0  0
   19.8140  -14.6410   26.3070 C   0  0  0  0  0
   20.9650  -13.9140   25.9970 C   0  0  0  0  0
   22.0830  -14.5580   25.4550 C   0  0  0  0  0
   18.5680  -16.8090   26.4500 C   0  0  0  0  0
   17.6640  -17.4340   25.0350 S   0  0  0  0  0
   17.0810  -16.1830   24.1820 N   0  0  0  0  0
   17.2530  -14.3100   22.6990 C   0  0  0  0  0
   18.0610  -13.6730   21.7500 N   0  0  0  0  0
   19.2830  -14.0830   21.3950 C   0  0  0  0  0
   19.8440  -15.2090   21.9830 C   0  0  0  0  0
   19.1220  -15.9120   22.9400 C   0  0  0  0  0
   16.1300  -13.8740   22.9590 O   0  0  0  0  0
   20.0230  -13.3520   20.3450 C   0  0  0  0  0
   17.5590  -12.4570   21.0970 C   0  0  0  0  0
   16.2630  -12.7260   20.4460 C   0  0  0  0  0
   17.8450  -15.4900   23.3030 C   0  0  0  0  0
   15.2740  -11.9350   20.8680 N   0  0  0  0  0
   12.8980  -12.2040   21.3910 C   0  0  0  0  0
   12.5000  -13.2800   22.0890 N   0  0  0  0  0
   11.5410  -12.8860   23.0000 C   0  0  0  0  0
   11.3760  -11.5340   22.8490 N   0  0  0  0  0
   12.1970  -11.1180   21.8500 C   0  0  0  0  0
   12.9950  -14.6520   21.9140 C   0  0  0  0  0
   12.3030  -15.3840   20.7710 C   0  0  0  0  0
   12.4130  -16.7130   20.8780 N   0  0  0  0  0
   11.8650  -17.5720   19.8440 C   0  0  0  0  0
   12.4320  -17.1660   18.4560 C   0  0  0  0  0
   10.3270  -17.4480   19.9020 C   0  0  0  0  0
   12.2480  -19.0410   20.0940 C   0  0  0  0  0
   11.7760  -14.8150   19.8290 O   0  0  0  0  0
   16.1320  -13.6700   19.6920 O   0  0  0  0  0
   16.5180  -18.1240   25.5420 O   0  0  0  0  0
   18.5610  -18.1490   24.1700 O   0  0  0  0  0
   12.2880   -9.7380   21.3810 C   0  0  0  0  0
   13.9330  -12.1840   20.3020 C   0  0  0  0  0
   22.9249  -16.4336   24.8034 H   0  0  0  0  0
   20.8775  -17.7321   25.3604 H   0  0  0  0  0
   18.9426  -14.1370   26.7250 H   0  0  0  0  0
   20.9929  -12.8395   26.1780 H   0  0  0  0  0
   22.9773  -13.9838   25.2126 H   0  0  0  0  0
   17.8986  -16.1475   27.0000 H   0  0  0  0  0
   18.9036  -17.6688   27.0299 H   0  0  0  0  0
   20.8426  -15.5388   21.6963 H   0  0  0  0  0
   19.7104  -15.8110   23.8519 H   0  0  0  0  0
   18.9665  -16.8946   22.4946 H   0  0  0  0  0
   20.9693  -12.9946   20.7511 H   0  0  0  0  0
   20.2156  -14.0204   19.5058 H   0  0  0  0  0
   19.4279  -12.5038   20.0065 H   0  0  0  0  0
   18.2769  -12.1348   20.3428 H   0  0  0  0  0
   17.4262  -11.6779   21.8477 H   0  0  0  0  0
   15.4369  -11.1936   21.5493 H   0  0  0  0  0
   11.0146  -13.5285   23.7058 H   0  0  0  0  0
   12.7938  -15.2008   22.8340 H   0  0  0  0  0
   14.0586  -14.5975   21.6819 H   0  0  0  0  0
   12.8818  -17.1226   21.6860 H   0  0  0  0  0
   12.1617  -16.1318   18.2429 H   0  0  0  0  0
   13.5175  -17.2646   18.4654 H   0  0  0  0  0
   12.0133  -17.8177   17.6892 H   0  0  0  0  0
    9.9752  -17.7626   20.8845 H   0  0  0  0  0
   10.0405  -16.4110   19.7270 H   0  0  0  0  0
    9.8834  -18.0832   19.1353 H   0  0  0  0  0
   13.3337  -19.1374   20.0927 H   0  0  0  0  0
   11.8550  -19.3583   21.0599 H   0  0  0  0  0
   11.8257  -19.6644   19.3059 H   0  0  0  0  0
   13.3066   -9.3753   21.5186 H   0  0  0  0  0
   12.0260   -9.6969   20.3238 H   0  0  0  0  0
   11.5990   -9.1154   21.9518 H   0  0  0  0  0
   13.9352  -13.1503   19.7976 H   0  0  0  0  0
   13.6918  -11.3870   19.5986 H   0  0  0  0  0
  2  1  4  0  0  0
  1  6  4  0  0  0
  3  2  4  0  0  0
  3  4  4  0  0  0
  7  3  1  0  0  0
  4  5  4  0  0  0
  5  6  4  0  0  0
  8  7  1  0  0  0
  9  8  1  0  0  0
  8 35  2  0  0  0
  8 36  2  0  0  0
 19  9  2  0  0  0
 11 10  1  0  0  0
 10 15  2  0  0  0
 10 19  1  0  0  0
 11 12  1  0  0  0
 17 11  1  0  0  0
 12 13  2  0  0  0
 12 16  1  0  0  0
 13 14  1  0  0  0
 19 14  1  0  0  0
 18 17  1  0  0  0
 20 18  1  0  0  0
 18 34  2  0  0  0
 38 20  1  0  0  0
 21 22  4  0  0  0
 21 25  4  0  0  0
 21 38  1  0  0  0
 22 23  4  0  0  0
 22 26  1  0  0  0
 23 24  4  0  0  0
 24 25  4  0  0  0
 25 37  1  0  0  0
 26 27  1  0  0  0
 27 28  1  0  0  0
 27 33  2  0  0  0
 28 29  1  0  0  0
 29 30  1  0  0  0
 29 31  1  0  0  0
 29 32  1  0  0  0
  1 39  1  0  0  0
  2 40  1  0  0  0
  4 41  1  0  0  0
  5 42  1  0  0  0
  6 43  1  0  0  0
  7 44  1  0  0  0
  7 45  1  0  0  0
 13 46  1  0  0  0
 14 47  1  0  0  0
 14 48  1  0  0  0
 16 49  1  0  0  0
 16 50  1  0  0  0
 16 51  1  0  0  0
 17 52  1  0  0  0
 17 53  1  0  0  0
 20 54  1  0  0  0
 23 55  1  0  0  0
 26 56  1  0  0  0
 26 57  1  0  0  0
 28 58  1  0  0  0
 30 59  1  0  0  0
 30 60  1  0  0  0
 30 61  1  0  0  0
 31 62  1  0  0  0
 31 63  1  0  0  0
 31 64  1  0  0  0
 32 65  1  0  0  0
 32 66  1  0  0  0
 32 67  1  0  0  0
 37 68  1  0  0  0
 37 69  1  0  0  0
 37 70  1  0  0  0
 38 71  1  0  0  0
 38 72  1  0  0  0
M  END
$$$$
