5j58_ligand
  -I-interpret- 

 44 47  0  0  0  0  0  0  0  0999 V2000
  128.3700  123.6780   -7.2070 Cl  0  0  0  0  0
  127.4900  122.1750   -7.2520 C   0  0  0  0  0
  126.1120  122.2070   -7.2000 C   0  0  0  0  0
  125.4470  120.9990   -7.2370 C   0  0  0  0  0
  123.7060  120.9920   -7.1740 Cl  0  0  0  0  0
  128.1920  120.9920   -7.3380 C   0  0  0  0  0
  127.5050  119.7850   -7.3740 C   0  0  0  0  0
  126.1170  119.7970   -7.3230 C   0  0  0  0  0
  128.2560  118.4800   -7.4680 C   0  0  0  0  0
  128.3270  117.9830   -8.8470 N   0  3  0  0  0
  129.4460  118.5520   -9.6210 C   0  0  0  0  0
  129.4420  117.8600  -10.9730 C   0  0  0  0  0
  130.5520  118.3430  -11.7950 N   0  0  0  0  0
  131.8580  118.0770  -11.1870 C   0  0  0  0  0
  131.9400  118.7060   -9.8150 C   0  0  0  0  0
  130.7720  118.2580   -8.9450 C   0  0  0  0  0
  130.3830  119.4190  -12.5970 C   0  0  0  0  0
  129.1920  120.0390  -12.7950 N   0  0  0  0  0
  129.4220  121.0860  -13.6700 C   0  0  0  0  0
  130.7680  121.0420  -13.9600 C   0  0  0  0  0
  131.3480  119.9940  -13.2800 N   0  0  0  0  0
  128.6110  122.0600  -14.2380 C   0  0  0  0  0
  129.2000  122.9720  -15.0950 C   0  0  0  0  0
  130.5590  122.8430  -15.3220 C   0  0  0  0  0
  131.3520  121.9200  -14.7910 N   0  0  0  0  0
  131.3430  123.9670  -16.3930 Cl  0  0  0  0  0
  125.5697  123.1501   -7.1323 H   0  0  0  0  0
  129.2812  121.0034   -7.3776 H   0  0  0  0  0
  125.5600  118.8605   -7.3508 H   0  0  0  0  0
  127.7287  117.7398   -6.8662 H   0  0  0  0  0
  129.2732  118.6464   -7.1135 H   0  0  0  0  0
  127.4620  118.2533   -9.3150 H   0  0  0  0  0
  128.4674  116.9737   -8.8021 H   0  0  0  0  0
  129.3285  119.6324   -9.7047 H   0  0  0  0  0
  128.5025  118.0776  -11.4810 H   0  0  0  0  0
  129.5518  116.7860  -10.8230 H   0  0  0  0  0
  132.6369  118.5030  -11.8194 H   0  0  0  0  0
  131.9918  116.9995  -11.0916 H   0  0  0  0  0
  131.9035  119.7901   -9.9221 H   0  0  0  0  0
  132.8712  118.3960   -9.3408 H   0  0  0  0  0
  130.8502  117.1832   -8.7812 H   0  0  0  0  0
  130.8110  118.8011   -8.0007 H   0  0  0  0  0
  127.5448  122.1043  -14.0156 H   0  0  0  0  0
  128.6175  123.7602  -15.5721 H   0  0  0  0  0
  1  2  1  0  0  0
  2  3  4  0  0  0
  2  6  4  0  0  0
  3  4  4  0  0  0
  4  5  1  0  0  0
  4  8  4  0  0  0
  6  7  4  0  0  0
  7  8  4  0  0  0
  7  9  1  0  0  0
  9 10  1  0  0  0
 10 11  1  0  0  0
 11 12  1  0  0  0
 11 16  1  0  0  0
 12 13  1  0  0  0
 13 14  1  0  0  0
 13 17  1  0  0  0
 14 15  1  0  0  0
 15 16  1  0  0  0
 17 18  4  0  0  0
 17 21  4  0  0  0
 18 19  4  0  0  0
 19 20  4  0  0  0
 19 22  4  0  0  0
 20 21  4  0  0  0
 20 25  4  0  0  0
 22 23  4  0  0  0
 23 24  4  0  0  0
 24 25  4  0  0  0
 24 26  1  0  0  0
  3 27  1  0  0  0
  6 28  1  0  0  0
  8 29  1  0  0  0
  9 30  1  0  0  0
  9 31  1  0  0  0
 10 32  1  0  0  0
 10 33  1  0  0  0
 11 34  1  0  0  0
 12 35  1  0  0  0
 12 36  1  0  0  0
 14 37  1  0  0  0
 14 38  1  0  0  0
 15 39  1  0  0  0
 15 40  1  0  0  0
 16 41  1  0  0  0
 16 42  1  0  0  0
 22 43  1  0  0  0
 23 44  1  0  0  0
M  END
$$$$
