6axk_ligand
  -I-interpret- 

154156  0  0  0  0  0  0  0  0999 V2000
  -15.0570    1.7250  -40.3390 C   0  0  0  0  0
  -16.1350    1.3500  -40.7940 O   0  0  0  0  0
  -14.8380    1.8460  -38.8610 C   0  0  0  0  0
  -14.0340    2.0030  -41.1480 N   0  0  0  0  0
  -12.7180    2.4620  -40.7140 C   0  0  0  0  0
  -12.6360    3.9900  -40.7630 C   0  0  0  0  0
  -12.6740    4.5710  -41.8460 O   0  0  0  0  0
  -11.6320    1.8540  -41.5980 C   0  0  0  0  0
  -10.2370    2.2320  -41.1470 C   0  0  0  0  0
  -10.0320    2.6440  -40.0080 O   0  0  0  0  0
   -9.2680    2.0900  -42.0410 N   0  0  0  0  0
  -12.5110    4.6510  -39.6080 N   0  0  0  0  0
  -12.4510    6.1180  -39.6070 C   0  0  0  0  0
  -11.0760    6.6890  -39.9210 C   0  0  0  0  0
  -10.9420    7.9160  -39.9990 O   0  0  0  0  0
  -12.8800    6.4720  -38.1750 C   0  0  0  0  0
  -12.5310    5.2700  -37.3460 C   0  0  0  0  0
  -12.2420    4.1090  -38.2650 C   0  0  0  0  0
  -10.0610    5.8470  -40.1130 N   0  0  0  0  0
   -8.7080    6.3000  -40.4060 C   0  0  0  0  0
   -8.3510    6.1650  -41.8820 C   0  0  0  0  0
   -7.1860    6.3470  -42.2480 O   0  0  0  0  0
   -7.6990    5.5270  -39.5540 C   0  0  0  0  0
   -6.2900    6.0840  -39.6690 C   0  0  0  0  0
   -6.0980    7.2920  -39.8130 O   0  0  0  0  0
   -5.2990    5.2020  -39.6190 N   0  0  0  0  0
   -9.3170    5.8530  -42.7360 N   0  0  0  0  0
   -9.0650    5.7640  -44.1650 C   0  0  0  0  0
   -9.1730    7.1440  -44.8030 C   0  0  0  0  0
   -9.8860    8.0230  -44.3110 O   0  0  0  0  0
  -10.0450    4.7950  -44.8300 C   0  0  0  0  0
   -8.4490    7.3270  -45.9020 N   0  0  0  0  0
   -8.4400    8.5980  -46.6070 C   0  0  0  0  0
   -9.8730    9.0220  -46.9360 C   0  0  0  0  0
  -10.5640    8.3110  -47.6820 O   0  0  0  0  0
   -7.6200    8.4880  -47.8890 C   0  0  0  0  0
   -7.4300    9.8260  -48.5750 C   0  0  0  0  0
   -8.2430   10.7390  -48.4210 O   0  0  0  0  0
   -6.3490    9.9500  -49.3360 N   0  0  0  0  0
  -10.3540   10.1580  -46.4090 N   0  0  0  0  0
  -11.7510   10.5450  -46.6510 C   0  0  0  0  0
  -11.9460   11.4840  -47.8330 C   0  0  0  0  0
  -12.9970   12.1250  -47.9440 O   0  0  0  0  0
  -12.1410   11.2280  -45.3360 C   0  0  0  0  0
  -10.8680   11.8690  -44.8790 C   0  0  0  0  0
   -9.7390   10.9780  -45.3480 C   0  0  0  0  0
  -10.9650   11.5680  -48.7270 N   0  0  0  0  0
  -10.9990   12.5200  -49.8260 C   0  0  0  0  0
  -11.0710   11.7880  -51.1600 C   0  0  0  0  0
  -10.9230   10.5660  -51.2400 O   0  0  0  0  0
   -9.7720   13.4420  -49.7960 C   0  0  0  0  0
   -9.7540   14.3540  -48.5860 C   0  0  0  0  0
  -10.7800   14.5740  -47.9440 O   0  0  0  0  0
   -8.5860   14.9000  -48.2750 N   0  0  0  0  0
  -11.3090   12.5650  -52.2180 N   0  0  0  0  0
  -11.3470   12.0120  -53.5650 C   0  0  0  0  0
   -9.9510   11.7910  -54.1320 C   0  0  0  0  0
   -9.7680   10.9110  -54.9800 O   0  0  0  0  0
  -12.1390   12.9380  -54.4900 C   0  0  0  0  0
   -8.9700   12.5650  -53.6870 N   0  0  0  0  0
   -7.6130   12.5110  -54.2050 C   0  0  0  0  0
   -6.6160   12.4720  -53.0590 C   0  0  0  0  0
   -6.9380   12.8620  -51.9310 O   0  0  0  0  0
   -7.3110   13.7280  -55.0910 C   0  0  0  0  0
   -8.3070   13.8920  -56.2160 C   0  0  0  0  0
   -9.0570   14.8670  -56.2590 O   0  0  0  0  0
   -8.3200   12.9370  -57.1360 N   0  0  0  0  0
   -5.3940   12.0050  -53.3120 N   0  0  0  0  0
   -4.3240   12.1640  -52.3220 C   0  0  0  0  0
   -3.8690   13.6150  -52.2440 C   0  0  0  0  0
   -4.2190   14.4560  -53.0740 O   0  0  0  0  0
   -3.2020   11.2550  -52.8400 C   0  0  0  0  0
   -3.8390   10.3780  -53.8720 C   0  0  0  0  0
   -4.9640   11.1720  -54.4480 C   0  0  0  0  0
   -3.0680   13.9010  -51.2220 N   0  0  0  0  0
   -2.5220   15.2410  -51.0380 C   0  0  0  0  0
   -1.1520   15.3600  -51.6980 C   0  0  0  0  0
   -1.0110   15.9860  -52.7480 O   0  0  0  0  0
   -2.4220   15.5860  -49.5510 C   0  0  0  0  0
   -3.7800   15.7820  -48.9060 C   0  0  0  0  0
   -4.3050   14.8830  -48.2480 O   0  0  0  0  0
   -4.3610   16.9620  -49.0970 N   0  0  0  0  0
   -0.1620   14.8320  -51.1930 O   0  0  0  0  0
  -15.5490    2.5610  -38.4470 H   0  0  0  0  0
  -14.9848    0.8729  -38.3924 H   0  0  0  0  0
  -13.8216    2.1918  -38.6727 H   0  0  0  0  0
  -14.1830    1.8855  -42.1502 H   0  0  0  0  0
  -12.5632    2.1386  -39.6846 H   0  0  0  0  0
  -11.7719    2.2326  -42.6105 H   0  0  0  0  0
  -11.7210    0.7691  -41.5414 H   0  0  0  0  0
   -8.3072    2.3266  -41.7936 H   0  0  0  0  0
   -9.4835    1.7442  -42.9761 H   0  0  0  0  0
  -13.0804    6.5424  -40.3892 H   0  0  0  0  0
  -13.9444    6.7004  -38.1208 H   0  0  0  0  0
  -12.3734    7.3675  -37.8150 H   0  0  0  0  0
  -13.3645    5.0211  -36.6891 H   0  0  0  0  0
  -11.6529    5.4850  -36.7370 H   0  0  0  0  0
  -11.2211    3.7414  -38.1619 H   0  0  0  0  0
  -12.8551    3.2367  -38.0383 H   0  0  0  0  0
  -10.2389    4.8445  -40.0523 H   0  0  0  0  0
   -8.6666    7.3610  -40.1595 H   0  0  0  0  0
   -7.6821    4.4958  -39.9068 H   0  0  0  0  0
   -8.0079    5.6080  -38.5118 H   0  0  0  0  0
   -4.3321    5.5161  -39.7011 H   0  0  0  0  0
   -5.5045    4.2102  -39.4984 H   0  0  0  0  0
  -10.2565    5.6717  -42.3825 H   0  0  0  0  0
   -8.0545    5.3832  -44.3133 H   0  0  0  0  0
   -9.9297    3.8045  -44.3898 H   0  0  0  0  0
  -11.0646    5.1471  -44.6735 H   0  0  0  0  0
   -9.8363    4.7456  -45.8987 H   0  0  0  0  0
   -7.8853    6.5560  -46.2600 H   0  0  0  0  0
   -7.9838    9.3516  -45.9651 H   0  0  0  0  0
   -8.1559    7.8321  -48.5751 H   0  0  0  0  0
   -6.6349    8.1030  -47.6254 H   0  0  0  0  0
   -6.1651   10.8279  -49.8216 H   0  0  0  0  0
   -5.7024    9.1673  -49.4349 H   0  0  0  0  0
  -12.3633    9.6832  -46.9166 H   0  0  0  0  0
  -12.5391   10.5252  -44.6041 H   0  0  0  0  0
  -12.9474   11.9499  -45.4652 H   0  0  0  0  0
  -10.8542   11.9745  -43.7942 H   0  0  0  0  0
  -10.7682   12.8723  -45.2931 H   0  0  0  0  0
   -8.8830   11.5484  -45.7085 H   0  0  0  0  0
   -9.3271   10.3714  -44.5415 H   0  0  0  0  0
  -10.1626   10.9444  -48.6391 H   0  0  0  0  0
  -11.8914   13.1351  -49.7103 H   0  0  0  0  0
   -9.8032   14.0692  -50.6869 H   0  0  0  0  0
   -8.8825   12.8135  -49.7542 H   0  0  0  0  0
   -8.5141   15.5298  -47.4759 H   0  0  0  0  0
   -7.7597   14.6901  -48.8349 H   0  0  0  0  0
  -11.4671   13.5634  -52.0813 H   0  0  0  0  0
  -11.8385   11.0410  -53.5046 H   0  0  0  0  0
  -13.1574   13.0396  -54.1150 H   0  0  0  0  0
  -11.6612   13.9173  -54.5176 H   0  0  0  0  0
  -12.1607   12.5145  -55.4941 H   0  0  0  0  0
   -9.1784   13.2318  -52.9438 H   0  0  0  0  0
   -7.5221   11.6059  -54.8055 H   0  0  0  0  0
   -6.3260   13.5829  -55.5346 H   0  0  0  0  0
   -7.3634   14.6189  -54.4651 H   0  0  0  0  0
   -8.9702   12.9929  -57.9199 H   0  0  0  0  0
   -7.6798   12.1466  -57.0597 H   0  0  0  0  0
   -4.6394   11.8995  -51.3127 H   0  0  0  0  0
   -2.7614   10.6674  -52.0346 H   0  0  0  0  0
   -2.3815   11.8355  -53.2618 H   0  0  0  0  0
   -4.1970    9.4469  -53.4327 H   0  0  0  0  0
   -3.1234   10.0905  -54.6423 H   0  0  0  0  0
   -4.6660   11.7606  -55.3157 H   0  0  0  0  0
   -5.7654   10.5468  -54.8417 H   0  0  0  0  0
   -2.8305   13.1685  -50.5531 H   0  0  0  0  0
   -3.2004   15.9492  -51.5137 H   0  0  0  0  0
   -1.8593   16.3406  -53.0242 H   0  0  0  0  0
   -1.8690   16.5209  -49.4598 H   0  0  0  0  0
   -1.9274   14.7560  -49.0464 H   0  0  0  0  0
   -5.2776   17.1508  -48.6913 H   0  0  0  0  0
   -3.8903   17.6788  -49.6493 H   0  0  0  0  0
  1  2  2  0  0  0
  1  3  1  0  0  0
  1  4  1  0  0  0
  4  5  1  0  0  0
  5  6  1  0  0  0
  5  8  1  0  0  0
  6  7  2  0  0  0
  6 12  1  0  0  0
  8  9  1  0  0  0
  9 10  2  0  0  0
  9 11  1  0  0  0
 12 13  1  0  0  0
 12 18  1  0  0  0
 13 14  1  0  0  0
 13 16  1  0  0  0
 14 15  2  0  0  0
 14 19  1  0  0  0
 16 17  1  0  0  0
 17 18  1  0  0  0
 19 20  1  0  0  0
 20 21  1  0  0  0
 20 23  1  0  0  0
 21 22  2  0  0  0
 21 27  1  0  0  0
 23 24  1  0  0  0
 24 25  2  0  0  0
 24 26  1  0  0  0
 27 28  1  0  0  0
 28 29  1  0  0  0
 28 31  1  0  0  0
 29 30  2  0  0  0
 29 32  1  0  0  0
 32 33  1  0  0  0
 33 34  1  0  0  0
 33 36  1  0  0  0
 34 35  2  0  0  0
 34 40  1  0  0  0
 36 37  1  0  0  0
 37 38  2  0  0  0
 37 39  1  0  0  0
 40 41  1  0  0  0
 40 46  1  0  0  0
 41 42  1  0  0  0
 41 44  1  0  0  0
 42 43  2  0  0  0
 42 47  1  0  0  0
 44 45  1  0  0  0
 45 46  1  0  0  0
 47 48  1  0  0  0
 48 49  1  0  0  0
 48 51  1  0  0  0
 49 50  2  0  0  0
 49 55  1  0  0  0
 51 52  1  0  0  0
 52 53  2  0  0  0
 52 54  1  0  0  0
 55 56  1  0  0  0
 56 57  1  0  0  0
 56 59  1  0  0  0
 57 58  2  0  0  0
 57 60  1  0  0  0
 60 61  1  0  0  0
 61 62  1  0  0  0
 61 64  1  0  0  0
 62 63  2  0  0  0
 62 68  1  0  0  0
 64 65  1  0  0  0
 65 66  2  0  0  0
 65 67  1  0  0  0
 68 69  1  0  0  0
 68 74  1  0  0  0
 69 70  1  0  0  0
 69 72  1  0  0  0
 70 71  2  0  0  0
 70 75  1  0  0  0
 72 73  1  0  0  0
 73 74  1  0  0  0
 75 76  1  0  0  0
 76 77  1  0  0  0
 76 79  1  0  0  0
 77 78  1  0  0  0
 77 83  2  0  0  0
 79 80  1  0  0  0
 80 81  2  0  0  0
 80 82  1  0  0  0
  3 84  1  0  0  0
  3 85  1  0  0  0
  3 86  1  0  0  0
  4 87  1  0  0  0
  5 88  1  0  0  0
  8 89  1  0  0  0
  8 90  1  0  0  0
 11 91  1  0  0  0
 11 92  1  0  0  0
 13 93  1  0  0  0
 16 94  1  0  0  0
 16 95  1  0  0  0
 17 96  1  0  0  0
 17 97  1  0  0  0
 18 98  1  0  0  0
 18 99  1  0  0  0
 19100  1  0  0  0
 20101  1  0  0  0
 23102  1  0  0  0
 23103  1  0  0  0
 26104  1  0  0  0
 26105  1  0  0  0
 27106  1  0  0  0
 28107  1  0  0  0
 31108  1  0  0  0
 31109  1  0  0  0
 31110  1  0  0  0
 32111  1  0  0  0
 33112  1  0  0  0
 36113  1  0  0  0
 36114  1  0  0  0
 39115  1  0  0  0
 39116  1  0  0  0
 41117  1  0  0  0
 44118  1  0  0  0
 44119  1  0  0  0
 45120  1  0  0  0
 45121  1  0  0  0
 46122  1  0  0  0
 46123  1  0  0  0
 47124  1  0  0  0
 48125  1  0  0  0
 51126  1  0  0  0
 51127  1  0  0  0
 54128  1  0  0  0
 54129  1  0  0  0
 55130  1  0  0  0
 56131  1  0  0  0
 59132  1  0  0  0
 59133  1  0  0  0
 59134  1  0  0  0
 60135  1  0  0  0
 61136  1  0  0  0
 64137  1  0  0  0
 64138  1  0  0  0
 67139  1  0  0  0
 67140  1  0  0  0
 69141  1  0  0  0
 72142  1  0  0  0
 72143  1  0  0  0
 73144  1  0  0  0
 73145  1  0  0  0
 74146  1  0  0  0
 74147  1  0  0  0
 75148  1  0  0  0
 76149  1  0  0  0
 78150  1  0  0  0
 79151  1  0  0  0
 79152  1  0  0  0
 82153  1  0  0  0
 82154  1  0  0  0
M  END
$$$$
