### 
### Created by X-TOOL on Mon Sep 10 21:13:33 2018
### 

@<TRIPOS>MOLECULE
6axk_ligand
  153   155     1     0     0
SMALL
GAST_HUCK


@<TRIPOS>ATOM
      1 C         -15.0570    1.7250  -40.3390 C.2       1 ACE         0.1752
      2 O         -16.1350    1.3500  -40.7940 O.2       1 ACE        -0.3972
      3 CH3       -14.8380    1.8460  -38.8610 C.3       1 ACE         0.0258
      4 N         -14.0340    2.0030  -41.1480 N.am      1 ASN        -0.2637
      5 CA        -12.7180    2.4620  -40.7140 C.3       1 ASN         0.1477
      6 C         -12.6360    3.9900  -40.7630 C.2       1 ASN         0.2087
      7 O         -12.6740    4.5710  -41.8460 O.2       1 ASN        -0.3940
      8 CB        -11.6320    1.8540  -41.5980 C.3       1 ASN         0.0773
      9 CG        -10.2370    2.2320  -41.1470 C.2       1 ASN         0.1780
     10 OD1       -10.0320    2.6440  -40.0080 O.2       1 ASN        -0.3970
     11 ND2        -9.2680    2.0900  -42.0410 N.am      1 ASN        -0.3007
     12 N         -12.5110    4.6510  -39.6080 N.am      1 PRO        -0.2497
     13 CA        -12.4510    6.1180  -39.6070 C.3       1 PRO         0.1338
     14 C         -11.0760    6.6890  -39.9210 C.2       1 PRO         0.2042
     15 O         -10.9420    7.9160  -39.9990 O.2       1 PRO        -0.3944
     16 CB        -12.8800    6.4720  -38.1750 C.3       1 PRO        -0.0104
     17 CG        -12.5310    5.2700  -37.3460 C.3       1 PRO        -0.0281
     18 CD        -12.2420    4.1090  -38.2650 C.3       1 PRO         0.0369
     19 N         -10.0610    5.8470  -40.1130 N.am      1 ASN        -0.2616
     20 CA         -8.7080    6.3000  -40.4060 C.3       1 ASN         0.1476
     21 C          -8.3510    6.1650  -41.8820 C.2       1 ASN         0.2062
     22 O          -7.1860    6.3470  -42.2480 O.2       1 ASN        -0.3942
     23 CB         -7.6990    5.5270  -39.5540 C.3       1 ASN         0.0773
     24 CG         -6.2900    6.0840  -39.6690 C.2       1 ASN         0.1780
     25 OD1        -6.0980    7.2920  -39.8130 O.2       1 ASN        -0.3970
     26 ND2        -5.2990    5.2020  -39.6190 N.am      1 ASN        -0.3007
     27 N          -9.3170    5.8530  -42.7360 N.am      1 ALA        -0.2639
     28 CA         -9.0650    5.7640  -44.1650 C.3       1 ALA         0.1282
     29 C          -9.1730    7.1440  -44.8030 C.2       1 ALA         0.2037
     30 O          -9.8860    8.0230  -44.3110 O.2       1 ALA        -0.3944
     31 CB        -10.0450    4.7950  -44.8300 C.3       1 ALA        -0.0244
     32 N          -8.4490    7.3270  -45.9020 N.am      1 ASN        -0.2616
     33 CA         -8.4400    8.5980  -46.6070 C.3       1 ASN         0.1478
     34 C          -9.8730    9.0220  -46.9360 C.2       1 ASN         0.2088
     35 O         -10.5640    8.3110  -47.6820 O.2       1 ASN        -0.3940
     36 CB         -7.6200    8.4880  -47.8890 C.3       1 ASN         0.0773
     37 CG         -7.4300    9.8260  -48.5750 C.2       1 ASN         0.1780
     38 OD1        -8.2430   10.7390  -48.4210 O.2       1 ASN        -0.3970
     39 ND2        -6.3490    9.9500  -49.3360 N.am      1 ASN        -0.3007
     40 N         -10.3540   10.1580  -46.4090 N.am      1 PRO        -0.2497
     41 CA        -11.7510   10.5450  -46.6510 C.3       1 PRO         0.1338
     42 C         -11.9460   11.4840  -47.8330 C.2       1 PRO         0.2042
     43 O         -12.9970   12.1250  -47.9440 O.2       1 PRO        -0.3944
     44 CB        -12.1410   11.2280  -45.3360 C.3       1 PRO        -0.0104
     45 CG        -10.8680   11.8690  -44.8790 C.3       1 PRO        -0.0281
     46 CD         -9.7390   10.9780  -45.3480 C.3       1 PRO         0.0369
     47 N         -10.9650   11.5680  -48.7270 N.am      1 ASN        -0.2616
     48 CA        -10.9990   12.5200  -49.8260 C.3       1 ASN         0.1476
     49 C         -11.0710   11.7880  -51.1600 C.2       1 ASN         0.2062
     50 O         -10.9230   10.5660  -51.2400 O.2       1 ASN        -0.3942
     51 CB         -9.7720   13.4420  -49.7960 C.3       1 ASN         0.0773
     52 CG         -9.7540   14.3540  -48.5860 C.2       1 ASN         0.1780
     53 OD1       -10.7800   14.5740  -47.9440 O.2       1 ASN        -0.3970
     54 ND2        -8.5860   14.9000  -48.2750 N.am      1 ASN        -0.3007
     55 N         -11.3090   12.5650  -52.2180 N.am      1 ALA        -0.2639
     56 CA        -11.3470   12.0120  -53.5650 C.3       1 ALA         0.1282
     57 C          -9.9510   11.7910  -54.1320 C.2       1 ALA         0.2037
     58 O          -9.7680   10.9110  -54.9800 O.2       1 ALA        -0.3944
     59 CB        -12.1390   12.9380  -54.4900 C.3       1 ALA        -0.0244
     60 N          -8.9700   12.5650  -53.6870 N.am      1 ASN        -0.2616
     61 CA         -7.6130   12.5110  -54.2050 C.3       1 ASN         0.1478
     62 C          -6.6160   12.4720  -53.0590 C.2       1 ASN         0.2088
     63 O          -6.9380   12.8620  -51.9310 O.2       1 ASN        -0.3940
     64 CB         -7.3110   13.7280  -55.0910 C.3       1 ASN         0.0773
     65 CG         -8.3070   13.8920  -56.2160 C.2       1 ASN         0.1780
     66 OD1        -9.0570   14.8670  -56.2590 O.2       1 ASN        -0.3970
     67 ND2        -8.3200   12.9370  -57.1360 N.am      1 ASN        -0.3007
     68 N          -5.3940   12.0050  -53.3120 N.am      1 PRO        -0.2497
     69 CA         -4.3240   12.1640  -52.3220 C.3       1 PRO         0.1337
     70 C          -3.8690   13.6150  -52.2440 C.2       1 PRO         0.2037
     71 O          -4.2190   14.4560  -53.0740 O.2       1 PRO        -0.3944
     72 CB         -3.2020   11.2550  -52.8400 C.3       1 PRO        -0.0104
     73 CG         -3.8390   10.3780  -53.8720 C.3       1 PRO        -0.0281
     74 CD         -4.9640   11.1720  -54.4480 C.3       1 PRO         0.0369
     75 N          -3.0680   13.9010  -51.2220 N.am      1 ASN        -0.2674
     76 CA         -2.5220   15.2410  -51.0380 C.3       1 ASN         0.1110
     77 C          -1.1520   15.3600  -51.6980 C.2       1 ASN         0.0624
     78 O          -1.0110   15.9860  -52.7480 O.co2     1 ASN        -0.5665
     79 CB         -2.4220   15.5860  -49.5510 C.3       1 ASN         0.0718
     80 CG         -3.7800   15.7820  -48.9060 C.2       1 ASN         0.1774
     81 OD1        -4.3050   14.8830  -48.2480 O.2       1 ASN        -0.3971
     82 ND2        -4.3610   16.9620  -49.0970 N.am      1 ASN        -0.3007
     83 OXT        -0.1620   14.8320  -51.1930 O.co2     1 ASN        -0.5665
     84 H1        -13.8125    2.1949  -38.6697 H         1 ACE         0.0467
     85 H2        -14.9858    0.8645  -38.3868 H         1 ACE         0.0467
     86 H3        -15.5549    2.5674  -38.4419 H         1 ACE         0.0467
     87 H4        -14.1801    1.8878  -42.1306 H         1 ASN         0.1884
     88 H5        -12.5554    2.1336  -39.6768 H         1 ASN         0.0826
     89 H6        -11.7773    2.2084  -42.6292 H         1 ASN         0.0551
     90 H7        -11.7268    0.7585  -41.5700 H         1 ASN         0.0551
     91 H8         -8.3264    2.3242  -41.7992 H         1 ASN         0.1814
     92 H9         -9.4789    1.7487  -42.9570 H         1 ASN         0.1814
     93 H10       -13.1678    6.5225  -40.3368 H         1 PRO         0.0802
     94 H11       -13.9619    6.6667  -38.1343 H         1 PRO         0.0313
     95 H12       -12.3343    7.3577  -37.8175 H         1 PRO         0.0313
     96 H13       -13.3752    5.0181  -36.6873 H         1 PRO         0.0287
     97 H14       -11.6421    5.4879  -36.7358 H         1 PRO         0.0287
     98 H15       -11.1937    3.7885  -38.1741 H         1 PRO         0.0524
     99 H16       -12.9055    3.2598  -38.0446 H         1 PRO         0.0524
    100 H17       -10.2354    4.8641  -40.0535 H         1 ASN         0.1885
    101 H18        -8.6438    7.3651  -40.1389 H         1 ASN         0.0826
    102 H19        -7.6909    4.4774  -39.8829 H         1 ASN         0.0551
    103 H20        -8.0136    5.5790  -38.5012 H         1 ASN         0.0551
    104 H21        -4.3506    5.5110  -39.6896 H         1 ASN         0.1814
    105 H22        -5.5010    4.2286  -39.5107 H         1 ASN         0.1814
    106 H23       -10.2380    5.6753  -42.3895 H         1 ALA         0.1883
    107 H24        -8.0433    5.3857  -44.3168 H         1 ALA         0.0797
    108 H25        -9.8354    4.7442  -45.9086 H         1 ALA         0.0277
    109 H26       -11.0745    5.1492  -44.6729 H         1 ALA         0.0277
    110 H27        -9.9296    3.7950  -44.3866 H         1 ALA         0.0277
    111 H28        -7.8963    6.5711  -46.2530 H         1 ASN         0.1885
    112 H29        -7.9833    9.3602  -45.9586 H         1 ASN         0.0826
    113 H30        -8.1375    7.8075  -48.5811 H         1 ASN         0.0551
    114 H31        -6.6309    8.0758  -47.6405 H         1 ASN         0.0551
    115 H32        -6.1701   10.8099  -49.8141 H         1 ASN         0.1814
    116 H33        -5.7138    9.1835  -49.4310 H         1 ASN         0.1814
    117 H34       -12.3648    9.6476  -46.8181 H         1 PRO         0.0802
    118 H35       -12.4949   10.4905  -44.6006 H         1 PRO         0.0313
    119 H36       -12.9228   11.9836  -45.5030 H         1 PRO         0.0313
    120 H37       -10.8566   11.9493  -43.7820 H         1 PRO         0.0287
    121 H38       -10.7684   12.8713  -45.3211 H         1 PRO         0.0287
    122 H39        -8.9077   11.5770  -45.7482 H         1 PRO         0.0524
    123 H40        -9.3726   10.3449  -44.5265 H         1 PRO         0.0524
    124 H41       -10.1783   10.9567  -48.6408 H         1 ASN         0.1885
    125 H42       -11.9013   13.1400  -49.7186 H         1 ASN         0.0826
    126 H43        -9.7761   14.0627  -50.7041 H         1 ASN         0.0551
    127 H44        -8.8649   12.8200  -49.7811 H         1 ASN         0.0551
    128 H45        -8.5137   15.5106  -47.4864 H         1 ASN         0.1814
    129 H46        -7.7777   14.7010  -48.8291 H         1 ASN         0.1814
    130 H47       -11.4640   13.5438  -52.0840 H         1 ALA         0.1883
    131 H48       -11.8581   11.0389  -53.5213 H         1 ALA         0.0797
    132 H49       -12.1616   12.5117  -55.5038 H         1 ALA         0.0277
    133 H50       -11.6578   13.9267  -54.5187 H         1 ALA         0.0277
    134 H51       -13.1671   13.0414  -54.1127 H         1 ALA         0.0277
    135 H52        -9.1744   13.2187  -52.9583 H         1 ASN         0.1885
    136 H53        -7.5030   11.5971  -54.8073 H         1 ASN         0.0826
    137 H54        -6.3073   13.6073  -55.5245 H         1 ASN         0.0551
    138 H55        -7.3341   14.6328  -54.4659 H         1 ASN         0.0551
    139 H56        -8.9578   12.9915  -57.9042 H         1 ASN         0.1814
    140 H57        -7.6920   12.1624  -57.0615 H         1 ASN         0.1814
    141 H58        -4.6613   11.8353  -51.3280 H         1 PRO         0.0802
    142 H59        -2.7909   10.6473  -52.0205 H         1 PRO         0.0313
    143 H60        -2.3979   11.8558  -53.2900 H         1 PRO         0.0313
    144 H61        -4.2199    9.4562  -53.4081 H         1 PRO         0.0287
    145 H62        -3.1120   10.1204  -54.6563 H         1 PRO         0.0287
    146 H63        -4.6201   11.7943  -55.2873 H         1 PRO         0.0524
    147 H64        -5.7784   10.5154  -54.7880 H         1 PRO         0.0524
    148 H65        -2.8352   13.1829  -50.5662 H         1 ASN         0.1877
    149 H66        -3.2026   15.9604  -51.5168 H         1 ASN         0.0752
    150 H67        -1.8432   16.5151  -49.4429 H         1 ASN         0.0544
    151 H68        -1.9010   14.7671  -49.0335 H         1 ASN         0.0544
    152 H69        -5.2576   17.1487  -48.6955 H         1 ASN         0.1814
    153 H70        -3.9015   17.6632  -49.6422 H         1 ASN         0.1814
@<TRIPOS>BOND
     1    1    2 2  
     2    1    3 1  
     3    1    4 am 
     4    4    5 1  
     5    5    6 1  
     6    5    8 1  
     7    6    7 2  
     8    6   12 am 
     9    8    9 1  
    10    9   10 2  
    11    9   11 am 
    12   12   13 1  
    13   12   18 1  
    14   13   14 1  
    15   13   16 1  
    16   14   15 2  
    17   14   19 am 
    18   16   17 1  
    19   17   18 1  
    20   19   20 1  
    21   20   21 1  
    22   20   23 1  
    23   21   22 2  
    24   21   27 am 
    25   23   24 1  
    26   24   25 2  
    27   24   26 am 
    28   27   28 1  
    29   28   29 1  
    30   28   31 1  
    31   29   30 2  
    32   29   32 am 
    33   32   33 1  
    34   33   34 1  
    35   33   36 1  
    36   34   35 2  
    37   34   40 am 
    38   36   37 1  
    39   37   38 2  
    40   37   39 am 
    41   40   41 1  
    42   40   46 1  
    43   41   42 1  
    44   41   44 1  
    45   42   43 2  
    46   42   47 am 
    47   44   45 1  
    48   45   46 1  
    49   47   48 1  
    50   48   49 1  
    51   48   51 1  
    52   49   50 2  
    53   49   55 am 
    54   51   52 1  
    55   52   53 2  
    56   52   54 am 
    57   55   56 1  
    58   56   57 1  
    59   56   59 1  
    60   57   58 2  
    61   57   60 am 
    62   60   61 1  
    63   61   62 1  
    64   61   64 1  
    65   62   63 2  
    66   62   68 am 
    67   64   65 1  
    68   65   66 2  
    69   65   67 am 
    70   68   69 1  
    71   68   74 1  
    72   69   70 1  
    73   69   72 1  
    74   70   71 2  
    75   70   75 am 
    76   72   73 1  
    77   73   74 1  
    78   75   76 1  
    79   76   77 1  
    80   76   79 1  
    81   77   78 ar 
    82   77   83 ar 
    83   79   80 1  
    84   80   81 2  
    85   80   82 am 
    86    3   84 1  
    87    3   85 1  
    88    3   86 1  
    89    4   87 1  
    90    5   88 1  
    91    8   89 1  
    92    8   90 1  
    93   11   91 1  
    94   11   92 1  
    95   13   93 1  
    96   16   94 1  
    97   16   95 1  
    98   17   96 1  
    99   17   97 1  
   100   18   98 1  
   101   18   99 1  
   102   19  100 1  
   103   20  101 1  
   104   23  102 1  
   105   23  103 1  
   106   26  104 1  
   107   26  105 1  
   108   27  106 1  
   109   28  107 1  
   110   31  108 1  
   111   31  109 1  
   112   31  110 1  
   113   32  111 1  
   114   33  112 1  
   115   36  113 1  
   116   36  114 1  
   117   39  115 1  
   118   39  116 1  
   119   41  117 1  
   120   44  118 1  
   121   44  119 1  
   122   45  120 1  
   123   45  121 1  
   124   46  122 1  
   125   46  123 1  
   126   47  124 1  
   127   48  125 1  
   128   51  126 1  
   129   51  127 1  
   130   54  128 1  
   131   54  129 1  
   132   55  130 1  
   133   56  131 1  
   134   59  132 1  
   135   59  133 1  
   136   59  134 1  
   137   60  135 1  
   138   61  136 1  
   139   64  137 1  
   140   64  138 1  
   141   67  139 1  
   142   67  140 1  
   143   69  141 1  
   144   72  142 1  
   145   72  143 1  
   146   73  144 1  
   147   73  145 1  
   148   74  146 1  
   149   74  147 1  
   150   75  148 1  
   151   76  149 1  
   152   79  150 1  
   153   79  151 1  
   154   82  152 1  
   155   82  153 1  
@<TRIPOS>SUBSTRUCTURE
     1 ACE         1

