### 
### Created by X-TOOL on Mon Sep 10 21:12:57 2018
### 

@<TRIPOS>MOLECULE
3dst_ligand
   62    61     1     0     0
SMALL
GAST_HUCK


@<TRIPOS>ATOM
      1 C20         3.5530   26.5290   18.2310 C.3       1 GRG        -0.0406
      2 C19         5.1100   28.5920   17.7190 C.3       1 GRG        -0.0406
      3 C18         4.9480   27.1710   18.2780 C.2       1 GRG        -0.0870
      4 C17         6.0270   26.4410   18.8050 C.2       1 GRG        -0.1074
      5 C16         7.3660   26.8390   18.9460 C.3       1 GRG        -0.0388
      6 C14         8.9550   24.6690   20.8870 C.3       1 GRG        -0.0402
      7 C13         8.3960   24.5220   19.4830 C.2       1 GRG        -0.0827
      8 C15         8.3920   25.7430   18.5350 C.3       1 GRG        -0.0254
      9 C12         7.8860   23.3060   19.0550 C.2       1 GRG        -0.1070
     10 C11         7.8120   22.1150   19.7830 C.3       1 GRG        -0.0388
     11 C9          7.5970   20.9100   18.8610 C.3       1 GRG        -0.0254
     12 C8          7.6040   19.5700   19.6180 C.2       1 GRG        -0.0827
     13 C10         8.9490   18.9860   20.0440 C.3       1 GRG        -0.0402
     14 C7          6.4060   18.9040   19.8750 C.2       1 GRG        -0.1070
     15 C6          6.2490   17.6770   20.5180 C.3       1 GRG        -0.0388
     16 C5          5.1650   17.6950   21.5960 C.3       1 GRG        -0.0253
     17 C3          4.7970   16.2600   22.0090 C.2       1 GRG        -0.0804
     18 C4          3.3320   15.8260   21.9250 C.3       1 GRG        -0.0402
     19 C2          5.8050   15.3890   22.4430 C.2       1 GRG        -0.0782
     20 C1          5.7110   14.0620   22.8630 C.3       1 GRG         0.0917
     21 O1          6.6760   13.2470   22.1650 O.3       1 GRG        -0.2411
     22 PA          7.0710   11.7480   22.6550 P.3       1 GRG         0.3288
     23 O1A         8.2410   11.7980   23.5570 O.co2     1 GRG        -0.5555
     24 O3A         5.8390   11.3010   23.5790 O.3       1 GRG        -0.1547
     25 O2A         7.0960   10.8740   21.4670 O.co2     1 GRG        -0.5555
     26 PB          4.6460   10.4030   22.9600 P.3       1 GRG         0.2070
     27 O1B         3.8030    9.9200   24.2580 O.co2     1 GRG        -0.5891
     28 O2B         5.3720    9.0710   22.4070 O.co2     1 GRG        -0.5891
     29 O3B         3.8710   11.1550   21.9280 O.co2     1 GRG        -0.5891
     30 H           2.8373   27.2391   17.7911 H         1 GRG         0.0375
     31 H           3.2334   26.2711   19.2515 H         1 GRG         0.0375
     32 H           3.5895   25.6172   17.6167 H         1 GRG         0.0375
     33 H           6.1579   28.9097   17.8233 H         1 GRG         0.0375
     34 H           4.4604   29.2820   18.2774 H         1 GRG         0.0375
     35 H           4.8279   28.6022   16.6559 H         1 GRG         0.0375
     36 H           5.7940   25.4345   19.1492 H         1 GRG         0.0244
     37 H           7.5412   27.1007   19.9999 H         1 GRG         0.0361
     38 H           7.5331   27.7248   18.3155 H         1 GRG         0.0361
     39 H           9.3084   25.7002   21.0348 H         1 GRG         0.0375
     40 H           9.7942   23.9709   21.0225 H         1 GRG         0.0375
     41 H           8.1675   24.4426   21.6208 H         1 GRG         0.0375
     42 H           9.3977   26.1885   18.5356 H         1 GRG         0.0425
     43 H           8.1450   25.3965   17.5207 H         1 GRG         0.0425
     44 H           7.4996   23.2752   18.0373 H         1 GRG         0.0244
     45 H           6.9719   22.1791   20.4902 H         1 GRG         0.0361
     46 H           8.7505   21.9768   20.3399 H         1 GRG         0.0361
     47 H           8.4013   20.8938   18.1107 H         1 GRG         0.0425
     48 H           6.6264   21.0229   18.3558 H         1 GRG         0.0425
     49 H           8.7852   18.0338   20.5698 H         1 GRG         0.0375
     50 H           9.4594   19.6924   20.7152 H         1 GRG         0.0375
     51 H           9.5712   18.8110   19.1539 H         1 GRG         0.0375
     52 H           5.4948   19.3954   19.5370 H         1 GRG         0.0244
     53 H           7.2051   17.4042   20.9885 H         1 GRG         0.0361
     54 H           5.9813   16.9202   19.7660 H         1 GRG         0.0361
     55 H           4.2704   18.1997   21.2023 H         1 GRG         0.0425
     56 H           5.5371   18.2412   22.4753 H         1 GRG         0.0425
     57 H           3.2401   14.7801   22.2532 H         1 GRG         0.0375
     58 H           2.9818   15.9164   20.8862 H         1 GRG         0.0375
     59 H           2.7211   16.4694   22.5753 H         1 GRG         0.0375
     60 H           6.8094   15.8097   22.4541 H         1 GRG         0.0268
     61 H           4.6988   13.6857   22.6535 H         1 GRG         0.0696
     62 H           5.9054   14.0088   23.9444 H         1 GRG         0.0696
@<TRIPOS>BOND
     1    3    1 1  
     2    3    2 1  
     3    4    3 2  
     4    5    4 1  
     5    8    5 1  
     6    7    6 1  
     7    7    8 1  
     8    7    9 2  
     9    9   10 1  
    10   10   11 1  
    11   11   12 1  
    12   12   13 1  
    13   12   14 2  
    14   14   15 1  
    15   15   16 1  
    16   16   17 1  
    17   17   18 1  
    18   17   19 2  
    19   19   20 1  
    20   20   21 1  
    21   21   22 1  
    22   22   23 ar 
    23   22   24 1  
    24   22   25 ar 
    25   24   26 1  
    26   26   27 ar 
    27   26   28 ar 
    28   26   29 ar 
    29    1   30 1  
    30    1   31 1  
    31    1   32 1  
    32    2   33 1  
    33    2   34 1  
    34    2   35 1  
    35    4   36 1  
    36    5   37 1  
    37    5   38 1  
    38    6   39 1  
    39    6   40 1  
    40    6   41 1  
    41    8   42 1  
    42    8   43 1  
    43    9   44 1  
    44   10   45 1  
    45   10   46 1  
    46   11   47 1  
    47   11   48 1  
    48   13   49 1  
    49   13   50 1  
    50   13   51 1  
    51   14   52 1  
    52   15   53 1  
    53   15   54 1  
    54   16   55 1  
    55   16   56 1  
    56   18   57 1  
    57   18   58 1  
    58   18   59 1  
    59   19   60 1  
    60   20   61 1  
    61   20   62 1  
@<TRIPOS>SUBSTRUCTURE
     1 GRG         1

