3dst_ligand
  -I-interpret- 

 65 64  0  0  0  0  0  0  0  0999 V2000
    3.5530   26.5290   18.2310 C   0  0  0  0  0
    5.1100   28.5920   17.7190 C   0  0  0  0  0
    4.9480   27.1710   18.2780 C   0  0  0  0  0
    6.0270   26.4410   18.8050 C   0  0  0  0  0
    7.3660   26.8390   18.9460 C   0  0  0  0  0
    8.9550   24.6690   20.8870 C   0  0  0  0  0
    8.3960   24.5220   19.4830 C   0  0  0  0  0
    8.3920   25.7430   18.5350 C   0  0  0  0  0
    7.8860   23.3060   19.0550 C   0  0  0  0  0
    7.8120   22.1150   19.7830 C   0  0  0  0  0
    7.5970   20.9100   18.8610 C   0  0  0  0  0
    7.6040   19.5700   19.6180 C   0  0  0  0  0
    8.9490   18.9860   20.0440 C   0  0  0  0  0
    6.4060   18.9040   19.8750 C   0  0  0  0  0
    6.2490   17.6770   20.5180 C   0  0  0  0  0
    5.1650   17.6950   21.5960 C   0  0  0  0  0
    4.7970   16.2600   22.0090 C   0  0  0  0  0
    3.3320   15.8260   21.9250 C   0  0  0  0  0
    5.8050   15.3890   22.4430 C   0  0  0  0  0
    5.7110   14.0620   22.8630 C   0  0  0  0  0
    6.6760   13.2470   22.1650 O   0  0  0  0  0
    7.0710   11.7480   22.6550 P   0  0  0  0  0
    8.2410   11.7980   23.5570 O   0  0  0  0  0
    5.8390   11.3010   23.5790 O   0  0  0  0  0
    7.0960   10.8740   21.4670 O   0  0  0  0  0
    4.6460   10.4030   22.9600 P   0  0  0  0  0
    3.8030    9.9200   24.2580 O   0  0  0  0  0
    5.3720    9.0710   22.4070 O   0  0  0  0  0
    3.8710   11.1550   21.9280 O   0  0  0  0  0
    3.5905   25.6257   17.6221 H   0  0  0  0  0
    3.2376   26.2739   19.2427 H   0  0  0  0  0
    2.8447   27.2335   17.7949 H   0  0  0  0  0
    5.4837   29.2495   18.5040 H   0  0  0  0  0
    5.8168   28.5763   16.8894 H   0  0  0  0  0
    4.1441   28.9554   17.3682 H   0  0  0  0  0
    5.7937   25.4335   19.1495 H   0  0  0  0  0
    7.5307   27.0601   20.0006 H   0  0  0  0  0
    7.5224   27.6944   18.2887 H   0  0  0  0  0
    8.1737   24.4443   21.6131 H   0  0  0  0  0
    9.7864   23.9767   21.0200 H   0  0  0  0  0
    9.3048   25.6911   21.0323 H   0  0  0  0  0
    9.3849   26.1913   18.5714 H   0  0  0  0  0
    8.1148   25.3882   17.5424 H   0  0  0  0  0
    7.4993   23.2752   18.0364 H   0  0  0  0  0
    6.9683   22.1806   20.4700 H   0  0  0  0  0
    8.7509   21.9778   20.3194 H   0  0  0  0  0
    8.4153   20.8907   18.1412 H   0  0  0  0  0
    6.6209   21.0213   18.3889 H   0  0  0  0  0
    8.9620   18.8589   21.1265 H   0  0  0  0  0
    9.0931   18.0192   19.5616 H   0  0  0  0  0
    9.7487   19.6645   19.7469 H   0  0  0  0  0
    5.4940   19.3958   19.5366 H   0  0  0  0  0
    7.1942   17.4362   21.0046 H   0  0  0  0  0
    5.9539   16.9456   19.7656 H   0  0  0  0  0
    4.2780   18.1892   21.1997 H   0  0  0  0  0
    5.5400   18.2306   22.4681 H   0  0  0  0  0
    3.2422   14.9858   21.2364 H   0  0  0  0  0
    2.9862   15.5254   22.9140 H   0  0  0  0  0
    2.7278   16.6587   21.5649 H   0  0  0  0  0
    6.8103   15.8101   22.4541 H   0  0  0  0  0
    4.7091   13.6905   22.6479 H   0  0  0  0  0
    5.9106   14.0122   23.9334 H   0  0  0  0  0
    8.0640   12.4099   24.2752 H   0  0  0  0  0
    4.3849    9.4489   24.8589 H   0  0  0  0  0
    5.8469    8.6454   23.1246 H   0  0  0  0  0
  3  1  1  0  0  0
  3  2  1  0  0  0
  4  3  2  0  0  0
  5  4  1  0  0  0
  8  5  1  0  0  0
  7  6  1  0  0  0
  7  8  1  0  0  0
  7  9  2  0  0  0
  9 10  1  0  0  0
 10 11  1  0  0  0
 11 12  1  0  0  0
 12 13  1  0  0  0
 12 14  2  0  0  0
 14 15  1  0  0  0
 15 16  1  0  0  0
 16 17  1  0  0  0
 17 18  1  0  0  0
 17 19  2  0  0  0
 19 20  1  0  0  0
 20 21  1  0  0  0
 21 22  1  0  0  0
 22 23  1  0  0  0
 22 24  1  0  0  0
 22 25  2  0  0  0
 24 26  1  0  0  0
 26 27  1  0  0  0
 26 28  1  0  0  0
 26 29  2  0  0  0
  1 30  1  0  0  0
  1 31  1  0  0  0
  1 32  1  0  0  0
  2 33  1  0  0  0
  2 34  1  0  0  0
  2 35  1  0  0  0
  4 36  1  0  0  0
  5 37  1  0  0  0
  5 38  1  0  0  0
  6 39  1  0  0  0
  6 40  1  0  0  0
  6 41  1  0  0  0
  8 42  1  0  0  0
  8 43  1  0  0  0
  9 44  1  0  0  0
 10 45  1  0  0  0
 10 46  1  0  0  0
 11 47  1  0  0  0
 11 48  1  0  0  0
 13 49  1  0  0  0
 13 50  1  0  0  0
 13 51  1  0  0  0
 14 52  1  0  0  0
 15 53  1  0  0  0
 15 54  1  0  0  0
 16 55  1  0  0  0
 16 56  1  0  0  0
 18 57  1  0  0  0
 18 58  1  0  0  0
 18 59  1  0  0  0
 19 60  1  0  0  0
 20 61  1  0  0  0
 20 62  1  0  0  0
 23 63  1  0  0  0
 27 64  1  0  0  0
 28 65  1  0  0  0
M  END
$$$$
