4kz0_ligand
  -I-interpret- 

 27 28  0  0  0  0  0  0  0  0999 V2000
   15.6280   15.2270   22.0480 O   0  0  0  0  0
   15.2040   14.3240   22.7660 C   0  0  0  0  0
   13.7410   14.1680   23.0620 C   0  0  0  0  0
   16.0290   13.3940   23.3640 N   0  0  0  0  0
   17.3860   13.2310   23.1480 C   0  0  0  0  0
   18.0510   12.3450   23.8380 N   0  0  0  0  0
   18.2870   14.1570   21.9670 S   0  0  0  0  0
   19.7100   13.2700   22.4320 C   0  0  0  0  0
   19.3920   12.3560   23.4450 C   0  0  0  0  0
   20.4020   11.5460   23.9630 C   0  0  0  0  0
   21.6900   11.6550   23.4570 C   0  0  0  0  0
   20.9950   13.3770   21.9160 C   0  0  0  0  0
   21.9970   12.5530   22.4300 C   0  0  0  0  0
   23.3650   12.5760   21.8170 C   0  0  0  0  0
   24.3150   11.9630   22.2440 O   0  0  0  0  0
   23.4290   13.3810   20.7470 O   0  0  0  0  0
   24.6660   13.3730   19.9880 C   0  0  0  0  0
   13.3736   15.0675   23.5561 H   0  0  0  0  0
   13.1971   14.0162   22.1297 H   0  0  0  0  0
   13.5934   13.3075   23.7145 H   0  0  0  0  0
   15.5936   12.7610   24.0349 H   0  0  0  0  0
   20.1821   10.8336   24.7581 H   0  0  0  0  0
   22.4795   11.0267   23.8693 H   0  0  0  0  0
   21.2168   14.0919   21.1237 H   0  0  0  0  0
   25.4892   13.6781   20.6341 H   0  0  0  0  0
   24.8524   12.3677   19.6101 H   0  0  0  0  0
   24.5822   14.0671   19.1518 H   0  0  0  0  0
  1  2  2  0  0  0
  2  3  1  0  0  0
  2  4  1  0  0  0
  4  5  1  0  0  0
  5  6  4  0  0  0
  5  7  4  0  0  0
  6  9  4  0  0  0
  7  8  4  0  0  0
  8  9  4  0  0  0
  8 12  4  0  0  0
  9 10  4  0  0  0
 10 11  4  0  0  0
 11 13  4  0  0  0
 12 13  4  0  0  0
 13 14  1  0  0  0
 14 15  2  0  0  0
 14 16  1  0  0  0
 16 17  1  0  0  0
  3 18  1  0  0  0
  3 19  1  0  0  0
  3 20  1  0  0  0
  4 21  1  0  0  0
 10 22  1  0  0  0
 11 23  1  0  0  0
 12 24  1  0  0  0
 17 25  1  0  0  0
 17 26  1  0  0  0
 17 27  1  0  0  0
M  END
$$$$
