5f9e_ligand
  -I-interpret- 

 51 55  0  0  0  0  0  0  0  0999 V2000
   27.5710   75.9420   26.1110 C   0  0  0  0  0
   26.7780   76.1720   27.3550 C   0  0  0  0  0
   25.8710   75.2110   27.8380 C   0  0  0  0  0
   25.2790   76.6790   29.6480 C   0  0  0  0  0
   26.7530   80.6150   27.9860 C   0  0  0  0  0
   25.6350   82.5460   28.8840 C   0  0  0  0  0
   25.7030   80.3850   27.1350 C   0  0  0  0  0
   24.0770   78.2130   31.2230 C   0  0  0  0  0
   23.4980   80.5350   31.3350 C   0  0  0  0  0
   30.1240   77.4070   27.3080 C   0  0  0  0  0
   28.9130   77.9240   26.5810 C   0  0  0  0  0
   29.3400   79.1220   25.6800 C   0  0  0  0  0
   28.5360   76.7900   25.7600 N   0  0  0  0  0
   27.3650   75.0350   25.3410 O   0  0  0  0  0
   25.1290   75.4710   28.9660 C   0  0  0  0  0
   26.2020   77.6280   29.1860 C   0  0  0  0  0
   26.9460   77.4000   28.0420 C   0  0  0  0  0
   27.8520   78.3460   27.5250 N   0  0  0  0  0
   27.9700   79.7260   28.0140 C   0  0  0  0  0
   26.7320   81.6930   28.8700 C   0  0  0  0  0
   24.5820   82.3160   28.0170 C   0  0  0  0  0
   24.6020   81.2360   27.1450 C   0  0  0  0  0
   24.5650   76.9520   30.8250 N   0  0  0  0  0
   24.0980   79.4660   30.6510 C   0  0  0  0  0
   22.8990   80.3080   32.5770 C   0  0  0  0  0
   22.8940   79.0790   33.1110 N   0  0  0  0  0
   23.4550   78.0400   32.4790 C   0  0  0  0  0
   23.5710   76.6810   32.8030 N   0  0  0  0  0
   24.2400   76.0590   31.8050 C   0  0  0  0  0
   24.5010   74.8680   31.7940 O   0  0  0  0  0
   25.7565   74.2600   27.3178 H   0  0  0  0  0
   25.6046   83.3900   29.5731 H   0  0  0  0  0
   25.7306   79.5365   26.4513 H   0  0  0  0  0
   23.4993   81.5347   30.9006 H   0  0  0  0  0
   30.8682   77.0773   26.5830 H   0  0  0  0  0
   30.5430   78.2022   27.9246 H   0  0  0  0  0
   29.8353   76.5682   27.9414 H   0  0  0  0  0
   29.7620   79.9109   26.3026 H   0  0  0  0  0
   30.0872   78.7860   24.9610 H   0  0  0  0  0
   28.4684   79.5040   25.1485 H   0  0  0  0  0
   29.0286   76.6359   24.8802 H   0  0  0  0  0
   24.4188   74.7285   29.3299 H   0  0  0  0  0
   26.3354   78.5593   29.7364 H   0  0  0  0  0
   28.2246   79.6301   29.0695 H   0  0  0  0  0
   28.6830   80.2032   27.3416 H   0  0  0  0  0
   27.5700   81.8655   29.5453 H   0  0  0  0  0
   23.7261   82.9910   28.0185 H   0  0  0  0  0
   23.7623   81.0561   26.4737 H   0  0  0  0  0
   24.5729   79.6249   29.6828 H   0  0  0  0  0
   22.4336   81.1346   33.1139 H   0  0  0  0  0
   23.2119   76.2365   33.6479 H   0  0  0  0  0
  2  1  1  0  0  0
 13  1  1  0  0  0
  1 14  2  0  0  0
  2  3  4  0  0  0
 17  2  4  0  0  0
  3 15  4  0  0  0
  4 15  4  0  0  0
 16  4  4  0  0  0
  4 23  1  0  0  0
  5  7  4  0  0  0
 19  5  1  0  0  0
  5 20  4  0  0  0
 20  6  4  0  0  0
  6 21  4  0  0  0
  7 22  4  0  0  0
 23  8  1  0  0  0
  8 24  4  0  0  0
  8 27  4  0  0  0
 24  9  4  0  0  0
  9 25  4  0  0  0
 11 10  1  0  0  0
 11 12  1  0  0  0
 11 13  1  0  0  0
 18 11  1  0  0  0
 17 16  4  0  0  0
 18 17  1  0  0  0
 18 19  1  0  0  0
 21 22  4  0  0  0
 23 29  1  0  0  0
 25 26  4  0  0  0
 26 27  4  0  0  0
 27 28  1  0  0  0
 28 29  1  0  0  0
 29 30  2  0  0  0
  3 31  1  0  0  0
  6 32  1  0  0  0
  7 33  1  0  0  0
  9 34  1  0  0  0
 10 35  1  0  0  0
 10 36  1  0  0  0
 10 37  1  0  0  0
 12 38  1  0  0  0
 12 39  1  0  0  0
 12 40  1  0  0  0
 13 41  1  0  0  0
 15 42  1  0  0  0
 16 43  1  0  0  0
 19 44  1  0  0  0
 19 45  1  0  0  0
 20 46  1  0  0  0
 21 47  1  0  0  0
 22 48  1  0  0  0
 24 49  1  0  0  0
 25 50  1  0  0  0
 28 51  1  0  0  0
M  END
$$$$
