3jzs_ligand
  -I-interpret- 

209214  0  0  0  0  0  0  0  0999 V2000
  -11.3360    0.6570    8.7380 N   0  3  0  0  0
  -12.1200    0.0100    7.6320 C   0  0  0  0  0
  -11.4030    0.0400    6.2870 C   0  0  0  0  0
  -10.5310    0.8730    6.0560 O   0  0  0  0  0
  -13.4790    0.6870    7.5300 C   0  0  0  0  0
  -14.2630    0.5920    8.8160 C   0  0  0  0  0
  -14.2570   -0.8200    9.3500 C   0  0  0  0  0
  -13.2170   -1.2230    9.9390 O   0  0  0  0  0
  -15.2730   -1.5420    9.1570 O   0  0  0  0  0
  -11.7930   -0.8570    5.4010 N   0  0  0  0  0
  -11.1740   -0.9760    4.0790 C   0  0  0  0  0
  -11.6380    0.0810    3.1170 C   0  0  0  0  0
  -12.6240    0.7210    3.3750 O   0  0  0  0  0
  -11.4810   -2.3270    3.4620 C   0  0  0  0  0
  -12.8880   -2.4150    3.1670 O   0  0  0  0  0
  -11.1170   -3.4050    4.4440 C   0  0  0  0  0
  -10.9200    0.2440    2.0030 N   0  0  0  0  0
  -11.3110    1.2670    1.0300 C   0  0  0  0  0
  -12.7350    0.9670    0.5360 C   0  0  0  0  0
  -13.5780    1.8620    0.4610 O   0  0  0  0  0
  -10.3550    1.2890   -0.1620 C   0  0  0  0  0
  -10.8580    2.1110   -1.2650 C   0  0  0  0  0
  -10.8510    3.5040   -1.1680 C   0  0  0  0  0
  -11.4930    1.5060   -2.3340 C   0  0  0  0  0
  -11.4820    4.2850   -2.1120 C   0  0  0  0  0
  -12.1360    2.2780   -3.3020 C   0  0  0  0  0
  -12.1310    3.6910   -3.1730 C   0  0  0  0  0
  -12.9780   -0.2950    0.1680 N   0  0  0  0  0
  -14.2920   -0.7150   -0.3050 C   0  0  0  0  0
  -15.3920   -0.3740    0.7070 C   0  0  0  0  0
  -16.4850    0.0310    0.3200 O   0  0  0  0  0
  -14.2930   -2.2240   -0.6150 C   0  0  0  0  0
  -13.6470   -2.5930   -1.9730 C   0  0  0  0  0
  -13.1050   -4.0700   -2.0270 C   0  0  0  0  0
  -11.8790   -4.2450   -2.1570 O   0  0  0  0  0
  -13.8860   -5.0460   -1.9260 O   0  0  0  0  0
  -15.1320   -0.5620    1.9970 N   0  0  0  0  0
  -16.1220   -0.2230    3.0380 C   0  0  0  0  0
  -16.4670    1.2690    2.9780 C   0  0  0  0  0
  -17.6520    1.6450    2.9000 O   0  0  0  0  0
  -15.5990   -0.5540    4.4490 C   0  0  0  0  0
  -16.3830    0.0890    5.5640 C   0  0  0  0  0
  -17.5370   -0.4600    6.0820 N   0  0  0  0  0
  -16.1930    1.2520    6.2360 C   0  0  0  0  0
  -18.0240    0.3350    7.0200 C   0  0  0  0  0
  -17.2280    1.3820    7.1340 N   0  0  0  0  0
  -15.4490    2.1370    3.0350 N   0  0  0  0  0
  -15.7420    3.5600    2.9430 C   0  0  0  0  0
  -16.4510    3.9380    1.6090 C   0  0  0  0  0
  -17.3850    4.7190    1.5830 O   0  0  0  0  0
  -14.4460    4.3640    3.0420 C   0  0  0  0  0
  -13.7620    4.1530    4.3550 C   0  0  0  0  0
  -12.5330    3.6100    4.5610 C   0  0  0  0  0
  -14.3040    4.4370    5.6360 C   0  0  0  0  0
  -12.2760    3.5360    5.9030 N   0  0  0  0  0
  -13.3440    4.0370    6.5860 C   0  0  0  0  0
  -15.5080    4.9900    6.0740 C   0  0  0  0  0
  -13.5520    4.1640    7.9560 C   0  0  0  0  0
  -15.7230    5.1190    7.4500 C   0  0  0  0  0
  -14.7400    4.7060    8.3730 C   0  0  0  0  0
  -15.9880    3.3620    0.5170 N   0  0  0  0  0
  -16.5420    3.7440   -0.7470 C   0  0  0  0  0
  -17.9770    3.2940   -0.8920 C   0  0  0  0  0
  -18.8240    4.0570   -1.3960 O   0  0  0  0  0
  -15.6650    3.2330   -1.8940 C   0  0  0  0  0
  -16.0190    4.0060   -3.1470 C   0  0  0  0  0
  -16.9490    3.6760   -4.0950 C   0  0  0  0  0
  -15.5350    5.3050   -3.4900 C   0  0  0  0  0
  -17.0780    4.7090   -5.0290 N   0  0  0  0  0
  -16.2330    5.7230   -4.6660 C   0  0  0  0  0
  -14.5730    6.1660   -2.9190 C   0  0  0  0  0
  -16.0060    6.9730   -5.2700 C   0  0  0  0  0
  -14.3410    7.4090   -3.5240 C   0  0  0  0  0
  -15.0600    7.7960   -4.6830 C   0  0  0  0  0
  -18.2760    2.0870   -0.4090 N   0  0  0  0  0
  -19.6370    1.5390   -0.5350 C   0  0  0  0  0
  -20.6510    2.4820    0.1370 C   0  0  0  0  0
  -21.8350    2.5360   -0.2460 O   0  0  0  0  0
  -19.6870    0.1200    0.0800 C   0  0  0  0  0
  -19.5570    0.2240    1.4960 O   0  0  0  0  0
  -20.2110    3.2530    1.1300 N   0  0  0  0  0
  -21.1320    4.1960    1.7550 C   0  0  0  0  0
  -21.6100    5.2460    0.7750 C   0  0  0  0  0
  -22.7350    5.7490    0.8930 O   0  0  0  0  0
  -20.5000    4.8700    2.9610 C   0  0  0  0  0
  -20.1060    3.8880    4.0300 C   0  0  0  0  0
  -19.7470    4.5570    5.3480 C   0  0  0  0  0
  -19.4420    3.8740    6.3330 O   0  0  0  0  0
  -19.7800    5.8940    5.3790 N   0  0  0  0  0
  -20.7730    5.6120   -0.2080 N   0  0  0  0  0
  -21.2080    6.6010   -1.2020 C   0  0  0  0  0
  -22.2780    6.0310   -2.1220 C   0  0  0  0  0
  -22.9090    6.7830   -2.8620 O   0  0  0  0  0
  -20.0260    7.0310   -2.0760 C   0  0  0  0  0
  -19.0950    8.0750   -1.4510 C   0  0  0  0  0
  -17.7250    8.0760   -2.1490 C   0  0  0  0  0
  -19.7420    9.4500   -1.6170 C   0  0  0  0  0
  -22.4780    4.7080   -2.0940 N   0  0  0  0  0
  -23.4580    4.0750   -2.9820 C   0  0  0  0  0
  -24.7380    3.7110   -2.2240 C   0  0  0  0  0
  -25.6690    3.0930   -2.7640 O   0  0  0  0  0
  -22.8380    2.8160   -3.6460 C   0  0  0  0  0
  -21.4910    2.9870   -4.3420 C   0  0  0  0  0
  -20.9790    1.6450   -4.8910 C   0  0  0  0  0
  -21.6310    3.9480   -5.4850 C   0  0  0  0  0
  -24.7310    4.0800   -0.9480 N   0  0  0  0  0
  -25.8040    3.8680   -0.0030 C   0  0  0  0  0
  -26.8090    5.0220   -0.0860 C   0  0  0  0  0
  -26.6040    5.9950   -0.8590 O   0  0  0  0  0
  -25.2240    3.8340    1.4160 C   0  0  0  0  0
  -26.2540    3.8040    2.3600 O   0  0  0  0  0
  -27.7950    4.9400    0.6680 O   0  0  0  0  0
  -10.4229    0.2087    8.8132 H   0  0  0  0  0
  -11.2134    1.6483    8.5314 H   0  0  0  0  0
  -11.8412    0.5518    9.6178 H   0  0  0  0  0
  -12.2368   -1.0443    7.8829 H   0  0  0  0  0
  -14.0492    0.1855    6.7480 H   0  0  0  0  0
  -13.3160    1.7421    7.3100 H   0  0  0  0  0
  -15.2937    0.8874    8.6199 H   0  0  0  0  0
  -13.8029    1.2475    9.5554 H   0  0  0  0  0
  -12.5740   -0.5110    9.9737 H   0  0  0  0  0
  -12.5537   -1.4909    5.6460 H   0  0  0  0  0
  -10.1035   -0.8543    4.2445 H   0  0  0  0  0
  -10.9087   -2.4479    2.5423 H   0  0  0  0  0
  -13.0790   -3.2710    2.7767 H   0  0  0  0  0
  -10.0543   -3.3387    4.6770 H   0  0  0  0  0
  -11.6991   -3.2752    5.3564 H   0  0  0  0  0
  -11.3346   -4.3802    4.0083 H   0  0  0  0  0
  -10.1027   -0.3413    1.8302 H   0  0  0  0  0
  -11.2732    2.2423    1.5152 H   0  0  0  0  0
  -10.2450    0.2673   -0.5254 H   0  0  0  0  0
   -9.4088    1.7147    0.1720 H   0  0  0  0  0
  -10.3385    3.9811   -0.3326 H   0  0  0  0  0
  -11.4912    0.4195   -2.4209 H   0  0  0  0  0
  -11.4679    5.3710   -2.0197 H   0  0  0  0  0
  -12.6354    1.8021   -4.1459 H   0  0  0  0  0
  -12.6408    4.3072   -3.9136 H   0  0  0  0  0
  -12.2253   -0.9815    0.2193 H   0  0  0  0  0
  -14.5061   -0.1658   -1.2219 H   0  0  0  0  0
  -15.3344   -2.5432   -0.6568 H   0  0  0  0  0
  -13.7071   -2.7128    0.1634 H   0  0  0  0  0
  -12.7985   -1.9260   -2.1251 H   0  0  0  0  0
  -14.4161   -2.4971   -2.7394 H   0  0  0  0  0
  -14.7863   -4.7258   -1.8337 H   0  0  0  0  0
  -14.2294   -0.9486    2.2733 H   0  0  0  0  0
  -17.0114   -0.8224    2.8439 H   0  0  0  0  0
  -14.5793   -0.1740    4.5117 H   0  0  0  0  0
  -15.6817   -1.6332    4.5780 H   0  0  0  0  0
  -15.3719    1.9542    6.0914 H   0  0  0  0  0
  -18.9291    0.1561    7.6005 H   0  0  0  0  0
  -14.4892    1.8083    3.1406 H   0  0  0  0  0
  -16.4143    3.7962    3.7678 H   0  0  0  0  0
  -14.6907    5.4221    2.9488 H   0  0  0  0  0
  -13.7756    4.0331    2.2488 H   0  0  0  0  0
  -11.8534    3.2823    3.7743 H   0  0  0  0  0
  -16.2644    5.3144    5.3594 H   0  0  0  0  0
  -12.7962    3.8435    8.6730 H   0  0  0  0  0
  -16.6595    5.5429    7.8125 H   0  0  0  0  0
  -14.9289    4.8202    9.4404 H   0  0  0  0  0
  -15.2508    2.6592    0.5715 H   0  0  0  0  0
  -16.5538    4.8330   -0.7929 H   0  0  0  0  0
  -15.8389    2.1684   -2.0508 H   0  0  0  0  0
  -14.6122    3.3775   -1.6515 H   0  0  0  0  0
  -17.5093    2.7414   -4.1188 H   0  0  0  0  0
  -14.0220    5.8704   -2.0262 H   0  0  0  0  0
  -16.5516    7.2805   -6.1621 H   0  0  0  0  0
  -13.5996    8.0855   -3.0987 H   0  0  0  0  0
  -14.8618    8.7721   -5.1258 H   0  0  0  0  0
  -17.5525    1.5365    0.0536 H   0  0  0  0  0
  -19.9042    1.4614   -1.5889 H   0  0  0  0  0
  -18.8728   -0.4836   -0.3209 H   0  0  0  0  0
  -20.6359   -0.3554   -0.1684 H   0  0  0  0  0
  -19.5872   -0.6534    1.8843 H   0  0  0  0  0
  -19.2444    3.1851    1.4487 H   0  0  0  0  0
  -21.9940    3.6176    2.0873 H   0  0  0  0  0
  -21.2343    5.5537    3.3870 H   0  0  0  0  0
  -19.5978    5.3815    2.6256 H   0  0  0  0  0
  -19.2247    3.3510    3.6792 H   0  0  0  0  0
  -20.9590    3.2340    4.2110 H   0  0  0  0  0
  -19.5478    6.3901    6.2395 H   0  0  0  0  0
  -20.0373    6.4173    4.5422 H   0  0  0  0  0
  -19.8393    5.2051   -0.2643 H   0  0  0  0  0
  -21.6119    7.4502   -0.6508 H   0  0  0  0  0
  -20.4493    7.4865   -2.9712 H   0  0  0  0  0
  -19.4238    6.1387   -2.2474 H   0  0  0  0  0
  -18.9432    7.8377   -0.3980 H   0  0  0  0  0
  -17.2668    7.0921   -2.0486 H   0  0  0  0  0
  -17.8570    8.3107   -3.2052 H   0  0  0  0  0
  -17.0834    8.8259   -1.6862 H   0  0  0  0  0
  -19.8821    9.6585   -2.6777 H   0  0  0  0  0
  -20.7084    9.4586   -1.1129 H   0  0  0  0  0
  -19.0952   10.2098   -1.1784 H   0  0  0  0  0
  -21.9411    4.1319   -1.4457 H   0  0  0  0  0
  -23.7264    4.7889   -3.7607 H   0  0  0  0  0
  -23.5384    2.5173   -4.4259 H   0  0  0  0  0
  -22.6645    2.1086   -2.8351 H   0  0  0  0  0
  -20.7797    3.3675   -3.6089 H   0  0  0  0  0
  -20.8609    0.9389   -4.0690 H   0  0  0  0  0
  -21.6968    1.2505   -5.6102 H   0  0  0  0  0
  -20.0177    1.7976   -5.3816 H   0  0  0  0  0
  -22.3596    3.5602   -6.1969 H   0  0  0  0  0
  -21.9684    4.9132   -5.1073 H   0  0  0  0  0
  -20.6664    4.0666   -5.9786 H   0  0  0  0  0
  -23.8956    4.5543   -0.6051 H   0  0  0  0  0
  -26.3024    2.9271   -0.2362 H   0  0  0  0  0
  -25.7889    5.8499   -1.3450 H   0  0  0  0  0
  -24.6208    4.7278    1.5755 H   0  0  0  0  0
  -24.6115    2.9395    1.5289 H   0  0  0  0  0
  -25.8771    3.7829    3.2427 H   0  0  0  0  0
  1  2  1  0  0  0
  2  3  1  0  0  0
  2  5  1  0  0  0
  3  4  2  0  0  0
  3 10  1  0  0  0
  5  6  1  0  0  0
  6  7  1  0  0  0
  7  8  1  0  0  0
  7  9  2  0  0  0
 10 11  1  0  0  0
 11 12  1  0  0  0
 11 14  1  0  0  0
 12 13  2  0  0  0
 12 17  1  0  0  0
 14 15  1  0  0  0
 14 16  1  0  0  0
 17 18  1  0  0  0
 18 19  1  0  0  0
 18 21  1  0  0  0
 19 20  2  0  0  0
 19 28  1  0  0  0
 21 22  1  0  0  0
 22 23  4  0  0  0
 22 24  4  0  0  0
 23 25  4  0  0  0
 24 26  4  0  0  0
 25 27  4  0  0  0
 26 27  4  0  0  0
 28 29  1  0  0  0
 29 30  1  0  0  0
 29 32  1  0  0  0
 30 31  2  0  0  0
 30 37  1  0  0  0
 32 33  1  0  0  0
 33 34  1  0  0  0
 34 35  2  0  0  0
 34 36  1  0  0  0
 37 38  1  0  0  0
 38 39  1  0  0  0
 38 41  1  0  0  0
 39 40  2  0  0  0
 39 47  1  0  0  0
 41 42  1  0  0  0
 42 43  4  0  0  0
 42 44  4  0  0  0
 43 45  4  0  0  0
 44 46  4  0  0  0
 45 46  4  0  0  0
 47 48  1  0  0  0
 48 49  1  0  0  0
 48 51  1  0  0  0
 49 50  2  0  0  0
 49 61  1  0  0  0
 51 52  1  0  0  0
 52 53  4  0  0  0
 52 54  4  0  0  0
 53 55  4  0  0  0
 54 56  4  0  0  0
 54 57  4  0  0  0
 55 56  4  0  0  0
 56 58  4  0  0  0
 57 59  4  0  0  0
 58 60  4  0  0  0
 59 60  4  0  0  0
 61 62  1  0  0  0
 62 63  1  0  0  0
 62 65  1  0  0  0
 63 64  2  0  0  0
 63 75  1  0  0  0
 65 66  1  0  0  0
 66 67  4  0  0  0
 66 68  4  0  0  0
 67 69  4  0  0  0
 68 70  4  0  0  0
 68 71  4  0  0  0
 69 70  4  0  0  0
 70 72  4  0  0  0
 71 73  4  0  0  0
 72 74  4  0  0  0
 73 74  4  0  0  0
 75 76  1  0  0  0
 76 77  1  0  0  0
 76 79  1  0  0  0
 77 78  2  0  0  0
 77 81  1  0  0  0
 79 80  1  0  0  0
 81 82  1  0  0  0
 82 83  1  0  0  0
 82 85  1  0  0  0
 83 84  2  0  0  0
 83 90  1  0  0  0
 85 86  1  0  0  0
 86 87  1  0  0  0
 87 88  2  0  0  0
 87 89  1  0  0  0
 90 91  1  0  0  0
 91 92  1  0  0  0
 91 94  1  0  0  0
 92 93  2  0  0  0
 92 98  1  0  0  0
 94 95  1  0  0  0
 95 96  1  0  0  0
 95 97  1  0  0  0
 98 99  1  0  0  0
 99100  1  0  0  0
 99102  1  0  0  0
100101  2  0  0  0
100106  1  0  0  0
102103  1  0  0  0
103104  1  0  0  0
103105  1  0  0  0
106107  1  0  0  0
107108  1  0  0  0
107110  1  0  0  0
108109  1  0  0  0
108112  2  0  0  0
110111  1  0  0  0
  1113  1  0  0  0
  1114  1  0  0  0
  1115  1  0  0  0
  2116  1  0  0  0
  5117  1  0  0  0
  5118  1  0  0  0
  6119  1  0  0  0
  6120  1  0  0  0
  8121  1  0  0  0
 10122  1  0  0  0
 11123  1  0  0  0
 14124  1  0  0  0
 15125  1  0  0  0
 16126  1  0  0  0
 16127  1  0  0  0
 16128  1  0  0  0
 17129  1  0  0  0
 18130  1  0  0  0
 21131  1  0  0  0
 21132  1  0  0  0
 23133  1  0  0  0
 24134  1  0  0  0
 25135  1  0  0  0
 26136  1  0  0  0
 27137  1  0  0  0
 28138  1  0  0  0
 29139  1  0  0  0
 32140  1  0  0  0
 32141  1  0  0  0
 33142  1  0  0  0
 33143  1  0  0  0
 36144  1  0  0  0
 37145  1  0  0  0
 38146  1  0  0  0
 41147  1  0  0  0
 41148  1  0  0  0
 44149  1  0  0  0
 45150  1  0  0  0
 47151  1  0  0  0
 48152  1  0  0  0
 51153  1  0  0  0
 51154  1  0  0  0
 53155  1  0  0  0
 57156  1  0  0  0
 58157  1  0  0  0
 59158  1  0  0  0
 60159  1  0  0  0
 61160  1  0  0  0
 62161  1  0  0  0
 65162  1  0  0  0
 65163  1  0  0  0
 67164  1  0  0  0
 71165  1  0  0  0
 72166  1  0  0  0
 73167  1  0  0  0
 74168  1  0  0  0
 75169  1  0  0  0
 76170  1  0  0  0
 79171  1  0  0  0
 79172  1  0  0  0
 80173  1  0  0  0
 81174  1  0  0  0
 82175  1  0  0  0
 85176  1  0  0  0
 85177  1  0  0  0
 86178  1  0  0  0
 86179  1  0  0  0
 89180  1  0  0  0
 89181  1  0  0  0
 90182  1  0  0  0
 91183  1  0  0  0
 94184  1  0  0  0
 94185  1  0  0  0
 95186  1  0  0  0
 96187  1  0  0  0
 96188  1  0  0  0
 96189  1  0  0  0
 97190  1  0  0  0
 97191  1  0  0  0
 97192  1  0  0  0
 98193  1  0  0  0
 99194  1  0  0  0
102195  1  0  0  0
102196  1  0  0  0
103197  1  0  0  0
104198  1  0  0  0
104199  1  0  0  0
104200  1  0  0  0
105201  1  0  0  0
105202  1  0  0  0
105203  1  0  0  0
106204  1  0  0  0
107205  1  0  0  0
109206  1  0  0  0
110207  1  0  0  0
110208  1  0  0  0
111209  1  0  0  0
M  END
$$$$
