### 
### Created by X-TOOL on Mon Sep 10 21:13:01 2018
### 

@<TRIPOS>MOLECULE
3jzs_ligand
  209   214     1     0     0
SMALL
GAST_HUCK


@<TRIPOS>ATOM
      1 N         -11.3360    0.6570    8.7380 N.4       1 GLU         0.2380
      2 CA        -12.1200    0.0100    7.6320 C.3       1 GLU         0.0665
      3 C         -11.4030    0.0400    6.2870 C.2       1 GLU         0.2269
      4 O         -10.5310    0.8730    6.0560 O.2       1 GLU        -0.3907
      5 CB        -13.4790    0.6870    7.5300 C.3       1 GLU         0.0194
      6 CG        -14.2630    0.5920    8.8160 C.3       1 GLU         0.0075
      7 CD        -14.2570   -0.8200    9.3500 C.2       1 GLU         0.0351
      8 OE1       -13.2170   -1.2230    9.9390 O.co2     1 GLU        -0.5690
      9 OE2       -15.2730   -1.5420    9.1570 O.co2     1 GLU        -0.5690
     10 N         -11.7930   -0.8570    5.4010 N.am      1 THR        -0.2586
     11 CA        -11.1740   -0.9760    4.0790 C.3       1 THR         0.1566
     12 C         -11.6380    0.0810    3.1170 C.2       1 THR         0.2066
     13 O         -12.6240    0.7210    3.3750 O.2       1 THR        -0.3943
     14 CB        -11.4810   -2.3270    3.4620 C.3       1 THR         0.0924
     15 OG1       -12.8880   -2.4150    3.1670 O.3       1 THR        -0.3874
     16 CG2       -11.1170   -3.4050    4.4440 C.3       1 THR        -0.0346
     17 N         -10.9200    0.2440    2.0030 N.am      1 PHE        -0.2619
     18 CA        -11.3110    1.2670    1.0300 C.3       1 PHE         0.1404
     19 C         -12.7350    0.9670    0.5360 C.2       1 PHE         0.2060
     20 O         -13.5780    1.8620    0.4610 O.2       1 PHE        -0.3942
     21 CB        -10.3550    1.2890   -0.1620 C.3       1 PHE         0.0214
     22 CG        -10.8580    2.1110   -1.2650 C.ar      1 PHE        -0.0386
     23 CD1       -10.8510    3.5040   -1.1680 C.ar      1 PHE        -0.0601
     24 CD2       -11.4930    1.5060   -2.3340 C.ar      1 PHE        -0.0601
     25 CE1       -11.4820    4.2850   -2.1120 C.ar      1 PHE        -0.0686
     26 CE2       -12.1360    2.2780   -3.3020 C.ar      1 PHE        -0.0686
     27 CZ        -12.1310    3.6910   -3.1730 C.ar      1 PHE        -0.0687
     28 N         -12.9780   -0.2950    0.1680 N.am      1 GLU        -0.2635
     29 CA        -14.2920   -0.7150   -0.3050 C.3       1 GLU         0.1325
     30 C         -15.3920   -0.3740    0.7070 C.2       1 GLU         0.2041
     31 O         -16.4850    0.0310    0.3200 O.2       1 GLU        -0.3944
     32 CB        -14.2930   -2.2240   -0.6150 C.3       1 GLU        -0.0008
     33 CG        -13.6470   -2.5930   -1.9730 C.3       1 GLU         0.0044
     34 CD        -13.1050   -4.0700   -2.0270 C.2       1 GLU         0.0350
     35 OE1       -11.8790   -4.2450   -2.1570 O.co2     1 GLU        -0.5690
     36 OE2       -13.8860   -5.0460   -1.9260 O.co2     1 GLU        -0.5690
     37 N         -15.1320   -0.5620    1.9970 N.am      1 HIS        -0.2625
     38 CA        -16.1220   -0.2230    3.0380 C.3       1 HIS         0.1369
     39 C         -16.4670    1.2690    2.9780 C.2       1 HIS         0.2054
     40 O         -17.6520    1.6450    2.9000 O.2       1 HIS        -0.3942
     41 CB        -15.5990   -0.5540    4.4490 C.3       1 HIS         0.0145
     42 CG        -16.3830    0.0890    5.5640 C.2       1 HIS        -0.0027
     43 ND1       -17.5370   -0.4600    6.0820 N.2       1 HIS        -0.3252
     44 CD2       -16.1930    1.2520    6.2360 C.2       1 HIS         0.0291
     45 CE1       -18.0240    0.3350    7.0200 C.2       1 HIS         0.0907
     46 NE2       -17.2280    1.3820    7.1340 N.pl3     1 HIS        -0.2752
     47 N         -15.4490    2.1370    3.0350 N.am      1 TRP        -0.2625
     48 CA        -15.7420    3.5600    2.9430 C.3       1 TRP         0.1352
     49 C         -16.4510    3.9380    1.6090 C.2       1 TRP         0.2052
     50 O         -17.3850    4.7190    1.5830 O.2       1 TRP        -0.3942
     51 CB        -14.4460    4.3640    3.0420 C.3       1 TRP         0.0042
     52 CG        -13.7620    4.1530    4.3550 C.2       1 TRP        -0.0418
     53 CD1       -12.5330    3.6100    4.5610 C.2       1 TRP         0.0167
     54 CD2       -14.3040    4.4370    5.6360 C.ar      1 TRP        -0.0214
     55 NE1       -12.2760    3.5360    5.9030 N.pl3     1 TRP        -0.2890
     56 CE2       -13.3440    4.0370    6.5860 C.ar      1 TRP         0.0603
     57 CE3       -15.5080    4.9900    6.0740 C.ar      1 TRP        -0.0747
     58 CZ2       -13.5520    4.1640    7.9560 C.ar      1 TRP        -0.0443
     59 CZ3       -15.7230    5.1190    7.4500 C.ar      1 TRP        -0.0792
     60 CH2       -14.7400    4.7060    8.3730 C.ar      1 TRP        -0.0768
     61 N         -15.9880    3.3620    0.5170 N.am      1 TRP        -0.2626
     62 CA        -16.5420    3.7440   -0.7470 C.3       1 TRP         0.1352
     63 C         -17.9770    3.2940   -0.8920 C.2       1 TRP         0.2052
     64 O         -18.8240    4.0570   -1.3960 O.2       1 TRP        -0.3942
     65 CB        -15.6650    3.2330   -1.8940 C.3       1 TRP         0.0042
     66 CG        -16.0190    4.0060   -3.1470 C.2       1 TRP        -0.0418
     67 CD1       -16.9490    3.6760   -4.0950 C.2       1 TRP         0.0167
     68 CD2       -15.5350    5.3050   -3.4900 C.ar      1 TRP        -0.0214
     69 NE1       -17.0780    4.7090   -5.0290 N.pl3     1 TRP        -0.2890
     70 CE2       -16.2330    5.7230   -4.6660 C.ar      1 TRP         0.0603
     71 CE3       -14.5730    6.1660   -2.9190 C.ar      1 TRP        -0.0747
     72 CZ2       -16.0060    6.9730   -5.2700 C.ar      1 TRP        -0.0443
     73 CZ3       -14.3410    7.4090   -3.5240 C.ar      1 TRP        -0.0792
     74 CH2       -15.0600    7.7960   -4.6830 C.ar      1 TRP        -0.0768
     75 N         -18.2760    2.0870   -0.4090 N.am      1 SER        -0.2615
     76 CA        -19.6370    1.5390   -0.5350 C.3       1 SER         0.1539
     77 C         -20.6510    2.4820    0.1370 C.2       1 SER         0.2062
     78 O         -21.8350    2.5360   -0.2460 O.2       1 SER        -0.3943
     79 CB        -19.6870    0.1200    0.0800 C.3       1 SER         0.0843
     80 OG        -19.5570    0.2240    1.4960 O.3       1 SER        -0.3903
     81 N         -20.2110    3.2530    1.1300 N.am      1 GLN        -0.2635
     82 CA        -21.1320    4.1960    1.7550 C.3       1 GLN         0.1330
     83 C         -21.6100    5.2460    0.7750 C.2       1 GLN         0.2040
     84 O         -22.7350    5.7490    0.8930 O.2       1 GLN        -0.3944
     85 CB        -20.5000    4.8700    2.9610 C.3       1 GLN         0.0045
     86 CG        -20.1060    3.8880    4.0300 C.3       1 GLN         0.0412
     87 CD        -19.7470    4.5570    5.3480 C.2       1 GLN         0.1737
     88 OE1       -19.4420    3.8740    6.3330 O.2       1 GLN        -0.3973
     89 NE2       -19.7800    5.8940    5.3790 N.am      1 GLN        -0.3009
     90 N         -20.7730    5.6120   -0.2080 N.am      1 LEU        -0.2637
     91 CA        -21.2080    6.6010   -1.2020 C.3       1 LEU         0.1312
     92 C         -22.2780    6.0310   -2.1220 C.2       1 LEU         0.2039
     93 O         -22.9090    6.7830   -2.8620 O.2       1 LEU        -0.3944
     94 CB        -20.0260    7.0310   -2.0760 C.3       1 LEU        -0.0101
     95 CG        -19.0950    8.0750   -1.4510 C.3       1 LEU        -0.0425
     96 CD1       -17.7250    8.0760   -2.1490 C.3       1 LEU        -0.0625
     97 CD2       -19.7420    9.4500   -1.6170 C.3       1 LEU        -0.0625
     98 N         -22.4780    4.7080   -2.0940 N.am      1 LEU        -0.2637
     99 CA        -23.4580    4.0750   -2.9820 C.3       1 LEU         0.1312
    100 C         -24.7380    3.7110   -2.2240 C.2       1 LEU         0.2034
    101 O         -25.6690    3.0930   -2.7640 O.2       1 LEU        -0.3944
    102 CB        -22.8380    2.8160   -3.6460 C.3       1 LEU        -0.0101
    103 CG        -21.4910    2.9870   -4.3420 C.3       1 LEU        -0.0425
    104 CD1       -20.9790    1.6450   -4.8910 C.3       1 LEU        -0.0625
    105 CD2       -21.6310    3.9480   -5.4850 C.3       1 LEU        -0.0625
    106 N         -24.7310    4.0800   -0.9480 N.am      1 SER        -0.2672
    107 CA        -25.8040    3.8680   -0.0030 C.3       1 SER         0.1173
    108 C         -26.8090    5.0220   -0.0860 C.2       1 SER         0.0623
    109 O         -26.6040    5.9950   -0.8590 O.co2     1 SER        -0.5665
    110 CB        -25.2240    3.8340    1.4160 C.3       1 SER         0.0789
    111 OG        -26.2540    3.8040    2.3600 O.3       1 SER        -0.3910
    112 OXT       -27.7950    4.9400    0.6680 O.co2     1 SER        -0.5665
    113 H1        -11.8610    0.6050    9.5969 H         1 GLU         0.2015
    114 H2        -11.1640    1.6231    8.5073 H         1 GLU         0.2015
    115 H3        -10.4569    0.1771    8.8520 H         1 GLU         0.2015
    116 H4        -12.2765   -1.0450    7.9011 H         1 GLU         0.1099
    117 H5        -14.0557    0.2040    6.7274 H         1 GLU         0.0363
    118 H6        -13.3281    1.7487    7.2852 H         1 GLU         0.0363
    119 H7        -15.3018    0.9010    8.6277 H         1 GLU         0.0434
    120 H8        -13.8111    1.2610    9.5631 H         1 GLU         0.0434
    121 H9        -12.5388   -1.4784    5.6412 H         1 THR         0.1885
    122 H10       -10.0855   -0.8798    4.2052 H         1 THR         0.0826
    123 H11       -10.8997   -2.4533    2.5368 H         1 THR         0.0639
    124 H12       -13.0771   -3.2621    2.7808 H         1 THR         0.2101
    125 H13       -11.3362   -4.3897    4.0054 H         1 THR         0.0257
    126 H14       -11.7038   -3.2752    5.3653 H         1 THR         0.0257
    127 H15       -10.0446   -3.3392    4.6800 H         1 THR         0.0257
    128 H16       -10.1187   -0.3298    1.8336 H         1 PHE         0.1885
    129 H17       -11.2942    2.2521    1.5192 H         1 PHE         0.0823
    130 H18       -10.2167    0.2593   -0.5232 H         1 PHE         0.0474
    131 H19        -9.3874    1.6947    0.1684 H         1 PHE         0.0474
    132 H20       -10.3413    3.9784   -0.3372 H         1 PHE         0.0557
    133 H21       -11.4912    0.4254   -2.4204 H         1 PHE         0.0557
    134 H22       -11.4679    5.3650   -2.0202 H         1 PHE         0.0599
    135 H23       -12.6327    1.8047   -4.1413 H         1 PHE         0.0599
    136 H24       -12.6380    4.3038   -3.9095 H         1 PHE         0.0559
    137 H25       -12.2401   -0.9680    0.2183 H         1 GLU         0.1883
    138 H26       -14.5077   -0.1720   -1.2370 H         1 GLU         0.0801
    139 H27       -15.3358   -2.5740   -0.6226 H         1 GLU         0.0330
    140 H28       -13.7386   -2.7405    0.1824 H         1 GLU         0.0330
    141 H29       -12.8075   -1.9067   -2.1577 H         1 GLU         0.0433
    142 H30       -14.4021   -2.4697   -2.7633 H         1 GLU         0.0433
    143 H31       -14.2471   -0.9410    2.2678 H         1 HIS         0.1885
    144 H32       -17.0345   -0.8089    2.8535 H         1 HIS         0.0817
    145 H33       -14.5557   -0.2126    4.5193 H         1 HIS         0.0420
    146 H34       -15.6378   -1.6449    4.5844 H         1 HIS         0.0420
    147 H35       -15.3727    1.9535    6.0916 H         1 HIS         0.0729
    148 H36       -18.9282    0.1563    7.6000 H         1 HIS         0.1199
    149 H37       -17.3598    2.1671    7.7875 H         1 HIS         0.2361
    150 H38       -14.5080    1.8148    3.1385 H         1 TRP         0.1884
    151 H39       -16.4009    3.8324    3.7806 H         1 TRP         0.0815
    152 H40       -14.6804    5.4329    2.9301 H         1 TRP         0.0397
    153 H41       -13.7694    4.0503    2.2334 H         1 TRP         0.0397
    154 H42       -11.8540    3.2826    3.7750 H         1 TRP         0.0795
    155 H43       -11.4154    3.1624    6.3280 H         1 TRP         0.2216
    156 H44       -16.2603    5.3126    5.3633 H         1 TRP         0.0540
    157 H45       -12.8003    3.8452    8.6690 H         1 TRP         0.0541
    158 H46       -16.6543    5.5406    7.8105 H         1 TRP         0.0510
    159 H47       -14.9278    4.8195    9.4346 H         1 TRP         0.0530
    160 H48       -15.2652    2.6730    0.5704 H         1 TRP         0.1884
    161 H49       -16.5385    4.8431   -0.7917 H         1 TRP         0.0815
    162 H50       -15.8505    2.1607   -2.0542 H         1 TRP         0.0397
    163 H51       -14.6042    3.3890   -1.6485 H         1 TRP         0.0397
    164 H52       -17.5088    2.7422   -4.1188 H         1 TRP         0.0795
    165 H53       -17.7015    4.7071   -5.8489 H         1 TRP         0.2216
    166 H54       -14.0251    5.8720   -2.0311 H         1 TRP         0.0540
    167 H55       -16.5486    7.2788   -6.1572 H         1 TRP         0.0541
    168 H56       -13.6037    8.0818   -3.1010 H         1 TRP         0.0510
    169 H57       -14.8629    8.7667   -5.1234 H         1 TRP         0.0530
    170 H58       -17.5667    1.5473    0.0445 H         1 SER         0.1884
    171 H59       -19.8895    1.4638   -1.6030 H         1 SER         0.0823
    172 H60       -18.8620   -0.4860   -0.3227 H         1 SER         0.0606
    173 H61       -20.6470   -0.3562   -0.1684 H         1 SER         0.0606
    174 H62       -18.7278    0.6366    1.7073 H         1 SER         0.2097
    175 H63       -19.2634    3.1864    1.4424 H         1 GLN         0.1883
    176 H64       -22.0086    3.6286    2.1008 H         1 GLN         0.0801
    177 H65       -21.2225    5.5824    3.3857 H         1 GLN         0.0337
    178 H66       -19.6012    5.4118    2.6314 H         1 GLN         0.0337
    179 H67       -19.2342    3.3173    3.6777 H         1 GLN         0.0504
    180 H68       -20.9480    3.2017    4.2032 H         1 GLN         0.0504
    181 H69       -19.5521    6.3804    6.2225 H         1 GLN         0.1814
    182 H70       -20.0326    6.4071    4.5587 H         1 GLN         0.1814
    183 H71       -19.8577    5.2131   -0.2632 H         1 LEU         0.1883
    184 H72       -21.6124    7.4776   -0.6746 H         1 LEU         0.0800
    185 H73       -20.4287    7.4505   -3.0097 H         1 LEU         0.0315
    186 H74       -19.4285    6.1360   -2.3038 H         1 LEU         0.0315
    187 H75       -18.9587    7.8527   -0.3824 H         1 LEU         0.0298
    188 H76       -17.0766    8.8324   -1.6828 H         1 LEU         0.0232
    189 H77       -17.8568    8.3128   -3.2151 H         1 LEU         0.0232
    190 H78       -17.2615    7.0835   -2.0484 H         1 LEU         0.0232
    191 H79       -20.7231    9.4560   -1.1196 H         1 LEU         0.0232
    192 H80       -19.8723    9.6671   -2.6874 H         1 LEU         0.0232
    193 H81       -19.0962   10.2163   -1.1634 H         1 LEU         0.0232
    194 H82       -21.9516    4.1432   -1.4584 H         1 LEU         0.1883
    195 H83       -23.7203    4.7919   -3.7740 H         1 LEU         0.0800
    196 H84       -23.5544    2.4509   -4.3967 H         1 LEU         0.0315
    197 H85       -22.7107    2.0563   -2.8607 H         1 LEU         0.0315
    198 H86       -20.7630    3.3825   -3.6185 H         1 LEU         0.0298
    199 H87       -20.0088    1.7977   -5.3863 H         1 LEU         0.0232
    200 H88       -21.7025    1.2458   -5.6170 H         1 LEU         0.0232
    201 H89       -20.8593    0.9315   -4.0624 H         1 LEU         0.0232
    202 H90       -21.9970    4.9146   -5.1086 H         1 LEU         0.0232
    203 H91       -22.3462    3.5452   -6.2173 H         1 LEU         0.0232
    204 H92       -20.6526    4.0891   -5.9674 H         1 LEU         0.0232
    205 H93       -23.9120    4.5450   -0.6118 H         1 SER         0.1876
    206 H94       -26.3098    2.9167   -0.2249 H         1 SER         0.0749
    207 H95       -24.6090    4.7314    1.5783 H         1 SER         0.0599
    208 H96       -24.5996    2.9358    1.5315 H         1 SER         0.0599
    209 H97       -25.8810    3.7832    3.2335 H         1 SER         0.2096
@<TRIPOS>BOND
     1    1    2 1  
     2    2    3 1  
     3    2    5 1  
     4    3    4 2  
     5    3   10 am 
     6    5    6 1  
     7    6    7 1  
     8    7    8 ar 
     9    7    9 ar 
    10   10   11 1  
    11   11   12 1  
    12   11   14 1  
    13   12   13 2  
    14   12   17 am 
    15   14   15 1  
    16   14   16 1  
    17   17   18 1  
    18   18   19 1  
    19   18   21 1  
    20   19   20 2  
    21   19   28 am 
    22   21   22 1  
    23   22   23 ar 
    24   22   24 ar 
    25   23   25 ar 
    26   24   26 ar 
    27   25   27 ar 
    28   26   27 ar 
    29   28   29 1  
    30   29   30 1  
    31   29   32 1  
    32   30   31 2  
    33   30   37 am 
    34   32   33 1  
    35   33   34 1  
    36   34   35 ar 
    37   34   36 ar 
    38   37   38 1  
    39   38   39 1  
    40   38   41 1  
    41   39   40 2  
    42   39   47 am 
    43   41   42 1  
    44   42   43 1  
    45   42   44 2  
    46   43   45 2  
    47   44   46 1  
    48   45   46 1  
    49   47   48 1  
    50   48   49 1  
    51   48   51 1  
    52   49   50 2  
    53   49   61 am 
    54   51   52 1  
    55   52   53 2  
    56   52   54 1  
    57   53   55 1  
    58   54   56 ar 
    59   54   57 ar 
    60   55   56 1  
    61   56   58 ar 
    62   57   59 ar 
    63   58   60 ar 
    64   59   60 ar 
    65   61   62 1  
    66   62   63 1  
    67   62   65 1  
    68   63   64 2  
    69   63   75 am 
    70   65   66 1  
    71   66   67 2  
    72   66   68 1  
    73   67   69 1  
    74   68   70 ar 
    75   68   71 ar 
    76   69   70 1  
    77   70   72 ar 
    78   71   73 ar 
    79   72   74 ar 
    80   73   74 ar 
    81   75   76 1  
    82   76   77 1  
    83   76   79 1  
    84   77   78 2  
    85   77   81 am 
    86   79   80 1  
    87   81   82 1  
    88   82   83 1  
    89   82   85 1  
    90   83   84 2  
    91   83   90 am 
    92   85   86 1  
    93   86   87 1  
    94   87   88 2  
    95   87   89 am 
    96   90   91 1  
    97   91   92 1  
    98   91   94 1  
    99   92   93 2  
   100   92   98 am 
   101   94   95 1  
   102   95   96 1  
   103   95   97 1  
   104   98   99 1  
   105   99  100 1  
   106   99  102 1  
   107  100  101 2  
   108  100  106 am 
   109  102  103 1  
   110  103  104 1  
   111  103  105 1  
   112  106  107 1  
   113  107  108 1  
   114  107  110 1  
   115  108  109 ar 
   116  108  112 ar 
   117  110  111 1  
   118    1  113 1  
   119    1  114 1  
   120    1  115 1  
   121    2  116 1  
   122    5  117 1  
   123    5  118 1  
   124    6  119 1  
   125    6  120 1  
   126   10  121 1  
   127   11  122 1  
   128   14  123 1  
   129   15  124 1  
   130   16  125 1  
   131   16  126 1  
   132   16  127 1  
   133   17  128 1  
   134   18  129 1  
   135   21  130 1  
   136   21  131 1  
   137   23  132 1  
   138   24  133 1  
   139   25  134 1  
   140   26  135 1  
   141   27  136 1  
   142   28  137 1  
   143   29  138 1  
   144   32  139 1  
   145   32  140 1  
   146   33  141 1  
   147   33  142 1  
   148   37  143 1  
   149   38  144 1  
   150   41  145 1  
   151   41  146 1  
   152   44  147 1  
   153   45  148 1  
   154   46  149 1  
   155   47  150 1  
   156   48  151 1  
   157   51  152 1  
   158   51  153 1  
   159   53  154 1  
   160   55  155 1  
   161   57  156 1  
   162   58  157 1  
   163   59  158 1  
   164   60  159 1  
   165   61  160 1  
   166   62  161 1  
   167   65  162 1  
   168   65  163 1  
   169   67  164 1  
   170   69  165 1  
   171   71  166 1  
   172   72  167 1  
   173   73  168 1  
   174   74  169 1  
   175   75  170 1  
   176   76  171 1  
   177   79  172 1  
   178   79  173 1  
   179   80  174 1  
   180   81  175 1  
   181   82  176 1  
   182   85  177 1  
   183   85  178 1  
   184   86  179 1  
   185   86  180 1  
   186   89  181 1  
   187   89  182 1  
   188   90  183 1  
   189   91  184 1  
   190   94  185 1  
   191   94  186 1  
   192   95  187 1  
   193   96  188 1  
   194   96  189 1  
   195   96  190 1  
   196   97  191 1  
   197   97  192 1  
   198   97  193 1  
   199   98  194 1  
   200   99  195 1  
   201  102  196 1  
   202  102  197 1  
   203  103  198 1  
   204  104  199 1  
   205  104  200 1  
   206  104  201 1  
   207  105  202 1  
   208  105  203 1  
   209  105  204 1  
   210  106  205 1  
   211  107  206 1  
   212  110  207 1  
   213  110  208 1  
   214  111  209 1  
@<TRIPOS>SUBSTRUCTURE
     1 GLU         1

