1hos_ligand
  -I-interpret- 

106109  0  0  0  0  0  0  0  0999 V2000
  -11.8060   14.2810   32.9730 C   0  0  0  0  0
  -12.5370   15.2660   33.2010 O   0  0  0  0  0
  -12.1400   13.0310   33.3080 O   0  0  0  0  0
  -13.5450   12.6790   33.3440 C   0  0  0  0  0
  -13.6900   11.1780   33.2350 C   0  0  0  0  0
  -12.8830   10.4570   32.3670 C   0  0  0  0  0
  -14.6320   10.5430   34.0160 C   0  0  0  0  0
  -13.0240    9.0890   32.2790 C   0  0  0  0  0
  -14.7660    9.1800   33.9230 C   0  0  0  0  0
  -13.9670    8.4550   33.0610 C   0  0  0  0  0
  -10.6320   14.4110   32.3710 N   0  0  0  0  0
  -10.1320   15.6830   31.9370 C   0  0  0  0  0
   -8.8190   16.0070   32.6870 C   0  0  0  0  0
   -8.1430   17.1840   32.0580 C   0  0  0  0  0
   -9.1020   16.5270   34.1000 C   0  0  0  0  0
   -9.9450   15.3550   30.4590 C   0  0  0  0  0
   -9.1700   14.4630   30.1010 O   0  0  0  0  0
  -10.6720   16.0660   29.5990 N   0  0  0  0  0
  -10.6500   15.9040   28.1450 C   0  0  0  0  0
  -12.0690   15.6350   27.5810 C   0  0  0  0  0
  -12.7020   14.4350   28.2690 C   0  0  0  0  0
  -13.8110   14.6140   29.0700 C   0  0  0  0  0
  -12.1110   13.1780   28.1650 C   0  0  0  0  0
  -14.3120   13.5420   29.7680 C   0  0  0  0  0
  -12.6260   12.1100   28.8710 C   0  0  0  0  0
  -13.7230   12.3040   29.6690 C   0  0  0  0  0
  -10.1060   17.5440   27.6070 P   0  0  0  0  0
  -10.3760   18.5240   28.6760 O   0  0  0  0  0
  -10.8580   18.0890   26.4480 O   0  0  0  0  0
   -8.3910   17.3450   25.6990 N   0  0  0  0  0
   -8.3750   17.3260   27.1500 C   0  0  0  0  0
   -7.5110   18.4950   27.6650 C   0  0  0  0  0
   -6.0630   18.2030   27.3040 C   0  0  0  0  0
   -5.4620   18.8730   26.2520 C   0  0  0  0  0
   -5.3910   17.1840   27.9520 C   0  0  0  0  0
   -4.2000   18.4990   25.8480 C   0  0  0  0  0
   -4.1320   16.8220   27.5380 C   0  0  0  0  0
   -3.5410   17.4760   26.4840 C   0  0  0  0  0
   -6.6320   16.6110   23.1420 N   0  0  0  0  0
   -8.0490   16.4870   23.4280 C   0  0  0  0  0
   -8.7050   15.2370   22.8400 C   0  0  0  0  0
  -10.1970   15.3290   23.1230 C   0  0  0  0  0
   -8.5050   15.1430   21.3500 C   0  0  0  0  0
   -7.9900   16.3320   24.9310 C   0  0  0  0  0
   -7.5580   15.2850   25.4050 O   0  0  0  0  0
   -3.9600   16.8860   21.6550 C   0  0  0  0  0
   -2.5840   16.8520   22.3450 C   0  0  0  0  0
   -2.0150   18.0070   22.8560 C   0  0  0  0  0
   -0.7700   17.9660   23.4600 C   0  0  0  0  0
   -0.6390   15.6240   23.0590 C   0  0  0  0  0
   -1.8820   15.6630   22.4540 C   0  0  0  0  0
   -0.0770   16.7810   23.5640 C   0  0  0  0  0
   -4.8250   17.8490   22.3380 O   0  0  0  0  0
   -6.1340   17.7180   22.5890 C   0  0  0  0  0
   -6.8680   18.6750   22.2980 O   0  0  0  0  0
  -14.0610   13.1559   32.5107 H   0  0  0  0  0
  -13.9814   13.0195   34.2830 H   0  0  0  0  0
  -12.1401   10.9707   31.7568 H   0  0  0  0  0
  -15.2614   11.1151   34.6976 H   0  0  0  0  0
  -12.3966    8.5137   31.5982 H   0  0  0  0  0
  -15.5083    8.6663   34.5339 H   0  0  0  0  0
  -14.0824    7.3730   32.9980 H   0  0  0  0  0
  -10.0653   13.5781   32.2111 H   0  0  0  0  0
  -10.7474   16.5647   32.1160 H   0  0  0  0  0
   -8.2349   15.0869   32.6701 H   0  0  0  0  0
   -7.9136   16.9561   31.0171 H   0  0  0  0  0
   -8.8045   18.0490   32.1046 H   0  0  0  0  0
   -7.2201   17.4014   32.5956 H   0  0  0  0  0
   -9.7012   17.4354   34.0382 H   0  0  0  0  0
   -9.6465   15.7686   34.6626 H   0  0  0  0  0
   -8.1590   16.7456   34.6010 H   0  0  0  0  0
  -11.2921   16.7786   29.9837 H   0  0  0  0  0
  -10.0283   15.0711   27.8165 H   0  0  0  0  0
  -11.9908   15.4286   26.5136 H   0  0  0  0  0
  -12.6912   16.5121   27.7590 H   0  0  0  0  0
  -14.2835   15.5932   29.1480 H   0  0  0  0  0
  -11.2401   13.0377   27.5248 H   0  0  0  0  0
  -15.1853   13.6745   30.4067 H   0  0  0  0  0
  -12.1661   11.1247   28.7949 H   0  0  0  0  0
  -14.1337   11.4661   30.2323 H   0  0  0  0  0
  -10.7413   17.5098   25.6913 H   0  0  0  0  0
   -8.7312   18.1883   25.2368 H   0  0  0  0  0
   -7.9548   16.4131   27.5722 H   0  0  0  0  0
   -7.6173   18.5947   28.7452 H   0  0  0  0  0
   -7.8320   19.4308   27.2076 H   0  0  0  0  0
   -5.9824   19.6880   25.7489 H   0  0  0  0  0
   -5.8592   16.6682   28.7904 H   0  0  0  0  0
   -3.7210   19.0183   25.0180 H   0  0  0  0  0
   -3.6020   16.0161   28.0456 H   0  0  0  0  0
   -2.5455   17.1817   26.1516 H   0  0  0  0  0
   -6.0057   15.8382   23.3677 H   0  0  0  0  0
   -8.6302   17.3137   23.0195 H   0  0  0  0  0
   -8.2519   14.3551   23.2928 H   0  0  0  0  0
  -10.3591   15.3747   24.1999 H   0  0  0  0  0
  -10.5995   16.2275   22.6552 H   0  0  0  0  0
  -10.6976   14.4505   22.7159 H   0  0  0  0  0
   -8.9449   16.0171   20.8698 H   0  0  0  0  0
   -7.4382   15.1041   21.1296 H   0  0  0  0  0
   -8.9877   14.2400   20.9762 H   0  0  0  0  0
   -3.8368   17.1833   20.6136 H   0  0  0  0  0
   -4.4131   15.8956   21.6993 H   0  0  0  0  0
   -2.5506   18.9535   22.7821 H   0  0  0  0  0
   -0.3335   18.8822   23.8577 H   0  0  0  0  0
   -0.1017   14.6789   23.1376 H   0  0  0  0  0
   -2.3154   14.7449   22.0573 H   0  0  0  0  0
    0.9036   16.7557   24.0392 H   0  0  0  0  0
  1 11  1  0  0  0
  1  3  1  0  0  0
  1  2  2  0  0  0
  3  4  1  0  0  0
  4  5  1  0  0  0
  5  7  4  0  0  0
  5  6  4  0  0  0
  6  8  4  0  0  0
  8 10  4  0  0  0
 10  9  4  0  0  0
  9  7  4  0  0  0
 11 12  1  0  0  0
 12 16  1  0  0  0
 12 13  1  0  0  0
 13 15  1  0  0  0
 13 14  1  0  0  0
 16 18  1  0  0  0
 16 17  2  0  0  0
 18 19  1  0  0  0
 19 27  1  0  0  0
 19 20  1  0  0  0
 20 21  1  0  0  0
 21 23  4  0  0  0
 21 22  4  0  0  0
 22 24  4  0  0  0
 24 26  4  0  0  0
 26 25  4  0  0  0
 25 23  4  0  0  0
 27 31  1  0  0  0
 27 29  1  0  0  0
 27 28  2  0  0  0
 31 30  1  0  0  0
 31 32  1  0  0  0
 32 33  1  0  0  0
 33 35  4  0  0  0
 33 34  4  0  0  0
 34 36  4  0  0  0
 36 38  4  0  0  0
 38 37  4  0  0  0
 37 35  4  0  0  0
 30 44  1  0  0  0
 44 45  2  0  0  0
 44 40  1  0  0  0
 40 41  1  0  0  0
 40 39  1  0  0  0
 39 54  1  0  0  0
 54 55  2  0  0  0
 54 53  1  0  0  0
 53 46  1  0  0  0
 46 47  1  0  0  0
 47 51  4  0  0  0
 47 48  4  0  0  0
 48 49  4  0  0  0
 49 52  4  0  0  0
 52 50  4  0  0  0
 50 51  4  0  0  0
 41 43  1  0  0  0
 41 42  1  0  0  0
  4 56  1  0  0  0
  4 57  1  0  0  0
  6 58  1  0  0  0
  7 59  1  0  0  0
  8 60  1  0  0  0
  9 61  1  0  0  0
 10 62  1  0  0  0
 11 63  1  0  0  0
 12 64  1  0  0  0
 13 65  1  0  0  0
 14 66  1  0  0  0
 14 67  1  0  0  0
 14 68  1  0  0  0
 15 69  1  0  0  0
 15 70  1  0  0  0
 15 71  1  0  0  0
 18 72  1  0  0  0
 19 73  1  0  0  0
 20 74  1  0  0  0
 20 75  1  0  0  0
 22 76  1  0  0  0
 23 77  1  0  0  0
 24 78  1  0  0  0
 25 79  1  0  0  0
 26 80  1  0  0  0
 29 81  1  0  0  0
 30 82  1  0  0  0
 31 83  1  0  0  0
 32 84  1  0  0  0
 32 85  1  0  0  0
 34 86  1  0  0  0
 35 87  1  0  0  0
 36 88  1  0  0  0
 37 89  1  0  0  0
 38 90  1  0  0  0
 39 91  1  0  0  0
 40 92  1  0  0  0
 41 93  1  0  0  0
 42 94  1  0  0  0
 42 95  1  0  0  0
 42 96  1  0  0  0
 43 97  1  0  0  0
 43 98  1  0  0  0
 43 99  1  0  0  0
 46100  1  0  0  0
 46101  1  0  0  0
 48102  1  0  0  0
 49103  1  0  0  0
 50104  1  0  0  0
 51105  1  0  0  0
 52106  1  0  0  0
M  END
$$$$
