2nno_ligand
  -I-interpret- 

 26 26  0  0  0  0  0  0  0  0999 V2000
   -5.2250    2.2620   15.7630 C   0  0  0  0  0
   -6.0360    3.3290   15.3740 C   0  0  0  0  0
   -5.5100    4.3470   14.6030 C   0  0  0  0  0
   -4.1730    4.3810   14.2540 C   0  0  0  0  0
   -3.3800    3.3140   14.6600 C   0  0  0  0  0
   -3.8870    2.2390   15.3770 C   0  0  0  0  0
   -5.9090    0.9430   16.7400 S   0  0  0  0  0
   -7.3410    1.0560   16.6070 O   0  0  0  0  0
   -5.3450    1.1320   18.0680 O   0  0  0  0  0
   -5.4050   -0.4380   16.1190 N   0  0  0  0  0
   -3.6750    5.5010   13.4070 C   0  0  0  0  0
   -2.3920    6.1030   13.8980 C   0  0  0  0  0
   -1.7880    7.2010   13.0550 C   0  0  0  0  0
   -0.5620    7.2180   12.8070 O   0  0  0  0  0
   -2.5090    8.1280   12.6510 O   0  0  0  0  0
   -7.0823    3.3589   15.6780 H   0  0  0  0  0
   -6.1675    5.1459   14.2602 H   0  0  0  0  0
   -2.3201    3.3217   14.4058 H   0  0  0  0  0
   -3.2498    1.3926   15.6332 H   0  0  0  0  0
   -6.0756   -1.0869   15.7073 H   0  0  0  0  0
   -4.4122   -0.6717   16.1338 H   0  0  0  0  0
   -4.4315    6.2855   13.4258 H   0  0  0  0  0
   -3.4865    5.0984   12.4118 H   0  0  0  0  0
   -1.6631    5.2926   13.9006 H   0  0  0  0  0
   -2.6244    6.5585   14.8606 H   0  0  0  0  0
   -0.1494    6.4378   13.1847 H   0  0  0  0  0
  1  2  4  0  0  0
  1  6  4  0  0  0
  1  7  1  0  0  0
  2  3  4  0  0  0
  3  4  4  0  0  0
  4  5  4  0  0  0
  4 11  1  0  0  0
  5  6  4  0  0  0
  7  8  2  0  0  0
  7  9  2  0  0  0
  7 10  1  0  0  0
 11 12  1  0  0  0
 12 13  1  0  0  0
 13 14  1  0  0  0
 13 15  2  0  0  0
  2 16  1  0  0  0
  3 17  1  0  0  0
  5 18  1  0  0  0
  6 19  1  0  0  0
 10 20  1  0  0  0
 10 21  1  0  0  0
 11 22  1  0  0  0
 11 23  1  0  0  0
 12 24  1  0  0  0
 12 25  1  0  0  0
 14 26  1  0  0  0
M  END
$$$$
