2buc_ligand
  -I-interpret- 

 49 51  0  0  0  0  0  0  0  0999 V2000
   -5.7220   17.7240    4.1630 F   0  0  0  0  0
   -7.0390   17.9280    4.0130 C   0  0  0  0  0
   -7.8220   16.9170    3.4580 C   0  0  0  0  0
   -9.1930   17.1080    3.2950 C   0  0  0  0  0
   -9.7750   18.3100    3.6910 C   0  0  0  0  0
   -8.9910   19.3190    4.2500 C   0  0  0  0  0
   -7.6180   19.1290    4.4140 C   0  0  0  0  0
   -6.7670   20.2270    5.0190 C   0  0  0  0  0
   -7.1360   20.4440    6.4910 C   0  0  0  0  0
   -6.7370   19.2730    7.2430 N   0  3  0  0  0
   -6.4380   21.6700    7.0810 C   0  0  0  0  0
   -6.9540   23.0040    6.5600 C   0  0  0  0  0
   -7.8810   23.0490    5.7640 O   0  0  0  0  0
   -6.3070   24.1030    6.9740 N   0  0  0  0  0
   -5.2060   24.1090    7.9400 C   0  0  0  0  0
   -5.5520   25.0590    9.0600 C   0  0  0  0  0
   -5.4210   24.7070   10.4030 C   0  0  0  0  0
   -5.7580   25.6400   11.3870 C   0  0  0  0  0
   -6.2250   26.9050   11.0200 C   0  0  0  0  0
   -6.0160   26.3110    8.6970 C   0  0  0  0  0
   -6.3500   27.2500    9.6720 C   0  0  0  0  0
   -6.1350   26.6250    7.2210 C   0  0  0  0  0
   -6.6770   25.4280    6.4170 C   0  0  0  0  0
   -6.2100   25.5660    4.9930 C   0  0  0  0  0
   -6.9920   25.9950    4.1640 O   0  0  0  0  0
   -4.9670   25.2160    4.6620 N   0  0  0  0  0
   -7.3622   15.9774    3.1516 H   0  0  0  0  0
   -9.8073   16.3200    2.8594 H   0  0  0  0  0
  -10.8467   18.4625    3.5636 H   0  0  0  0  0
   -9.4512   20.2574    4.5593 H   0  0  0  0  0
   -6.9413   21.1526    4.4704 H   0  0  0  0  0
   -5.7182   19.9370    4.9562 H   0  0  0  0  0
   -8.2118   20.6084    6.5518 H   0  0  0  0  0
   -6.9768   19.4035    8.2258 H   0  0  0  0  0
   -7.2242   18.4542    6.8788 H   0  0  0  0  0
   -5.7299   19.1391    7.1524 H   0  0  0  0  0
   -5.3868   21.6037    6.8004 H   0  0  0  0  0
   -6.6222   21.6550    8.1552 H   0  0  0  0  0
   -4.2862   24.4308    7.4517 H   0  0  0  0  0
   -5.0566   23.1053    8.3380 H   0  0  0  0  0
   -5.0604   23.7168   10.6815 H   0  0  0  0  0
   -5.6566   25.3812   12.4410 H   0  0  0  0  0
   -6.4936   27.6274   11.7908 H   0  0  0  0  0
   -6.7041   28.2405    9.3862 H   0  0  0  0  0
   -5.1416   26.8670    6.8433 H   0  0  0  0  0
   -6.8306   27.4561    7.1048 H   0  0  0  0  0
   -7.7651   25.4567    6.4755 H   0  0  0  0  0
   -4.6523   25.3050    3.6959 H   0  0  0  0  0
   -4.3307   24.8592    5.3749 H   0  0  0  0  0
  1  2  1  0  0  0
  2  3  4  0  0  0
  2  7  4  0  0  0
  3  4  4  0  0  0
  4  5  4  0  0  0
  5  6  4  0  0  0
  6  7  4  0  0  0
  7  8  1  0  0  0
  8  9  1  0  0  0
  9 10  1  0  0  0
  9 11  1  0  0  0
 11 12  1  0  0  0
 12 13  2  0  0  0
 12 14  1  0  0  0
 14 15  1  0  0  0
 14 23  1  0  0  0
 15 16  1  0  0  0
 16 17  4  0  0  0
 16 20  4  0  0  0
 17 18  4  0  0  0
 18 19  4  0  0  0
 19 21  4  0  0  0
 20 21  4  0  0  0
 20 22  1  0  0  0
 22 23  1  0  0  0
 23 24  1  0  0  0
 24 25  2  0  0  0
 24 26  1  0  0  0
  3 27  1  0  0  0
  4 28  1  0  0  0
  5 29  1  0  0  0
  6 30  1  0  0  0
  8 31  1  0  0  0
  8 32  1  0  0  0
  9 33  1  0  0  0
 10 34  1  0  0  0
 10 35  1  0  0  0
 10 36  1  0  0  0
 11 37  1  0  0  0
 11 38  1  0  0  0
 15 39  1  0  0  0
 15 40  1  0  0  0
 17 41  1  0  0  0
 18 42  1  0  0  0
 19 43  1  0  0  0
 21 44  1  0  0  0
 22 45  1  0  0  0
 22 46  1  0  0  0
 23 47  1  0  0  0
 26 48  1  0  0  0
 26 49  1  0  0  0
M  END
$$$$
