3sjf_ligand
  -I-interpret- 

 56 56  0  0  0  0  0  0  0  0999 V2000
   20.1410   45.6330   45.8170 C   0  0  0  0  0
   18.6580   45.3960   43.9460 N   0  0  0  0  0
   19.6260   46.7780   46.0570 O   0  0  0  0  0
   19.9730   45.0010   44.4330 C   0  0  0  0  0
   20.9840   45.6360   43.4270 C   0  0  0  0  0
   13.9150   48.8470   40.1760 C   0  0  0  0  0
   17.8880   45.6370   40.3950 O   0  0  0  0  0
   18.4290   43.6550   42.5610 O   0  0  0  0  0
   22.2550   49.6670   43.9380 O   0  0  0  0  0
   16.9490   43.9160   39.3810 O   0  0  0  0  0
   23.6370   50.3040   51.3770 I   0  0  0  0  0
   23.3800   50.9130   48.1100 C   0  0  0  0  0
   23.5020   48.6570   48.5380 C   0  0  0  0  0
   23.2520   50.6810   46.7090 C   0  0  0  0  0
   23.4010   48.3830   47.1280 C   0  0  0  0  0
   23.4200   45.9410   42.6700 C   0  0  0  0  0
   22.4450   45.2170   43.6730 C   0  0  0  0  0
   23.3970   47.4750   42.6850 C   0  0  0  0  0
   14.8230   46.6160   41.1390 C   0  0  0  0  0
   14.7380   45.1400   41.1900 C   0  0  0  0  0
   23.6680   47.9680   44.0550 N   0  0  0  0  0
   16.7460   45.1250   42.7140 N   0  0  0  0  0
   13.2730   47.2280   40.3730 S   0  0  0  0  0
   17.0410   44.7160   40.3370 C   0  0  0  0  0
   17.9700   44.6910   43.0490 C   0  0  0  0  0
   23.1040   49.0510   44.5910 C   0  0  0  0  0
   23.4950   49.9380   49.1520 C   0  0  0  0  0
   23.2950   49.3740   46.1360 C   0  0  0  0  0
   16.0900   44.5040   41.5590 C   0  0  0  0  0
   20.7520   44.9090   46.6270 O   0  0  0  0  0
   18.2438   46.2543   44.3096 H   0  0  0  0  0
   19.2155   47.1168   45.2581 H   0  0  0  0  0
   20.1166   43.9230   44.5066 H   0  0  0  0  0
   20.9297   46.7178   43.5485 H   0  0  0  0  0
   20.7099   45.2941   42.4290 H   0  0  0  0  0
   14.1807   49.2524   41.1523 H   0  0  0  0  0
   14.8015   48.8104   39.5429 H   0  0  0  0  0
   13.1606   49.4815   39.7107 H   0  0  0  0  0
   17.7745   46.1235   41.2148 H   0  0  0  0  0
   23.3917   51.9564   48.4250 H   0  0  0  0  0
   23.5929   47.7959   49.2001 H   0  0  0  0  0
   23.1157   51.5370   46.0480 H   0  0  0  0  0
   23.4071   47.3407   46.8092 H   0  0  0  0  0
   23.1027   45.6430   41.6707 H   0  0  0  0  0
   24.4284   45.6502   42.9645 H   0  0  0  0  0
   22.5285   44.1404   43.5244 H   0  0  0  0  0
   22.7210   45.4959   44.6899 H   0  0  0  0  0
   22.4153   47.8236   42.3644 H   0  0  0  0  0
   24.1629   47.8533   42.0080 H   0  0  0  0  0
   15.6879   46.9290   40.5541 H   0  0  0  0  0
   14.9419   47.0268   42.1416 H   0  0  0  0  0
   14.4464   44.7787   40.2038 H   0  0  0  0  0
   14.0094   44.8642   41.9524 H   0  0  0  0  0
   24.3304   47.4440   44.6269 H   0  0  0  0  0
   16.2859   45.8638   43.2459 H   0  0  0  0  0
   15.8996   43.4605   41.8100 H   0  0  0  0  0
  1  3  1  0  0  0
  4  1  1  0  0  0
  1 30  2  0  0  0
  4  2  1  0  0  0
  2 25  1  0  0  0
  5  4  1  0  0  0
 17  5  1  0  0  0
 23  6  1  0  0  0
 24  7  1  0  0  0
 25  8  2  0  0  0
 26  9  2  0  0  0
 24 10  2  0  0  0
 27 11  1  0  0  0
 14 12  4  0  0  0
 12 27  4  0  0  0
 15 13  4  0  0  0
 13 27  4  0  0  0
 28 14  4  0  0  0
 28 15  4  0  0  0
 16 17  1  0  0  0
 18 16  1  0  0  0
 21 18  1  0  0  0
 20 19  1  0  0  0
 19 23  1  0  0  0
 29 20  1  0  0  0
 26 21  1  0  0  0
 25 22  1  0  0  0
 22 29  1  0  0  0
 29 24  1  0  0  0
 26 28  1  0  0  0
  2 31  1  0  0  0
  3 32  1  0  0  0
  4 33  1  0  0  0
  5 34  1  0  0  0
  5 35  1  0  0  0
  6 36  1  0  0  0
  6 37  1  0  0  0
  6 38  1  0  0  0
  7 39  1  0  0  0
 12 40  1  0  0  0
 13 41  1  0  0  0
 14 42  1  0  0  0
 15 43  1  0  0  0
 16 44  1  0  0  0
 16 45  1  0  0  0
 17 46  1  0  0  0
 17 47  1  0  0  0
 18 48  1  0  0  0
 18 49  1  0  0  0
 19 50  1  0  0  0
 19 51  1  0  0  0
 20 52  1  0  0  0
 20 53  1  0  0  0
 21 54  1  0  0  0
 22 55  1  0  0  0
 29 56  1  0  0  0
M  END
$$$$
