5vdk_ligand
  -I-interpret- 

 70 74  0  0  0  0  0  0  0  0999 V2000
  -11.9880  -23.0000  -23.3730 C   0  0  0  0  0
  -12.4490  -23.2270  -21.9740 N   0  3  0  0  0
  -11.6130  -22.5400  -20.9470 C   0  0  0  0  0
  -12.2430  -22.6760  -19.5340 C   0  0  0  0  0
  -12.6290  -24.0450  -19.2050 N   0  0  0  0  0
  -13.4150  -24.6940  -20.2470 C   0  0  0  0  0
  -12.6710  -24.6580  -21.6080 C   0  0  0  0  0
  -12.7510  -24.4340  -17.8680 C   0  0  0  0  0
  -12.2480  -23.6500  -16.7950 C   0  0  0  0  0
  -12.3770  -24.0470  -15.4520 C   0  0  0  0  0
  -13.0200  -25.2630  -15.1130 C   0  0  0  0  0
  -13.2170  -25.7700  -13.8500 N   0  0  0  0  0
  -12.4090  -25.7430  -12.7460 C   0  0  0  0  0
  -12.8020  -26.3970  -11.6170 N   0  0  0  0  0
  -12.0420  -26.4070  -10.4820 C   0  0  0  0  0
  -10.8150  -25.7200  -10.4820 C   0  0  0  0  0
   -9.7900  -25.5110   -9.5220 C   0  0  0  0  0
   -9.6910  -25.9210   -8.3140 O   0  0  0  0  0
   -8.8340  -24.7510  -10.1480 N   0  0  0  0  0
   -7.6070  -24.2820   -9.5020 C   0  0  0  0  0
   -6.8710  -25.2280   -8.6670 C   0  0  0  0  0
   -6.6750  -26.4940   -9.0420 C   0  0  0  0  0
   -9.2200  -24.4790  -11.4000 N   0  0  0  0  0
  -10.4190  -25.0610  -11.6180 C   0  0  0  0  0
  -11.2190  -25.0880  -12.7110 N   0  0  0  0  0
   -8.6020  -23.7390  -12.3850 C   0  0  0  0  0
   -7.8060  -22.7140  -12.0150 N   0  0  0  0  0
   -7.1290  -21.8860  -12.8430 C   0  0  0  0  0
   -7.2630  -22.0840  -14.2360 C   0  0  0  0  0
   -8.0870  -23.1260  -14.6940 C   0  0  0  0  0
   -8.7560  -23.9560  -13.7770 C   0  0  0  0  0
   -6.2920  -20.8300  -12.2090 C   0  0  0  0  0
   -5.8430  -19.7110  -13.1900 C   0  0  0  0  0
   -5.0840  -21.5170  -11.5130 C   0  0  0  0  0
   -7.0460  -20.1900  -11.1740 O   0  0  0  0  0
  -13.5250  -26.0440  -16.1700 C   0  0  0  0  0
  -13.3960  -25.6450  -17.5100 C   0  0  0  0  0
  -11.0398  -23.5142  -23.5297 H   0  0  0  0  0
  -12.7328  -23.3890  -24.0673 H   0  0  0  0  0
  -11.8555  -21.9313  -23.5416 H   0  0  0  0  0
  -13.3690  -22.7865  -21.9673 H   0  0  0  0  0
  -11.5478  -21.4818  -21.2002 H   0  0  0  0  0
  -10.6252  -23.0008  -20.9351 H   0  0  0  0  0
  -13.1454  -22.0650  -19.5148 H   0  0  0  0  0
  -11.4946  -22.3604  -18.8072 H   0  0  0  0  0
  -14.3619  -24.1644  -20.3519 H   0  0  0  0  0
  -13.5785  -25.7342  -19.9651 H   0  0  0  0  0
  -11.7170  -25.1794  -21.5299 H   0  0  0  0  0
  -13.2643  -25.1556  -22.3751 H   0  0  0  0  0
  -11.7453  -22.7094  -17.0203 H   0  0  0  0  0
  -11.9773  -23.4112  -14.6621 H   0  0  0  0  0
  -14.1104  -26.2430  -13.7141 H   0  0  0  0  0
  -12.3805  -26.9380   -9.5923 H   0  0  0  0  0
   -7.9199  -23.4833   -8.8295 H   0  0  0  0  0
   -6.9297  -24.0256  -10.3166 H   0  0  0  0  0
   -6.4707  -24.8907   -7.7110 H   0  0  0  0  0
   -7.0688  -26.8473   -9.9950 H   0  0  0  0  0
   -6.1212  -27.1745   -8.3952 H   0  0  0  0  0
   -6.7372  -21.4407  -14.9415 H   0  0  0  0  0
   -8.2081  -23.2916  -15.7645 H   0  0  0  0  0
   -9.3920  -24.7650  -14.1362 H   0  0  0  0  0
   -5.2547  -20.1504  -13.9956 H   0  0  0  0  0
   -6.7227  -19.2204  -13.6066 H   0  0  0  0  0
   -5.2379  -18.9803  -12.6533 H   0  0  0  0  0
   -5.4490  -22.2104  -10.7554 H   0  0  0  0  0
   -4.5005  -22.0619  -12.2551 H   0  0  0  0  0
   -4.4583  -20.7588  -11.0421 H   0  0  0  0  0
   -6.5090  -19.5085  -10.7632 H   0  0  0  0  0
  -14.0293  -26.9830  -15.9421 H   0  0  0  0  0
  -13.8021  -26.2826  -18.2953 H   0  0  0  0  0
  1  2  1  0  0  0
  2  3  1  0  0  0
  2  7  1  0  0  0
  3  4  1  0  0  0
  4  5  1  0  0  0
  5  6  1  0  0  0
  5  8  1  0  0  0
  6  7  1  0  0  0
  8  9  4  0  0  0
  8 37  4  0  0  0
  9 10  4  0  0  0
 10 11  4  0  0  0
 11 12  1  0  0  0
 11 36  4  0  0  0
 12 13  1  0  0  0
 13 14  4  0  0  0
 13 25  4  0  0  0
 14 15  4  0  0  0
 15 16  4  0  0  0
 16 17  1  0  0  0
 16 24  4  0  0  0
 17 18  2  0  0  0
 17 19  1  0  0  0
 19 20  1  0  0  0
 19 23  1  0  0  0
 20 21  1  0  0  0
 21 22  2  0  0  0
 23 24  1  0  0  0
 23 26  1  0  0  0
 24 25  4  0  0  0
 26 27  4  0  0  0
 26 31  4  0  0  0
 27 28  4  0  0  0
 28 29  4  0  0  0
 28 32  1  0  0  0
 29 30  4  0  0  0
 30 31  4  0  0  0
 32 33  1  0  0  0
 32 34  1  0  0  0
 32 35  1  0  0  0
 36 37  4  0  0  0
  1 38  1  0  0  0
  1 39  1  0  0  0
  1 40  1  0  0  0
  2 41  1  0  0  0
  3 42  1  0  0  0
  3 43  1  0  0  0
  4 44  1  0  0  0
  4 45  1  0  0  0
  6 46  1  0  0  0
  6 47  1  0  0  0
  7 48  1  0  0  0
  7 49  1  0  0  0
  9 50  1  0  0  0
 10 51  1  0  0  0
 12 52  1  0  0  0
 15 53  1  0  0  0
 20 54  1  0  0  0
 20 55  1  0  0  0
 21 56  1  0  0  0
 22 57  1  0  0  0
 22 58  1  0  0  0
 29 59  1  0  0  0
 30 60  1  0  0  0
 31 61  1  0  0  0
 33 62  1  0  0  0
 33 63  1  0  0  0
 33 64  1  0  0  0
 34 65  1  0  0  0
 34 66  1  0  0  0
 34 67  1  0  0  0
 35 68  1  0  0  0
 36 69  1  0  0  0
 37 70  1  0  0  0
M  END
$$$$
