2vtt_ligand
  -I-interpret- 

 42 44  0  0  0  0  0  0  0  0999 V2000
   33.0000    9.6610   65.0650 C   0  0  0  0  0
   32.3270    9.3720   66.4030 C   0  0  0  0  0
   31.5880    8.0390   66.3690 C   0  0  0  0  0
   30.5880    8.0140   65.2130 C   0  0  0  0  0
   29.8800    6.7330   65.1390 N   0  0  0  0  0
   28.6430    6.6570   64.5980 C   0  0  0  0  0
   28.0660    7.6350   64.1300 O   0  0  0  0  0
   28.0110    5.3230   64.5600 C   0  0  0  0  0
   28.4670    4.2590   65.2770 N   0  0  0  0  0
   27.6340    3.2320   64.9620 N   0  0  0  0  0
   26.6710    3.6180   64.0940 C   0  0  0  0  0
   26.8990    4.9620   63.8100 C   0  0  0  0  0
   26.2300    5.8350   62.9630 N   0  0  0  0  0
   25.2840    5.4990   62.0660 C   0  0  0  0  0
   24.8090    4.3630   61.9810 O   0  0  0  0  0
   24.8310    6.5970   61.1580 C   0  0  0  0  0
   25.7210    7.2340   60.2860 C   0  0  0  0  0
   27.0130    6.8460   60.2850 F   0  0  0  0  0
   25.2990    8.2580   59.4360 C   0  0  0  0  0
   23.9690    8.6470   59.4430 C   0  0  0  0  0
   23.0710    8.0220   60.2980 C   0  0  0  0  0
   23.5140    7.0030   61.1410 C   0  0  0  0  0
   22.6500    6.3980   61.9770 F   0  0  0  0  0
   31.2950    8.3350   63.8840 C   0  0  0  0  0
   31.9970    9.6480   63.9620 N   0  3  0  0  0
   33.7485    8.8925   64.8719 H   0  0  0  0  0
   33.4657   10.6455   65.1084 H   0  0  0  0  0
   31.6077   10.1644   66.6100 H   0  0  0  0  0
   33.0937    9.3261   67.1764 H   0  0  0  0  0
   31.0494    7.9074   67.3075 H   0  0  0  0  0
   32.3112    7.2353   66.2305 H   0  0  0  0  0
   29.8400    8.7844   65.4002 H   0  0  0  0  0
   30.3253    5.8892   65.4996 H   0  0  0  0  0
   25.8702    2.9963   63.6937 H   0  0  0  0  0
   26.4781    6.8223   63.0261 H   0  0  0  0  0
   26.0107    8.7480   58.7716 H   0  0  0  0  0
   23.6286    9.4416   58.7790 H   0  0  0  0  0
   22.0244    8.3264   60.3103 H   0  0  0  0  0
   30.5486    8.3818   63.0910 H   0  0  0  0  0
   32.0288    7.5556   63.6788 H   0  0  0  0  0
   32.4825    9.8097   63.0796 H   0  0  0  0  0
   31.3056   10.3757   64.1431 H   0  0  0  0  0
  1  2  1  0  0  0
  1 25  1  0  0  0
  2  3  1  0  0  0
  3  4  1  0  0  0
  4  5  1  0  0  0
  4 24  1  0  0  0
  5  6  1  0  0  0
  6  7  2  0  0  0
  6  8  1  0  0  0
  8  9  4  0  0  0
  8 12  4  0  0  0
  9 10  4  0  0  0
 10 11  4  0  0  0
 11 12  4  0  0  0
 12 13  1  0  0  0
 13 14  1  0  0  0
 14 15  2  0  0  0
 14 16  1  0  0  0
 16 17  4  0  0  0
 16 22  4  0  0  0
 17 18  1  0  0  0
 17 19  4  0  0  0
 19 20  4  0  0  0
 20 21  4  0  0  0
 21 22  4  0  0  0
 22 23  1  0  0  0
 24 25  1  0  0  0
  1 26  1  0  0  0
  1 27  1  0  0  0
  2 28  1  0  0  0
  2 29  1  0  0  0
  3 30  1  0  0  0
  3 31  1  0  0  0
  4 32  1  0  0  0
  5 33  1  0  0  0
 11 34  1  0  0  0
 13 35  1  0  0  0
 19 36  1  0  0  0
 20 37  1  0  0  0
 21 38  1  0  0  0
 24 39  1  0  0  0
 24 40  1  0  0  0
 25 41  1  0  0  0
 25 42  1  0  0  0
M  END
$$$$
