4prd_ligand
  -I-interpret- 

171175  0  0  0  0  0  0  0  0999 V2000
  -13.0390  -14.6660   36.5680 N   0  3  0  0  0
  -12.0130  -14.1460   37.4810 C   0  0  0  0  0
  -10.6220  -14.4550   36.9320 C   0  0  0  0  0
  -10.3490  -15.5810   36.5390 O   0  0  0  0  0
  -12.1640  -14.8100   38.8500 C   0  0  0  0  0
  -11.4390  -14.1070   39.9560 C   0  0  0  0  0
  -10.0660  -14.1140   40.0700 N   0  0  0  0  0
  -11.9010  -13.3950   41.0120 C   0  0  0  0  0
   -9.7110  -13.4300   41.1430 C   0  0  0  0  0
  -10.8060  -12.9870   41.7350 N   0  0  0  0  0
   -9.7290  -13.4600   36.9150 N   0  0  0  0  0
   -8.4080  -13.6950   36.3220 C   0  0  0  0  0
   -7.5040  -14.5300   37.2190 C   0  0  0  0  0
   -7.8010  -14.7220   38.3970 O   0  0  0  0  0
   -7.8350  -12.2790   36.1870 C   0  0  0  0  0
   -8.4930  -11.5190   37.2870 C   0  0  0  0  0
   -9.8970  -12.0680   37.3630 C   0  0  0  0  0
   -6.4060  -15.0140   36.6540 N   0  0  0  0  0
   -5.4490  -15.8180   37.4010 C   0  0  0  0  0
   -4.4580  -14.9200   38.1240 C   0  0  0  0  0
   -4.1820  -13.8120   37.6800 O   0  0  0  0  0
   -4.6850  -16.7850   36.4780 C   0  0  0  0  0
   -3.7640  -16.0230   35.5110 C   0  0  0  0  0
   -3.9120  -17.8320   37.3050 C   0  0  0  0  0
   -3.9510  -15.3940   39.2560 N   0  0  0  0  0
   -2.9390  -14.6630   39.9970 C   0  0  0  0  0
   -1.5440  -15.1270   39.6210 C   0  0  0  0  0
   -1.3800  -16.0150   38.7830 O   0  0  0  0  0
   -0.5360  -14.5190   40.2370 N   0  0  0  0  0
    0.8500  -14.9230   40.0290 C   0  0  0  0  0
    1.5980  -14.9800   41.3550 C   0  0  0  0  0
    1.1740  -14.3770   42.3430 O   0  0  0  0  0
    1.5730  -13.9430   39.0980 C   0  0  0  0  0
    1.1890  -14.1240   37.6420 C   0  0  0  0  0
    1.5390  -15.1780   37.0670 O   0  0  0  0  0
    0.5610  -13.2040   37.0690 O   0  0  0  0  0
    2.7100  -15.7080   41.3730 N   0  0  0  0  0
    3.6350  -15.6170   42.4920 C   0  0  0  0  0
    4.2600  -14.2250   42.4620 C   0  0  0  0  0
    4.2330  -13.5510   41.4300 O   0  0  0  0  0
    4.7050  -16.6810   42.3840 C   0  0  0  0  0
    4.8190  -13.7890   43.5860 N   0  0  0  0  0
    5.4680  -12.4820   43.6370 C   0  0  0  0  0
    6.6340  -12.4170   42.6500 C   0  0  0  0  0
    7.3740  -13.3890   42.4850 O   0  0  0  0  0
    5.9400  -12.1610   45.0580 C   0  0  0  0  0
    4.7830  -11.9630   46.0260 C   0  0  0  0  0
    3.7370  -11.4240   45.6050 O   0  0  0  0  0
    4.9190  -12.3510   47.2070 O   0  0  0  0  0
    6.7690  -11.2770   41.9770 N   0  0  0  0  0
    7.8900  -11.0360   41.0690 C   0  0  0  0  0
    7.8770  -11.9350   39.8300 C   0  0  0  0  0
    8.9340  -12.2750   39.2940 O   0  0  0  0  0
    9.2200  -11.1880   41.8140 C   0  0  0  0  0
    9.3270  -10.3280   43.0530 C   0  0  0  0  0
    8.7680   -9.0580   43.0920 C   0  0  0  0  0
    9.9810  -10.7910   44.1860 C   0  0  0  0  0
    8.8620   -8.2710   44.2230 C   0  0  0  0  0
   10.0810  -10.0130   45.3220 C   0  0  0  0  0
    9.5200   -8.7540   45.3360 C   0  0  0  0  0
    9.6190   -7.9780   46.4670 O   0  0  0  0  0
    6.6820  -12.3210   39.3860 N   0  0  0  0  0
    6.5160  -13.0570   38.1330 C   0  0  0  0  0
    7.0450  -12.2090   36.9730 C   0  0  0  0  0
    6.8570  -10.9880   36.9610 O   0  0  0  0  0
    5.0340  -13.4080   37.9250 C   0  0  0  0  0
    4.6760  -13.7590   36.5030 C   0  0  0  0  0
    4.1120  -12.8070   35.6600 C   0  0  0  0  0
    4.8940  -15.0370   36.0140 C   0  0  0  0  0
    3.7780  -13.1180   34.3460 C   0  0  0  0  0
    4.5600  -15.3640   34.7000 C   0  0  0  0  0
    3.9970  -14.4010   33.8650 C   0  0  0  0  0
    7.7070  -12.8530   36.0150 N   0  0  0  0  0
    8.2440  -12.1540   34.8510 C   0  0  0  0  0
    8.5590  -13.0980   33.6950 C   0  0  0  0  0
    8.8310  -14.2850   33.8980 O   0  0  0  0  0
    9.5090  -11.3730   35.2270 C   0  0  0  0  0
   10.7040  -12.2550   35.5500 C   0  0  0  0  0
   11.9870  -11.4640   35.7120 C   0  0  0  0  0
   13.0700  -12.0850   35.7300 O   0  0  0  0  0
   11.9120  -10.2220   35.8210 O   0  0  0  0  0
    8.4910  -12.5620   32.4990 N   0  0  0  0  0
    8.9890  -13.2400   31.3430 C   0  0  0  0  0
   10.5520  -13.3170   31.3090 C   0  0  0  0  0
   11.0430  -14.0550   30.5220 O   0  0  0  0  0
    8.4310  -12.6590   30.0200 C   0  0  0  0  0
    6.9320  -12.8720   29.7240 C   0  0  0  0  0
    5.9700  -12.3950   30.5610 C   0  0  0  0  0
    6.5030  -13.4970   28.5960 C   0  0  0  0  0
    4.6360  -12.5470   30.2940 C   0  0  0  0  0
    5.1750  -13.6650   28.3180 C   0  0  0  0  0
    4.2280  -13.1810   29.1720 C   0  0  0  0  0
    2.9150  -13.3460   28.8980 O   0  0  0  0  0
   11.2300  -12.6380   32.0690 O   0  0  0  0  0
  -12.9368  -14.2221   35.6554 H   0  0  0  0  0
  -12.9263  -15.6751   36.4711 H   0  0  0  0  0
  -13.9640  -14.4607   36.9456 H   0  0  0  0  0
  -12.1366  -13.0671   37.5745 H   0  0  0  0  0
  -11.7384  -15.8104   38.7711 H   0  0  0  0  0
  -13.2249  -14.7946   39.0999 H   0  0  0  0  0
  -12.9451  -13.1852   41.2444 H   0  0  0  0  0
   -8.6891  -13.2601   41.4821 H   0  0  0  0  0
   -8.4771  -14.2487   35.3856 H   0  0  0  0  0
   -8.0334  -11.8441   35.2074 H   0  0  0  0  0
   -6.7480  -12.2633   36.2660 H   0  0  0  0  0
   -8.4907  -10.4466   37.0920 H   0  0  0  0  0
   -7.9627  -11.6391   38.2317 H   0  0  0  0  0
  -10.3278  -11.9933   38.3615 H   0  0  0  0  0
  -10.6045  -11.5084   36.7512 H   0  0  0  0  0
   -6.2270  -14.8176   35.6692 H   0  0  0  0  0
   -6.0094  -16.4057   38.1281 H   0  0  0  0  0
   -5.4124  -17.3204   35.8677 H   0  0  0  0  0
   -4.3622  -15.3529   34.8936 H   0  0  0  0  0
   -3.0396  -15.4428   36.0825 H   0  0  0  0  0
   -3.2395  -16.7350   34.8738 H   0  0  0  0  0
   -3.1977  -17.3253   37.9539 H   0  0  0  0  0
   -4.6138  -18.4040   37.9119 H   0  0  0  0  0
   -3.3800  -18.5042   36.6318 H   0  0  0  0  0
   -4.2797  -16.2913   39.6127 H   0  0  0  0  0
   -3.0903  -14.8406   41.0617 H   0  0  0  0  0
   -3.0299  -13.6033   39.7587 H   0  0  0  0  0
   -0.7371  -13.7477   40.8735 H   0  0  0  0  0
    0.8361  -15.9126   39.5723 H   0  0  0  0  0
    2.6438  -14.1268   39.1863 H   0  0  0  0  0
    1.2923  -12.9323   39.3942 H   0  0  0  0  0
    0.3961  -12.4936   37.6933 H   0  0  0  0  0
    2.9164  -16.3356   40.5958 H   0  0  0  0  0
    3.1089  -15.7770   43.4331 H   0  0  0  0  0
    4.2381  -17.6659   42.3894 H   0  0  0  0  0
    5.2584  -16.5450   41.4548 H   0  0  0  0  0
    5.3868  -16.5961   43.2302 H   0  0  0  0  0
    4.7944  -14.3733   44.4217 H   0  0  0  0  0
    4.7348  -11.7293   43.3473 H   0  0  0  0  0
    6.5101  -11.2327   45.0212 H   0  0  0  0  0
    6.5348  -13.0027   45.4128 H   0  0  0  0  0
    5.7925  -12.7333   47.3184 H   0  0  0  0  0
    6.0672  -10.5468   42.0984 H   0  0  0  0  0
    7.7779  -10.0126   40.7110 H   0  0  0  0  0
   10.0117  -10.8765   41.1327 H   0  0  0  0  0
    9.2974  -12.2276   42.1322 H   0  0  0  0  0
    8.2459   -8.6753   42.2150 H   0  0  0  0  0
   10.4238  -11.7870   44.1788 H   0  0  0  0  0
    8.4195   -7.2750   44.2366 H   0  0  0  0  0
   10.6003  -10.3919   46.2023 H   0  0  0  0  0
   10.1028   -8.4590   47.1424 H   0  0  0  0  0
    5.8547  -12.0957   39.9385 H   0  0  0  0  0
    7.0830  -13.9871   38.1736 H   0  0  0  0  0
    4.4535  -12.5257   38.1945 H   0  0  0  0  0
    4.8224  -14.2855   38.5360 H   0  0  0  0  0
    3.9287  -11.8003   36.0355 H   0  0  0  0  0
    5.3314  -15.7952   36.6635 H   0  0  0  0  0
    3.3458  -12.3567   33.6966 H   0  0  0  0  0
    4.7393  -16.3722   34.3265 H   0  0  0  0  0
    3.7299  -14.6543   32.8390 H   0  0  0  0  0
    7.8428  -13.8607   36.0959 H   0  0  0  0  0
    7.4673  -11.4655   34.5180 H   0  0  0  0  0
    9.2798  -10.7966   36.1233 H   0  0  0  0  0
    9.7804  -10.7617   34.3663 H   0  0  0  0  0
   10.8412  -12.9498   34.7215 H   0  0  0  0  0
   10.5012  -12.7614   36.4937 H   0  0  0  0  0
   10.9911   -9.9535   35.7818 H   0  0  0  0  0
    8.0722  -11.6382   32.3914 H   0  0  0  0  0
    8.6188  -14.2616   31.4289 H   0  0  0  0  0
    8.9638  -13.1789   29.2238 H   0  0  0  0  0
    8.5647  -11.5798   30.0944 H   0  0  0  0  0
    6.2711  -11.8764   31.4712 H   0  0  0  0  0
    7.2417  -13.8766   27.8901 H   0  0  0  0  0
    3.8968  -12.1536   30.9918 H   0  0  0  0  0
    4.8719  -14.1876   27.4107 H   0  0  0  0  0
    2.8194  -13.8146   28.0656 H   0  0  0  0  0
   10.6530  -12.1096   32.6253 H   0  0  0  0  0
  1  2  1  0  0  0
  2  3  1  0  0  0
  2  5  1  0  0  0
  3  4  2  0  0  0
  3 11  1  0  0  0
  5  6  1  0  0  0
  6  7  4  0  0  0
  6  8  4  0  0  0
  7  9  4  0  0  0
  8 10  4  0  0  0
  9 10  4  0  0  0
 11 12  1  0  0  0
 11 17  1  0  0  0
 12 13  1  0  0  0
 12 15  1  0  0  0
 13 14  2  0  0  0
 13 18  1  0  0  0
 15 16  1  0  0  0
 16 17  1  0  0  0
 18 19  1  0  0  0
 19 20  1  0  0  0
 19 22  1  0  0  0
 20 21  2  0  0  0
 20 25  1  0  0  0
 22 23  1  0  0  0
 22 24  1  0  0  0
 25 26  1  0  0  0
 26 27  1  0  0  0
 27 28  2  0  0  0
 27 29  1  0  0  0
 29 30  1  0  0  0
 30 31  1  0  0  0
 30 33  1  0  0  0
 31 32  2  0  0  0
 31 37  1  0  0  0
 33 34  1  0  0  0
 34 35  2  0  0  0
 34 36  1  0  0  0
 37 38  1  0  0  0
 38 39  1  0  0  0
 38 41  1  0  0  0
 39 40  2  0  0  0
 39 42  1  0  0  0
 42 43  1  0  0  0
 43 44  1  0  0  0
 43 46  1  0  0  0
 44 45  2  0  0  0
 44 50  1  0  0  0
 46 47  1  0  0  0
 47 48  2  0  0  0
 47 49  1  0  0  0
 50 51  1  0  0  0
 51 52  1  0  0  0
 51 54  1  0  0  0
 52 53  2  0  0  0
 52 62  1  0  0  0
 54 55  1  0  0  0
 55 56  4  0  0  0
 55 57  4  0  0  0
 56 58  4  0  0  0
 57 59  4  0  0  0
 58 60  4  0  0  0
 59 60  4  0  0  0
 60 61  1  0  0  0
 62 63  1  0  0  0
 63 64  1  0  0  0
 63 66  1  0  0  0
 64 65  2  0  0  0
 64 73  1  0  0  0
 66 67  1  0  0  0
 67 68  4  0  0  0
 67 69  4  0  0  0
 68 70  4  0  0  0
 69 71  4  0  0  0
 70 72  4  0  0  0
 71 72  4  0  0  0
 73 74  1  0  0  0
 74 75  1  0  0  0
 74 77  1  0  0  0
 75 76  2  0  0  0
 75 82  1  0  0  0
 77 78  1  0  0  0
 78 79  1  0  0  0
 79 80  2  0  0  0
 79 81  1  0  0  0
 82 83  1  0  0  0
 83 84  1  0  0  0
 83 86  1  0  0  0
 84 85  2  0  0  0
 84 94  1  0  0  0
 86 87  1  0  0  0
 87 88  4  0  0  0
 87 89  4  0  0  0
 88 90  4  0  0  0
 89 91  4  0  0  0
 90 92  4  0  0  0
 91 92  4  0  0  0
 92 93  1  0  0  0
  1 95  1  0  0  0
  1 96  1  0  0  0
  1 97  1  0  0  0
  2 98  1  0  0  0
  5 99  1  0  0  0
  5100  1  0  0  0
  8101  1  0  0  0
  9102  1  0  0  0
 12103  1  0  0  0
 15104  1  0  0  0
 15105  1  0  0  0
 16106  1  0  0  0
 16107  1  0  0  0
 17108  1  0  0  0
 17109  1  0  0  0
 18110  1  0  0  0
 19111  1  0  0  0
 22112  1  0  0  0
 23113  1  0  0  0
 23114  1  0  0  0
 23115  1  0  0  0
 24116  1  0  0  0
 24117  1  0  0  0
 24118  1  0  0  0
 25119  1  0  0  0
 26120  1  0  0  0
 26121  1  0  0  0
 29122  1  0  0  0
 30123  1  0  0  0
 33124  1  0  0  0
 33125  1  0  0  0
 36126  1  0  0  0
 37127  1  0  0  0
 38128  1  0  0  0
 41129  1  0  0  0
 41130  1  0  0  0
 41131  1  0  0  0
 42132  1  0  0  0
 43133  1  0  0  0
 46134  1  0  0  0
 46135  1  0  0  0
 49136  1  0  0  0
 50137  1  0  0  0
 51138  1  0  0  0
 54139  1  0  0  0
 54140  1  0  0  0
 56141  1  0  0  0
 57142  1  0  0  0
 58143  1  0  0  0
 59144  1  0  0  0
 61145  1  0  0  0
 62146  1  0  0  0
 63147  1  0  0  0
 66148  1  0  0  0
 66149  1  0  0  0
 68150  1  0  0  0
 69151  1  0  0  0
 70152  1  0  0  0
 71153  1  0  0  0
 72154  1  0  0  0
 73155  1  0  0  0
 74156  1  0  0  0
 77157  1  0  0  0
 77158  1  0  0  0
 78159  1  0  0  0
 78160  1  0  0  0
 81161  1  0  0  0
 82162  1  0  0  0
 83163  1  0  0  0
 86164  1  0  0  0
 86165  1  0  0  0
 88166  1  0  0  0
 89167  1  0  0  0
 90168  1  0  0  0
 91169  1  0  0  0
 93170  1  0  0  0
 94171  1  0  0  0
M  END
$$$$
