### 
### Created by X-TOOL on Mon Sep 10 21:13:18 2018
### 

@<TRIPOS>MOLECULE
4prd_ligand
  168   172     1     0     0
SMALL
GAST_HUCK


@<TRIPOS>ATOM
      1 N         -13.0390  -14.6660   36.5680 N.4       1 HIS         0.2390
      2 CA        -12.0130  -14.1460   37.4810 C.3       1 HIS         0.0710
      3 C         -10.6220  -14.4550   36.9320 C.2       1 HIS         0.2307
      4 O         -10.3490  -15.5810   36.5390 O.2       1 HIS        -0.3904
      5 CB        -12.1640  -14.8100   38.8500 C.3       1 HIS         0.0347
      6 CG        -11.4390  -14.1070   39.9560 C.2       1 HIS         0.0005
      7 ND1       -10.0660  -14.1140   40.0700 N.2       1 HIS        -0.3251
      8 CD2       -11.9010  -13.3950   41.0120 C.2       1 HIS         0.0293
      9 CE1        -9.7110  -13.4300   41.1430 C.2       1 HIS         0.0907
     10 NE2       -10.8060  -12.9870   41.7350 N.pl3     1 HIS        -0.2752
     11 N          -9.7290  -13.4600   36.9150 N.am      1 PRO        -0.2470
     12 CA         -8.4080  -13.6950   36.3220 C.3       1 PRO         0.1339
     13 C          -7.5040  -14.5300   37.2190 C.2       1 PRO         0.2041
     14 O          -7.8010  -14.7220   38.3970 O.2       1 PRO        -0.3944
     15 CB         -7.8350  -12.2790   36.1870 C.3       1 PRO        -0.0104
     16 CG         -8.4930  -11.5190   37.2870 C.3       1 PRO        -0.0281
     17 CD         -9.8970  -12.0680   37.3630 C.3       1 PRO         0.0371
     18 N          -6.4060  -15.0140   36.6540 N.am      1 VAL        -0.2635
     19 CA         -5.4490  -15.8180   37.4010 C.3       1 VAL         0.1332
     20 C          -4.4580  -14.9200   38.1240 C.2       1 VAL         0.2039
     21 O          -4.1820  -13.8120   37.6800 O.2       1 VAL        -0.3944
     22 CB         -4.6850  -16.7850   36.4780 C.3       1 VAL        -0.0063
     23 CG1        -3.7640  -16.0230   35.5110 C.3       1 VAL        -0.0584
     24 CG2        -3.9120  -17.8320   37.3050 C.3       1 VAL        -0.0584
     25 N          -3.9510  -15.3940   39.2560 N.am      1 GLY        -0.2664
     26 CA         -2.9390  -14.6630   39.9970 C.3       1 GLY         0.1201
     27 C          -1.5440  -15.1270   39.6210 C.2       1 GLY         0.2008
     28 O          -1.3800  -16.0150   38.7830 O.2       1 GLY        -0.3947
     29 N          -0.5360  -14.5190   40.2370 N.am      1 ASP        -0.2624
     30 CA          0.8500  -14.9230   40.0290 C.3       1 ASP         0.1423
     31 C           1.5980  -14.9800   41.3550 C.2       1 ASP         0.2056
     32 O           1.1740  -14.3770   42.3430 O.2       1 ASP        -0.3943
     33 CB          1.5730  -13.9430   39.0980 C.3       1 ASP         0.0406
     34 CG          1.1890  -14.1240   37.6420 C.2       1 ASP         0.0393
     35 OD1         1.5390  -15.1780   37.0670 O.co2     1 ASP        -0.5688
     36 OD2         0.5610  -13.2040   37.0690 O.co2     1 ASP        -0.5688
     37 N           2.7100  -15.7080   41.3730 N.am      1 ALA        -0.2639
     38 CA          3.6350  -15.6170   42.4920 C.3       1 ALA         0.1282
     39 C           4.2600  -14.2250   42.4620 C.2       1 ALA         0.2037
     40 O           4.2330  -13.5510   41.4300 O.2       1 ALA        -0.3944
     41 CB          4.7050  -16.6810   42.3840 C.3       1 ALA        -0.0244
     42 N           4.8190  -13.7890   43.5860 N.am      1 ASP        -0.2622
     43 CA          5.4680  -12.4820   43.6370 C.3       1 ASP         0.1423
     44 C           6.6340  -12.4170   42.6500 C.2       1 ASP         0.2057
     45 O           7.3740  -13.3890   42.4850 O.2       1 ASP        -0.3943
     46 CB          5.9400  -12.1610   45.0580 C.3       1 ASP         0.0406
     47 CG          4.7830  -11.9630   46.0260 C.2       1 ASP         0.0393
     48 OD1         3.7370  -11.4240   45.6050 O.co2     1 ASP        -0.5688
     49 OD2         4.9190  -12.3510   47.2070 O.co2     1 ASP        -0.5688
     50 N           6.7690  -11.2770   41.9770 N.am      1 TYR        -0.2620
     51 CA          7.8900  -11.0360   41.0690 C.3       1 TYR         0.1390
     52 C           7.8770  -11.9350   39.8300 C.2       1 TYR         0.2059
     53 O           8.9340  -12.2750   39.2940 O.2       1 TYR        -0.3942
     54 CB          9.2200  -11.1880   41.8140 C.3       1 TYR         0.0163
     55 CG          9.3270  -10.3280   43.0530 C.ar      1 TYR        -0.0493
     56 CD1         8.7680   -9.0580   43.0920 C.ar      1 TYR        -0.0685
     57 CD2         9.9810  -10.7910   44.1860 C.ar      1 TYR        -0.0685
     58 CE1         8.8620   -8.2710   44.2230 C.ar      1 TYR        -0.0398
     59 CE2        10.0810  -10.0130   45.3220 C.ar      1 TYR        -0.0398
     60 CZ          9.5200   -8.7540   45.3360 C.ar      1 TYR         0.0805
     61 OH          9.6190   -7.9780   46.4670 O.3       1 TYR        -0.3376
     62 N           6.6820  -12.3210   39.3860 N.am      1 PHE        -0.2618
     63 CA          6.5160  -13.0570   38.1330 C.3       1 PHE         0.1404
     64 C           7.0450  -12.2090   36.9730 C.2       1 PHE         0.2060
     65 O           6.8570  -10.9880   36.9610 O.2       1 PHE        -0.3942
     66 CB          5.0340  -13.4080   37.9250 C.3       1 PHE         0.0214
     67 CG          4.6760  -13.7590   36.5030 C.ar      1 PHE        -0.0386
     68 CD1         4.1120  -12.8070   35.6600 C.ar      1 PHE        -0.0601
     69 CD2         4.8940  -15.0370   36.0140 C.ar      1 PHE        -0.0601
     70 CE1         3.7780  -13.1180   34.3460 C.ar      1 PHE        -0.0686
     71 CE2         4.5600  -15.3640   34.7000 C.ar      1 PHE        -0.0686
     72 CZ          3.9970  -14.4010   33.8650 C.ar      1 PHE        -0.0687
     73 N           7.7070  -12.8530   36.0150 N.am      1 GLU        -0.2635
     74 CA          8.2440  -12.1540   34.8510 C.3       1 GLU         0.1324
     75 C           8.5590  -13.0980   33.6950 C.2       1 GLU         0.2036
     76 O           8.8310  -14.2850   33.8980 O.2       1 GLU        -0.3944
     77 CB          9.5090  -11.3730   35.2270 C.3       1 GLU        -0.0008
     78 CG         10.7040  -12.2550   35.5500 C.3       1 GLU         0.0044
     79 CD         11.9870  -11.4640   35.7120 C.2       1 GLU         0.0350
     80 OE1        13.0700  -12.0850   35.7300 O.co2     1 GLU        -0.5690
     81 OE2        11.9120  -10.2220   35.8210 O.co2     1 GLU        -0.5690
     82 N           8.4910  -12.5620   32.4990 N.am      1 TYR        -0.2679
     83 CA          8.9890  -13.2400   31.3430 C.3       1 TYR         0.1025
     84 C          10.5520  -13.3170   31.3090 C.2       1 TYR         0.0619
     85 O          11.0430  -14.0550   30.5220 O.co2     1 TYR        -0.5665
     86 CB          8.4310  -12.6590   30.0200 C.3       1 TYR         0.0108
     87 CG          6.9320  -12.8720   29.7240 C.ar      1 TYR        -0.0499
     88 CD1         5.9700  -12.3950   30.5610 C.ar      1 TYR        -0.0686
     89 CD2         6.5030  -13.4970   28.5960 C.ar      1 TYR        -0.0686
     90 CE1         4.6360  -12.5470   30.2940 C.ar      1 TYR        -0.0398
     91 CE2         5.1750  -13.6650   28.3180 C.ar      1 TYR        -0.0398
     92 CZ          4.2280  -13.1810   29.1720 C.ar      1 TYR         0.0805
     93 OH          2.9150  -13.3460   28.8980 O.3       1 TYR        -0.3376
     94 OXT        11.2300  -12.6380   32.0690 O.co2     1 TYR        -0.5665
     95 H         -13.9537  -14.4582   36.9371 H         1 HIS         0.2016
     96 H         -12.9325  -15.6641   36.4763 H         1 HIS         0.2016
     97 H         -12.9351  -14.2325   35.6639 H         1 HIS         0.2016
     98 H         -12.1337  -13.0575   37.5838 H         1 HIS         0.1116
     99 H         -11.7751  -15.8366   38.7804 H         1 HIS         0.0453
    100 H         -13.2341  -14.8396   39.1030 H         1 HIS         0.0453
    101 H         -12.9441  -13.1854   41.2442 H         1 HIS         0.0729
    102 H          -8.6900  -13.2602   41.4818 H         1 HIS         0.1199
    103 H         -10.8343  -12.4265   42.5987 H         1 HIS         0.2361
    104 H          -8.5027  -14.1839   35.3412 H         1 PRO         0.0802
    105 H          -8.0871  -11.8466   35.2075 H         1 PRO         0.0313
    106 H          -6.7425  -12.2852   36.3148 H         1 PRO         0.0313
    107 H          -8.5114  -10.4438   37.0556 H         1 PRO         0.0287
    108 H          -7.9638  -11.6805   38.2377 H         1 PRO         0.0287
    109 H         -10.2829  -12.0271   38.3922 H         1 PRO         0.0524
    110 H         -10.5746  -11.5161   36.6951 H         1 PRO         0.0524
    111 H          -6.2306  -14.8215   35.6885 H         1 VAL         0.1883
    112 H          -6.0004  -16.4091   38.1470 H         1 VAL         0.0802
    113 H          -5.4272  -17.3239   35.8708 H         1 VAL         0.0343
    114 H          -3.2341  -16.7405   34.8673 H         1 VAL         0.0234
    115 H          -3.0324  -15.4370   36.0866 H         1 VAL         0.0234
    116 H          -4.3666  -15.3464   34.8872 H         1 VAL         0.0234
    117 H          -4.6073  -18.3515   37.9808 H         1 VAL         0.0234
    118 H          -3.1326  -17.3294   37.8965 H         1 VAL         0.0234
    119 H          -3.4448  -18.5621   36.6277 H         1 VAL         0.0234
    120 H          -4.2733  -16.2737   39.6057 H         1 GLY         0.1881
    121 H          -3.0939  -14.8267   41.0737 H         1 GLY         0.0763
    122 H          -3.0336  -13.5905   39.7718 H         1 GLY         0.0763
    123 H          -0.7332  -13.7629   40.8610 H         1 ASP         0.1884
    124 H           0.8580  -15.9227   39.5703 H         1 ASP         0.0819
    125 H           2.6574  -14.0987   39.1974 H         1 ASP         0.0478
    126 H           1.3203  -12.9168   39.4032 H         1 ASP         0.0478
    127 H           2.9123  -16.3233   40.6111 H         1 ALA         0.1883
    128 H           3.0868  -15.7549   43.4356 H         1 ALA         0.0797
    129 H           5.3937  -16.5963   43.2375 H         1 ALA         0.0277
    130 H           5.2643  -16.5448   41.4467 H         1 ALA         0.0277
    131 H           4.2351  -17.6755   42.3894 H         1 ALA         0.0277
    132 H           4.7949  -14.3619   44.4053 H         1 ASP         0.1884
    133 H           4.7288  -11.7222   43.3433 H         1 ASP         0.0819
    134 H           6.5388  -11.2387   45.0308 H         1 ASP         0.0478
    135 H           6.5633  -12.9924   45.4189 H         1 ASP         0.0478
    136 H           6.0810  -10.5611   42.0960 H         1 TYR         0.1885
    137 H           7.8119   -9.9955   40.7209 H         1 TYR         0.0821
    138 H          10.0349  -10.9119   41.1287 H         1 TYR         0.0453
    139 H           9.3323  -12.2409   42.1119 H         1 TYR         0.0453
    140 H           8.2488   -8.6775   42.2198 H         1 TYR         0.0530
    141 H          10.4213  -11.7815   44.1789 H         1 TYR         0.0530
    142 H           8.4219   -7.2805   44.2365 H         1 TYR         0.0525
    143 H          10.5974  -10.3898   46.1974 H         1 TYR         0.0525
    144 H           9.1854   -7.1459   46.3178 H         1 TYR         0.2458
    145 H           5.8709  -12.1001   39.9276 H         1 PHE         0.1885
    146 H           7.0963  -13.9900   38.1848 H         1 PHE         0.0823
    147 H           4.4282  -12.5418   38.2295 H         1 PHE         0.0474
    148 H           4.7903  -14.2690   38.5647 H         1 PHE         0.0474
    149 H           3.9297  -11.8058   36.0334 H         1 PHE         0.0557
    150 H           5.3290  -15.7911   36.6599 H         1 PHE         0.0557
    151 H           3.3482  -12.3609   33.7002 H         1 PHE         0.0599
    152 H           4.7383  -16.3666   34.3285 H         1 PHE         0.0599
    153 H           3.7314  -14.6529   32.8447 H         1 PHE         0.0559
    154 H           7.8401  -13.8409   36.0943 H         1 GLU         0.1883
    155 H           7.4825  -11.4381   34.5082 H         1 GLU         0.0801
    156 H           9.2855  -10.7558   36.1097 H         1 GLU         0.0330
    157 H           9.7777  -10.7215   34.3824 H         1 GLU         0.0330
    158 H          10.8379  -12.9795   34.7332 H         1 GLU         0.0433
    159 H          10.5013  -12.7930   36.4878 H         1 GLU         0.0433
    160 H           8.0804  -11.6563   32.3936 H         1 TYR         0.1877
    161 H           8.6241  -14.2755   31.4112 H         1 TYR         0.0747
    162 H           8.9977  -13.1153   29.1950 H         1 TYR         0.0446
    163 H           8.6130  -11.5743   30.0340 H         1 TYR         0.0446
    164 H           6.2694  -11.8793   31.4662 H         1 TYR         0.0530
    165 H           7.2376  -13.8745   27.8940 H         1 TYR         0.0530
    166 H           3.9009  -12.1558   30.9880 H         1 TYR         0.0525
    167 H           4.8736  -14.1847   27.4157 H         1 TYR         0.0525
    168 H           2.3964  -12.9524   29.5899 H         1 TYR         0.2458
@<TRIPOS>BOND
     1    1    2 1  
     2    2    3 1  
     3    2    5 1  
     4    3    4 2  
     5    3   11 am 
     6    5    6 1  
     7    6    7 1  
     8    6    8 2  
     9    7    9 2  
    10    8   10 1  
    11    9   10 1  
    12   11   12 1  
    13   11   17 1  
    14   12   13 1  
    15   12   15 1  
    16   13   14 2  
    17   13   18 am 
    18   15   16 1  
    19   16   17 1  
    20   18   19 1  
    21   19   20 1  
    22   19   22 1  
    23   20   21 2  
    24   20   25 am 
    25   22   23 1  
    26   22   24 1  
    27   25   26 1  
    28   26   27 1  
    29   27   28 2  
    30   27   29 am 
    31   29   30 1  
    32   30   31 1  
    33   30   33 1  
    34   31   32 2  
    35   31   37 am 
    36   33   34 1  
    37   34   35 ar 
    38   34   36 ar 
    39   37   38 1  
    40   38   39 1  
    41   38   41 1  
    42   39   40 2  
    43   39   42 am 
    44   42   43 1  
    45   43   44 1  
    46   43   46 1  
    47   44   45 2  
    48   44   50 am 
    49   46   47 1  
    50   47   48 ar 
    51   47   49 ar 
    52   50   51 1  
    53   51   52 1  
    54   51   54 1  
    55   52   53 2  
    56   52   62 am 
    57   54   55 1  
    58   55   56 ar 
    59   55   57 ar 
    60   56   58 ar 
    61   57   59 ar 
    62   58   60 ar 
    63   59   60 ar 
    64   60   61 1  
    65   62   63 1  
    66   63   64 1  
    67   63   66 1  
    68   64   65 2  
    69   64   73 am 
    70   66   67 1  
    71   67   68 ar 
    72   67   69 ar 
    73   68   70 ar 
    74   69   71 ar 
    75   70   72 ar 
    76   71   72 ar 
    77   73   74 1  
    78   74   75 1  
    79   74   77 1  
    80   75   76 2  
    81   75   82 am 
    82   77   78 1  
    83   78   79 1  
    84   79   80 ar 
    85   79   81 ar 
    86   82   83 1  
    87   83   84 1  
    88   83   86 1  
    89   84   85 ar 
    90   84   94 ar 
    91   86   87 1  
    92   87   88 ar 
    93   87   89 ar 
    94   88   90 ar 
    95   89   91 ar 
    96   90   92 ar 
    97   91   92 ar 
    98   92   93 1  
    99    1   95 1  
   100    1   96 1  
   101    1   97 1  
   102    2   98 1  
   103    5   99 1  
   104    5  100 1  
   105    8  101 1  
   106    9  102 1  
   107   10  103 1  
   108   12  104 1  
   109   15  105 1  
   110   15  106 1  
   111   16  107 1  
   112   16  108 1  
   113   17  109 1  
   114   17  110 1  
   115   18  111 1  
   116   19  112 1  
   117   22  113 1  
   118   23  114 1  
   119   23  115 1  
   120   23  116 1  
   121   24  117 1  
   122   24  118 1  
   123   24  119 1  
   124   25  120 1  
   125   26  121 1  
   126   26  122 1  
   127   29  123 1  
   128   30  124 1  
   129   33  125 1  
   130   33  126 1  
   131   37  127 1  
   132   38  128 1  
   133   41  129 1  
   134   41  130 1  
   135   41  131 1  
   136   42  132 1  
   137   43  133 1  
   138   46  134 1  
   139   46  135 1  
   140   50  136 1  
   141   51  137 1  
   142   54  138 1  
   143   54  139 1  
   144   56  140 1  
   145   57  141 1  
   146   58  142 1  
   147   59  143 1  
   148   61  144 1  
   149   62  145 1  
   150   63  146 1  
   151   66  147 1  
   152   66  148 1  
   153   68  149 1  
   154   69  150 1  
   155   70  151 1  
   156   71  152 1  
   157   72  153 1  
   158   73  154 1  
   159   74  155 1  
   160   77  156 1  
   161   77  157 1  
   162   78  158 1  
   163   78  159 1  
   164   82  160 1  
   165   83  161 1  
   166   86  162 1  
   167   86  163 1  
   168   88  164 1  
   169   89  165 1  
   170   90  166 1  
   171   91  167 1  
   172   93  168 1  
@<TRIPOS>SUBSTRUCTURE
     1 HIS         1

