6gvf_ligand
  -I-interpret- 

 38 41  0  0  0  0  0  0  0  0999 V2000
  -17.1650  147.3590   28.8870 C   0  0  0  0  0
  -16.5400  148.4940   29.4850 C   0  0  0  0  0
  -14.2320  143.8230   25.2250 C   0  0  0  0  0
  -15.2300  145.2390   26.4660 C   0  0  0  0  0
  -18.4810  147.4390   29.0060 N   0  0  0  0  0
  -16.6010  146.1720   28.1950 C   0  0  0  0  0
  -15.2440  149.0200   29.7060 C   0  0  0  0  0
  -18.7510  148.6030   29.6700 N   0  0  0  0  0
  -15.5640  143.9820   26.9210 C   0  0  0  0  0
  -15.7500  146.3630   27.1050 C   0  0  0  0  0
  -17.6100  149.2690   29.9770 C   0  0  0  0  0
  -14.3710  145.1210   25.3730 N   0  0  0  0  0
  -14.9230  143.0570   26.1230 O   0  0  0  0  0
  -17.5110  150.4400   30.6230 N   0  0  0  0  0
  -15.1250  150.2010   30.3570 N   0  0  0  0  0
  -16.2380  150.8240   30.7660 C   0  0  0  0  0
  -20.1780  148.9150   29.9240 C   0  0  0  0  0
  -16.9200  144.8800   28.6310 C   0  0  0  0  0
  -16.4020  143.7620   27.9950 C   0  0  0  0  0
  -13.5060  143.1720   24.3130 N   0  0  0  0  0
  -14.1240  148.4060   29.3010 N   0  0  0  0  0
  -20.6520  148.1910   31.1770 C   0  0  0  0  0
  -21.0210  148.5080   28.7230 C   0  0  0  0  0
  -15.4984  147.3666   26.7621 H   0  0  0  0  0
  -16.0858  151.7705   31.2847 H   0  0  0  0  0
  -20.2879  149.9884   30.0785 H   0  0  0  0  0
  -17.5862  144.7511   29.4840 H   0  0  0  0  0
  -16.6461  142.7535   28.3288 H   0  0  0  0  0
  -12.9715  143.6945   23.6189 H   0  0  0  0  0
  -13.4858  142.1522   24.3104 H   0  0  0  0  0
  -14.1807  147.5152   28.8073 H   0  0  0  0  0
  -13.2147  148.8294   29.4864 H   0  0  0  0  0
  -20.5375  147.1158   31.0391 H   0  0  0  0  0
  -20.0553  148.5148   32.0298 H   0  0  0  0  0
  -21.7012  148.4260   31.3559 H   0  0  0  0  0
  -20.6846  149.0552   27.8424 H   0  0  0  0  0
  -20.9123  147.4372   28.5505 H   0  0  0  0  0
  -22.0675  148.7413   28.9194 H   0  0  0  0  0
  1  2  4  0  0  0
  1  5  4  0  0  0
  6  1  1  0  0  0
  2  7  4  0  0  0
  2 11  4  0  0  0
 12  3  4  0  0  0
  3 13  4  0  0  0
  3 20  1  0  0  0
  4  9  4  0  0  0
 10  4  4  0  0  0
  4 12  4  0  0  0
  5  8  4  0  0  0
  6 10  4  0  0  0
  6 18  4  0  0  0
  7 15  4  0  0  0
  7 21  1  0  0  0
  8 11  4  0  0  0
  8 17  1  0  0  0
  9 13  4  0  0  0
  9 19  4  0  0  0
 11 14  4  0  0  0
 14 16  4  0  0  0
 15 16  4  0  0  0
 17 22  1  0  0  0
 17 23  1  0  0  0
 18 19  4  0  0  0
 10 24  1  0  0  0
 16 25  1  0  0  0
 17 26  1  0  0  0
 18 27  1  0  0  0
 19 28  1  0  0  0
 20 29  1  0  0  0
 20 30  1  0  0  0
 21 31  1  0  0  0
 21 32  1  0  0  0
 22 33  1  0  0  0
 22 34  1  0  0  0
 22 35  1  0  0  0
 23 36  1  0  0  0
 23 37  1  0  0  0
 23 38  1  0  0  0
M  END
$$$$
