3s0e_ligand
  -I-interpret- 

 24 24  0  0  0  0  0  0  0  0999 V2000
    2.6470  -10.6740  -10.6630 C   0  0  0  0  0
    2.8980  -13.1590   -8.0060 O   0  0  0  0  0
    2.8070  -11.4940  -11.7850 C   0  0  0  0  0
    2.5130  -10.4990   -8.2410 O   0  0  0  0  0
    2.6910  -11.2420   -9.3920 C   0  0  0  0  0
    3.0330  -12.8590  -11.6300 C   0  0  0  0  0
    2.8680  -12.6100   -9.2510 C   0  0  0  0  0
    3.0590  -13.4270  -10.3610 C   0  0  0  0  0
    2.7420  -10.9150  -13.1630 C   0  0  0  0  0
    3.6280   -9.7660  -13.4730 C   0  0  0  0  0
    4.8050   -9.6300  -12.8030 C   0  0  0  0  0
    2.3600   -9.1300   -8.3130 C   0  0  0  0  0
    2.4896   -9.6020  -10.7821 H   0  0  0  0  0
    3.0266  -14.1076   -8.0788 H   0  0  0  0  0
    3.1904  -13.4857  -12.5079 H   0  0  0  0  0
    3.2266  -14.4969  -10.2376 H   0  0  0  0  0
    1.7257  -10.5363  -13.2718 H   0  0  0  0  0
    3.0600  -11.7160  -13.8304 H   0  0  0  0  0
    3.3390   -9.0374  -14.2304 H   0  0  0  0  0
    5.0892  -10.3615  -12.0465 H   0  0  0  0  0
    5.4634   -8.7896  -13.0229 H   0  0  0  0  0
    3.2449   -8.6905   -8.7733 H   0  0  0  0  0
    1.4816   -8.8950   -8.9140 H   0  0  0  0  0
    2.2331   -8.7265   -7.3084 H   0  0  0  0  0
  1  3  4  0  0  0
  5  1  4  0  0  0
  7  2  1  0  0  0
  3  6  4  0  0  0
  3  9  1  0  0  0
  5  4  1  0  0  0
  4 12  1  0  0  0
  5  7  4  0  0  0
  6  8  4  0  0  0
  7  8  4  0  0  0
  9 10  1  0  0  0
 10 11  2  0  0  0
  1 13  1  0  0  0
  2 14  1  0  0  0
  6 15  1  0  0  0
  8 16  1  0  0  0
  9 17  1  0  0  0
  9 18  1  0  0  0
 10 19  1  0  0  0
 11 20  1  0  0  0
 11 21  1  0  0  0
 12 22  1  0  0  0
 12 23  1  0  0  0
 12 24  1  0  0  0
M  END
$$$$
