5dd0_ligand
  -I-interpret- 

203206  0  0  0  0  0  0  0  0999 V2000
   47.0630   18.4390  109.0570 C   0  0  0  0  0
   47.0960   19.6640  109.1560 O   0  0  0  0  0
   46.4400   17.5680  110.1070 C   0  0  0  0  0
   47.5740   17.8000  108.0090 N   0  0  0  0  0
   48.2260   18.5110  106.9160 C   0  0  0  0  0
   47.2320   19.3560  106.1290 C   0  0  0  0  0
   47.5980   20.3710  105.5380 O   0  0  0  0  0
   48.9270   17.5240  105.9800 C   0  0  0  0  0
   50.0860   16.7280  106.5860 C   0  0  0  0  0
   50.5360   15.6370  105.6280 C   0  0  0  0  0
   51.2530   17.6400  106.9410 C   0  0  0  0  0
   45.9730   18.9340  106.1260 N   0  0  0  0  0
   44.9330   19.6440  105.3960 C   0  0  0  0  0
   44.7110   21.0280  105.9970 C   0  0  0  0  0
   44.7490   22.0340  105.2870 O   0  0  0  0  0
   43.6300   18.8470  105.4060 C   0  0  0  0  0
   42.4930   19.4480  104.5780 C   0  0  0  0  0
   42.7980   19.3630  103.0890 C   0  0  0  0  0
   41.1900   18.7550  104.9010 C   0  0  0  0  0
   44.4700   21.0660  107.3040 N   0  0  0  0  0
   44.3100   22.3280  108.0180 C   0  0  0  0  0
   45.5680   23.1760  107.8830 C   0  0  0  0  0
   45.4990   24.4020  107.8000 O   0  0  0  0  0
   44.0030   22.0840  109.4990 C   0  0  0  0  0
   42.5280   22.1650  109.8620 C   0  0  0  0  0
   41.8060   20.8460  109.6820 C   0  0  0  0  0
   42.4870   19.8030  109.5890 O   0  0  0  0  0
   40.5580   20.8530  109.6330 O   0  0  0  0  0
   46.7160   22.5090  107.8610 N   0  0  0  0  0
   47.9980   23.1870  107.7580 C   0  0  0  0  0
   48.1320   23.8910  106.4080 C   0  0  0  0  0
   48.5640   25.0420  106.3380 O   0  0  0  0  0
   49.1300   22.1820  107.9550 C   0  0  0  0  0
   50.4180   22.6670  108.6150 C   0  0  0  0  0
   50.1650   23.1600  110.0310 C   0  0  0  0  0
   51.4160   21.5300  108.6140 C   0  0  0  0  0
   47.7610   23.1880  105.3410 N   0  0  0  0  0
   47.7180   23.7700  104.0030 C   0  0  0  0  0
   46.7830   24.9690  103.9610 C   0  0  0  0  0
   47.1040   26.0100  103.3840 O   0  0  0  0  0
   47.2530   22.7330  102.9810 C   0  0  0  0  0
   48.3330   21.7400  102.6160 C   0  0  0  0  0
   49.5270   22.1070  102.6260 O   0  0  0  0  0
   47.9800   20.5840  102.3110 O   0  0  0  0  0
   45.6170   24.7950  104.5710 N   0  0  0  0  0
   44.5930   25.8280  104.6180 C   0  0  0  0  0
   45.1320   27.1360  105.1900 C   0  0  0  0  0
   44.9690   28.2020  104.5930 O   0  0  0  0  0
   43.4080   25.3410  105.4540 C   0  0  0  0  0
   42.1130   25.1380  104.6740 C   0  0  0  0  0
   41.4330   23.8280  105.0500 C   0  0  0  0  0
   39.9200   23.9420  104.9790 C   0  0  0  0  0
   39.2520   22.6400  105.2440 N   0  3  0  0  0
   45.7800   27.0500  106.3460 N   0  0  0  0  0
   46.3180   28.2340  107.0070 C   0  0  0  0  0
   47.5000   28.8210  106.2430 C   0  0  0  0  0
   47.6750   30.0380  106.2010 O   0  0  0  0  0
   46.7310   27.9010  108.4400 C   0  0  0  0  0
   45.5630   27.8200  109.3680 C   0  0  0  0  0
   45.0100   26.6930  109.8990 C   0  0  0  0  0
   44.7900   28.9190  109.8640 C   0  0  0  0  0
   43.9450   27.0210  110.7010 N   0  0  0  0  0
   43.7880   28.3830  110.6950 C   0  0  0  0  0
   44.8510   30.3050  109.6860 C   0  0  0  0  0
   42.8560   29.1830  111.3500 C   0  0  0  0  0
   43.9250   31.0980  110.3370 C   0  0  0  0  0
   42.9400   30.5350  111.1580 C   0  0  0  0  0
   48.3060   27.9530  105.6410 N   0  0  0  0  0
   49.4350   28.3960  104.8330 C   0  0  0  0  0
   48.9540   29.2440  103.6600 C   0  0  0  0  0
   49.6200   30.1980  103.2560 O   0  0  0  0  0
   50.2300   27.2010  104.3330 C   0  0  0  0  0
   47.7900   28.8910  103.1220 N   0  0  0  0  0
   47.2080   29.6140  101.9970 C   0  0  0  0  0
   46.8750   31.0530  102.3680 C   0  0  0  0  0
   47.1010   31.9740  101.5860 O   0  0  0  0  0
   45.9390   28.9130  101.5100 C   0  0  0  0  0
   46.1500   27.5230  101.3580 O   0  0  0  0  0
   46.3330   31.2360  103.5680 N   0  0  0  0  0
   45.8250   32.5350  103.9920 C   0  0  0  0  0
   46.9400   33.5240  104.3230 C   0  0  0  0  0
   46.7640   34.7330  104.1700 O   0  0  0  0  0
   44.9070   32.3660  105.2040 C   0  0  0  0  0
   43.6500   31.5240  104.9660 C   0  0  0  0  0
   42.9010   31.3030  106.2720 C   0  0  0  0  0
   42.7400   32.1770  103.9320 C   0  0  0  0  0
   48.0820   33.0140  104.7750 N   0  0  0  0  0
   49.2170   33.8710  105.1050 C   0  0  0  0  0
   50.0690   34.1380  103.8670 C   0  0  0  0  0
   50.5920   35.2380  103.6920 O   0  0  0  0  0
   50.0770   33.2410  106.2050 C   0  0  0  0  0
   49.3090   32.8090  107.4280 C   0  0  0  0  0
   49.4920   31.6620  108.1410 C   0  0  0  0  0
   48.2390   33.5150  108.0750 C   0  0  0  0  0
   48.6090   31.6080  109.1920 N   0  0  0  0  0
   47.8280   32.7330  109.1730 C   0  0  0  0  0
   47.5910   34.7300  107.8340 C   0  0  0  0  0
   46.8000   33.1260  110.0270 C   0  0  0  0  0
   46.5700   35.1180  108.6840 C   0  0  0  0  0
   46.1850   34.3180  109.7660 C   0  0  0  0  0
   50.2030   33.1300  103.0120 N   0  0  0  0  0
   46.9548   17.7200  111.0557 H   0  0  0  0  0
   45.3877   17.8300  110.2171 H   0  0  0  0  0
   46.5263   16.5232  109.8087 H   0  0  0  0  0
   47.5079   16.7829  107.9686 H   0  0  0  0  0
   48.9676   19.1793  107.3535 H   0  0  0  0  0
   49.3546   18.1195  105.1733 H   0  0  0  0  0
   48.1736   16.7922  105.6885 H   0  0  0  0  0
   49.7318   16.2628  107.5059 H   0  0  0  0  0
   49.7036   14.9610  105.4324 H   0  0  0  0  0
   50.8655   16.0897  104.6928 H   0  0  0  0  0
   51.3604   15.0808  106.0742 H   0  0  0  0  0
   51.6076   18.1414  106.0405 H   0  0  0  0  0
   50.9236   18.3836  107.6667 H   0  0  0  0  0
   52.0600   17.0453  107.3690 H   0  0  0  0  0
   45.7289   18.0922  106.6477 H   0  0  0  0  0
   45.2585   19.7610  104.3623 H   0  0  0  0  0
   43.2856   18.8230  106.4399 H   0  0  0  0  0
   43.8548   17.8739  104.9693 H   0  0  0  0  0
   42.3986   20.5025  104.8371 H   0  0  0  0  0
   43.7149   19.9123  102.8753 H   0  0  0  0  0
   42.9240   18.3184  102.8043 H   0  0  0  0  0
   41.9727   19.7976  102.5250 H   0  0  0  0  0
   41.2777   17.6933  104.6703 H   0  0  0  0  0
   40.9660   18.8807  105.9603 H   0  0  0  0  0
   40.3895   19.1928  104.3046 H   0  0  0  0  0
   44.3950   20.1899  107.8209 H   0  0  0  0  0
   43.4700   22.8622  107.5740 H   0  0  0  0  0
   44.5125   22.8657  110.0624 H   0  0  0  0  0
   44.3320   21.0706  109.7292 H   0  0  0  0  0
   42.0609   22.8942  109.2001 H   0  0  0  0  0
   42.4578   22.4431  110.9136 H   0  0  0  0  0
   43.4191   20.0241  109.6517 H   0  0  0  0  0
   46.6979   21.4908  107.9181 H   0  0  0  0  0
   48.0580   23.9455  108.5385 H   0  0  0  0  0
   49.4198   21.8747  106.9502 H   0  0  0  0  0
   48.7287   21.4253  108.6292 H   0  0  0  0  0
   50.8150   23.5109  108.0508 H   0  0  0  0  0
   49.4563   23.9877  110.0050 H   0  0  0  0  0
   49.7541   22.3469  110.6295 H   0  0  0  0  0
   51.1038   23.4975  110.4700 H   0  0  0  0  0
   51.0060   20.6879  109.1715 H   0  0  0  0  0
   51.6159   21.2246  107.5869 H   0  0  0  0  0
   52.3426   21.8612  109.0828 H   0  0  0  0  0
   47.4979   22.2100  105.4620 H   0  0  0  0  0
   48.7271   24.0977  103.7530 H   0  0  0  0  0
   46.9696   23.2649  102.0728 H   0  0  0  0  0
   46.4262   22.1774  103.4235 H   0  0  0  0  0
   49.5749   23.0293  102.8881 H   0  0  0  0  0
   45.4312   23.9009  105.0253 H   0  0  0  0  0
   44.2686   26.0246  103.5961 H   0  0  0  0  0
   43.2101   26.1109  106.1998 H   0  0  0  0  0
   43.6870   24.3692  105.8612 H   0  0  0  0  0
   42.3516   25.1099  103.6108 H   0  0  0  0  0
   41.4356   25.9585  104.9107 H   0  0  0  0  0
   41.7115   23.5771  106.0735 H   0  0  0  0  0
   41.7536   23.0596  104.3465 H   0  0  0  0  0
   39.6488   24.2668  103.9745 H   0  0  0  0  0
   39.5951   24.6533  105.7383 H   0  0  0  0  0
   38.2407   22.7602  105.1869 H   0  0  0  0  0
   39.5541   21.9567  104.5496 H   0  0  0  0  0
   39.5046   22.3132  106.1766 H   0  0  0  0  0
   45.9043   26.1360  106.7813 H   0  0  0  0  0
   45.5289   28.9857  107.0260 H   0  0  0  0  0
   47.3873   28.6959  108.7941 H   0  0  0  0  0
   47.2214   26.9276  108.4310 H   0  0  0  0  0
   45.3623   25.6783  109.7137 H   0  0  0  0  0
   45.6133   30.7506  109.0469 H   0  0  0  0  0
   42.0888   28.7490  111.9912 H   0  0  0  0  0
   43.9620   32.1799  110.2093 H   0  0  0  0  0
   42.2238   31.1890  111.6555 H   0  0  0  0  0
   48.1305   26.9538  105.7468 H   0  0  0  0  0
   50.0856   29.0090  105.4567 H   0  0  0  0  0
   50.6036   26.6327  105.1848 H   0  0  0  0  0
   49.5854   26.5659  103.7254 H   0  0  0  0  0
   51.0692   27.5505  103.7315 H   0  0  0  0  0
   47.2893   28.0905  103.5078 H   0  0  0  0  0
   47.9512   29.6245  101.1998 H   0  0  0  0  0
   45.6597   29.3307  100.5427 H   0  0  0  0  0
   45.1512   29.0671  102.2474 H   0  0  0  0  0
   45.3396   27.1090  101.0522 H   0  0  0  0  0
   46.2709   30.4457  104.2098 H   0  0  0  0  0
   45.2656   32.9483  103.1527 H   0  0  0  0  0
   44.5650   33.3645  105.4762 H   0  0  0  0  0
   45.4895   31.8463  105.9647 H   0  0  0  0  0
   43.9622   30.5553  104.5760 H   0  0  0  0  0
   43.5486   30.7819  106.9771 H   0  0  0  0  0
   42.6086   32.2666  106.6892 H   0  0  0  0  0
   42.0112   30.7028  106.0820 H   0  0  0  0  0
   42.4383   33.1627  104.2863 H   0  0  0  0  0
   43.2771   32.2772  102.9888 H   0  0  0  0  0
   41.8562   31.5564  103.7842 H   0  0  0  0  0
   48.1666   32.0044  104.8934 H   0  0  0  0  0
   48.8231   34.8187  105.4722 H   0  0  0  0  0
   50.7895   34.0004  106.5273 H   0  0  0  0  0
   50.5318   32.3457  105.7811 H   0  0  0  0  0
   50.2331   30.8968  107.9103 H   0  0  0  0  0
   47.8840   35.3592  106.9935 H   0  0  0  0  0
   46.4977   32.5063  110.8712 H   0  0  0  0  0
   46.0567   36.0633  108.5077 H   0  0  0  0  0
   45.3762   34.6534  110.4152 H   0  0  0  0  0
   50.7596   33.2497  102.1657 H   0  0  0  0  0
   49.7493   32.2364  103.2019 H   0  0  0  0  0
  1  2  2  0  0  0
  1  3  1  0  0  0
  1  4  1  0  0  0
  4  5  1  0  0  0
  5  6  1  0  0  0
  5  8  1  0  0  0
  6  7  2  0  0  0
  6 12  1  0  0  0
  8  9  1  0  0  0
  9 10  1  0  0  0
  9 11  1  0  0  0
 12 13  1  0  0  0
 13 14  1  0  0  0
 13 16  1  0  0  0
 14 15  2  0  0  0
 14 20  1  0  0  0
 16 17  1  0  0  0
 17 18  1  0  0  0
 17 19  1  0  0  0
 20 21  1  0  0  0
 21 22  1  0  0  0
 21 24  1  0  0  0
 22 23  2  0  0  0
 22 29  1  0  0  0
 24 25  1  0  0  0
 25 26  1  0  0  0
 26 27  1  0  0  0
 26 28  2  0  0  0
 29 30  1  0  0  0
 30 31  1  0  0  0
 30 33  1  0  0  0
 31 32  2  0  0  0
 31 37  1  0  0  0
 33 34  1  0  0  0
 34 35  1  0  0  0
 34 36  1  0  0  0
 37 38  1  0  0  0
 38 39  1  0  0  0
 38 41  1  0  0  0
 39 40  2  0  0  0
 39 45  1  0  0  0
 41 42  1  0  0  0
 42 43  1  0  0  0
 42 44  2  0  0  0
 45 46  1  0  0  0
 46 47  1  0  0  0
 46 49  1  0  0  0
 47 48  2  0  0  0
 47 54  1  0  0  0
 49 50  1  0  0  0
 50 51  1  0  0  0
 51 52  1  0  0  0
 52 53  1  0  0  0
 54 55  1  0  0  0
 55 56  1  0  0  0
 55 58  1  0  0  0
 56 57  2  0  0  0
 56 68  1  0  0  0
 58 59  1  0  0  0
 59 60  4  0  0  0
 59 61  4  0  0  0
 60 62  4  0  0  0
 61 63  4  0  0  0
 61 64  4  0  0  0
 62 63  4  0  0  0
 63 65  4  0  0  0
 64 66  4  0  0  0
 65 67  4  0  0  0
 66 67  4  0  0  0
 68 69  1  0  0  0
 69 70  1  0  0  0
 69 72  1  0  0  0
 70 71  2  0  0  0
 70 73  1  0  0  0
 73 74  1  0  0  0
 74 75  1  0  0  0
 74 77  1  0  0  0
 75 76  2  0  0  0
 75 79  1  0  0  0
 77 78  1  0  0  0
 79 80  1  0  0  0
 80 81  1  0  0  0
 80 83  1  0  0  0
 81 82  2  0  0  0
 81 87  1  0  0  0
 83 84  1  0  0  0
 84 85  1  0  0  0
 84 86  1  0  0  0
 87 88  1  0  0  0
 88 89  1  0  0  0
 88 91  1  0  0  0
 89 90  2  0  0  0
 89101  1  0  0  0
 91 92  1  0  0  0
 92 93  4  0  0  0
 92 94  4  0  0  0
 93 95  4  0  0  0
 94 96  4  0  0  0
 94 97  4  0  0  0
 95 96  4  0  0  0
 96 98  4  0  0  0
 97 99  4  0  0  0
 98100  4  0  0  0
 99100  4  0  0  0
  3102  1  0  0  0
  3103  1  0  0  0
  3104  1  0  0  0
  4105  1  0  0  0
  5106  1  0  0  0
  8107  1  0  0  0
  8108  1  0  0  0
  9109  1  0  0  0
 10110  1  0  0  0
 10111  1  0  0  0
 10112  1  0  0  0
 11113  1  0  0  0
 11114  1  0  0  0
 11115  1  0  0  0
 12116  1  0  0  0
 13117  1  0  0  0
 16118  1  0  0  0
 16119  1  0  0  0
 17120  1  0  0  0
 18121  1  0  0  0
 18122  1  0  0  0
 18123  1  0  0  0
 19124  1  0  0  0
 19125  1  0  0  0
 19126  1  0  0  0
 20127  1  0  0  0
 21128  1  0  0  0
 24129  1  0  0  0
 24130  1  0  0  0
 25131  1  0  0  0
 25132  1  0  0  0
 27133  1  0  0  0
 29134  1  0  0  0
 30135  1  0  0  0
 33136  1  0  0  0
 33137  1  0  0  0
 34138  1  0  0  0
 35139  1  0  0  0
 35140  1  0  0  0
 35141  1  0  0  0
 36142  1  0  0  0
 36143  1  0  0  0
 36144  1  0  0  0
 37145  1  0  0  0
 38146  1  0  0  0
 41147  1  0  0  0
 41148  1  0  0  0
 43149  1  0  0  0
 45150  1  0  0  0
 46151  1  0  0  0
 49152  1  0  0  0
 49153  1  0  0  0
 50154  1  0  0  0
 50155  1  0  0  0
 51156  1  0  0  0
 51157  1  0  0  0
 52158  1  0  0  0
 52159  1  0  0  0
 53160  1  0  0  0
 53161  1  0  0  0
 53162  1  0  0  0
 54163  1  0  0  0
 55164  1  0  0  0
 58165  1  0  0  0
 58166  1  0  0  0
 60167  1  0  0  0
 64168  1  0  0  0
 65169  1  0  0  0
 66170  1  0  0  0
 67171  1  0  0  0
 68172  1  0  0  0
 69173  1  0  0  0
 72174  1  0  0  0
 72175  1  0  0  0
 72176  1  0  0  0
 73177  1  0  0  0
 74178  1  0  0  0
 77179  1  0  0  0
 77180  1  0  0  0
 78181  1  0  0  0
 79182  1  0  0  0
 80183  1  0  0  0
 83184  1  0  0  0
 83185  1  0  0  0
 84186  1  0  0  0
 85187  1  0  0  0
 85188  1  0  0  0
 85189  1  0  0  0
 86190  1  0  0  0
 86191  1  0  0  0
 86192  1  0  0  0
 87193  1  0  0  0
 88194  1  0  0  0
 91195  1  0  0  0
 91196  1  0  0  0
 93197  1  0  0  0
 97198  1  0  0  0
 98199  1  0  0  0
 99200  1  0  0  0
100201  1  0  0  0
101202  1  0  0  0
101203  1  0  0  0
M  END
$$$$
