### 
### Created by X-TOOL on Mon Sep 10 21:13:30 2018
### 

@<TRIPOS>MOLECULE
5dd0_ligand
  203   206     1     0     0
SMALL
GAST_HUCK


@<TRIPOS>ATOM
      1 C          47.0630   18.4390  109.0570 C.2       1 ACE         0.1751
      2 O          47.0960   19.6640  109.1560 O.2       1 ACE        -0.3972
      3 CH3        46.4400   17.5680  110.1070 C.3       1 ACE         0.0258
      4 N          47.5740   17.8000  108.0090 N.am      1 LEU        -0.2658
      5 CA         48.2260   18.5110  106.9160 C.3       1 LEU         0.1311
      6 C          47.2320   19.3560  106.1290 C.2       1 LEU         0.2039
      7 O          47.5980   20.3710  105.5380 O.2       1 LEU        -0.3944
      8 CB         48.9270   17.5240  105.9800 C.3       1 LEU        -0.0101
      9 CG         50.0860   16.7280  106.5860 C.3       1 LEU        -0.0425
     10 CD1        50.5360   15.6370  105.6280 C.3       1 LEU        -0.0625
     11 CD2        51.2530   17.6400  106.9410 C.3       1 LEU        -0.0625
     12 N          45.9730   18.9340  106.1260 N.am      1 LEU        -0.2637
     13 CA         44.9330   19.6440  105.3960 C.3       1 LEU         0.1312
     14 C          44.7110   21.0280  105.9970 C.2       1 LEU         0.2039
     15 O          44.7490   22.0340  105.2870 O.2       1 LEU        -0.3944
     16 CB         43.6300   18.8470  105.4060 C.3       1 LEU        -0.0101
     17 CG         42.4930   19.4480  104.5780 C.3       1 LEU        -0.0425
     18 CD1        42.7980   19.3630  103.0890 C.3       1 LEU        -0.0625
     19 CD2        41.1900   18.7550  104.9010 C.3       1 LEU        -0.0625
     20 N          44.4700   21.0660  107.3040 N.am      1 GLU        -0.2636
     21 CA         44.3100   22.3280  108.0180 C.3       1 GLU         0.1325
     22 C          45.5680   23.1760  107.8830 C.2       1 GLU         0.2040
     23 O          45.4990   24.4020  107.8000 O.2       1 GLU        -0.3944
     24 CB         44.0030   22.0840  109.4990 C.3       1 GLU        -0.0008
     25 CG         42.5280   22.1650  109.8620 C.3       1 GLU         0.0044
     26 CD         41.8060   20.8460  109.6820 C.2       1 GLU         0.0350
     27 OE1        42.4870   19.8030  109.5890 O.co2     1 GLU        -0.5690
     28 OE2        40.5580   20.8530  109.6330 O.co2     1 GLU        -0.5690
     29 N          46.7160   22.5090  107.8610 N.am      1 LEU        -0.2637
     30 CA         47.9980   23.1870  107.7580 C.3       1 LEU         0.1312
     31 C          48.1320   23.8910  106.4080 C.2       1 LEU         0.2040
     32 O          48.5640   25.0420  106.3380 O.2       1 LEU        -0.3944
     33 CB         49.1300   22.1820  107.9550 C.3       1 LEU        -0.0101
     34 CG         50.4180   22.6670  108.6150 C.3       1 LEU        -0.0425
     35 CD1        50.1650   23.1600  110.0310 C.3       1 LEU        -0.0625
     36 CD2        51.4160   21.5300  108.6140 C.3       1 LEU        -0.0625
     37 N          47.7610   23.1880  105.3410 N.am      1 ASP        -0.2622
     38 CA         47.7180   23.7700  104.0030 C.3       1 ASP         0.1423
     39 C          46.7830   24.9690  103.9610 C.2       1 ASP         0.2056
     40 O          47.1040   26.0100  103.3840 O.2       1 ASP        -0.3943
     41 CB         47.2530   22.7330  102.9810 C.3       1 ASP         0.0406
     42 CG         48.3330   21.7400  102.6160 C.2       1 ASP         0.0393
     43 OD1        49.5270   22.1070  102.6260 O.co2     1 ASP        -0.5688
     44 OD2        47.9800   20.5840  102.3110 O.co2     1 ASP        -0.5688
     45 N          45.6170   24.7950  104.5710 N.am      1 LYS        -0.2636
     46 CA         44.5930   25.8280  104.6180 C.3       1 LYS         0.1310
     47 C          45.1320   27.1360  105.1900 C.2       1 LYS         0.2040
     48 O          44.9690   28.2020  104.5930 O.2       1 LYS        -0.3944
     49 CB         43.4080   25.3410  105.4540 C.3       1 LYS        -0.0122
     50 CG         42.1130   25.1380  104.6740 C.3       1 LYS        -0.0440
     51 CD         41.4330   23.8280  105.0500 C.3       1 LYS        -0.0124
     52 CE         39.9200   23.9420  104.9790 C.3       1 LYS        -0.0354
     53 NZ         39.2520   22.6400  105.2440 N.4       1 LYS         0.2185
     54 N          45.7800   27.0500  106.3460 N.am      1 TRP        -0.2627
     55 CA         46.3180   28.2340  107.0070 C.3       1 TRP         0.1352
     56 C          47.5000   28.8210  106.2430 C.2       1 TRP         0.2052
     57 O          47.6750   30.0380  106.2010 O.2       1 TRP        -0.3942
     58 CB         46.7310   27.9010  108.4400 C.3       1 TRP         0.0042
     59 CG         45.5630   27.8200  109.3680 C.2       1 TRP        -0.0418
     60 CD1        45.0100   26.6930  109.8990 C.2       1 TRP         0.0167
     61 CD2        44.7900   28.9190  109.8640 C.ar      1 TRP        -0.0214
     62 NE1        43.9450   27.0210  110.7010 N.pl3     1 TRP        -0.2890
     63 CE2        43.7880   28.3830  110.6950 C.ar      1 TRP         0.0603
     64 CE3        44.8510   30.3050  109.6860 C.ar      1 TRP        -0.0747
     65 CZ2        42.8560   29.1830  111.3500 C.ar      1 TRP        -0.0443
     66 CZ3        43.9250   31.0980  110.3370 C.ar      1 TRP        -0.0792
     67 CH2        42.9400   30.5350  111.1580 C.ar      1 TRP        -0.0768
     68 N          48.3060   27.9530  105.6410 N.am      1 ALA        -0.2639
     69 CA         49.4350   28.3960  104.8330 C.3       1 ALA         0.1282
     70 C          48.9540   29.2440  103.6600 C.2       1 ALA         0.2037
     71 O          49.6200   30.1980  103.2560 O.2       1 ALA        -0.3944
     72 CB         50.2300   27.2010  104.3330 C.3       1 ALA        -0.0244
     73 N          47.7900   28.8910  103.1220 N.am      1 SER        -0.2616
     74 CA         47.2080   29.6140  101.9970 C.3       1 SER         0.1539
     75 C          46.8750   31.0530  102.3680 C.2       1 SER         0.2062
     76 O          47.1010   31.9740  101.5860 O.2       1 SER        -0.3943
     77 CB         45.9390   28.9130  101.5100 C.3       1 SER         0.0843
     78 OG         46.1500   27.5230  101.3580 O.3       1 SER        -0.3903
     79 N          46.3330   31.2360  103.5680 N.am      1 LEU        -0.2636
     80 CA         45.8250   32.5350  103.9920 C.3       1 LEU         0.1312
     81 C          46.9400   33.5240  104.3230 C.2       1 LEU         0.2040
     82 O          46.7640   34.7330  104.1700 O.2       1 LEU        -0.3944
     83 CB         44.9070   32.3660  105.2040 C.3       1 LEU        -0.0101
     84 CG         43.6500   31.5240  104.9660 C.3       1 LEU        -0.0425
     85 CD1        42.9010   31.3030  106.2720 C.3       1 LEU        -0.0625
     86 CD2        42.7400   32.1770  103.9320 C.3       1 LEU        -0.0625
     87 N          48.0820   33.0140  104.7750 N.am      1 TRP        -0.2627
     88 CA         49.2170   33.8710  105.1050 C.3       1 TRP         0.1348
     89 C          50.0690   34.1380  103.8670 C.2       1 TRP         0.2004
     90 O          50.5920   35.2380  103.6920 O.2       1 TRP        -0.3946
     91 CB         50.0770   33.2410  106.2050 C.3       1 TRP         0.0042
     92 CG         49.3090   32.8090  107.4280 C.2       1 TRP        -0.0418
     93 CD1        49.4920   31.6620  108.1410 C.2       1 TRP         0.0167
     94 CD2        48.2390   33.5150  108.0750 C.ar      1 TRP        -0.0214
     95 NE1        48.6090   31.6080  109.1920 N.pl3     1 TRP        -0.2890
     96 CE2        47.8280   32.7330  109.1730 C.ar      1 TRP         0.0603
     97 CE3        47.5910   34.7300  107.8340 C.ar      1 TRP        -0.0747
     98 CZ2        46.8000   33.1260  110.0270 C.ar      1 TRP        -0.0443
     99 CZ3        46.5700   35.1180  108.6840 C.ar      1 TRP        -0.0792
    100 CH2        46.1850   34.3180  109.7660 C.ar      1 TRP        -0.0768
    101 N          50.2030   33.1300  103.0120 N.am      1 NH2        -0.2989
    102 H1         46.5265   16.5132  109.8070 H         1 ACE         0.0467
    103 H2         45.3779   17.8314  110.2191 H         1 ACE         0.0467
    104 H3         46.9587   17.7204  111.0650 H         1 ACE         0.0467
    105 H4         47.5092   16.8029  107.9694 H         1 LEU         0.1882
    106 H5         48.9841   19.1817  107.3467 H         1 LEU         0.0800
    107 H6         49.3211   18.0934  105.1253 H         1 LEU         0.0315
    108 H7         48.1743   16.8045  105.6256 H         1 LEU         0.0315
    109 H8         49.7292   16.2512  107.5109 H         1 LEU         0.0298
    110 H9         51.3680   15.0749  106.0772 H         1 LEU         0.0232
    111 H10        50.8689   16.0926  104.6837 H         1 LEU         0.0232
    112 H11        49.6968   14.9540  105.4298 H         1 LEU         0.0232
    113 H12        50.9094   18.4222  107.6339 H         1 LEU         0.0232
    114 H13        51.6448   18.1074  106.0256 H         1 LEU         0.0232
    115 H14        52.0476   17.0491  107.4200 H         1 LEU         0.0232
    116 H15        45.7336   18.1087  106.6375 H         1 LEU         0.1883
    117 H16        45.2601   19.7645  104.3527 H         1 LEU         0.0800
    118 H17        43.2872   18.7682  106.4482 H         1 LEU         0.0315
    119 H18        43.8427   17.8419  105.0130 H         1 LEU         0.0315
    120 H19        42.3949   20.5101  104.8470 H         1 LEU         0.0298
    121 H20        41.9658   19.8013  102.5187 H         1 LEU         0.0232
    122 H21        42.9254   18.3092  102.8004 H         1 LEU         0.0232
    123 H22        43.7231   19.9171  102.8720 H         1 LEU         0.0232
    124 H23        40.9925   18.8302  105.9805 H         1 LEU         0.0232
    125 H24        41.2571   17.6954  104.6135 H         1 LEU         0.0232
    126 H25        40.3716   19.2349  104.3443 H         1 LEU         0.0232
    127 H26        44.3965   20.2071  107.8108 H         1 GLU         0.1883
    128 H27        43.4669   22.8758  107.5718 H         1 GLU         0.0801
    129 H28        44.5436   22.8378  110.0901 H         1 GLU         0.0330
    130 H29        44.3668   21.0803  109.7639 H         1 GLU         0.0330
    131 H30        42.0488   22.9184  109.2196 H         1 GLU         0.0433
    132 H31        42.4415   22.4722  110.9147 H         1 GLU         0.0433
    133 H32        46.6982   21.5107  107.9169 H         1 LEU         0.1883
    134 H33        48.0589   23.9449  108.5529 H         1 LEU         0.0800
    135 H34        49.3987   21.7943  106.9613 H         1 LEU         0.0315
    136 H35        48.7349   21.3628  108.5737 H         1 LEU         0.0315
    137 H36        50.8263   23.5010  108.0254 H         1 LEU         0.0298
    138 H37        51.1118   23.5009  110.4752 H         1 LEU         0.0232
    139 H38        49.7504   22.3403  110.6361 H         1 LEU         0.0232
    140 H39        49.4499   23.9955  110.0061 H         1 LEU         0.0232
    141 H40        51.5834   21.1900  107.5813 H         1 LEU         0.0232
    142 H41        51.0232   20.6968  109.2152 H         1 LEU         0.0232
    143 H42        52.3671   21.8765  109.0446 H         1 LEU         0.0232
    144 H43        47.5031   22.2291  105.4596 H         1 ASP         0.1884
    145 H44        48.7316   24.1027  103.7348 H         1 ASP         0.0819
    146 H45        46.9361   23.2580  102.0678 H         1 ASP         0.0478
    147 H46        46.3989   22.1830  103.4030 H         1 ASP         0.0478
    148 H47        45.4348   23.9184  105.0164 H         1 LYS         0.1883
    149 H48        44.2459   26.0178  103.5916 H         1 LYS         0.0800
    150 H49        43.2187   26.0831  106.2435 H         1 LYS         0.0312
    151 H50        43.6850   24.3803  105.9125 H         1 LYS         0.0312
    152 H51        42.3421   25.1255  103.5982 H         1 LYS         0.0269
    153 H52        41.4293   25.9712  104.8937 H         1 LYS         0.0269
    154 H53        41.7226   23.5572  106.0761 H         1 LYS         0.0317
    155 H54        41.7645   23.0418  104.3558 H         1 LYS         0.0317
    156 H55        39.6364   24.2890  103.9745 H         1 LYS         0.0813
    157 H56        39.5830   24.6734  105.7283 H         1 LYS         0.0813
    158 H57        38.2525   22.7576  105.1878 H         1 LYS         0.1994
    159 H58        39.5009   22.3160  106.1655 H         1 LYS         0.1994
    160 H59        39.5498   21.9638  104.5583 H         1 LYS         0.1994
    161 H60        45.9018   26.1539  106.7728 H         1 TRP         0.1884
    162 H61        45.5237   28.9941  107.0432 H         1 TRP         0.0815
    163 H62        47.4146   28.6835  108.8010 H         1 TRP         0.0397
    164 H63        47.2503   26.9313  108.4412 H         1 TRP         0.0397
    165 H64        45.3620   25.6792  109.7139 H         1 TRP         0.0795
    166 H65        43.3595   26.3528  111.2222 H         1 TRP         0.2216
    167 H66        45.6091   30.7481  109.0504 H         1 TRP         0.0540
    168 H67        42.0930   28.7514  111.9877 H         1 TRP         0.0541
    169 H68        43.9618   32.1739  110.2100 H         1 TRP         0.0510
    170 H69        42.2277   31.1854  111.6527 H         1 TRP         0.0530
    171 H70        48.1340   26.9734  105.7447 H         1 ALA         0.1883
    172 H71        50.0926   29.0135  105.4624 H         1 ALA         0.0797
    173 H72        51.0772   27.5524  103.7258 H         1 ALA         0.0277
    174 H73        49.5805   26.5592  103.7196 H         1 ALA         0.0277
    175 H74        50.6077   26.6266  105.1917 H         1 ALA         0.0277
    176 H75        47.2991   28.1062  103.5003 H         1 SER         0.1884
    177 H76        47.9418   29.6254  101.1777 H         1 SER         0.0823
    178 H77        45.6431   29.3393  100.5401 H         1 SER         0.0606
    179 H78        45.1351   29.0760  102.2429 H         1 SER         0.0606
    180 H79        46.4021   27.1488  102.1940 H         1 SER         0.2097
    181 H80        46.2721   30.4612  104.1972 H         1 LEU         0.1883
    182 H81        45.2352   32.9542  103.1636 H         1 LEU         0.0800
    183 H82        44.5878   33.3670  105.5297 H         1 LEU         0.0315
    184 H83        45.4886   31.8876  106.0058 H         1 LEU         0.0315
    185 H84        43.9625   30.5436  104.5773 H         1 LEU         0.0298
    186 H85        42.0027   30.6973  106.0815 H         1 LEU         0.0232
    187 H86        42.6052   32.2748  106.6941 H         1 LEU         0.0232
    188 H87        43.5535   30.7771  106.9845 H         1 LEU         0.0232
    189 H88        43.2979   32.3286  102.9962 H         1 LEU         0.0232
    190 H89        42.3908   33.1484  104.3121 H         1 LEU         0.0232
    191 H90        41.8746   31.5253  103.7414 H         1 LEU         0.0232
    192 H91        48.1649   32.0242  104.8911 H         1 TRP         0.1884
    193 H92        48.8283   34.8314  105.4746 H         1 TRP         0.0815
    194 H93        50.8317   33.9784  106.5159 H         1 TRP         0.0397
    195 H94        50.5792   32.3572  105.7847 H         1 TRP         0.0397
    196 H95        50.2325   30.8975  107.9105 H         1 TRP         0.0795
    197 H96        48.5448   30.8458  109.8818 H         1 TRP         0.2216
    198 H97        47.8824   35.3557  106.9981 H         1 TRP         0.0540
    199 H98        46.4994   32.5097  110.8666 H         1 TRP         0.0541
    200 H99        46.0595   36.0581  108.5087 H         1 TRP         0.0510
    201 H100       45.3807   34.6516  110.4116 H         1 TRP         0.0530
    202 H101       50.7499   33.2469  102.1830 H         1 NH2         0.1815
    203 H102       49.7569   32.2544  103.1974 H         1 NH2         0.1815
@<TRIPOS>BOND
     1    1    2 2  
     2    1    3 1  
     3    1    4 am 
     4    4    5 1  
     5    5    6 1  
     6    5    8 1  
     7    6    7 2  
     8    6   12 am 
     9    8    9 1  
    10    9   10 1  
    11    9   11 1  
    12   12   13 1  
    13   13   14 1  
    14   13   16 1  
    15   14   15 2  
    16   14   20 am 
    17   16   17 1  
    18   17   18 1  
    19   17   19 1  
    20   20   21 1  
    21   21   22 1  
    22   21   24 1  
    23   22   23 2  
    24   22   29 am 
    25   24   25 1  
    26   25   26 1  
    27   26   27 ar 
    28   26   28 ar 
    29   29   30 1  
    30   30   31 1  
    31   30   33 1  
    32   31   32 2  
    33   31   37 am 
    34   33   34 1  
    35   34   35 1  
    36   34   36 1  
    37   37   38 1  
    38   38   39 1  
    39   38   41 1  
    40   39   40 2  
    41   39   45 am 
    42   41   42 1  
    43   42   43 ar 
    44   42   44 ar 
    45   45   46 1  
    46   46   47 1  
    47   46   49 1  
    48   47   48 2  
    49   47   54 am 
    50   49   50 1  
    51   50   51 1  
    52   51   52 1  
    53   52   53 1  
    54   54   55 1  
    55   55   56 1  
    56   55   58 1  
    57   56   57 2  
    58   56   68 am 
    59   58   59 1  
    60   59   60 2  
    61   59   61 1  
    62   60   62 1  
    63   61   63 ar 
    64   61   64 ar 
    65   62   63 1  
    66   63   65 ar 
    67   64   66 ar 
    68   65   67 ar 
    69   66   67 ar 
    70   68   69 1  
    71   69   70 1  
    72   69   72 1  
    73   70   71 2  
    74   70   73 am 
    75   73   74 1  
    76   74   75 1  
    77   74   77 1  
    78   75   76 2  
    79   75   79 am 
    80   77   78 1  
    81   79   80 1  
    82   80   81 1  
    83   80   83 1  
    84   81   82 2  
    85   81   87 am 
    86   83   84 1  
    87   84   85 1  
    88   84   86 1  
    89   87   88 1  
    90   88   89 1  
    91   88   91 1  
    92   89   90 2  
    93   89  101 am 
    94   91   92 1  
    95   92   93 2  
    96   92   94 1  
    97   93   95 1  
    98   94   96 ar 
    99   94   97 ar 
   100   95   96 1  
   101   96   98 ar 
   102   97   99 ar 
   103   98  100 ar 
   104   99  100 ar 
   105    3  102 1  
   106    3  103 1  
   107    3  104 1  
   108    4  105 1  
   109    5  106 1  
   110    8  107 1  
   111    8  108 1  
   112    9  109 1  
   113   10  110 1  
   114   10  111 1  
   115   10  112 1  
   116   11  113 1  
   117   11  114 1  
   118   11  115 1  
   119   12  116 1  
   120   13  117 1  
   121   16  118 1  
   122   16  119 1  
   123   17  120 1  
   124   18  121 1  
   125   18  122 1  
   126   18  123 1  
   127   19  124 1  
   128   19  125 1  
   129   19  126 1  
   130   20  127 1  
   131   21  128 1  
   132   24  129 1  
   133   24  130 1  
   134   25  131 1  
   135   25  132 1  
   136   29  133 1  
   137   30  134 1  
   138   33  135 1  
   139   33  136 1  
   140   34  137 1  
   141   35  138 1  
   142   35  139 1  
   143   35  140 1  
   144   36  141 1  
   145   36  142 1  
   146   36  143 1  
   147   37  144 1  
   148   38  145 1  
   149   41  146 1  
   150   41  147 1  
   151   45  148 1  
   152   46  149 1  
   153   49  150 1  
   154   49  151 1  
   155   50  152 1  
   156   50  153 1  
   157   51  154 1  
   158   51  155 1  
   159   52  156 1  
   160   52  157 1  
   161   53  158 1  
   162   53  159 1  
   163   53  160 1  
   164   54  161 1  
   165   55  162 1  
   166   58  163 1  
   167   58  164 1  
   168   60  165 1  
   169   62  166 1  
   170   64  167 1  
   171   65  168 1  
   172   66  169 1  
   173   67  170 1  
   174   68  171 1  
   175   69  172 1  
   176   72  173 1  
   177   72  174 1  
   178   72  175 1  
   179   73  176 1  
   180   74  177 1  
   181   77  178 1  
   182   77  179 1  
   183   78  180 1  
   184   79  181 1  
   185   80  182 1  
   186   83  183 1  
   187   83  184 1  
   188   84  185 1  
   189   85  186 1  
   190   85  187 1  
   191   85  188 1  
   192   86  189 1  
   193   86  190 1  
   194   86  191 1  
   195   87  192 1  
   196   88  193 1  
   197   91  194 1  
   198   91  195 1  
   199   93  196 1  
   200   95  197 1  
   201   97  198 1  
   202   98  199 1  
   203   99  200 1  
   204  100  201 1  
   205  101  202 1  
   206  101  203 1  
@<TRIPOS>SUBSTRUCTURE
     1 ACE         1

