2k46_ligand
  -I-interpret- 

 45 46  0  0  0  0  0  0  0  0999 V2000
  -16.1360   -6.4720   -3.2400 O   0  0  0  0  0
  -18.0500   -6.2190   -4.7560 C   0  0  0  0  0
  -18.7610   -5.5860   -3.6750 O   0  0  0  0  0
  -16.4940   -6.0750   -4.5570 C   0  0  0  0  0
  -16.0250   -4.5850   -4.8330 C   0  0  0  0  0
  -14.6040   -4.5310   -4.7880 O   0  0  0  0  0
  -16.5120   -4.0560   -6.2360 C   0  0  0  0  0
  -16.1710   -2.6790   -6.3640 O   0  0  0  0  0
  -18.0750   -4.2390   -6.3830 C   0  0  0  0  0
  -18.4470   -5.6600   -6.0810 O   0  0  0  0  0
  -18.6000   -3.9220   -7.7920 C   0  0  0  0  0
  -18.5180   -4.9100   -8.8080 O   0  0  0  0  0
  -22.4510   -5.4180   -2.5600 C   0  0  0  0  0
  -23.2030   -5.9040   -3.6620 O   0  0  0  0  0
  -21.0760   -4.9020   -3.1260 C   0  0  0  0  0
  -21.2240   -4.1290   -4.3120 O   0  0  0  0  0
  -20.0680   -6.1210   -3.3000 C   0  0  0  0  0
  -19.9310   -6.9870   -1.9810 C   0  0  0  0  0
  -19.0680   -8.0980   -2.2070 O   0  0  0  0  0
  -21.3690   -7.4490   -1.5280 C   0  0  0  0  0
  -22.2940   -6.2930   -1.3670 O   0  0  0  0  0
  -21.2640   -8.3230   -0.2720 C   0  0  0  0  0
  -20.3580   -7.8160    0.7060 O   0  0  0  0  0
  -16.4263   -7.3745   -3.0890 H   0  0  0  0  0
  -18.3162   -7.2759   -4.7428 H   0  0  0  0  0
  -15.9908   -6.7249   -5.2729 H   0  0  0  0  0
  -16.4673   -3.9502   -4.0652 H   0  0  0  0  0
  -14.2995   -4.8518   -3.9360 H   0  0  0  0  0
  -16.0218   -4.6295   -7.0227 H   0  0  0  0  0
  -15.2208   -2.5761   -6.2736 H   0  0  0  0  0
  -18.5242   -3.5351   -5.6824 H   0  0  0  0  0
  -17.9671   -3.1083   -8.1461 H   0  0  0  0  0
  -19.6682   -3.7523   -7.6572 H   0  0  0  0  0
  -18.8848   -4.5602   -9.6233 H   0  0  0  0  0
  -23.0467   -4.6195   -2.1176 H   0  0  0  0  0
  -24.0515   -6.2279   -3.3510 H   0  0  0  0  0
  -20.6462   -4.2141   -2.3979 H   0  0  0  0  0
  -20.3598   -3.8402   -4.6143 H   0  0  0  0  0
  -20.4601   -6.7815   -4.0734 H   0  0  0  0  0
  -19.4863   -6.3915   -1.1837 H   0  0  0  0  0
  -18.9940   -8.6135   -1.4006 H   0  0  0  0  0
  -21.8102   -8.0623   -2.3137 H   0  0  0  0  0
  -20.8931   -9.2991   -0.5846 H   0  0  0  0  0
  -22.2527   -8.3555    0.1858 H   0  0  0  0  0
  -20.3406   -8.4078    1.4617 H   0  0  0  0  0
  4  1  1  0  0  0
  3  2  1  0  0  0
  2  4  1  0  0  0
  2 10  1  0  0  0
 17  3  1  0  0  0
  4  5  1  0  0  0
  5  6  1  0  0  0
  5  7  1  0  0  0
  7  8  1  0  0  0
  9  7  1  0  0  0
 10  9  1  0  0  0
  9 11  1  0  0  0
 11 12  1  0  0  0
 13 14  1  0  0  0
 15 13  1  0  0  0
 13 21  1  0  0  0
 15 16  1  0  0  0
 15 17  1  0  0  0
 17 18  1  0  0  0
 18 19  1  0  0  0
 18 20  1  0  0  0
 20 21  1  0  0  0
 20 22  1  0  0  0
 22 23  1  0  0  0
  1 24  1  0  0  0
  2 25  1  0  0  0
  4 26  1  0  0  0
  5 27  1  0  0  0
  6 28  1  0  0  0
  7 29  1  0  0  0
  8 30  1  0  0  0
  9 31  1  0  0  0
 11 32  1  0  0  0
 11 33  1  0  0  0
 12 34  1  0  0  0
 13 35  1  0  0  0
 14 36  1  0  0  0
 15 37  1  0  0  0
 16 38  1  0  0  0
 17 39  1  0  0  0
 18 40  1  0  0  0
 19 41  1  0  0  0
 20 42  1  0  0  0
 22 43  1  0  0  0
 22 44  1  0  0  0
 23 45  1  0  0  0
M  END
$$$$
