6r9u_ligand
  -I-interpret- 

 34 36  0  0  0  0  0  0  0  0999 V2000
   -7.0830    7.0220  -22.5460 C   0  0  0  0  0
   -8.1400    7.5650  -23.5200 C   0  0  0  0  0
   -9.6630    5.7080  -24.2900 C   0  0  0  0  0
   -8.8060    4.5200  -23.9210 C   0  0  0  0  0
   -7.9070    4.0280  -24.8710 C   0  0  0  0  0
   -7.0770    2.9620  -24.5730 C   0  0  0  0  0
   -7.1330    2.3850  -23.3100 C   0  0  0  0  0
   -8.0090    2.8740  -22.3570 C   0  0  0  0  0
  -11.1070    4.7520  -21.7860 C   0  0  0  0  0
  -11.3950    6.2580  -21.9350 C   0  0  0  0  0
  -10.1830    7.0830  -22.2790 C   0  0  0  0  0
   -9.4060    6.8280  -23.3620 N   0  0  0  0  0
   -6.1380    2.3220  -25.3210 O   0  0  0  0  0
   -5.7260    1.1600  -24.5730 C   0  0  0  0  0
   -6.2340    1.3640  -23.2460 O   0  0  0  0  0
   -8.8530    3.9400  -22.6490 C   0  0  0  0  0
   -9.6930    4.4260  -21.6210 N   0  0  0  0  0
   -9.8990    8.0200  -21.5450 O   0  0  0  0  0
   -7.4392    7.1399  -21.5226 H   0  0  0  0  0
   -6.9092    5.9659  -22.7522 H   0  0  0  0  0
   -6.1534    7.5764  -22.6746 H   0  0  0  0  0
   -7.7805    7.4406  -24.5415 H   0  0  0  0  0
   -8.3128    8.6198  -23.3064 H   0  0  0  0  0
  -10.7136    5.4246  -24.2259 H   0  0  0  0  0
   -9.4205    6.0221  -25.3052 H   0  0  0  0  0
   -7.8592    4.4891  -25.8575 H   0  0  0  0  0
   -8.0378    2.4189  -21.3670 H   0  0  0  0  0
  -11.4436    4.2681  -22.7029 H   0  0  0  0  0
  -11.6220    4.4136  -20.8869 H   0  0  0  0  0
  -11.7650    6.6129  -20.9731 H   0  0  0  0  0
  -12.1060    6.3716  -22.7533 H   0  0  0  0  0
   -4.6420    1.0456  -24.5744 H   0  0  0  0  0
   -6.1128    0.2412  -25.0138 H   0  0  0  0  0
   -9.2817    4.5586  -20.6971 H   0  0  0  0  0
  2  1  1  0  0  0
 12  2  1  0  0  0
  3  4  1  0  0  0
 12  3  1  0  0  0
  4  5  4  0  0  0
  4 16  4  0  0  0
  5  6  4  0  0  0
  6  7  4  0  0  0
  6 13  1  0  0  0
  8  7  4  0  0  0
  7 15  1  0  0  0
 16  8  4  0  0  0
 10  9  1  0  0  0
  9 17  1  0  0  0
 11 10  1  0  0  0
 11 12  1  0  0  0
 11 18  2  0  0  0
 13 14  1  0  0  0
 14 15  1  0  0  0
 16 17  1  0  0  0
  1 19  1  0  0  0
  1 20  1  0  0  0
  1 21  1  0  0  0
  2 22  1  0  0  0
  2 23  1  0  0  0
  3 24  1  0  0  0
  3 25  1  0  0  0
  5 26  1  0  0  0
  8 27  1  0  0  0
  9 28  1  0  0  0
  9 29  1  0  0  0
 10 30  1  0  0  0
 10 31  1  0  0  0
 14 32  1  0  0  0
 14 33  1  0  0  0
 17 34  1  0  0  0
M  END
$$$$
