4l7c_ligand
  -I-interpret- 

 60 65  0  0  0  0  0  0  0  0999 V2000
  -20.2970   38.5340  -36.8850 C   0  0  0  0  0
  -20.1430   37.0730  -37.2320 C   0  0  0  0  0
  -21.7960   37.9490  -33.4320 C   0  0  0  0  0
  -19.5540   36.3600  -36.0470 C   0  0  0  0  0
  -20.5580   36.4140  -34.9260 C   0  0  0  0  0
  -20.8090   37.8540  -34.5280 C   0  0  0  0  0
  -21.2210   38.7390  -35.7020 C   0  0  0  0  0
  -23.2160   37.4690  -35.9610 O   0  0  0  0  0
  -22.6420   38.5290  -36.1650 C   0  0  0  0  0
  -22.4690   39.0080  -33.0460 N   0  0  0  0  0
  -23.2520   38.6030  -31.9980 N   0  0  0  0  0
  -23.0710   37.3180  -31.7340 N   0  0  0  0  0
  -22.1630   36.9110  -32.6280 N   0  0  0  0  0
  -23.2430   39.5920  -36.8360 N   0  0  0  0  0
  -22.6910   40.9240  -36.9760 C   0  0  0  0  0
  -23.4260   41.8620  -36.0550 C   0  0  0  0  0
  -24.8890   41.7700  -36.3160 C   0  0  0  0  0
  -25.4490   40.6450  -36.8860 C   0  0  0  0  0
  -26.8090   40.6050  -37.1070 C   0  0  0  0  0
  -27.6070   41.6720  -36.7650 C   0  0  0  0  0
  -27.0460   42.7910  -36.1970 C   0  0  0  0  0
  -25.6900   42.8360  -35.9740 C   0  0  0  0  0
  -24.6180   39.4650  -37.2740 C   0  0  0  0  0
  -24.6780   39.3070  -38.7780 C   0  0  0  0  0
  -23.8590   38.2150  -39.2250 N   0  0  0  0  0
  -22.6640   38.3820  -39.8960 C   0  0  0  0  0
  -22.0770   39.3810  -40.2850 O   0  0  0  0  0
  -22.1760   37.0250  -40.0720 C   0  0  0  0  0
  -21.0200   36.6000  -40.6750 C   0  0  0  0  0
  -20.8020   35.2370  -40.7010 C   0  0  0  0  0
  -21.7100   34.3520  -40.1430 C   0  0  0  0  0
  -22.8680   34.7990  -39.5390 C   0  0  0  0  0
  -23.0670   36.1550  -39.5240 C   0  0  0  0  0
  -24.1790   36.9000  -38.9640 C   0  0  0  0  0
  -25.1390   36.3960  -38.4010 O   0  0  0  0  0
  -20.7254   39.0466  -37.7463 H   0  0  0  0  0
  -19.3150   38.9288  -36.6243 H   0  0  0  0  0
  -19.4872   36.9631  -38.0957 H   0  0  0  0  0
  -21.1147   36.6449  -37.4782 H   0  0  0  0  0
  -18.6236   36.8395  -35.7430 H   0  0  0  0  0
  -19.3306   35.3244  -36.3032 H   0  0  0  0  0
  -20.1686   35.8663  -34.0678 H   0  0  0  0  0
  -21.4935   35.9647  -35.2591 H   0  0  0  0  0
  -19.8526   38.2339  -34.1686 H   0  0  0  0  0
  -21.1472   39.7579  -35.3218 H   0  0  0  0  0
  -22.8024   41.2604  -38.0068 H   0  0  0  0  0
  -21.6323   40.9110  -36.7171 H   0  0  0  0  0
  -23.0891   42.8833  -36.2325 H   0  0  0  0  0
  -23.2239   41.5869  -35.0198 H   0  0  0  0  0
  -27.2566   39.7190  -37.5573 H   0  0  0  0  0
  -28.6814   41.6303  -36.9439 H   0  0  0  0  0
  -27.6737   43.6394  -35.9244 H   0  0  0  0  0
  -25.2456   43.7231  -35.5227 H   0  0  0  0  0
  -25.0222   38.5813  -36.7803 H   0  0  0  0  0
  -24.3105   40.2249  -39.2368 H   0  0  0  0  0
  -25.7103   39.1040  -39.0632 H   0  0  0  0  0
  -20.3097   37.3023  -41.1114 H   0  0  0  0  0
  -19.8975   34.8495  -41.1699 H   0  0  0  0  0
  -21.5061   33.2819  -40.1816 H   0  0  0  0  0
  -23.5869   34.1092  -39.0969 H   0  0  0  0  0
  2  1  1  0  0  0
  1  7  1  0  0  0
  4  2  1  0  0  0
  6  3  1  0  0  0
  3 10  4  0  0  0
  3 13  4  0  0  0
  5  4  1  0  0  0
  5  6  1  0  0  0
  6  7  1  0  0  0
  7  9  1  0  0  0
  9  8  2  0  0  0
  9 14  1  0  0  0
 10 11  4  0  0  0
 11 12  4  0  0  0
 12 13  4  0  0  0
 14 15  1  0  0  0
 14 23  1  0  0  0
 15 16  1  0  0  0
 16 17  1  0  0  0
 17 18  4  0  0  0
 17 22  4  0  0  0
 18 19  4  0  0  0
 18 23  1  0  0  0
 19 20  4  0  0  0
 20 21  4  0  0  0
 21 22  4  0  0  0
 23 24  1  0  0  0
 24 25  1  0  0  0
 25 26  1  0  0  0
 25 34  1  0  0  0
 26 27  2  0  0  0
 26 28  1  0  0  0
 28 29  4  0  0  0
 28 33  4  0  0  0
 29 30  4  0  0  0
 30 31  4  0  0  0
 31 32  4  0  0  0
 32 33  4  0  0  0
 33 34  1  0  0  0
 34 35  2  0  0  0
  1 36  1  0  0  0
  1 37  1  0  0  0
  2 38  1  0  0  0
  2 39  1  0  0  0
  4 40  1  0  0  0
  4 41  1  0  0  0
  5 42  1  0  0  0
  5 43  1  0  0  0
  6 44  1  0  0  0
  7 45  1  0  0  0
 15 46  1  0  0  0
 15 47  1  0  0  0
 16 48  1  0  0  0
 16 49  1  0  0  0
 19 50  1  0  0  0
 20 51  1  0  0  0
 21 52  1  0  0  0
 22 53  1  0  0  0
 23 54  1  0  0  0
 24 55  1  0  0  0
 24 56  1  0  0  0
 29 57  1  0  0  0
 30 58  1  0  0  0
 31 59  1  0  0  0
 32 60  1  0  0  0
M  END
$$$$
