5nu3_ligand
  -I-interpret- 

 48 50  0  0  0  0  0  0  0  0999 V2000
  -35.6770   52.9150   -3.4000 O   0  0  0  0  0
  -36.4330   51.7210   -0.7660 C   0  0  0  0  0
  -36.7860   55.3670   -0.2520 C   0  0  0  0  0
  -32.4800   50.4360   -4.4730 C   0  0  0  0  0
  -32.5970   51.7740   -5.1710 C   0  0  0  0  0
  -29.2480   50.3640   -5.3010 C   0  0  0  0  0
  -33.6660   50.3590   -1.4310 C   0  0  0  0  0
  -32.2390   50.5950   -1.7930 C   0  0  0  0  0
  -31.2490   50.7790   -0.9020 N   0  0  0  0  0
  -30.0510   50.9550   -1.4860 C   0  0  0  0  0
  -30.2510   50.8600   -2.9560 C   0  0  0  0  0
  -31.7050   50.6090   -3.1840 C   0  0  0  0  0
  -29.1260   50.9880   -3.9420 C   0  0  0  0  0
  -28.7670   51.1940   -0.7340 C   0  0  0  0  0
  -34.6870   50.7770   -2.1840 N   0  0  0  0  0
  -33.8510   49.7690   -0.3790 O   0  0  0  0  0
  -28.1010   51.5670   -3.6200 O   0  0  0  0  0
  -36.0650   50.6150   -1.7400 C   0  0  0  0  0
  -36.8060   51.2940    0.5010 C   0  0  0  0  0
  -37.1650   52.1950    1.4950 C   0  0  0  0  0
  -37.1490   53.5500    1.2180 C   0  0  0  0  0
  -36.7780   53.9960   -0.0430 C   0  0  0  0  0
  -36.4080   53.1030   -1.0620 C   0  0  0  0  0
  -36.0490   53.6500   -2.3110 C   0  0  0  0  0
  -36.0580   55.0270   -2.5030 C   0  0  0  0  0
  -36.4230   55.8890   -1.4830 C   0  0  0  0  0
  -36.8230   49.9610    0.7880 O   0  0  0  0  0
  -35.4800   53.5053   -4.1310 H   0  0  0  0  0
  -37.0793   56.0371    0.5561 H   0  0  0  0  0
  -31.9579   49.7315   -5.1205 H   0  0  0  0  0
  -33.4758   50.0524   -4.2509 H   0  0  0  0  0
  -33.1199   52.4764   -4.5220 H   0  0  0  0  0
  -31.6001   52.1551   -5.3926 H   0  0  0  0  0
  -33.1549   51.6506   -6.0993 H   0  0  0  0  0
  -29.1318   51.1333   -6.0644 H   0  0  0  0  0
  -28.4718   49.6086   -5.4235 H   0  0  0  0  0
  -30.2287   49.8984   -5.3989 H   0  0  0  0  0
  -28.8590   52.1035   -0.1403 H   0  0  0  0  0
  -28.5698   50.3476   -0.0761 H   0  0  0  0  0
  -27.9468   51.3032   -1.4435 H   0  0  0  0  0
  -34.4987   51.2169   -3.0848 H   0  0  0  0  0
  -36.7274   50.6643   -2.6042 H   0  0  0  0  0
  -36.1695   49.6508   -1.2425 H   0  0  0  0  0
  -37.4563   51.8381    2.4829 H   0  0  0  0  0
  -37.4277   54.2675    1.9898 H   0  0  0  0  0
  -35.7729   55.4347   -3.4728 H   0  0  0  0  0
  -36.4248   56.9667   -1.6466 H   0  0  0  0  0
  -37.1008   49.8343    1.6982 H   0  0  0  0  0
 24  1  1  0  0  0
  2 18  1  0  0  0
  2 19  4  0  0  0
 23  2  4  0  0  0
 22  3  4  0  0  0
  3 26  4  0  0  0
  4  5  1  0  0  0
 12  4  1  0  0  0
 13  6  1  0  0  0
  7  8  1  0  0  0
 15  7  1  0  0  0
  7 16  2  0  0  0
  8  9  4  0  0  0
  8 12  4  0  0  0
  9 10  4  0  0  0
 11 10  4  0  0  0
 10 14  1  0  0  0
 12 11  4  0  0  0
 11 13  1  0  0  0
 13 17  2  0  0  0
 18 15  1  0  0  0
 19 20  4  0  0  0
 19 27  1  0  0  0
 21 20  4  0  0  0
 22 21  4  0  0  0
 23 22  4  0  0  0
 23 24  4  0  0  0
 24 25  4  0  0  0
 25 26  4  0  0  0
  1 28  1  0  0  0
  3 29  1  0  0  0
  4 30  1  0  0  0
  4 31  1  0  0  0
  5 32  1  0  0  0
  5 33  1  0  0  0
  5 34  1  0  0  0
  6 35  1  0  0  0
  6 36  1  0  0  0
  6 37  1  0  0  0
 14 38  1  0  0  0
 14 39  1  0  0  0
 14 40  1  0  0  0
 15 41  1  0  0  0
 18 42  1  0  0  0
 18 43  1  0  0  0
 20 44  1  0  0  0
 21 45  1  0  0  0
 25 46  1  0  0  0
 26 47  1  0  0  0
 27 48  1  0  0  0
M  END
$$$$
