5l2w_ligand
  -I-interpret- 

 59 62  0  0  0  0  0  0  0  0999 V2000
   34.9980   24.8210   -7.1410 C   0  0  0  0  0
   36.6060   26.3240   -8.1780 N   0  0  0  0  0
   36.0220   27.5570   -7.7020 C   0  0  0  0  0
   37.9530   27.8000   -6.1420 C   0  0  0  0  0
   37.7250   28.8520   -3.9940 C   0  0  0  0  0
   32.5020   24.1420   -5.7770 C   0  0  0  0  0
   31.6760   22.4650   -4.1000 C   0  0  0  0  0
   33.0940   21.6880   -6.0420 C   0  0  0  0  0
   32.3570   21.2330   -8.4610 C   0  0  0  0  0
   36.7760   19.8410  -10.2990 C   0  0  0  0  0
   37.1610   20.3950   -8.9710 C   0  0  0  0  0
   37.2030   21.9040   -8.9290 C   0  0  0  0  0
   38.0730   22.7640   -9.6130 C   0  0  0  0  0
   37.8450   24.0430   -9.3520 N   0  0  0  0  0
   36.7830   24.0270   -8.4750 N   0  0  0  0  0
   36.3690   22.7450   -8.2020 C   0  0  0  0  0
   35.3060   22.4770   -7.4230 N   0  0  0  0  0
   34.6000   23.4770   -6.9160 C   0  0  0  0  0
   36.1080   25.0860   -7.9200 C   0  0  0  0  0
   36.6790   28.0520   -6.4680 C   0  0  0  0  0
   38.4940   28.2070   -4.8970 C   0  0  0  0  0
   36.4230   29.1230   -4.2090 N   0  0  0  0  0
   35.8100   28.8370   -5.5150 C   0  0  0  0  0
   35.6140   28.5090   -3.2050 O   0  0  0  0  0
   33.4340   23.1100   -6.2610 N   0  0  0  0  0
   32.1350   23.9030   -4.3220 C   0  0  0  0  0
   32.7240   21.4590   -4.5810 C   0  0  0  0  0
   32.0180   21.1460   -6.9890 C   0  0  0  0  0
   33.3620   20.2870   -8.8250 O   0  0  0  0  0
   34.4301   25.6407   -6.7009 H   0  0  0  0  0
   37.4503   26.3871   -8.7469 H   0  0  0  0  0
   34.9730   27.3682   -7.4739 H   0  0  0  0  0
   36.1476   28.3121   -8.4780 H   0  0  0  0  0
   38.5888   27.2694   -6.8507 H   0  0  0  0  0
   38.1759   29.1663   -3.0527 H   0  0  0  0  0
   31.5936   24.1033   -6.3782 H   0  0  0  0  0
   32.9837   25.1162   -5.8612 H   0  0  0  0  0
   30.7589   22.3047   -4.6668 H   0  0  0  0  0
   31.5187   22.3145   -3.0320 H   0  0  0  0  0
   33.9892   21.1146   -6.2828 H   0  0  0  0  0
   32.7346   22.2341   -8.6691 H   0  0  0  0  0
   31.4562   21.0170   -9.0354 H   0  0  0  0  0
   35.7825   20.2006  -10.5671 H   0  0  0  0  0
   37.4963   20.1663  -11.0496 H   0  0  0  0  0
   36.7684   18.7522  -10.2487 H   0  0  0  0  0
   38.1655   20.0355   -8.7477 H   0  0  0  0  0
   36.4079   20.0707   -8.2528 H   0  0  0  0  0
   38.8549   22.4172  -10.2886 H   0  0  0  0  0
   39.5387   27.9978   -4.6668 H   0  0  0  0  0
   34.9257   28.2298   -5.3219 H   0  0  0  0  0
   35.6127   29.7990   -5.9880 H   0  0  0  0  0
   35.9936   28.6812   -2.3402 H   0  0  0  0  0
   31.3197   24.5747   -4.0532 H   0  0  0  0  0
   33.0149   24.0872   -3.7057 H   0  0  0  0  0
   32.3080   20.4561   -4.4846 H   0  0  0  0  0
   33.6220   21.5815   -3.9754 H   0  0  0  0  0
   31.1278   21.7559   -6.8350 H   0  0  0  0  0
   31.8986   20.0879   -6.7561 H   0  0  0  0  0
   33.5526   20.3690   -9.7623 H   0  0  0  0  0
 18  1  4  0  0  0
  1 19  4  0  0  0
  2  3  1  0  0  0
 19  2  1  0  0  0
  3 20  1  0  0  0
 20  4  2  0  0  0
  4 21  1  0  0  0
 21  5  2  0  0  0
  5 22  1  0  0  0
 25  6  1  0  0  0
  6 26  1  0  0  0
 26  7  1  0  0  0
 27  7  1  0  0  0
 25  8  1  0  0  0
  8 27  1  0  0  0
  8 28  1  0  0  0
 28  9  1  0  0  0
  9 29  1  0  0  0
 11 10  1  0  0  0
 12 11  1  0  0  0
 12 13  4  0  0  0
 16 12  4  0  0  0
 14 13  4  0  0  0
 15 14  4  0  0  0
 16 15  4  0  0  0
 19 15  4  0  0  0
 17 16  4  0  0  0
 18 17  4  0  0  0
 18 25  1  0  0  0
 20 23  1  0  0  0
 22 23  1  0  0  0
 22 24  1  0  0  0
  1 30  1  0  0  0
  2 31  1  0  0  0
  3 32  1  0  0  0
  3 33  1  0  0  0
  4 34  1  0  0  0
  5 35  1  0  0  0
  6 36  1  0  0  0
  6 37  1  0  0  0
  7 38  1  0  0  0
  7 39  1  0  0  0
  8 40  1  0  0  0
  9 41  1  0  0  0
  9 42  1  0  0  0
 10 43  1  0  0  0
 10 44  1  0  0  0
 10 45  1  0  0  0
 11 46  1  0  0  0
 11 47  1  0  0  0
 13 48  1  0  0  0
 21 49  1  0  0  0
 23 50  1  0  0  0
 23 51  1  0  0  0
 24 52  1  0  0  0
 26 53  1  0  0  0
 26 54  1  0  0  0
 27 55  1  0  0  0
 27 56  1  0  0  0
 28 57  1  0  0  0
 28 58  1  0  0  0
 29 59  1  0  0  0
M  END
$$$$
