6jsf_ligand
  -I-interpret- 

 54 57  0  0  0  0  0  0  0  0999 V2000
  -21.6020  -39.3050   -6.8570 C   0  0  0  0  0
  -21.4330  -38.4330   -7.9380 C   0  0  0  0  0
  -20.1730  -38.2940   -8.5390 C   0  0  0  0  0
  -18.9930  -39.0640   -8.0290 C   0  0  0  0  0
  -19.2560  -39.9190   -6.9530 C   0  0  0  0  0
  -17.5870  -39.0140   -8.6420 C   0  0  0  0  0
  -17.5010  -40.0230   -9.8410 C   0  0  0  0  0
  -14.9230  -40.1780   -6.4260 N   0  0  0  0  0
  -20.5880  -40.9170   -5.3140 N   0  0  0  0  0
  -20.7310  -44.2390    0.0510 O   0  0  0  0  0
  -17.3150  -41.4960   -9.4170 C   0  0  0  0  0
  -20.2630  -42.0170   -2.7540 N   0  0  0  0  0
  -15.8400  -40.2580   -7.3900 C   0  0  0  0  0
  -21.6540  -41.4630   -4.7220 C   0  0  0  0  0
  -21.4150  -42.2170   -3.4510 C   0  0  0  0  0
  -20.0240  -42.6790   -1.6040 C   0  0  0  0  0
  -20.9770  -43.5740   -1.1240 C   0  0  0  0  0
  -22.3670  -43.1230   -2.9740 C   0  0  0  0  0
  -17.1900  -37.6210   -9.1290 C   0  0  0  0  0
  -22.7550  -44.0960    1.1010 F   0  0  0  0  0
  -21.7450  -44.9540    0.7620 C   0  0  0  0  0
  -22.1300  -43.7740   -1.8270 N   0  0  0  0  0
  -22.7980  -41.3670   -5.1380 O   0  0  0  0  0
  -20.5180  -40.0530   -6.3700 C   0  0  0  0  0
  -20.0340  -37.4600   -9.5730 F   0  0  0  0  0
  -16.5920  -39.2460   -7.5790 N   0  0  0  0  0
  -15.9660  -41.6720   -8.2920 S   0  0  0  0  0
  -18.6370  -39.9090  -10.8280 C   0  0  0  0  0
  -18.5280  -39.0200  -11.9050 C   0  0  0  0  0
  -19.5560  -38.8810  -12.8390 C   0  0  0  0  0
  -20.7250  -39.6350  -12.6980 C   0  0  0  0  0
  -20.8650  -40.5260  -11.6280 C   0  0  0  0  0
  -19.8230  -40.6670  -10.7010 C   0  0  0  0  0
  -22.5817  -39.4044   -6.3897 H   0  0  0  0  0
  -22.2814  -37.8609   -8.3137 H   0  0  0  0  0
  -18.4342  -40.5105   -6.5493 H   0  0  0  0  0
  -16.5898  -39.7106  -10.3511 H   0  0  0  0  0
  -14.8413  -39.3273   -5.8692 H   0  0  0  0  0
  -19.6882  -41.1866   -4.9165 H   0  0  0  0  0
  -17.1055  -42.0900  -10.3066 H   0  0  0  0  0
  -18.2261  -41.8332   -8.9227 H   0  0  0  0  0
  -19.0958  -42.5156   -1.0564 H   0  0  0  0  0
  -23.2896  -43.2974   -3.5277 H   0  0  0  0  0
  -17.2665  -36.9134   -8.3034 H   0  0  0  0  0
  -16.1636  -37.6444   -9.4953 H   0  0  0  0  0
  -17.8577  -37.3151   -9.9344 H   0  0  0  0  0
  -21.3178  -45.3877    1.6661 H   0  0  0  0  0
  -22.1403  -45.7490    0.1297 H   0  0  0  0  0
  -16.4912  -38.4915   -6.9000 H   0  0  0  0  0
  -17.6218  -38.4245  -12.0160 H   0  0  0  0  0
  -19.4480  -38.1884  -13.6737 H   0  0  0  0  0
  -21.5306  -39.5284  -13.4245 H   0  0  0  0  0
  -21.7800  -41.1076  -11.5159 H   0  0  0  0  0
  -19.9286  -41.3686   -9.8735 H   0  0  0  0  0
  1  2  4  0  0  0
 24  1  4  0  0  0
  2  3  4  0  0  0
  4  3  4  0  0  0
  3 25  1  0  0  0
  5  4  4  0  0  0
  4  6  1  0  0  0
 24  5  4  0  0  0
  6  7  1  0  0  0
  6 19  1  0  0  0
  6 26  1  0  0  0
  7 11  1  0  0  0
  7 28  1  0  0  0
 13  8  2  0  0  0
 14  9  1  0  0  0
  9 24  1  0  0  0
 17 10  1  0  0  0
 10 21  1  0  0  0
 11 27  1  0  0  0
 12 15  4  0  0  0
 16 12  4  0  0  0
 26 13  1  0  0  0
 13 27  1  0  0  0
 15 14  1  0  0  0
 14 23  2  0  0  0
 15 18  4  0  0  0
 16 17  4  0  0  0
 17 22  4  0  0  0
 18 22  4  0  0  0
 21 20  1  0  0  0
 28 29  4  0  0  0
 28 33  4  0  0  0
 29 30  4  0  0  0
 30 31  4  0  0  0
 31 32  4  0  0  0
 32 33  4  0  0  0
  1 34  1  0  0  0
  2 35  1  0  0  0
  5 36  1  0  0  0
  7 37  1  0  0  0
  8 38  1  0  0  0
  9 39  1  0  0  0
 11 40  1  0  0  0
 11 41  1  0  0  0
 16 42  1  0  0  0
 18 43  1  0  0  0
 19 44  1  0  0  0
 19 45  1  0  0  0
 19 46  1  0  0  0
 21 47  1  0  0  0
 21 48  1  0  0  0
 26 49  1  0  0  0
 29 50  1  0  0  0
 30 51  1  0  0  0
 31 52  1  0  0  0
 32 53  1  0  0  0
 33 54  1  0  0  0
M  END
$$$$
