4i7f_ligand
  -I-interpret- 

 70 73  0  0  0  0  0  0  0  0999 V2000
   12.5980   12.0990   15.1900 C   0  0  0  0  0
   12.5710   13.3150   16.1420 C   0  0  0  0  0
   11.2480   13.8000   16.6510 N   0  0  0  0  0
   11.1920   14.8250   17.6520 C   0  0  0  0  0
   10.4640   14.6860   18.9080 C   0  0  0  0  0
    9.7490   13.4950   19.2660 N   0  0  0  0  0
    9.7630   13.1390   20.7370 C   0  0  0  0  0
    9.0540   12.6430   18.4350 C   0  0  0  0  0
    8.4840   11.6380   18.9060 O   0  0  0  0  0
    8.9230   12.8420   16.9860 C   0  0  0  0  0
    7.6870   12.4980   16.3620 C   0  0  0  0  0
    7.4930   12.6920   14.9240 C   0  0  0  0  0
    8.5450   13.2210   14.1460 C   0  0  0  0  0
    9.7130   13.5440   14.7590 N   0  0  0  0  0
    9.9690   13.3900   16.1360 C   0  0  0  0  0
   10.4770   15.8210   19.8170 C   0  0  0  0  0
   11.1710   17.0200   19.5100 C   0  0  0  0  0
   11.8800   17.1010   18.2630 C   0  0  0  0  0
   11.8660   16.0190   17.3850 N   0  0  0  0  0
    6.2420    2.5690   11.6860 C   0  0  0  0  0
    6.0890    3.3960   12.9980 C   0  0  0  0  0
    6.4130    2.5900   14.2150 O   0  0  0  0  0
    7.4430    3.3090   15.3020 P   0  0  0  0  0
    6.6950    4.9040   15.6710 C   0  0  0  0  0
    7.2870    5.8700   14.8150 O   0  0  0  0  0
    6.8070    7.1600   14.9080 C   0  0  0  0  0
    6.7980    7.9060   13.6720 C   0  0  0  0  0
    6.3200    9.2420   13.6360 C   0  0  0  0  0
    5.8230    9.8840   14.8690 C   0  0  0  0  0
    5.8240    9.1470   16.1280 C   0  0  0  0  0
    6.3120    7.7860   16.1650 C   0  0  0  0  0
    5.2960   11.3350   14.8730 C   0  0  0  0  0
    6.1600   12.3720   14.0910 C   0  0  0  0  0
    8.9320    3.4580   14.6400 O   0  0  0  0  0
    9.4530    2.1700   14.0550 C   0  0  0  0  0
   10.1510    1.2270   15.0600 C   0  0  0  0  0
    7.5040    2.5850   16.6190 O   0  0  0  0  0
   12.1608   11.2361   15.6924 H   0  0  0  0  0
   12.0230   12.3286   14.2930 H   0  0  0  0  0
   13.6292   11.8772   14.9152 H   0  0  0  0  0
   12.9701   14.1429   15.5560 H   0  0  0  0  0
   13.1153   12.9924   17.0295 H   0  0  0  0  0
    8.7407   13.1206   21.1148 H   0  0  0  0  0
   10.2177   12.1570   20.8675 H   0  0  0  0  0
   10.3406   13.8839   21.2843 H   0  0  0  0  0
    6.8769   12.0856   16.9635 H   0  0  0  0  0
    8.4223   13.3676   13.0729 H   0  0  0  0  0
    9.9380   15.7486   20.7616 H   0  0  0  0  0
   11.1663   17.8603   20.2043 H   0  0  0  0  0
   12.4278   18.0071   18.0042 H   0  0  0  0  0
    7.2703    2.2185   11.5968 H   0  0  0  0  0
    5.5667    1.7140   11.7162 H   0  0  0  0  0
    5.9957    3.1981   10.8306 H   0  0  0  0  0
    5.0519    3.7226   13.0739 H   0  0  0  0  0
    6.7829    4.2353   12.9526 H   0  0  0  0  0
    6.8646    5.1689   16.7146 H   0  0  0  0  0
    5.6180    4.8635   15.5079 H   0  0  0  0  0
    7.1620    7.4385   12.7571 H   0  0  0  0  0
    6.3199    9.7948   12.6966 H   0  0  0  0  0
    5.4578    9.6210   17.0387 H   0  0  0  0  0
    6.3173    7.2262   17.1003 H   0  0  0  0  0
    5.2928   11.6589   15.9138 H   0  0  0  0  0
    4.3234   11.3110   14.3815 H   0  0  0  0  0
    6.4290   11.9612   13.1179 H   0  0  0  0  0
    5.5889   13.2899   13.9517 H   0  0  0  0  0
   10.2010    2.4439   13.3110 H   0  0  0  0  0
    8.5892    1.6302   13.6669 H   0  0  0  0  0
   11.0072    1.7375   15.5008 H   0  0  0  0  0
    9.4476    0.9502   15.8453 H   0  0  0  0  0
   10.4889    0.3303   14.5405 H   0  0  0  0  0
  2  1  1  0  0  0
  3  2  1  0  0  0
  3  4  1  0  0  0
 15  3  1  0  0  0
  4  5  4  0  0  0
  4 19  4  0  0  0
  6  5  1  0  0  0
  5 16  4  0  0  0
  6  7  1  0  0  0
  8  6  1  0  0  0
  8  9  2  0  0  0
 10  8  1  0  0  0
 11 10  4  0  0  0
 10 15  4  0  0  0
 12 11  4  0  0  0
 12 13  4  0  0  0
 33 12  1  0  0  0
 13 14  4  0  0  0
 14 15  4  0  0  0
 16 17  4  0  0  0
 18 17  4  0  0  0
 19 18  4  0  0  0
 21 20  1  0  0  0
 22 21  1  0  0  0
 23 22  1  0  0  0
 24 23  1  0  0  0
 23 34  1  0  0  0
 23 37  2  0  0  0
 25 24  1  0  0  0
 26 25  1  0  0  0
 27 26  4  0  0  0
 31 26  4  0  0  0
 28 27  4  0  0  0
 29 28  4  0  0  0
 29 30  4  0  0  0
 32 29  1  0  0  0
 30 31  4  0  0  0
 32 33  1  0  0  0
 34 35  1  0  0  0
 35 36  1  0  0  0
  1 38  1  0  0  0
  1 39  1  0  0  0
  1 40  1  0  0  0
  2 41  1  0  0  0
  2 42  1  0  0  0
  7 43  1  0  0  0
  7 44  1  0  0  0
  7 45  1  0  0  0
 11 46  1  0  0  0
 13 47  1  0  0  0
 16 48  1  0  0  0
 17 49  1  0  0  0
 18 50  1  0  0  0
 20 51  1  0  0  0
 20 52  1  0  0  0
 20 53  1  0  0  0
 21 54  1  0  0  0
 21 55  1  0  0  0
 24 56  1  0  0  0
 24 57  1  0  0  0
 27 58  1  0  0  0
 28 59  1  0  0  0
 30 60  1  0  0  0
 31 61  1  0  0  0
 32 62  1  0  0  0
 32 63  1  0  0  0
 33 64  1  0  0  0
 33 65  1  0  0  0
 35 66  1  0  0  0
 35 67  1  0  0  0
 36 68  1  0  0  0
 36 69  1  0  0  0
 36 70  1  0  0  0
M  END
$$$$
