2q94_ligand
  -I-interpret- 

 26 27  0  0  0  0  0  0  0  0999 V2000
    1.6790    0.0990    9.3780 O   0  0  0  0  0
    0.7460   -0.1430    8.5840 C   0  0  0  0  0
    0.8790   -0.2210    7.3420 O   0  0  0  0  0
   -0.6650   -0.3630    9.1300 C   0  0  0  0  0
   -1.7290   -0.6280    8.3190 O   0  0  0  0  0
   -1.0610   -0.3050   10.3970 C   0  0  0  0  0
   -2.3760   -0.5280   10.4130 C   0  0  0  0  0
   -2.7930   -0.7220    9.1630 C   0  0  0  0  0
   -4.0590   -0.9830    8.6510 C   0  0  0  0  0
   -4.1510   -1.6380    7.4330 C   0  0  0  0  0
   -5.3960   -1.9270    6.8790 C   0  0  0  0  0
   -6.5510   -1.5570    7.5540 C   0  0  0  0  0
   -6.4580   -0.9000    8.7770 C   0  0  0  0  0
   -5.2190   -0.6080    9.3310 C   0  0  0  0  0
   -5.1450    0.0370   10.5270 O   0  0  0  0  0
   -5.2320    1.4670   10.4730 C   0  0  0  0  0
   -4.2720    1.9960    9.7220 F   0  0  0  0  0
   -6.4050    1.8650    9.9900 F   0  0  0  0  0
   -5.1030    1.9270   11.7130 F   0  0  0  0  0
    0.0282   -0.4148    6.9417 H   0  0  0  0  0
   -0.4283   -0.1111   11.2631 H   0  0  0  0  0
   -3.0056   -0.5481   11.3025 H   0  0  0  0  0
   -3.2429   -1.9290    6.9050 H   0  0  0  0  0
   -5.4628   -2.4411    5.9202 H   0  0  0  0  0
   -7.5286   -1.7806    7.1270 H   0  0  0  0  0
   -7.3668   -0.6118    9.3053 H   0  0  0  0  0
  1  2  2  0  0  0
  2  3  1  0  0  0
  2  4  1  0  0  0
  4  5  4  0  0  0
  4  6  4  0  0  0
  5  8  4  0  0  0
  6  7  4  0  0  0
  7  8  4  0  0  0
  8  9  1  0  0  0
  9 10  4  0  0  0
  9 14  4  0  0  0
 10 11  4  0  0  0
 11 12  4  0  0  0
 12 13  4  0  0  0
 13 14  4  0  0  0
 14 15  1  0  0  0
 15 16  1  0  0  0
 16 17  1  0  0  0
 16 18  1  0  0  0
 16 19  1  0  0  0
  3 20  1  0  0  0
  6 21  1  0  0  0
  7 22  1  0  0  0
 10 23  1  0  0  0
 11 24  1  0  0  0
 12 25  1  0  0  0
 13 26  1  0  0  0
M  END
$$$$
