### 
### Created by X-TOOL on Mon Sep 10 21:13:11 2018
### 

@<TRIPOS>MOLECULE
4h39_ligand
  155   156     1     0     0
SMALL
GAST_HUCK


@<TRIPOS>ATOM
      1 N         -19.6700   24.2000   -3.1390 N.4       1 PRO         0.2461
      2 CA        -19.7240   22.9360   -2.3960 C.3       1 PRO         0.0669
      3 C         -18.3390   22.3370   -2.1780 C.2       1 PRO         0.2268
      4 O         -17.3920   22.6990   -2.8740 O.2       1 PRO        -0.3907
      5 CB        -20.5410   22.0300   -3.3210 C.3       1 PRO         0.0127
      6 CG        -20.2880   22.5690   -4.6860 C.3       1 PRO        -0.0053
      7 CD        -20.1960   24.0580   -4.5080 C.3       1 PRO        -0.0313
      8 N         -18.2260   21.4330   -1.2120 N.am      1 LYS        -0.2613
      9 CA        -16.9790   20.7190   -0.9770 C.3       1 LYS         0.1283
     10 C         -16.9070   19.5380   -1.9320 C.2       1 LYS         0.2036
     11 O         -17.9370   19.0430   -2.3870 O.2       1 LYS        -0.3944
     12 CB        -16.8770   20.2490    0.4750 C.3       1 LYS        -0.0244
     13 N         -15.6930   19.0890   -2.2300 N.am      1 ARG        -0.2637
     14 CA        -15.4930   17.9910   -3.1740 C.3       1 ARG         0.1313
     15 C         -15.7680   16.6350   -2.5340 C.2       1 ARG         0.2064
     16 O         -15.4720   16.4300   -1.3600 O.2       1 ARG        -0.3942
     17 CB        -14.0670   18.0130   -3.7210 C.3       1 ARG        -0.0092
     18 CG        -13.7300   19.2540   -4.5160 C.3       1 ARG        -0.0156
     19 CD        -12.2740   19.2400   -4.9290 C.3       1 ARG         0.0627
     20 NE        -11.9710   20.2820   -5.9030 N.pl3     1 ARG        -0.2723
     21 CZ        -10.7630   20.4860   -6.4140 C.cat     1 ARG         0.2882
     22 NH1        -9.7490   19.7170   -6.0390 N.pl3     1 ARG        -0.2849
     23 NH2       -10.5680   21.4550   -7.2980 N.pl3     1 ARG        -0.2849
     24 N         -16.3310   15.7010   -3.3140 N.am      1 PRO        -0.2498
     25 CA        -16.5860   14.3500   -2.8100 C.3       1 PRO         0.1338
     26 C         -15.2900   13.7090   -2.3360 C.2       1 PRO         0.2042
     27 O         -14.2490   13.8810   -2.9730 O.2       1 PRO        -0.3944
     28 CB        -17.1160   13.6120   -4.0430 C.3       1 PRO        -0.0104
     29 CG        -17.6750   14.6840   -4.9170 C.3       1 PRO        -0.0281
     30 CD        -16.7750   15.8650   -4.7090 C.3       1 PRO         0.0369
     31 N         -15.3540   12.9800   -1.2290 N.am      1 THR        -0.2613
     32 CA        -14.1760   12.3270   -0.6780 C.3       1 THR         0.1565
     33 C         -14.3320   10.8140   -0.6750 C.2       1 THR         0.2065
     34 O         -13.4050   10.0890   -0.3190 O.2       1 THR        -0.3943
     35 CB        -13.8920   12.8020    0.7580 C.3       1 THR         0.0924
     36 OG1       -15.0650   12.6210    1.5610 O.3       1 THR        -0.3874
     37 CG2       -13.5040   14.2760    0.7610 C.3       1 THR        -0.0346
     38 N         -15.5110   10.3410   -1.0660 N.am      1 THR        -0.2613
     39 CA        -15.7740    8.9080   -1.1230 C.3       1 THR         0.1565
     40 C         -16.3290    8.4870   -2.4760 C.2       1 THR         0.2065
     41 O         -17.0900    9.2220   -3.1090 O.2       1 THR        -0.3943
     42 CB        -16.7730    8.4670   -0.0420 C.3       1 THR         0.0924
     43 OG1       -18.0360    9.1040   -0.2690 O.3       1 THR        -0.3874
     44 CG2       -16.2620    8.8260    1.3460 C.3       1 THR        -0.0346
     45 N         -15.9430    7.2920   -2.9060 N.am      1 LEU        -0.2636
     46 CA        -16.4550    6.7090   -4.1370 C.3       1 LEU         0.1312
     47 C         -16.6310    5.2100   -3.9420 C.2       1 LEU         0.2040
     48 O         -15.6540    4.4790   -3.7930 O.2       1 LEU        -0.3944
     49 CB        -15.5010    6.9850   -5.3010 C.3       1 LEU        -0.0101
     50 CG        -15.9370    6.4660   -6.6760 C.3       1 LEU        -0.0425
     51 CD1       -17.3070    7.0130   -7.0440 C.3       1 LEU        -0.0625
     52 CD2       -14.9130    6.8180   -7.7460 C.3       1 LEU        -0.0625
     53 N         -17.8760    4.7520   -3.9540 N.am      1 ASN        -0.2616
     54 CA        -18.1640    3.3430   -3.7080 C.3       1 ASN         0.1476
     55 C         -17.9830    2.4760   -4.9470 C.2       1 ASN         0.2063
     56 O         -18.8180    2.4790   -5.8460 O.2       1 ASN        -0.3942
     57 CB        -19.5700    3.1720   -3.1260 C.3       1 ASN         0.0773
     58 CG        -19.8570    1.7420   -2.6930 C.2       1 ASN         0.1780
     59 OD1       -19.0120    0.8570   -2.8210 O.2       1 ASN        -0.3970
     60 ND2       -21.0530    1.5140   -2.1650 N.am      1 ASN        -0.3007
     61 N         -16.8830    1.7340   -4.9790 N.am      1 LEU        -0.2636
     62 CA        -16.5700    0.8530   -6.0960 C.3       1 LEU         0.1312
     63 C         -17.3860   -0.4330   -6.0270 C.2       1 LEU         0.2033
     64 O         -17.4360   -1.2000   -6.9890 O.2       1 LEU        -0.3944
     65 CB        -15.0820    0.5150   -6.0790 C.3       1 LEU        -0.0101
     66 CG        -14.1620    1.6840   -5.7290 C.3       1 LEU        -0.0425
     67 CD1       -12.7530    1.1960   -5.4480 C.3       1 LEU        -0.0625
     68 CD2       -14.1730    2.7340   -6.8350 C.3       1 LEU        -0.0625
     69 N         -18.0190   -0.6600   -4.8800 N.am      1 PHE        -0.2698
     70 CA        -18.7770   -1.8830   -4.6310 C.3       1 PHE         0.0916
     71 C         -17.8540   -3.0950   -4.5480 C.2       1 PHE         0.0598
     72 O         -16.8658   -3.0991   -3.7663 O.co2     1 PHE        -0.5666
     73 CB        -19.8460   -2.0970   -5.7070 C.3       1 PHE        -0.0300
     74 H         -18.6948   24.4925   -3.2006 H         1 PRO         0.2035
     75 H         -20.2435   24.8845   -2.6462 H         1 PRO         0.2035
     76 H         -20.1477   23.0628   -1.3998 H         1 PRO         0.1099
     77 H         -21.6013   22.0365   -3.0684 H         1 PRO         0.0347
     78 H         -20.2475   20.9839   -3.2331 H         1 PRO         0.0347
     79 H         -21.0814   22.2945   -5.3812 H         1 PRO         0.0320
     80 H         -19.3762   22.1578   -5.1191 H         1 PRO         0.0320
     81 H         -19.5597   24.5328   -5.2549 H         1 PRO         0.0814
     82 H         -21.1546   24.5584   -4.6447 H         1 PRO         0.0814
     83 H         -19.0325   21.2339   -0.6201 H         1 LYS         0.1884
     84 H         -16.1395   21.3903   -1.1577 H         1 LYS         0.0797
     85 H         -16.9146   21.1129    1.1387 H         1 LYS         0.0277
     86 H         -17.7088   19.5810    0.6986 H         1 LYS         0.0277
     87 H         -15.9352   19.7194    0.6188 H         1 LYS         0.0277
     88 H         -14.8807   19.5208   -1.7895 H         1 ARG         0.1883
     89 H         -16.2028   18.1337   -3.9888 H         1 ARG         0.0800
     90 H         -13.9666   17.1616   -4.3942 H         1 ARG         0.0313
     91 H         -13.3928   17.9854   -2.8650 H         1 ARG         0.0313
     92 H         -13.9140   20.1320   -3.8968 H         1 ARG         0.0301
     93 H         -14.3516   19.2808   -5.4109 H         1 ARG         0.0301
     94 H         -12.0592   18.2741   -5.3861 H         1 ARG         0.0689
     95 H         -11.6667   19.4170   -4.0413 H         1 ARG         0.0689
     96 H         -12.7312   20.8892   -6.2093 H         1 ARG         0.2642
     97 H          -9.8987   18.9711   -5.3595 H         1 ARG         0.2615
     98 H          -8.8198   19.8717   -6.4301 H         1 ARG         0.2615
     99 H         -11.3474   22.0460   -7.5871 H         1 ARG         0.2615
    100 H          -9.6386   21.6093   -7.6889 H         1 ARG         0.2615
    101 H         -17.2728   14.3303   -1.9638 H         1 PRO         0.0802
    102 H         -17.8690   12.8694   -3.7792 H         1 PRO         0.0313
    103 H         -16.3317   13.0461   -4.5457 H         1 PRO         0.0313
    104 H         -18.7091   14.9148   -4.6611 H         1 PRO         0.0287
    105 H         -17.7036   14.3779   -5.9627 H         1 PRO         0.0287
    106 H         -15.9457   15.8940   -5.4158 H         1 PRO         0.0524
    107 H         -17.2785   16.8159   -4.8832 H         1 PRO         0.0524
    108 H         -16.2500   12.8749   -0.7531 H         1 THR         0.1884
    109 H         -13.3379   12.6004   -1.3190 H         1 THR         0.0826
    110 H         -13.0682   12.2164    1.1661 H         1 THR         0.0639
    111 H         -15.7873   13.1335    1.1905 H         1 THR         0.2101
    112 H         -12.6083   14.4159    0.1557 H         1 THR         0.0257
    113 H         -14.3207   14.8662    0.3454 H         1 THR         0.0257
    114 H         -13.3064   14.5963    1.7840 H         1 THR         0.0257
    115 H         -16.2476   10.9945   -1.3319 H         1 THR         0.1884
    116 H         -14.8117    8.4246   -0.9541 H         1 THR         0.0826
    117 H         -16.8897    7.3847   -0.0979 H         1 THR         0.0639
    118 H         -18.3687    8.8533   -1.1339 H         1 THR         0.2101
    119 H         -15.3098    8.3256    1.5219 H         1 THR         0.0257
    120 H         -16.1246    9.9052    1.4133 H         1 THR         0.0257
    121 H         -16.9869    8.5034    2.0933 H         1 THR         0.0257
    122 H         -15.2651    6.7650   -2.3554 H         1 LEU         0.1883
    123 H         -17.4175    7.1613   -4.3759 H         1 LEU         0.0800
    124 H         -14.5728    6.4662   -5.0616 H         1 LEU         0.0315
    125 H         -15.4396    8.0695   -5.3919 H         1 LEU         0.0315
    126 H         -16.0024    5.3794   -6.6199 H         1 LEU         0.0298
    127 H         -18.0359    6.6954   -6.2984 H         1 LEU         0.0232
    128 H         -17.2662    8.1018   -7.0733 H         1 LEU         0.0232
    129 H         -17.5977    6.6325   -8.0232 H         1 LEU         0.0232
    130 H         -14.8041    7.9012   -7.8005 H         1 LEU         0.0232
    131 H         -13.9537    6.3675   -7.4913 H         1 LEU         0.0232
    132 H         -15.2506    6.4365   -8.7097 H         1 LEU         0.0232
    133 H         -18.6452    5.3960   -4.1384 H         1 ASN         0.1885
    134 H         -17.4331    2.9972   -2.9770 H         1 ASN         0.0826
    135 H         -20.2878    3.4368   -3.9023 H         1 ASN         0.0551
    136 H         -19.6474    3.8100   -2.2456 H         1 ASN         0.0551
    137 H         -21.3000    0.5767   -1.8474 H         1 ASN         0.1814
    138 H         -21.7252    2.2761   -2.0768 H         1 ASN         0.1814
    139 H         -16.2339    1.7824   -4.1937 H         1 LEU         0.1883
    140 H         -16.8229    1.3703   -7.0215 H         1 LEU         0.0800
    141 H         -14.8187    0.1966   -7.0877 H         1 LEU         0.0315
    142 H         -14.9386   -0.2419   -5.3078 H         1 LEU         0.0315
    143 H         -14.5392    2.1541   -4.8208 H         1 LEU         0.0298
    144 H         -12.7715    0.4996   -4.6097 H         1 LEU         0.0232
    145 H         -12.3613    0.6924   -6.3318 H         1 LEU         0.0232
    146 H         -12.1176    2.0467   -5.2014 H         1 LEU         0.0232
    147 H         -13.8294    2.2829   -7.7659 H         1 LEU         0.0232
    148 H         -15.1871    3.1118   -6.9655 H         1 LEU         0.0232
    149 H         -13.5104    3.5551   -6.5613 H         1 LEU         0.0232
    150 H         -17.9734    0.0470   -4.1462 H         1 PHE         0.1875
    151 H         -19.2776   -1.7696   -3.6694 H         1 PHE         0.0723
    152 O         -18.0824   -4.1028   -5.2690 O.co2     1 PHE        -0.5666
    153 H         -20.5350   -1.2524   -5.7059 H         1 PHE         0.0270
    154 H         -19.3668   -2.1753   -6.6829 H         1 PHE         0.0270
    155 H         -20.3942   -3.0150   -5.4952 H         1 PHE         0.0270
@<TRIPOS>BOND
     1    1    2 1  
     2    1    7 1  
     3    2    3 1  
     4    2    5 1  
     5    3    4 2  
     6    3    8 am 
     7    5    6 1  
     8    6    7 1  
     9    8    9 1  
    10    9   10 1  
    11    9   12 1  
    12   10   11 2  
    13   10   13 am 
    14   13   14 1  
    15   14   15 1  
    16   14   17 1  
    17   15   16 2  
    18   15   24 am 
    19   17   18 1  
    20   18   19 1  
    21   19   20 1  
    22   20   21 ar 
    23   21   22 ar 
    24   21   23 ar 
    25   24   25 1  
    26   24   30 1  
    27   25   26 1  
    28   25   28 1  
    29   26   27 2  
    30   26   31 am 
    31   28   29 1  
    32   29   30 1  
    33   31   32 1  
    34   32   33 1  
    35   32   35 1  
    36   33   34 2  
    37   33   38 am 
    38   35   36 1  
    39   35   37 1  
    40   38   39 1  
    41   39   40 1  
    42   39   42 1  
    43   40   41 2  
    44   40   45 am 
    45   42   43 1  
    46   42   44 1  
    47   45   46 1  
    48   46   47 1  
    49   46   49 1  
    50   47   48 2  
    51   47   53 am 
    52   49   50 1  
    53   50   51 1  
    54   50   52 1  
    55   53   54 1  
    56   54   55 1  
    57   54   57 1  
    58   55   56 2  
    59   55   61 am 
    60   57   58 1  
    61   58   59 2  
    62   58   60 am 
    63   61   62 1  
    64   62   63 1  
    65   62   65 1  
    66   63   64 2  
    67   63   69 am 
    68   65   66 1  
    69   66   67 1  
    70   66   68 1  
    71   69   70 1  
    72   70   71 1  
    73   70   73 1  
    74   71   72 ar 
    75    1   74 1  
    76    1   75 1  
    77    2   76 1  
    78    5   77 1  
    79    5   78 1  
    80    6   79 1  
    81    6   80 1  
    82    7   81 1  
    83    7   82 1  
    84    8   83 1  
    85    9   84 1  
    86   12   85 1  
    87   12   86 1  
    88   12   87 1  
    89   13   88 1  
    90   14   89 1  
    91   17   90 1  
    92   17   91 1  
    93   18   92 1  
    94   18   93 1  
    95   19   94 1  
    96   19   95 1  
    97   20   96 1  
    98   22   97 1  
    99   22   98 1  
   100   23   99 1  
   101   23  100 1  
   102   25  101 1  
   103   28  102 1  
   104   28  103 1  
   105   29  104 1  
   106   29  105 1  
   107   30  106 1  
   108   30  107 1  
   109   31  108 1  
   110   32  109 1  
   111   35  110 1  
   112   36  111 1  
   113   37  112 1  
   114   37  113 1  
   115   37  114 1  
   116   38  115 1  
   117   39  116 1  
   118   42  117 1  
   119   43  118 1  
   120   44  119 1  
   121   44  120 1  
   122   44  121 1  
   123   45  122 1  
   124   46  123 1  
   125   49  124 1  
   126   49  125 1  
   127   50  126 1  
   128   51  127 1  
   129   51  128 1  
   130   51  129 1  
   131   52  130 1  
   132   52  131 1  
   133   52  132 1  
   134   53  133 1  
   135   54  134 1  
   136   57  135 1  
   137   57  136 1  
   138   60  137 1  
   139   60  138 1  
   140   61  139 1  
   141   62  140 1  
   142   65  141 1  
   143   65  142 1  
   144   66  143 1  
   145   67  144 1  
   146   67  145 1  
   147   67  146 1  
   148   68  147 1  
   149   68  148 1  
   150   68  149 1  
   151   69  150 1  
   152   70  151 1  
   153   71  152 ar 
   154   73  153 1  
   155   73  154 1  
   156   73  155 1  
@<TRIPOS>SUBSTRUCTURE
     1 PRO         1

