4h39_ligand
  -I-interpret- 

155156  0  0  0  0  0  0  0  0999 V2000
  -19.6700   24.2000   -3.1390 N   0  3  0  0  0
  -19.7240   22.9360   -2.3960 C   0  0  0  0  0
  -18.3390   22.3370   -2.1780 C   0  0  0  0  0
  -17.3920   22.6990   -2.8740 O   0  0  0  0  0
  -20.5410   22.0300   -3.3210 C   0  0  0  0  0
  -20.2880   22.5690   -4.6860 C   0  0  0  0  0
  -20.1960   24.0580   -4.5080 C   0  0  0  0  0
  -18.2260   21.4330   -1.2120 N   0  0  0  0  0
  -16.9790   20.7190   -0.9770 C   0  0  0  0  0
  -16.9070   19.5380   -1.9320 C   0  0  0  0  0
  -17.9370   19.0430   -2.3870 O   0  0  0  0  0
  -16.8770   20.2490    0.4750 C   0  0  0  0  0
  -15.6930   19.0890   -2.2300 N   0  0  0  0  0
  -15.4930   17.9910   -3.1740 C   0  0  0  0  0
  -15.7680   16.6350   -2.5340 C   0  0  0  0  0
  -15.4720   16.4300   -1.3600 O   0  0  0  0  0
  -14.0670   18.0130   -3.7210 C   0  0  0  0  0
  -13.7300   19.2540   -4.5160 C   0  0  0  0  0
  -12.2740   19.2400   -4.9290 C   0  0  0  0  0
  -11.9710   20.2820   -5.9030 N   0  0  0  0  0
  -10.7630   20.4860   -6.4140 C   0  0  0  0  0
   -9.7490   19.7170   -6.0390 N   0  0  0  0  0
  -10.5680   21.4550   -7.2980 N   0  0  0  0  0
  -16.3310   15.7010   -3.3140 N   0  0  0  0  0
  -16.5860   14.3500   -2.8100 C   0  0  0  0  0
  -15.2900   13.7090   -2.3360 C   0  0  0  0  0
  -14.2490   13.8810   -2.9730 O   0  0  0  0  0
  -17.1160   13.6120   -4.0430 C   0  0  0  0  0
  -17.6750   14.6840   -4.9170 C   0  0  0  0  0
  -16.7750   15.8650   -4.7090 C   0  0  0  0  0
  -15.3540   12.9800   -1.2290 N   0  0  0  0  0
  -14.1760   12.3270   -0.6780 C   0  0  0  0  0
  -14.3320   10.8140   -0.6750 C   0  0  0  0  0
  -13.4050   10.0890   -0.3190 O   0  0  0  0  0
  -13.8920   12.8020    0.7580 C   0  0  0  0  0
  -15.0650   12.6210    1.5610 O   0  0  0  0  0
  -13.5040   14.2760    0.7610 C   0  0  0  0  0
  -15.5110   10.3410   -1.0660 N   0  0  0  0  0
  -15.7740    8.9080   -1.1230 C   0  0  0  0  0
  -16.3290    8.4870   -2.4760 C   0  0  0  0  0
  -17.0900    9.2220   -3.1090 O   0  0  0  0  0
  -16.7730    8.4670   -0.0420 C   0  0  0  0  0
  -18.0360    9.1040   -0.2690 O   0  0  0  0  0
  -16.2620    8.8260    1.3460 C   0  0  0  0  0
  -15.9430    7.2920   -2.9060 N   0  0  0  0  0
  -16.4550    6.7090   -4.1370 C   0  0  0  0  0
  -16.6310    5.2100   -3.9420 C   0  0  0  0  0
  -15.6540    4.4790   -3.7930 O   0  0  0  0  0
  -15.5010    6.9850   -5.3010 C   0  0  0  0  0
  -15.9370    6.4660   -6.6760 C   0  0  0  0  0
  -17.3070    7.0130   -7.0440 C   0  0  0  0  0
  -14.9130    6.8180   -7.7460 C   0  0  0  0  0
  -17.8760    4.7520   -3.9540 N   0  0  0  0  0
  -18.1640    3.3430   -3.7080 C   0  0  0  0  0
  -17.9830    2.4760   -4.9470 C   0  0  0  0  0
  -18.8180    2.4790   -5.8460 O   0  0  0  0  0
  -19.5700    3.1720   -3.1260 C   0  0  0  0  0
  -19.8570    1.7420   -2.6930 C   0  0  0  0  0
  -19.0120    0.8570   -2.8210 O   0  0  0  0  0
  -21.0530    1.5140   -2.1650 N   0  0  0  0  0
  -16.8830    1.7340   -4.9790 N   0  0  0  0  0
  -16.5700    0.8530   -6.0960 C   0  0  0  0  0
  -17.3860   -0.4330   -6.0270 C   0  0  0  0  0
  -17.4360   -1.2000   -6.9890 O   0  0  0  0  0
  -15.0820    0.5150   -6.0790 C   0  0  0  0  0
  -14.1620    1.6840   -5.7290 C   0  0  0  0  0
  -12.7530    1.1960   -5.4480 C   0  0  0  0  0
  -14.1730    2.7340   -6.8350 C   0  0  0  0  0
  -18.0190   -0.6600   -4.8800 N   0  0  0  0  0
  -18.7770   -1.8830   -4.6310 C   0  0  0  0  0
  -17.8540   -3.0950   -4.5480 C   0  0  0  0  0
  -16.8658   -3.0991   -3.7663 O   0  0  0  0  0
  -19.8460   -2.0970   -5.7070 C   0  0  0  0  0
  -18.0824   -4.1028   -5.2690 O   0  0  0  0  0
  -18.6948   24.4925   -3.2006 H   0  0  0  0  0
  -20.2435   24.8845   -2.6462 H   0  0  0  0  0
  -20.1477   23.0628   -1.3998 H   0  0  0  0  0
  -21.6013   22.0365   -3.0684 H   0  0  0  0  0
  -20.2475   20.9839   -3.2331 H   0  0  0  0  0
  -21.0814   22.2945   -5.3812 H   0  0  0  0  0
  -19.3762   22.1578   -5.1191 H   0  0  0  0  0
  -19.5597   24.5328   -5.2549 H   0  0  0  0  0
  -21.1546   24.5584   -4.6447 H   0  0  0  0  0
  -19.0325   21.2339   -0.6201 H   0  0  0  0  0
  -16.1395   21.3903   -1.1577 H   0  0  0  0  0
  -16.9146   21.1129    1.1387 H   0  0  0  0  0
  -17.7088   19.5810    0.6986 H   0  0  0  0  0
  -15.9352   19.7194    0.6188 H   0  0  0  0  0
  -14.8807   19.5208   -1.7895 H   0  0  0  0  0
  -16.2028   18.1337   -3.9888 H   0  0  0  0  0
  -13.9666   17.1616   -4.3942 H   0  0  0  0  0
  -13.3928   17.9854   -2.8650 H   0  0  0  0  0
  -13.9140   20.1320   -3.8968 H   0  0  0  0  0
  -14.3516   19.2808   -5.4109 H   0  0  0  0  0
  -12.0592   18.2741   -5.3861 H   0  0  0  0  0
  -11.6667   19.4170   -4.0413 H   0  0  0  0  0
  -12.7312   20.8892   -6.2093 H   0  0  0  0  0
   -8.8199   19.8713   -6.4306 H   0  0  0  0  0
   -9.8985   18.9715   -5.3591 H   0  0  0  0  0
  -11.3474   22.0460   -7.5871 H   0  0  0  0  0
  -17.2728   14.3303   -1.9638 H   0  0  0  0  0
  -17.8690   12.8694   -3.7792 H   0  0  0  0  0
  -16.3317   13.0461   -4.5457 H   0  0  0  0  0
  -18.7091   14.9148   -4.6611 H   0  0  0  0  0
  -17.7036   14.3779   -5.9627 H   0  0  0  0  0
  -15.9457   15.8940   -5.4158 H   0  0  0  0  0
  -17.2785   16.8159   -4.8832 H   0  0  0  0  0
  -16.2500   12.8749   -0.7531 H   0  0  0  0  0
  -13.3379   12.6004   -1.3190 H   0  0  0  0  0
  -13.0682   12.2164    1.1661 H   0  0  0  0  0
  -14.8872   12.9175    2.4566 H   0  0  0  0  0
  -12.6083   14.4159    0.1557 H   0  0  0  0  0
  -14.3207   14.8662    0.3454 H   0  0  0  0  0
  -13.3064   14.5963    1.7840 H   0  0  0  0  0
  -16.2476   10.9945   -1.3319 H   0  0  0  0  0
  -14.8117    8.4246   -0.9541 H   0  0  0  0  0
  -16.8897    7.3847   -0.0979 H   0  0  0  0  0
  -18.6588    8.8274    0.4072 H   0  0  0  0  0
  -15.3098    8.3256    1.5219 H   0  0  0  0  0
  -16.1246    9.9052    1.4133 H   0  0  0  0  0
  -16.9869    8.5034    2.0933 H   0  0  0  0  0
  -15.2651    6.7650   -2.3554 H   0  0  0  0  0
  -17.4175    7.1613   -4.3759 H   0  0  0  0  0
  -14.5728    6.4662   -5.0616 H   0  0  0  0  0
  -15.4396    8.0695   -5.3919 H   0  0  0  0  0
  -16.0024    5.3794   -6.6199 H   0  0  0  0  0
  -18.0359    6.6954   -6.2984 H   0  0  0  0  0
  -17.2662    8.1018   -7.0733 H   0  0  0  0  0
  -17.5977    6.6325   -8.0232 H   0  0  0  0  0
  -14.8041    7.9012   -7.8005 H   0  0  0  0  0
  -13.9537    6.3675   -7.4913 H   0  0  0  0  0
  -15.2506    6.4365   -8.7097 H   0  0  0  0  0
  -18.6452    5.3960   -4.1384 H   0  0  0  0  0
  -17.4331    2.9972   -2.9770 H   0  0  0  0  0
  -20.2878    3.4368   -3.9023 H   0  0  0  0  0
  -19.6474    3.8100   -2.2456 H   0  0  0  0  0
  -21.3000    0.5767   -1.8474 H   0  0  0  0  0
  -21.7252    2.2761   -2.0768 H   0  0  0  0  0
  -16.2339    1.7824   -4.1937 H   0  0  0  0  0
  -16.8229    1.3703   -7.0215 H   0  0  0  0  0
  -14.8187    0.1966   -7.0877 H   0  0  0  0  0
  -14.9386   -0.2419   -5.3078 H   0  0  0  0  0
  -14.5392    2.1541   -4.8208 H   0  0  0  0  0
  -12.7715    0.4996   -4.6097 H   0  0  0  0  0
  -12.3613    0.6924   -6.3318 H   0  0  0  0  0
  -12.1176    2.0467   -5.2014 H   0  0  0  0  0
  -13.8294    2.2829   -7.7659 H   0  0  0  0  0
  -15.1871    3.1118   -6.9655 H   0  0  0  0  0
  -13.5104    3.5551   -6.5613 H   0  0  0  0  0
  -17.9734    0.0470   -4.1462 H   0  0  0  0  0
  -19.2776   -1.7696   -3.6694 H   0  0  0  0  0
  -20.5350   -1.2524   -5.7059 H   0  0  0  0  0
  -19.3668   -2.1753   -6.6829 H   0  0  0  0  0
  -20.3942   -3.0150   -5.4952 H   0  0  0  0  0
  -18.8639   -3.9424   -5.8030 H   0  0  0  0  0
  1  2  1  0  0  0
  1  7  1  0  0  0
  2  3  1  0  0  0
  2  5  1  0  0  0
  3  4  2  0  0  0
  3  8  1  0  0  0
  5  6  1  0  0  0
  6  7  1  0  0  0
  8  9  1  0  0  0
  9 10  1  0  0  0
  9 12  1  0  0  0
 10 11  2  0  0  0
 10 13  1  0  0  0
 13 14  1  0  0  0
 14 15  1  0  0  0
 14 17  1  0  0  0
 15 16  2  0  0  0
 15 24  1  0  0  0
 17 18  1  0  0  0
 18 19  1  0  0  0
 19 20  1  0  0  0
 20 21  1  0  0  0
 21 22  1  0  0  0
 21 23  2  0  0  0
 24 25  1  0  0  0
 24 30  1  0  0  0
 25 26  1  0  0  0
 25 28  1  0  0  0
 26 27  2  0  0  0
 26 31  1  0  0  0
 28 29  1  0  0  0
 29 30  1  0  0  0
 31 32  1  0  0  0
 32 33  1  0  0  0
 32 35  1  0  0  0
 33 34  2  0  0  0
 33 38  1  0  0  0
 35 36  1  0  0  0
 35 37  1  0  0  0
 38 39  1  0  0  0
 39 40  1  0  0  0
 39 42  1  0  0  0
 40 41  2  0  0  0
 40 45  1  0  0  0
 42 43  1  0  0  0
 42 44  1  0  0  0
 45 46  1  0  0  0
 46 47  1  0  0  0
 46 49  1  0  0  0
 47 48  2  0  0  0
 47 53  1  0  0  0
 49 50  1  0  0  0
 50 51  1  0  0  0
 50 52  1  0  0  0
 53 54  1  0  0  0
 54 55  1  0  0  0
 54 57  1  0  0  0
 55 56  2  0  0  0
 55 61  1  0  0  0
 57 58  1  0  0  0
 58 59  2  0  0  0
 58 60  1  0  0  0
 61 62  1  0  0  0
 62 63  1  0  0  0
 62 65  1  0  0  0
 63 64  2  0  0  0
 63 69  1  0  0  0
 65 66  1  0  0  0
 66 67  1  0  0  0
 66 68  1  0  0  0
 69 70  1  0  0  0
 70 71  1  0  0  0
 70 73  1  0  0  0
 71 72  2  0  0  0
 71 74  1  0  0  0
  1 75  1  0  0  0
  1 76  1  0  0  0
  2 77  1  0  0  0
  5 78  1  0  0  0
  5 79  1  0  0  0
  6 80  1  0  0  0
  6 81  1  0  0  0
  7 82  1  0  0  0
  7 83  1  0  0  0
  8 84  1  0  0  0
  9 85  1  0  0  0
 12 86  1  0  0  0
 12 87  1  0  0  0
 12 88  1  0  0  0
 13 89  1  0  0  0
 14 90  1  0  0  0
 17 91  1  0  0  0
 17 92  1  0  0  0
 18 93  1  0  0  0
 18 94  1  0  0  0
 19 95  1  0  0  0
 19 96  1  0  0  0
 20 97  1  0  0  0
 22 98  1  0  0  0
 22 99  1  0  0  0
 23100  1  0  0  0
 25101  1  0  0  0
 28102  1  0  0  0
 28103  1  0  0  0
 29104  1  0  0  0
 29105  1  0  0  0
 30106  1  0  0  0
 30107  1  0  0  0
 31108  1  0  0  0
 32109  1  0  0  0
 35110  1  0  0  0
 36111  1  0  0  0
 37112  1  0  0  0
 37113  1  0  0  0
 37114  1  0  0  0
 38115  1  0  0  0
 39116  1  0  0  0
 42117  1  0  0  0
 43118  1  0  0  0
 44119  1  0  0  0
 44120  1  0  0  0
 44121  1  0  0  0
 45122  1  0  0  0
 46123  1  0  0  0
 49124  1  0  0  0
 49125  1  0  0  0
 50126  1  0  0  0
 51127  1  0  0  0
 51128  1  0  0  0
 51129  1  0  0  0
 52130  1  0  0  0
 52131  1  0  0  0
 52132  1  0  0  0
 53133  1  0  0  0
 54134  1  0  0  0
 57135  1  0  0  0
 57136  1  0  0  0
 60137  1  0  0  0
 60138  1  0  0  0
 61139  1  0  0  0
 62140  1  0  0  0
 65141  1  0  0  0
 65142  1  0  0  0
 66143  1  0  0  0
 67144  1  0  0  0
 67145  1  0  0  0
 67146  1  0  0  0
 68147  1  0  0  0
 68148  1  0  0  0
 68149  1  0  0  0
 69150  1  0  0  0
 70151  1  0  0  0
 73152  1  0  0  0
 73153  1  0  0  0
 73154  1  0  0  0
 74155  1  0  0  0
M  END
$$$$
