### 
### Created by X-TOOL on Mon Aug  2 16:13:51 2021
### 

@<TRIPOS>MOLECULE
6hgr_ligand
   34    36     1     0     0
SMALL
GAST_HUCK


@<TRIPOS>ATOM
      1 P          16.5620   -9.9510  -10.5020 P.3       1 IMP         0.2008
      2 O1P        15.5940   -9.4250  -11.5430 O.co2     1 IMP        -0.5537
      3 O2P        16.1830  -11.3580  -10.0580 O.co2     1 IMP        -0.5537
      4 O3P        18.0050   -9.7800  -10.9160 O.co2     1 IMP        -0.5537
      5 O5'        16.3210   -8.9650   -9.2920 O.3       1 IMP        -0.2734
      6 C5'        16.4780   -9.4510   -7.9630 C.3       1 IMP         0.1072
      7 C4'        16.9660   -8.3670   -7.0700 C.3       1 IMP         0.1182
      8 O4'        16.4460   -7.0670   -7.2000 O.3       1 IMP        -0.3360
      9 C3'        17.1250   -8.9330   -5.7020 C.3       1 IMP         0.1149
     10 O3'        18.4740   -8.7660   -5.2690 O.3       1 IMP        -0.3864
     11 C2'        16.2130   -7.9820   -4.9630 C.3       1 IMP         0.1390
     12 O2'        16.9510   -7.4960   -3.8410 O.3       1 IMP        -0.3835
     13 C1'        15.8040   -6.8560   -5.9410 C.3       1 IMP         0.2027
     14 N9         14.3480   -6.9010   -6.1840 N.pl3     1 IMP        -0.1837
     15 C8         13.7340   -7.0930   -7.3650 C.2       1 IMP         0.0991
     16 N7         12.3790   -7.0620   -7.2130 N.2       1 IMP        -0.3232
     17 C5         12.1330   -6.8240   -5.8960 C.2       1 IMP         0.1016
     18 C6         10.9670   -6.6700   -5.0900 C.2       1 IMP         0.1461
     19 O6          9.7790   -6.8030   -5.5340 O.2       1 IMP        -0.4217
     20 N1         11.1270   -6.4680   -3.7490 N.2       1 IMP        -0.2575
     21 C2         12.3510   -6.3530   -3.2080 C.2       1 IMP         0.1280
     22 N3         13.4780   -6.4830   -3.9240 N.pl3     1 IMP        -0.2068
     23 C4         13.3870   -6.7240   -5.2530 C.2       1 IMP         0.2141
     24 H1         17.2052  -10.2763   -7.9622 H         1 IMP         0.0639
     25 H2         15.5084   -9.8162   -7.5935 H         1 IMP         0.0639
     26 H3         18.0028   -8.2158   -7.4050 H         1 IMP         0.0650
     27 H4         16.8120   -9.9846   -5.6239 H         1 IMP         0.0648
     28 H5         18.5724   -9.1279   -4.3962 H         1 IMP         0.2100
     29 H6         15.3112   -8.5054   -4.6127 H         1 IMP         0.0677
     30 H7         17.1999   -8.2263   -3.2867 H         1 IMP         0.2101
     31 H8         16.0899   -5.8790   -5.5243 H         1 IMP         0.1002
     32 H9         14.2478   -7.2514   -8.3120 H         1 IMP         0.1177
     33 H10        12.4320   -6.1453   -2.1421 H         1 IMP         0.1570
     34 H11        14.3986   -6.4007   -3.4694 H         1 IMP         0.2411
@<TRIPOS>BOND
     1    1    2 ar 
     2    1    3 ar 
     3    1    4 ar 
     4    1    5 1  
     5    5    6 1  
     6    6    7 1  
     7    7    8 1  
     8    7    9 1  
     9    8   13 1  
    10    9   10 1  
    11    9   11 1  
    12   11   12 1  
    13   11   13 1  
    14   13   14 1  
    15   14   15 1  
    16   14   23 1  
    17   15   16 2  
    18   16   17 1  
    19   17   18 1  
    20   17   23 2  
    21   18   19 2  
    22   18   20 1  
    23   20   21 2  
    24   21   22 1  
    25   22   23 1  
    26    6   24 1  
    27    6   25 1  
    28    7   26 1  
    29    9   27 1  
    30   10   28 1  
    31   11   29 1  
    32   12   30 1  
    33   13   31 1  
    34   15   32 1  
    35   21   33 1  
    36   22   34 1  
@<TRIPOS>SUBSTRUCTURE
     1 IMP         1

