6hgr_ligand
  -I-interpret- 

 36 38  0  0  0  0  0  0  0  0999 V2000
   16.5620   -9.9510  -10.5020 P   0  0  0  0  0
   15.5940   -9.4250  -11.5430 O   0  0  0  0  0
   16.1830  -11.3580  -10.0580 O   0  0  0  0  0
   18.0050   -9.7800  -10.9160 O   0  0  0  0  0
   16.3210   -8.9650   -9.2920 O   0  0  0  0  0
   16.4780   -9.4510   -7.9630 C   0  0  0  0  0
   16.9660   -8.3670   -7.0700 C   0  0  0  0  0
   16.4460   -7.0670   -7.2000 O   0  0  0  0  0
   17.1250   -8.9330   -5.7020 C   0  0  0  0  0
   18.4740   -8.7660   -5.2690 O   0  0  0  0  0
   16.2130   -7.9820   -4.9630 C   0  0  0  0  0
   16.9510   -7.4960   -3.8410 O   0  0  0  0  0
   15.8040   -6.8560   -5.9410 C   0  0  0  0  0
   14.3480   -6.9010   -6.1840 N   0  0  0  0  0
   13.7340   -7.0930   -7.3650 C   0  0  0  0  0
   12.3790   -7.0620   -7.2130 N   0  0  0  0  0
   12.1330   -6.8240   -5.8960 C   0  0  0  0  0
   10.9670   -6.6700   -5.0900 C   0  0  0  0  0
    9.7790   -6.8030   -5.5340 O   0  0  0  0  0
   11.1270   -6.4680   -3.7490 N   0  0  0  0  0
   12.3510   -6.3530   -3.2080 C   0  0  0  0  0
   13.4780   -6.4830   -3.9240 N   0  0  0  0  0
   13.3870   -6.7240   -5.2530 C   0  0  0  0  0
   14.6938   -9.5553  -11.2360 H   0  0  0  0  0
   15.2546  -11.3762   -9.8142 H   0  0  0  0  0
   17.2045  -10.2636   -7.9653 H   0  0  0  0  0
   15.5140   -9.8052   -7.5979 H   0  0  0  0  0
   17.9435   -8.0616   -7.4432 H   0  0  0  0  0
   16.9036   -9.9937   -5.5833 H   0  0  0  0  0
   18.5734   -9.1318   -4.3870 H   0  0  0  0  0
   15.2973   -8.4515   -4.6036 H   0  0  0  0  0
   16.4053   -6.8847   -3.3409 H   0  0  0  0  0
   16.0913   -5.8993   -5.5048 H   0  0  0  0  0
   14.2483   -7.2515   -8.3129 H   0  0  0  0  0
   12.4321   -6.1451   -2.1411 H   0  0  0  0  0
   14.3897   -6.4015   -3.4738 H   0  0  0  0  0
  1  2  1  0  0  0
  1  3  1  0  0  0
  1  4  2  0  0  0
  1  5  1  0  0  0
  5  6  1  0  0  0
  6  7  1  0  0  0
  7  8  1  0  0  0
  7  9  1  0  0  0
  8 13  1  0  0  0
  9 10  1  0  0  0
  9 11  1  0  0  0
 11 12  1  0  0  0
 11 13  1  0  0  0
 13 14  1  0  0  0
 14 15  4  0  0  0
 14 23  4  0  0  0
 15 16  4  0  0  0
 16 17  4  0  0  0
 17 18  1  0  0  0
 17 23  4  0  0  0
 18 19  2  0  0  0
 18 20  1  0  0  0
 20 21  2  0  0  0
 21 22  1  0  0  0
 22 23  1  0  0  0
  2 24  1  0  0  0
  3 25  1  0  0  0
  6 26  1  0  0  0
  6 27  1  0  0  0
  7 28  1  0  0  0
  9 29  1  0  0  0
 10 30  1  0  0  0
 11 31  1  0  0  0
 12 32  1  0  0  0
 13 33  1  0  0  0
 15 34  1  0  0  0
 21 35  1  0  0  0
 22 36  1  0  0  0
M  END
$$$$
