5bqg_ligand
  -I-interpret- 

 32 34  0  0  0  0  0  0  0  0999 V2000
   10.4320   13.1310   34.3140 C   0  0  0  0  0
   11.6840   12.6100   34.5930 C   0  0  0  0  0
   17.0990   17.5230   30.7310 C   0  0  0  0  0
   14.0110   15.6600   31.8220 N   0  0  0  0  0
   12.8160   13.3190   34.2210 C   0  0  0  0  0
   12.7210   14.5450   33.5640 C   0  0  0  0  0
   13.9280   15.3330   33.1570 C   0  0  0  0  0
   15.0880   16.3130   31.2600 C   0  0  0  0  0
   14.3680   12.6370   34.5910 Cl  0  0  0  0  0
   10.3140   14.3440   33.6660 C   0  0  0  0  0
   11.4460   15.0510   33.2960 C   0  0  0  0  0
   14.7840   15.6530   33.9760 O   0  0  0  0  0
   16.3530   17.0390   32.1980 S   0  0  0  0  0
   15.2120   16.4250   29.9590 N   0  0  0  0  0
   16.3810   17.1280   29.6490 C   0  0  0  0  0
   16.7330   17.3790   28.2390 C   0  0  0  0  0
   17.6850   18.3420   27.9050 C   0  0  0  0  0
   18.0150   18.5750   26.5800 C   0  0  0  0  0
   17.4050   17.8540   25.5730 C   0  0  0  0  0
   16.4610   16.8970   25.8900 C   0  0  0  0  0
   16.1250   16.6580   27.2120 C   0  0  0  0  0
    9.5371   12.5818   34.6068 H   0  0  0  0  0
   11.7790   11.6503   35.1010 H   0  0  0  0  0
   18.0346   18.0794   30.6747 H   0  0  0  0  0
   13.2323   15.4050   31.2146 H   0  0  0  0  0
    9.3258   14.7472   33.4446 H   0  0  0  0  0
   11.3416   16.0113   32.7909 H   0  0  0  0  0
   18.1732   18.9158   28.6928 H   0  0  0  0  0
   18.7597   19.3311   26.3313 H   0  0  0  0  0
   17.6675   18.0394   24.5314 H   0  0  0  0  0
   15.9782   16.3272   25.0960 H   0  0  0  0  0
   15.3792   15.9001   27.4517 H   0  0  0  0  0
  2  1  4  0  0  0
  1 10  4  0  0  0
  5  2  4  0  0  0
 13  3  4  0  0  0
  3 15  4  0  0  0
  4  7  1  0  0  0
  8  4  1  0  0  0
  6  5  4  0  0  0
  5  9  1  0  0  0
  7  6  1  0  0  0
  6 11  4  0  0  0
  7 12  2  0  0  0
  8 13  4  0  0  0
  8 14  4  0  0  0
 10 11  4  0  0  0
 14 15  4  0  0  0
 15 16  1  0  0  0
 16 17  4  0  0  0
 16 21  4  0  0  0
 17 18  4  0  0  0
 18 19  4  0  0  0
 19 20  4  0  0  0
 20 21  4  0  0  0
  1 22  1  0  0  0
  2 23  1  0  0  0
  3 24  1  0  0  0
  4 25  1  0  0  0
 10 26  1  0  0  0
 11 27  1  0  0  0
 17 28  1  0  0  0
 18 29  1  0  0  0
 19 30  1  0  0  0
 20 31  1  0  0  0
 21 32  1  0  0  0
M  END
$$$$
