3o2m_ligand
  -I-interpret- 

 57 60  0  0  0  0  0  0  0  0999 V2000
   37.9530   84.7360   46.1900 N   0  0  0  0  0
   37.1450   82.1460   46.5290 C   0  0  0  0  0
   37.3730   81.4940   45.1750 C   0  0  0  0  0
   36.3500   80.6360   44.7230 C   0  0  0  0  0
   36.4550   79.9660   43.4910 C   0  0  0  0  0
   38.6050   80.9910   43.1090 C   0  0  0  0  0
   38.7560   78.5520   41.1860 C   0  0  0  0  0
   38.0020   77.8130   38.9670 C   0  0  0  0  0
   36.6420   79.4090   40.2190 C   0  0  0  0  0
   39.3830   86.6190   46.7160 C   0  0  0  0  0
   37.9900   80.7880   50.2600 C   0  0  0  0  0
   38.5730   82.0620   49.6850 C   0  0  0  0  0
   38.9610   81.7850   48.2260 C   0  0  0  0  0
   38.2770   82.6930   47.2740 N   0  0  0  0  0
   37.5750   80.1340   42.6710 C   0  0  0  0  0
   38.5150   81.6730   44.3550 C   0  0  0  0  0
   37.6660   79.3700   41.3570 C   0  0  0  0  0
   38.9410   77.7820   40.0180 C   0  0  0  0  0
   36.8570   78.6310   39.0770 C   0  0  0  0  0
   35.4150   80.2220   40.2520 C   0  0  0  0  0
   34.2010   79.7380   39.9440 N   0  0  0  0  0
   33.2970   80.7330   40.0940 N   0  0  0  0  0
   33.9700   81.8610   40.5040 N   0  0  0  0  0
   35.2800   81.5310   40.5970 N   0  0  0  0  0
   38.3050   86.0280   46.0020 C   0  0  0  0  0
   38.6580   84.0010   47.0960 C   0  0  0  0  0
   39.7060   84.4990   47.8110 N   0  0  0  0  0
   40.0680   85.7900   47.6360 C   0  0  0  0  0
   41.2180   86.3010   48.4510 C   0  0  0  0  0
   37.5110   86.8180   45.0020 C   0  0  0  0  0
   37.6640   80.8270   51.7550 C   0  0  0  0  0
   36.7660   81.3416   47.1594 H   0  0  0  0  0
   36.5162   83.0100   46.3139 H   0  0  0  0  0
   35.4626   80.4894   45.3387 H   0  0  0  0  0
   35.6500   79.3049   43.1701 H   0  0  0  0  0
   39.4855   81.1338   42.4826 H   0  0  0  0  0
   39.5025   78.4958   41.9783 H   0  0  0  0  0
   38.1594   77.2083   38.0739 H   0  0  0  0  0
   39.6680   87.6598   46.5623 H   0  0  0  0  0
   38.7460   80.0140   50.1278 H   0  0  0  0  0
   37.0466   80.6173   49.7415 H   0  0  0  0  0
   39.4485   82.3690   50.2572 H   0  0  0  0  0
   37.8416   82.8686   49.7350 H   0  0  0  0  0
   38.6652   80.7633   47.9877 H   0  0  0  0  0
   40.0351   81.9425   48.1281 H   0  0  0  0  0
   39.3219   82.3310   44.6776 H   0  0  0  0  0
   39.8258   77.1520   39.9268 H   0  0  0  0  0
   36.1325   78.6566   38.2630 H   0  0  0  0  0
   42.0115   86.6399   47.7849 H   0  0  0  0  0
   40.8817   87.1326   49.0702 H   0  0  0  0  0
   41.5940   85.5007   49.0883 H   0  0  0  0  0
   37.5931   86.3481   44.0219 H   0  0  0  0  0
   36.4652   86.8425   45.3081 H   0  0  0  0  0
   37.9004   87.8349   44.9525 H   0  0  0  0  0
   38.5743   81.0305   52.3189 H   0  0  0  0  0
   36.9334   81.6131   51.9459 H   0  0  0  0  0
   37.2529   79.8650   52.0611 H   0  0  0  0  0
  1 25  4  0  0  0
 26  1  4  0  0  0
  3  2  1  0  0  0
  2 14  1  0  0  0
  4  3  4  0  0  0
 16  3  4  0  0  0
  5  4  4  0  0  0
 15  5  4  0  0  0
 15  6  4  0  0  0
  6 16  4  0  0  0
 17  7  4  0  0  0
  7 18  4  0  0  0
 18  8  4  0  0  0
 19  8  4  0  0  0
 17  9  4  0  0  0
  9 19  4  0  0  0
  9 20  1  0  0  0
 25 10  4  0  0  0
 10 28  4  0  0  0
 12 11  1  0  0  0
 11 31  1  0  0  0
 13 12  1  0  0  0
 14 13  1  0  0  0
 14 26  1  0  0  0
 15 17  1  0  0  0
 20 21  4  0  0  0
 20 24  4  0  0  0
 21 22  4  0  0  0
 22 23  4  0  0  0
 23 24  4  0  0  0
 25 30  1  0  0  0
 26 27  4  0  0  0
 27 28  4  0  0  0
 28 29  1  0  0  0
  2 32  1  0  0  0
  2 33  1  0  0  0
  4 34  1  0  0  0
  5 35  1  0  0  0
  6 36  1  0  0  0
  7 37  1  0  0  0
  8 38  1  0  0  0
 10 39  1  0  0  0
 11 40  1  0  0  0
 11 41  1  0  0  0
 12 42  1  0  0  0
 12 43  1  0  0  0
 13 44  1  0  0  0
 13 45  1  0  0  0
 16 46  1  0  0  0
 18 47  1  0  0  0
 19 48  1  0  0  0
 29 49  1  0  0  0
 29 50  1  0  0  0
 29 51  1  0  0  0
 30 52  1  0  0  0
 30 53  1  0  0  0
 30 54  1  0  0  0
 31 55  1  0  0  0
 31 56  1  0  0  0
 31 57  1  0  0  0
M  END
$$$$
