### 
### Created by X-TOOL on Mon Sep 10 21:13:17 2018
### 

@<TRIPOS>MOLECULE
4w50_ligand
  182   187     1     0     0
SMALL
GAST_HUCK


@<TRIPOS>ATOM
      1 N          -7.9050  -34.5300  -18.9530 N.4       1 ALA         0.2377
      2 CA         -7.5440  -33.3230  -19.7480 C.3       1 ALA         0.0623
      3 C          -8.4730  -32.1740  -19.3850 C.2       1 ALA         0.2289
      4 O          -9.6760  -32.3840  -19.1610 O.2       1 ALA        -0.3905
      5 CB         -7.6130  -33.6170  -21.2420 C.3       1 ALA        -0.0040
      6 N          -7.9210  -30.9580  -19.2760 N.am      1 PRO        -0.2471
      7 CA         -8.8500  -29.8560  -19.1830 C.3       1 PRO         0.1339
      8 C          -9.5540  -29.6680  -20.5320 C.2       1 PRO         0.2042
      9 O          -8.9070  -29.7880  -21.5860 O.2       1 PRO        -0.3944
     10 CB         -7.9490  -28.6470  -18.8570 C.3       1 PRO        -0.0104
     11 CG         -6.5770  -29.0360  -19.2700 C.3       1 PRO        -0.0281
     12 CD         -6.5140  -30.5360  -19.1500 C.3       1 PRO         0.0371
     13 N         -10.8510  -29.3700  -20.4960 N.am      1 TYR        -0.2621
     14 CA        -11.5890  -29.0140  -21.7140 C.3       1 TYR         0.1390
     15 C         -10.8910  -27.8110  -22.4090 C.2       1 TYR         0.2058
     16 O         -10.5250  -27.9130  -23.5720 O.2       1 TYR        -0.3942
     17 CB        -13.0740  -28.7540  -21.3650 C.3       1 TYR         0.0163
     18 CG        -14.0610  -28.5670  -22.5130 C.ar      1 TYR        -0.0493
     19 CD1       -13.8290  -27.6510  -23.5300 C.ar      1 TYR        -0.0685
     20 CD2       -15.2590  -29.2660  -22.5360 C.ar      1 TYR        -0.0685
     21 CE1       -14.7310  -27.4680  -24.5550 C.ar      1 TYR        -0.0398
     22 CE2       -16.1710  -29.0950  -23.5560 C.ar      1 TYR        -0.0398
     23 CZ        -15.9040  -28.1870  -24.5650 C.ar      1 TYR         0.0805
     24 OH        -16.7990  -27.9970  -25.5890 O.3       1 TYR        -0.3376
     25 N         -10.6750  -26.7050  -21.7020 N.am      1 CYS        -0.2628
     26 CA         -9.8940  -25.5690  -22.2600 C.3       1 CYS         0.1406
     27 C          -8.6650  -25.2380  -21.4600 C.2       1 CYS         0.2047
     28 O          -8.6170  -25.5270  -20.2840 O.2       1 CYS        -0.3944
     29 CB        -10.7260  -24.2910  -22.2660 C.3       1 CYS         0.0443
     30 SG        -12.3920  -24.4790  -22.8910 S.3       1 CYS        -0.0882
     31 N          -7.7110  -24.5630  -22.0810 N.am      1 VAL        -0.2634
     32 CA         -6.5570  -23.9980  -21.3760 C.3       1 VAL         0.1333
     33 C          -6.2680  -22.5130  -21.7260 C.2       1 VAL         0.2043
     34 O          -6.0340  -22.1600  -22.8760 O.2       1 VAL        -0.3944
     35 CB         -5.3220  -24.8560  -21.6630 C.3       1 VAL        -0.0063
     36 CG1        -4.1130  -24.3760  -20.8700 C.3       1 VAL        -0.0584
     37 CG2        -5.6360  -26.3060  -21.3270 C.3       1 VAL        -0.0584
     38 N          -6.2710  -21.6440  -20.7180 N.am      1 TYR        -0.2621
     39 CA         -5.9740  -20.2160  -20.9090 C.3       1 TYR         0.1390
     40 C          -4.4790  -19.9580  -21.0160 C.2       1 TYR         0.2057
     41 O          -3.7510  -20.1060  -20.0450 O.2       1 TYR        -0.3942
     42 CB         -6.5550  -19.4130  -19.7590 C.3       1 TYR         0.0163
     43 CG         -6.5830  -17.9060  -19.9820 C.ar      1 TYR        -0.0493
     44 CD1        -7.4610  -17.3300  -20.8910 C.ar      1 TYR        -0.0685
     45 CD2        -5.7290  -17.0620  -19.2600 C.ar      1 TYR        -0.0685
     46 CE1        -7.4900  -15.9630  -21.0950 C.ar      1 TYR        -0.0398
     47 CE2        -5.7440  -15.6980  -19.4630 C.ar      1 TYR        -0.0398
     48 CZ         -6.6340  -15.1460  -20.3650 C.ar      1 TYR         0.0805
     49 OH         -6.6210  -13.7960  -20.5570 O.3       1 TYR        -0.3376
     50 N          -4.0090  -19.5610  -22.2040 N.am      1 ARG        -0.2636
     51 CA         -2.6050  -19.1670  -22.3580 C.3       1 ARG         0.1311
     52 C          -2.4450  -17.7070  -22.7340 C.2       1 ARG         0.2037
     53 O          -1.5040  -17.3540  -23.4330 O.2       1 ARG        -0.3944
     54 CB         -1.8920  -20.0780  -23.3630 C.3       1 ARG        -0.0092
     55 CG         -1.5110  -21.3970  -22.7280 C.3       1 ARG        -0.0156
     56 CD         -1.0850  -22.4330  -23.7480 C.3       1 ARG         0.0627
     57 NE         -1.2640  -23.7880  -23.2090 N.pl3     1 ARG        -0.2723
     58 CZ         -0.4690  -24.3690  -22.3100 C.cat     1 ARG         0.2882
     59 NH1         0.6000  -23.7400  -21.8110 N.pl3     1 ARG        -0.2849
     60 NH2        -0.7460  -25.6090  -21.9150 N.pl3     1 ARG        -0.2849
     61 N          -3.3280  -16.8590  -22.2160 N.am      1 GLY        -0.2664
     62 CA         -3.4090  -15.4540  -22.6290 C.3       1 GLY         0.1201
     63 C          -4.7520  -15.2120  -23.2850 C.2       1 GLY         0.2008
     64 O          -5.2110  -14.0730  -23.4110 O.2       1 GLY        -0.3947
     65 N          -5.3760  -16.3260  -23.6750 N.am      1 SER        -0.2618
     66 CA         -6.6560  -16.3840  -24.3610 C.3       1 SER         0.1539
     67 C          -7.1160  -17.8200  -24.1840 C.2       1 SER         0.2063
     68 O          -6.2960  -18.7350  -24.0750 O.2       1 SER        -0.3943
     69 CB         -6.4770  -16.1090  -25.8520 C.3       1 SER         0.0843
     70 OG         -5.7300  -17.1530  -26.4720 O.3       1 SER        -0.3903
     71 N          -8.4160  -18.0180  -24.1390 N.am      1 TRP        -0.2626
     72 CA         -8.9550  -19.3360  -23.9900 C.3       1 TRP         0.1352
     73 C          -8.7990  -20.1190  -25.2650 C.2       1 TRP         0.2052
     74 O          -8.5940  -19.5790  -26.3380 O.2       1 TRP        -0.3942
     75 CB        -10.4060  -19.2700  -23.5770 C.3       1 TRP         0.0042
     76 CG        -10.5350  -19.0030  -22.1350 C.2       1 TRP        -0.0418
     77 CD1       -10.9550  -17.8510  -21.5450 C.2       1 TRP         0.0167
     78 CD2       -10.2250  -19.9100  -21.0800 C.ar      1 TRP        -0.0214
     79 NE1       -10.9430  -17.9920  -20.1800 N.pl3     1 TRP        -0.2890
     80 CE2       -10.5000  -19.2510  -19.8700 C.ar      1 TRP         0.0603
     81 CE3        -9.7280  -21.2080  -21.0420 C.ar      1 TRP        -0.0747
     82 CZ2       -10.3110  -19.8540  -18.6320 C.ar      1 TRP        -0.0443
     83 CZ3        -9.5470  -21.8080  -19.8080 C.ar      1 TRP        -0.0792
     84 CH2        -9.8310  -21.1310  -18.6220 C.ar      1 TRP        -0.0768
     85 N          -8.8940  -21.4160  -25.1460 N.am      1 SER        -0.2615
     86 CA         -8.2970  -22.2560  -26.1470 C.3       1 SER         0.1539
     87 C          -8.7580  -23.6670  -25.8830 C.2       1 SER         0.2057
     88 O          -8.1530  -24.4060  -25.1090 O.2       1 SER        -0.3943
     89 CB         -6.7800  -22.0960  -26.0410 C.3       1 SER         0.0843
     90 OG         -6.0980  -23.2480  -26.4280 O.3       1 SER        -0.3903
     91 N          -9.8830  -23.9940  -26.5090 N.am      1 CYS        -0.2686
     92 CA        -10.6360  -25.2160  -26.2260 C.3       1 CYS         0.1041
     93 C         -10.4890  -26.2020  -27.3590 C.2       1 CYS         0.0609
     94 O          -9.3880  -26.3470  -27.8800 O.co2     1 CYS        -0.5666
     95 CB        -12.1100  -24.8800  -25.9740 C.3       1 CYS         0.0388
     96 SG        -12.2860  -23.5600  -24.7410 S.3       1 CYS        -0.0888
     97 OXT       -11.4420  -26.8700  -27.7500 O.co2     1 CYS        -0.5666
     98 H          -7.2879  -35.2891  -19.1958 H         1 ALA         0.2015
     99 H          -8.8569  -34.7931  -19.1550 H         1 ALA         0.2015
    100 H          -7.8145  -34.3246  -17.9703 H         1 ALA         0.2015
    101 H          -6.5126  -33.0338  -19.4981 H         1 ALA         0.1095
    102 H          -7.3428  -32.7124  -21.8065 H         1 ALA         0.0310
    103 H          -8.6351  -33.9238  -21.5085 H         1 ALA         0.0310
    104 H          -6.9108  -34.4268  -21.4892 H         1 ALA         0.0310
    105 H          -9.5939  -30.0220  -18.3899 H         1 PRO         0.0802
    106 H          -7.9764  -28.4295  -17.7791 H         1 PRO         0.0313
    107 H          -8.2803  -27.7610  -19.4184 H         1 PRO         0.0313
    108 H          -5.8324  -28.5686  -18.6089 H         1 PRO         0.0287
    109 H          -6.3894  -28.7280  -20.3092 H         1 PRO         0.0287
    110 H          -5.9016  -30.9682  -19.9551 H         1 PRO         0.0524
    111 H          -6.1012  -30.8341  -18.1750 H         1 PRO         0.0524
    112 H         -11.3331  -29.3891  -19.6201 H         1 TYR         0.1885
    113 H         -11.5531  -29.8678  -22.4067 H         1 TYR         0.0821
    114 H         -13.1102  -27.8416  -20.7516 H         1 TYR         0.0453
    115 H         -13.4242  -29.6102  -20.7698 H         1 TYR         0.0453
    116 H         -12.9165  -27.0659  -23.5173 H         1 TYR         0.0530
    117 H         -15.4829  -29.9614  -21.7352 H         1 TYR         0.0530
    118 H         -14.5178  -26.7616  -25.3491 H         1 TYR         0.0525
    119 H         -17.0910  -29.6682  -23.5672 H         1 TYR         0.0525
    120 H         -17.6280  -27.7000  -25.2325 H         1 TYR         0.2458
    121 H         -11.0456  -26.6360  -20.7758 H         1 CYS         0.1884
    122 H          -9.5994  -25.8268  -23.2880 H         1 CYS         0.0808
    123 H         -10.2082  -23.5491  -22.8917 H         1 CYS         0.0432
    124 H         -10.7888  -23.9194  -21.2326 H         1 CYS         0.0432
    125 H          -7.7802  -24.4334  -23.0701 H         1 VAL         0.1883
    126 H          -6.7698  -24.0466  -20.2979 H         1 VAL         0.0802
    127 H          -5.0847  -24.7831  -22.7346 H         1 VAL         0.0343
    128 H          -3.2467  -25.0136  -21.1004 H         1 VAL         0.0234
    129 H          -4.3342  -24.4328  -19.7940 H         1 VAL         0.0234
    130 H          -3.8851  -23.3351  -21.1431 H         1 VAL         0.0234
    131 H          -6.5102  -26.6358  -21.9075 H         1 VAL         0.0234
    132 H          -5.8547  -26.3944  -20.2526 H         1 VAL         0.0234
    133 H          -4.7702  -26.9364  -21.5780 H         1 VAL         0.0234
    134 H          -6.4827  -21.9736  -19.7979 H         1 TYR         0.1885
    135 H          -6.4490  -19.8864  -21.8448 H         1 TYR         0.0821
    136 H          -5.9519  -19.6149  -18.8615 H         1 TYR         0.0453
    137 H          -7.5875  -19.7533  -19.5912 H         1 TYR         0.0453
    138 H          -8.1372  -17.9651  -21.4518 H         1 TYR         0.0530
    139 H          -5.0473  -17.4868  -18.5321 H         1 TYR         0.0530
    140 H          -8.1738  -15.5321  -21.8174 H         1 TYR         0.0525
    141 H          -5.0591  -15.0600  -18.9162 H         1 TYR         0.0525
    142 H          -7.2809  -13.5622  -21.1992 H         1 TYR         0.2458
    143 H          -4.6209  -19.5327  -22.9944 H         1 ARG         0.1883
    144 H          -2.1184  -19.3059  -21.3813 H         1 ARG         0.0800
    145 H          -0.9813  -19.5752  -23.7204 H         1 ARG         0.0313
    146 H          -2.5630  -20.2693  -24.2133 H         1 ARG         0.0313
    147 H          -2.3783  -21.7846  -22.1733 H         1 ARG         0.0301
    148 H          -0.6773  -21.2249  -22.0314 H         1 ARG         0.0301
    149 H          -0.0249  -22.2800  -23.9986 H         1 ARG         0.0689
    150 H          -1.6963  -22.3206  -24.6555 H         1 ARG         0.0689
    151 H          -2.0677  -24.3325  -23.5531 H         1 ARG         0.2642
    152 H           1.1979  -24.2117  -21.1175 H         1 ARG         0.2615
    153 H           0.8257  -22.7838  -22.1201 H         1 ARG         0.2615
    154 H          -1.5681  -26.0992  -22.2956 H         1 ARG         0.2615
    155 H          -0.1384  -26.0787  -21.2287 H         1 ARG         0.2615
    156 H          -3.9616  -17.1919  -21.5176 H         1 GLY         0.1881
    157 H          -2.6034  -15.2324  -23.3445 H         1 GLY         0.0763
    158 H          -3.3060  -14.8036  -21.7479 H         1 GLY         0.0763
    159 H          -4.9235  -17.1958  -23.4781 H         1 SER         0.1884
    160 H          -7.3731  -15.6732  -23.9246 H         1 SER         0.0823
    161 H          -5.9421  -15.1566  -25.9816 H         1 SER         0.0606
    162 H          -7.4664  -16.0416  -26.3279 H         1 SER         0.0606
    163 H          -6.1904  -17.9771  -26.3647 H         1 SER         0.2097
    164 H          -9.0363  -17.2369  -24.2099 H         1 TRP         0.1884
    165 H          -8.3934  -19.8519  -23.1973 H         1 TRP         0.0815
    166 H         -10.8897  -20.2303  -23.8092 H         1 TRP         0.0397
    167 H         -10.9027  -18.4643  -24.1373 H         1 TRP         0.0397
    168 H         -11.2562  -16.9501  -22.0775 H         1 TRP         0.0795
    169 H         -11.2213  -17.2700  -19.5002 H         1 TRP         0.2216
    170 H          -9.4880  -21.7374  -21.9570 H         1 TRP         0.0540
    171 H         -10.5363  -19.3299  -17.7102 H         1 TRP         0.0541
    172 H          -9.1766  -22.8257  -19.7622 H         1 TRP         0.0510
    173 H          -9.6671  -21.6295  -17.6735 H         1 TRP         0.0530
    174 H          -9.3761  -21.8193  -24.3682 H         1 SER         0.1884
    175 H          -8.6249  -21.9480  -27.1508 H         1 SER         0.0823
    176 H          -6.5207  -21.8654  -24.9972 H         1 SER         0.0606
    177 H          -6.4659  -21.2646  -26.6891 H         1 SER         0.0606
    178 H          -6.3578  -23.9712  -25.8693 H         1 SER         0.2097
    179 H         -10.2334  -23.3728  -27.2100 H         1 CYS         0.1876
    180 H         -10.2252  -25.6749  -25.3146 H         1 CYS         0.0734
    181 H         -12.6254  -25.7810  -25.6099 H         1 CYS         0.0425
    182 H         -12.5688  -24.5514  -26.9182 H         1 CYS         0.0425
@<TRIPOS>BOND
     1    1    2 1  
     2    2    3 1  
     3    2    5 1  
     4    3    4 2  
     5    3    6 am 
     6    6    7 1  
     7    6   12 1  
     8    7    8 1  
     9    7   10 1  
    10    8    9 2  
    11    8   13 am 
    12   10   11 1  
    13   11   12 1  
    14   13   14 1  
    15   14   15 1  
    16   14   17 1  
    17   15   16 2  
    18   15   25 am 
    19   17   18 1  
    20   18   19 ar 
    21   18   20 ar 
    22   19   21 ar 
    23   20   22 ar 
    24   21   23 ar 
    25   22   23 ar 
    26   23   24 1  
    27   25   26 1  
    28   26   27 1  
    29   26   29 1  
    30   27   28 2  
    31   27   31 am 
    32   29   30 1  
    33   30   96 1  
    34   31   32 1  
    35   32   33 1  
    36   32   35 1  
    37   33   34 2  
    38   33   38 am 
    39   35   36 1  
    40   35   37 1  
    41   38   39 1  
    42   39   40 1  
    43   39   42 1  
    44   40   41 2  
    45   40   50 am 
    46   42   43 1  
    47   43   44 ar 
    48   43   45 ar 
    49   44   46 ar 
    50   45   47 ar 
    51   46   48 ar 
    52   47   48 ar 
    53   48   49 1  
    54   50   51 1  
    55   51   52 1  
    56   51   54 1  
    57   52   53 2  
    58   52   61 am 
    59   54   55 1  
    60   55   56 1  
    61   56   57 1  
    62   57   58 ar 
    63   58   59 ar 
    64   58   60 ar 
    65   61   62 1  
    66   62   63 1  
    67   63   64 2  
    68   63   65 am 
    69   65   66 1  
    70   66   67 1  
    71   66   69 1  
    72   67   68 2  
    73   67   71 am 
    74   69   70 1  
    75   71   72 1  
    76   72   73 1  
    77   72   75 1  
    78   73   74 2  
    79   73   85 am 
    80   75   76 1  
    81   76   77 2  
    82   76   78 1  
    83   77   79 1  
    84   78   80 ar 
    85   78   81 ar 
    86   79   80 1  
    87   80   82 ar 
    88   81   83 ar 
    89   82   84 ar 
    90   83   84 ar 
    91   85   86 1  
    92   86   87 1  
    93   86   89 1  
    94   87   88 2  
    95   87   91 am 
    96   89   90 1  
    97   91   92 1  
    98   92   93 1  
    99   92   95 1  
   100   93   94 ar 
   101   93   97 ar 
   102   95   96 1  
   103    1   98 1  
   104    1   99 1  
   105    1  100 1  
   106    2  101 1  
   107    5  102 1  
   108    5  103 1  
   109    5  104 1  
   110    7  105 1  
   111   10  106 1  
   112   10  107 1  
   113   11  108 1  
   114   11  109 1  
   115   12  110 1  
   116   12  111 1  
   117   13  112 1  
   118   14  113 1  
   119   17  114 1  
   120   17  115 1  
   121   19  116 1  
   122   20  117 1  
   123   21  118 1  
   124   22  119 1  
   125   24  120 1  
   126   25  121 1  
   127   26  122 1  
   128   29  123 1  
   129   29  124 1  
   130   31  125 1  
   131   32  126 1  
   132   35  127 1  
   133   36  128 1  
   134   36  129 1  
   135   36  130 1  
   136   37  131 1  
   137   37  132 1  
   138   37  133 1  
   139   38  134 1  
   140   39  135 1  
   141   42  136 1  
   142   42  137 1  
   143   44  138 1  
   144   45  139 1  
   145   46  140 1  
   146   47  141 1  
   147   49  142 1  
   148   50  143 1  
   149   51  144 1  
   150   54  145 1  
   151   54  146 1  
   152   55  147 1  
   153   55  148 1  
   154   56  149 1  
   155   56  150 1  
   156   57  151 1  
   157   59  152 1  
   158   59  153 1  
   159   60  154 1  
   160   60  155 1  
   161   61  156 1  
   162   62  157 1  
   163   62  158 1  
   164   65  159 1  
   165   66  160 1  
   166   69  161 1  
   167   69  162 1  
   168   70  163 1  
   169   71  164 1  
   170   72  165 1  
   171   75  166 1  
   172   75  167 1  
   173   77  168 1  
   174   79  169 1  
   175   81  170 1  
   176   82  171 1  
   177   83  172 1  
   178   84  173 1  
   179   85  174 1  
   180   86  175 1  
   181   89  176 1  
   182   89  177 1  
   183   90  178 1  
   184   91  179 1  
   185   92  180 1  
   186   95  181 1  
   187   95  182 1  
@<TRIPOS>SUBSTRUCTURE
     1 ALA         1

