4w50_ligand
  -I-interpret- 

181186  0  0  0  0  0  0  0  0999 V2000
   -7.9050  -34.5300  -18.9530 N   0  3  0  0  0
   -7.5440  -33.3230  -19.7480 C   0  0  0  0  0
   -8.4730  -32.1740  -19.3850 C   0  0  0  0  0
   -9.6760  -32.3840  -19.1610 O   0  0  0  0  0
   -7.6130  -33.6170  -21.2420 C   0  0  0  0  0
   -7.9210  -30.9580  -19.2760 N   0  0  0  0  0
   -8.8500  -29.8560  -19.1830 C   0  0  0  0  0
   -9.5540  -29.6680  -20.5320 C   0  0  0  0  0
   -8.9070  -29.7880  -21.5860 O   0  0  0  0  0
   -7.9490  -28.6470  -18.8570 C   0  0  0  0  0
   -6.5770  -29.0360  -19.2700 C   0  0  0  0  0
   -6.5140  -30.5360  -19.1500 C   0  0  0  0  0
  -10.8510  -29.3700  -20.4960 N   0  0  0  0  0
  -11.5890  -29.0140  -21.7140 C   0  0  0  0  0
  -10.8910  -27.8110  -22.4090 C   0  0  0  0  0
  -10.5250  -27.9130  -23.5720 O   0  0  0  0  0
  -13.0740  -28.7540  -21.3650 C   0  0  0  0  0
  -14.0610  -28.5670  -22.5130 C   0  0  0  0  0
  -13.8290  -27.6510  -23.5300 C   0  0  0  0  0
  -15.2590  -29.2660  -22.5360 C   0  0  0  0  0
  -14.7310  -27.4680  -24.5550 C   0  0  0  0  0
  -16.1710  -29.0950  -23.5560 C   0  0  0  0  0
  -15.9040  -28.1870  -24.5650 C   0  0  0  0  0
  -16.7990  -27.9970  -25.5890 O   0  0  0  0  0
  -10.6750  -26.7050  -21.7020 N   0  0  0  0  0
   -9.8940  -25.5690  -22.2600 C   0  0  0  0  0
   -8.6650  -25.2380  -21.4600 C   0  0  0  0  0
   -8.6170  -25.5270  -20.2840 O   0  0  0  0  0
  -10.7260  -24.2910  -22.2660 C   0  0  0  0  0
  -12.3920  -24.4790  -22.8910 S   0  0  0  0  0
   -7.7110  -24.5630  -22.0810 N   0  0  0  0  0
   -6.5570  -23.9980  -21.3760 C   0  0  0  0  0
   -6.2680  -22.5130  -21.7260 C   0  0  0  0  0
   -6.0340  -22.1600  -22.8760 O   0  0  0  0  0
   -5.3220  -24.8560  -21.6630 C   0  0  0  0  0
   -4.1130  -24.3760  -20.8700 C   0  0  0  0  0
   -5.6360  -26.3060  -21.3270 C   0  0  0  0  0
   -6.2710  -21.6440  -20.7180 N   0  0  0  0  0
   -5.9740  -20.2160  -20.9090 C   0  0  0  0  0
   -4.4790  -19.9580  -21.0160 C   0  0  0  0  0
   -3.7510  -20.1060  -20.0450 O   0  0  0  0  0
   -6.5550  -19.4130  -19.7590 C   0  0  0  0  0
   -6.5830  -17.9060  -19.9820 C   0  0  0  0  0
   -7.4610  -17.3300  -20.8910 C   0  0  0  0  0
   -5.7290  -17.0620  -19.2600 C   0  0  0  0  0
   -7.4900  -15.9630  -21.0950 C   0  0  0  0  0
   -5.7440  -15.6980  -19.4630 C   0  0  0  0  0
   -6.6340  -15.1460  -20.3650 C   0  0  0  0  0
   -6.6210  -13.7960  -20.5570 O   0  0  0  0  0
   -4.0090  -19.5610  -22.2040 N   0  0  0  0  0
   -2.6050  -19.1670  -22.3580 C   0  0  0  0  0
   -2.4450  -17.7070  -22.7340 C   0  0  0  0  0
   -1.5040  -17.3540  -23.4330 O   0  0  0  0  0
   -1.8920  -20.0780  -23.3630 C   0  0  0  0  0
   -1.5110  -21.3970  -22.7280 C   0  0  0  0  0
   -1.0850  -22.4330  -23.7480 C   0  0  0  0  0
   -1.2640  -23.7880  -23.2090 N   0  0  0  0  0
   -0.4690  -24.3690  -22.3100 C   0  0  0  0  0
    0.6000  -23.7400  -21.8110 N   0  0  0  0  0
   -0.7460  -25.6090  -21.9150 N   0  0  0  0  0
   -3.3280  -16.8590  -22.2160 N   0  0  0  0  0
   -3.4090  -15.4540  -22.6290 C   0  0  0  0  0
   -4.7520  -15.2120  -23.2850 C   0  0  0  0  0
   -5.2110  -14.0730  -23.4110 O   0  0  0  0  0
   -5.3760  -16.3260  -23.6750 N   0  0  0  0  0
   -6.6560  -16.3840  -24.3610 C   0  0  0  0  0
   -7.1160  -17.8200  -24.1840 C   0  0  0  0  0
   -6.2960  -18.7350  -24.0750 O   0  0  0  0  0
   -6.4770  -16.1090  -25.8520 C   0  0  0  0  0
   -5.7300  -17.1530  -26.4720 O   0  0  0  0  0
   -8.4160  -18.0180  -24.1390 N   0  0  0  0  0
   -8.9550  -19.3360  -23.9900 C   0  0  0  0  0
   -8.7990  -20.1190  -25.2650 C   0  0  0  0  0
   -8.5940  -19.5790  -26.3380 O   0  0  0  0  0
  -10.4060  -19.2700  -23.5770 C   0  0  0  0  0
  -10.5350  -19.0030  -22.1350 C   0  0  0  0  0
  -10.9550  -17.8510  -21.5450 C   0  0  0  0  0
  -10.2250  -19.9100  -21.0800 C   0  0  0  0  0
  -10.9430  -17.9920  -20.1800 N   0  0  0  0  0
  -10.5000  -19.2510  -19.8700 C   0  0  0  0  0
   -9.7280  -21.2080  -21.0420 C   0  0  0  0  0
  -10.3110  -19.8540  -18.6320 C   0  0  0  0  0
   -9.5470  -21.8080  -19.8080 C   0  0  0  0  0
   -9.8310  -21.1310  -18.6220 C   0  0  0  0  0
   -8.8940  -21.4160  -25.1460 N   0  0  0  0  0
   -8.2970  -22.2560  -26.1470 C   0  0  0  0  0
   -8.7580  -23.6670  -25.8830 C   0  0  0  0  0
   -8.1530  -24.4060  -25.1090 O   0  0  0  0  0
   -6.7800  -22.0960  -26.0410 C   0  0  0  0  0
   -6.0980  -23.2480  -26.4280 O   0  0  0  0  0
   -9.8830  -23.9940  -26.5090 N   0  0  0  0  0
  -10.6360  -25.2160  -26.2260 C   0  0  0  0  0
  -10.4890  -26.2020  -27.3590 C   0  0  0  0  0
   -9.3880  -26.3470  -27.8800 O   0  0  0  0  0
  -12.1100  -24.8800  -25.9740 C   0  0  0  0  0
  -12.2860  -23.5600  -24.7410 S   0  0  0  0  0
  -11.4420  -26.8700  -27.7500 O   0  0  0  0  0
   -7.8517  -34.3091  -17.9586 H   0  0  0  0  0
   -8.8546  -34.8189  -19.1879 H   0  0  0  0  0
   -7.2550  -35.2855  -19.1700 H   0  0  0  0  0
   -6.5185  -33.0399  -19.5106 H   0  0  0  0  0
   -8.6338  -33.8889  -21.5107 H   0  0  0  0  0
   -7.3131  -32.7298  -21.7998 H   0  0  0  0  0
   -6.9413  -34.4417  -21.4801 H   0  0  0  0  0
   -9.6315  -30.0019  -18.4373 H   0  0  0  0  0
   -7.9870  -28.4011  -17.7958 H   0  0  0  0  0
   -8.2816  -27.7531  -19.3847 H   0  0  0  0  0
   -5.8260  -28.5587  -18.6405 H   0  0  0  0  0
   -6.3663  -28.7133  -20.2896 H   0  0  0  0  0
   -5.8758  -30.9868  -19.9100 H   0  0  0  0  0
   -6.0664  -30.8588  -18.2100 H   0  0  0  0  0
  -11.3427  -29.3895  -19.6026 H   0  0  0  0  0
  -11.5796  -29.8364  -22.4294 H   0  0  0  0  0
  -13.0810  -27.8086  -20.8225 H   0  0  0  0  0
  -13.4078  -29.6498  -20.8414 H   0  0  0  0  0
  -12.9115  -27.0627  -23.5172 H   0  0  0  0  0
  -15.4842  -29.9652  -21.7307 H   0  0  0  0  0
  -14.5167  -26.7577  -25.3535 H   0  0  0  0  0
  -17.0961  -29.6714  -23.5672 H   0  0  0  0  0
  -17.5611  -28.5655  -25.4560 H   0  0  0  0  0
  -11.0530  -26.6346  -20.7573 H   0  0  0  0  0
   -9.6133  -25.8953  -23.2614 H   0  0  0  0  0
  -10.2189  -23.5876  -22.9265 H   0  0  0  0  0
  -10.8129  -23.9664  -21.2291 H   0  0  0  0  0
   -7.7816  -24.4308  -23.0899 H   0  0  0  0  0
   -6.8011  -24.0103  -20.3138 H   0  0  0  0  0
   -5.0721  -24.7676  -22.7203 H   0  0  0  0  0
   -3.8882  -23.3445  -21.1415 H   0  0  0  0  0
   -4.3334  -24.4327  -19.8040 H   0  0  0  0  0
   -3.2554  -25.0085  -21.0991 H   0  0  0  0  0
   -5.9011  -26.3841  -20.2726 H   0  0  0  0  0
   -6.4710  -26.6469  -21.9391 H   0  0  0  0  0
   -4.7601  -26.9224  -21.5293 H   0  0  0  0  0
   -6.4869  -21.9802  -19.7795 H   0  0  0  0  0
   -6.4317  -19.9033  -21.8475 H   0  0  0  0  0
   -5.9175  -19.5930  -18.8934 H   0  0  0  0  0
   -7.5896  -19.7345  -19.6394 H   0  0  0  0  0
   -8.1409  -17.9686  -21.4549 H   0  0  0  0  0
   -5.0435  -17.4892  -18.5280 H   0  0  0  0  0
   -8.1775  -15.5297  -21.8214 H   0  0  0  0  0
   -5.0553  -15.0565  -18.9132 H   0  0  0  0  0
   -5.9734  -13.3969  -19.9715 H   0  0  0  0  0
   -4.6332  -19.5321  -23.0102 H   0  0  0  0  0
   -2.1331  -19.2888  -21.3830 H   0  0  0  0  0
   -0.9842  -19.5794  -23.7025 H   0  0  0  0  0
   -2.5672  -20.2742  -24.1959 H   0  0  0  0  0
   -2.3857  -21.7821  -22.2039 H   0  0  0  0  0
   -0.6682  -21.2170  -22.0606 H   0  0  0  0  0
   -0.0323  -22.2829  -23.9875 H   0  0  0  0  0
   -1.6984  -22.3232  -24.6423 H   0  0  0  0  0
   -2.0599  -24.3273  -23.5497 H   0  0  0  0  0
    1.1977  -24.2108  -21.1316 H   0  0  0  0  0
    0.8179  -22.7894  -22.1097 H   0  0  0  0  0
   -1.5546  -26.0980  -22.2991 H   0  0  0  0  0
   -3.9743  -17.1986  -21.5037 H   0  0  0  0  0
   -2.6088  -15.2307  -23.3346 H   0  0  0  0  0
   -3.3026  -14.8073  -21.7580 H   0  0  0  0  0
   -4.9145  -17.2132  -23.4741 H   0  0  0  0  0
   -7.3592  -15.6496  -23.9683 H   0  0  0  0  0
   -5.9375  -15.1698  -25.9744 H   0  0  0  0  0
   -7.4598  -16.0536  -26.3201 H   0  0  0  0  0
   -5.6291  -16.9609  -27.4072 H   0  0  0  0  0
   -9.0487  -17.2212  -24.2113 H   0  0  0  0  0
   -8.3989  -19.8494  -23.2056 H   0  0  0  0  0
  -10.8754  -20.2287  -23.7976 H   0  0  0  0  0
  -10.8885  -18.4613  -24.1260 H   0  0  0  0  0
  -11.2565  -16.9492  -22.0780 H   0  0  0  0  0
   -9.4867  -21.7403  -21.9621 H   0  0  0  0  0
  -10.5375  -19.3270  -17.7051 H   0  0  0  0  0
   -9.1746  -22.8314  -19.7620 H   0  0  0  0  0
   -9.6661  -21.6322  -17.6682 H   0  0  0  0  0
   -9.3857  -21.8273  -24.3526 H   0  0  0  0  0
   -8.5893  -21.9899  -27.1628 H   0  0  0  0  0
   -6.5337  -21.8913  -24.9991 H   0  0  0  0  0
   -6.4784  -21.2856  -26.7046 H   0  0  0  0  0
   -5.1528  -23.1019  -26.3455 H   0  0  0  0  0
  -10.2404  -23.3604  -27.2240 H   0  0  0  0  0
  -10.2323  -25.6792  -25.3257 H   0  0  0  0  0
  -12.6097  -25.7732  -25.5990 H   0  0  0  0  0
  -12.5529  -24.5407  -26.9104 H   0  0  0  0  0
  -12.2235  -26.6379  -27.2431 H   0  0  0  0  0
  1  2  1  0  0  0
  2  3  1  0  0  0
  2  5  1  0  0  0
  3  4  2  0  0  0
  3  6  1  0  0  0
  6  7  1  0  0  0
  6 12  1  0  0  0
  7  8  1  0  0  0
  7 10  1  0  0  0
  8  9  2  0  0  0
  8 13  1  0  0  0
 10 11  1  0  0  0
 11 12  1  0  0  0
 13 14  1  0  0  0
 14 15  1  0  0  0
 14 17  1  0  0  0
 15 16  2  0  0  0
 15 25  1  0  0  0
 17 18  1  0  0  0
 18 19  4  0  0  0
 18 20  4  0  0  0
 19 21  4  0  0  0
 20 22  4  0  0  0
 21 23  4  0  0  0
 22 23  4  0  0  0
 23 24  1  0  0  0
 25 26  1  0  0  0
 26 27  1  0  0  0
 26 29  1  0  0  0
 27 28  2  0  0  0
 27 31  1  0  0  0
 29 30  1  0  0  0
 30 96  1  0  0  0
 31 32  1  0  0  0
 32 33  1  0  0  0
 32 35  1  0  0  0
 33 34  2  0  0  0
 33 38  1  0  0  0
 35 36  1  0  0  0
 35 37  1  0  0  0
 38 39  1  0  0  0
 39 40  1  0  0  0
 39 42  1  0  0  0
 40 41  2  0  0  0
 40 50  1  0  0  0
 42 43  1  0  0  0
 43 44  4  0  0  0
 43 45  4  0  0  0
 44 46  4  0  0  0
 45 47  4  0  0  0
 46 48  4  0  0  0
 47 48  4  0  0  0
 48 49  1  0  0  0
 50 51  1  0  0  0
 51 52  1  0  0  0
 51 54  1  0  0  0
 52 53  2  0  0  0
 52 61  1  0  0  0
 54 55  1  0  0  0
 55 56  1  0  0  0
 56 57  1  0  0  0
 57 58  1  0  0  0
 58 59  1  0  0  0
 58 60  2  0  0  0
 61 62  1  0  0  0
 62 63  1  0  0  0
 63 64  2  0  0  0
 63 65  1  0  0  0
 65 66  1  0  0  0
 66 67  1  0  0  0
 66 69  1  0  0  0
 67 68  2  0  0  0
 67 71  1  0  0  0
 69 70  1  0  0  0
 71 72  1  0  0  0
 72 73  1  0  0  0
 72 75  1  0  0  0
 73 74  2  0  0  0
 73 85  1  0  0  0
 75 76  1  0  0  0
 76 77  4  0  0  0
 76 78  4  0  0  0
 77 79  4  0  0  0
 78 80  4  0  0  0
 78 81  4  0  0  0
 79 80  4  0  0  0
 80 82  4  0  0  0
 81 83  4  0  0  0
 82 84  4  0  0  0
 83 84  4  0  0  0
 85 86  1  0  0  0
 86 87  1  0  0  0
 86 89  1  0  0  0
 87 88  2  0  0  0
 87 91  1  0  0  0
 89 90  1  0  0  0
 91 92  1  0  0  0
 92 93  1  0  0  0
 92 95  1  0  0  0
 93 94  2  0  0  0
 93 97  1  0  0  0
 95 96  1  0  0  0
  1 98  1  0  0  0
  1 99  1  0  0  0
  1100  1  0  0  0
  2101  1  0  0  0
  5102  1  0  0  0
  5103  1  0  0  0
  5104  1  0  0  0
  7105  1  0  0  0
 10106  1  0  0  0
 10107  1  0  0  0
 11108  1  0  0  0
 11109  1  0  0  0
 12110  1  0  0  0
 12111  1  0  0  0
 13112  1  0  0  0
 14113  1  0  0  0
 17114  1  0  0  0
 17115  1  0  0  0
 19116  1  0  0  0
 20117  1  0  0  0
 21118  1  0  0  0
 22119  1  0  0  0
 24120  1  0  0  0
 25121  1  0  0  0
 26122  1  0  0  0
 29123  1  0  0  0
 29124  1  0  0  0
 31125  1  0  0  0
 32126  1  0  0  0
 35127  1  0  0  0
 36128  1  0  0  0
 36129  1  0  0  0
 36130  1  0  0  0
 37131  1  0  0  0
 37132  1  0  0  0
 37133  1  0  0  0
 38134  1  0  0  0
 39135  1  0  0  0
 42136  1  0  0  0
 42137  1  0  0  0
 44138  1  0  0  0
 45139  1  0  0  0
 46140  1  0  0  0
 47141  1  0  0  0
 49142  1  0  0  0
 50143  1  0  0  0
 51144  1  0  0  0
 54145  1  0  0  0
 54146  1  0  0  0
 55147  1  0  0  0
 55148  1  0  0  0
 56149  1  0  0  0
 56150  1  0  0  0
 57151  1  0  0  0
 59152  1  0  0  0
 59153  1  0  0  0
 60154  1  0  0  0
 61155  1  0  0  0
 62156  1  0  0  0
 62157  1  0  0  0
 65158  1  0  0  0
 66159  1  0  0  0
 69160  1  0  0  0
 69161  1  0  0  0
 70162  1  0  0  0
 71163  1  0  0  0
 72164  1  0  0  0
 75165  1  0  0  0
 75166  1  0  0  0
 77167  1  0  0  0
 81168  1  0  0  0
 82169  1  0  0  0
 83170  1  0  0  0
 84171  1  0  0  0
 85172  1  0  0  0
 86173  1  0  0  0
 89174  1  0  0  0
 89175  1  0  0  0
 90176  1  0  0  0
 91177  1  0  0  0
 92178  1  0  0  0
 95179  1  0  0  0
 95180  1  0  0  0
 97181  1  0  0  0
M  END
$$$$
