2ohr_ligand
  -I-interpret- 

 37 39  0  0  0  0  0  0  0  0999 V2000
   65.3690   47.2000    6.3800 N   0  0  0  0  0
   66.0320   46.3570    7.1920 C   0  0  0  0  0
   65.6790   45.0520    7.1510 N   0  0  0  0  0
   66.3160   44.2090    7.9730 C   0  0  0  0  0
   67.2970   44.6060    8.8580 C   0  0  0  0  0
   67.6600   45.9320    8.9150 C   0  0  0  0  0
   67.0250   46.8470    8.0850 C   0  0  0  0  0
   67.3140   48.2130    8.0970 N   0  0  0  0  0
   68.2930   48.8430    8.9680 C   0  0  0  0  0
   69.7330   48.5410    8.6180 C   0  0  0  0  0
   70.7450   48.9240    9.4820 C   0  0  0  0  0
   72.0640   48.6670    9.1750 C   0  0  0  0  0
   72.3920   48.0050    8.0120 C   0  0  0  0  0
   71.4000   47.6030    7.1250 C   0  0  0  0  0
   70.0700   47.8750    7.4430 C   0  0  0  0  0
   71.7530   46.8550    5.8850 C   0  0  0  0  0
   72.7980   45.9420    5.8710 C   0  0  0  0  0
   73.0820   45.2550    4.7120 C   0  0  0  0  0
   72.2990   45.4660    3.5970 C   0  0  0  0  0
   71.2840   46.3340    3.5720 N   0  0  0  0  0
   71.0160   46.9940    4.7090 C   0  0  0  0  0
   64.6342   46.8460    5.7675 H   0  0  0  0  0
   65.6011   48.1932    6.3768 H   0  0  0  0  0
   66.0454   43.1536    7.9414 H   0  0  0  0  0
   67.7804   43.8754    9.5066 H   0  0  0  0  0
   68.4377   46.2609    9.6043 H   0  0  0  0  0
   66.8020   48.8113    7.4487 H   0  0  0  0  0
   68.1215   48.4556    9.9723 H   0  0  0  0  0
   68.1606   49.9204    8.8689 H   0  0  0  0  0
   70.4964   49.4332   10.4131 H   0  0  0  0  0
   72.8518   48.9892    9.8560 H   0  0  0  0  0
   73.4373   47.7949    7.7857 H   0  0  0  0  0
   69.2808   47.5608    6.7600 H   0  0  0  0  0
   73.3893   45.7701    6.7704 H   0  0  0  0  0
   73.9153   44.5532    4.6765 H   0  0  0  0  0
   72.5186   44.8977    2.6932 H   0  0  0  0  0
   70.1700   47.6813    4.7140 H   0  0  0  0  0
  1  2  1  0  0  0
  2  3  4  0  0  0
  2  7  4  0  0  0
  3  4  4  0  0  0
  4  5  4  0  0  0
  5  6  4  0  0  0
  6  7  4  0  0  0
  7  8  1  0  0  0
  8  9  1  0  0  0
  9 10  1  0  0  0
 10 11  4  0  0  0
 10 15  4  0  0  0
 11 12  4  0  0  0
 12 13  4  0  0  0
 13 14  4  0  0  0
 14 15  4  0  0  0
 14 16  1  0  0  0
 16 17  4  0  0  0
 16 21  4  0  0  0
 17 18  4  0  0  0
 18 19  4  0  0  0
 19 20  4  0  0  0
 20 21  4  0  0  0
  1 22  1  0  0  0
  1 23  1  0  0  0
  4 24  1  0  0  0
  5 25  1  0  0  0
  6 26  1  0  0  0
  8 27  1  0  0  0
  9 28  1  0  0  0
  9 29  1  0  0  0
 11 30  1  0  0  0
 12 31  1  0  0  0
 13 32  1  0  0  0
 15 33  1  0  0  0
 17 34  1  0  0  0
 18 35  1  0  0  0
 19 36  1  0  0  0
 21 37  1  0  0  0
M  END
$$$$
