5hz8_ligand
  -I-interpret- 

 45 48  0  0  0  0  0  0  0  0999 V2000
    6.2980   -8.5760  -17.5050 N   0  0  0  0  0
    7.6780   -8.9840  -17.8660 C   0  0  0  0  0
    8.4900   -9.1710  -16.6120 C   0  0  0  0  0
    7.8700  -10.0360  -15.6110 C   0  0  0  0  0
    6.4250   -9.7810  -15.4280 C   0  0  0  0  0
    5.7020   -9.6450  -16.7040 C   0  0  0  0  0
    3.9210   -6.8120  -23.1130 C   0  0  0  0  0
    5.1780   -7.4530  -23.2640 C   0  0  0  0  0
    5.8280   -7.9090  -22.1470 C   0  0  0  0  0
    3.3750   -6.6080  -21.8840 C   0  0  0  0  0
    4.0540   -7.0500  -20.7210 C   0  0  0  0  0
    5.3160   -7.6990  -20.8600 C   0  0  0  0  0
    6.0080   -8.2150  -19.8110 N   0  0  0  0  0
    5.5470   -8.0660  -18.5870 C   0  0  0  0  0
    4.2740   -7.4070  -18.3340 C   0  0  0  0  0
    3.5710   -6.8860  -19.4100 C   0  0  0  0  0
    7.3120   -8.7500  -22.3470 Cl  0  0  0  0  0
    3.0800   -6.3250  -24.5320 Cl  0  0  0  0  0
    3.8850   -7.1120  -16.9570 C   0  0  0  0  0
    2.9850   -7.8780  -16.3600 O   0  0  0  0  0
    4.2710   -6.1010  -16.4180 O   0  0  0  0  0
    2.3310   -6.1250  -19.1790 C   0  0  0  0  0
    2.3290   -4.7350  -19.4360 C   0  0  0  0  0
    0.0250   -4.5700  -18.6990 C   0  0  0  0  0
   -0.0040   -5.9510  -18.4490 C   0  0  0  0  0
    1.1840   -3.9810  -19.2260 C   0  0  0  0  0
    1.1730   -6.7140  -18.6500 C   0  0  0  0  0
    8.1357   -8.2111  -18.4835 H   0  0  0  0  0
    7.6463   -9.9212  -18.4216 H   0  0  0  0  0
    8.6039   -8.1873  -16.1565 H   0  0  0  0  0
    9.4265   -9.6447  -16.9064 H   0  0  0  0  0
    8.3614   -9.8401  -14.6580 H   0  0  0  0  0
    7.9813  -11.0652  -15.9521 H   0  0  0  0  0
    6.3184   -8.8431  -14.8829 H   0  0  0  0  0
    6.0014  -10.6316  -14.8939 H   0  0  0  0  0
    5.7659  -10.5837  -17.2543 H   0  0  0  0  0
    4.6589   -9.4022  -16.5011 H   0  0  0  0  0
    5.6194   -7.5806  -24.2524 H   0  0  0  0  0
    2.4131   -6.1034  -21.7933 H   0  0  0  0  0
    2.7896   -8.6344  -16.9179 H   0  0  0  0  0
    3.2348   -4.2517  -19.8022 H   0  0  0  0  0
   -0.8504   -3.9571  -18.4843 H   0  0  0  0  0
   -0.9203   -6.4304  -18.1046 H   0  0  0  0  0
    1.1847   -2.9194  -19.4731 H   0  0  0  0  0
    1.1786   -7.7726  -18.3901 H   0  0  0  0  0
  1  2  1  0  0  0
  1  6  1  0  0  0
 14  1  1  0  0  0
  2  3  1  0  0  0
  3  4  1  0  0  0
  5  4  1  0  0  0
  6  5  1  0  0  0
  7  8  4  0  0  0
 10  7  4  0  0  0
  7 18  1  0  0  0
  9  8  4  0  0  0
 12  9  4  0  0  0
  9 17  1  0  0  0
 11 10  4  0  0  0
 11 12  4  0  0  0
 16 11  4  0  0  0
 12 13  4  0  0  0
 14 13  4  0  0  0
 15 14  4  0  0  0
 16 15  4  0  0  0
 15 19  1  0  0  0
 22 16  1  0  0  0
 19 20  1  0  0  0
 19 21  2  0  0  0
 23 22  4  0  0  0
 22 27  4  0  0  0
 26 23  4  0  0  0
 24 25  4  0  0  0
 24 26  4  0  0  0
 25 27  4  0  0  0
  2 28  1  0  0  0
  2 29  1  0  0  0
  3 30  1  0  0  0
  3 31  1  0  0  0
  4 32  1  0  0  0
  4 33  1  0  0  0
  5 34  1  0  0  0
  5 35  1  0  0  0
  6 36  1  0  0  0
  6 37  1  0  0  0
  8 38  1  0  0  0
 10 39  1  0  0  0
 20 40  1  0  0  0
 23 41  1  0  0  0
 24 42  1  0  0  0
 25 43  1  0  0  0
 26 44  1  0  0  0
 27 45  1  0  0  0
M  END
$$$$
