1juj_ligand
  -I-interpret- 

 51 53  0  0  0  0  0  0  0  0999 V2000
  -43.2240  -49.5530    3.6100 C   0  0  0  0  0
  -41.8100  -49.5780    3.4990 C   0  0  0  0  0
  -41.0650  -48.3700    3.6010 C   0  0  0  0  0
  -41.7200  -47.1000    3.8230 C   0  0  0  0  0
  -43.1380  -47.1140    3.9270 C   0  0  0  0  0
  -43.8790  -48.3100    3.8270 C   0  0  0  0  0
  -44.0360  -50.8660    3.5120 C   0  0  0  0  0
  -44.7080  -51.1660    2.1410 C   0  0  0  0  0
  -46.0890  -50.5260    2.0040 C   0  0  0  0  0
  -47.1920  -50.7660    2.8260 C   0  0  0  0  0
  -48.2910  -50.0040    2.4180 N   0  0  0  0  0
  -47.8810  -49.2770    1.3280 C   0  0  0  0  0
  -46.5220  -49.6080    1.0780 C   0  0  0  0  0
  -45.8010  -48.9190   -0.1210 C   0  0  0  0  0
  -44.6450  -49.1200   -0.4390 O   0  0  0  0  0
  -46.5480  -48.0350   -0.8460 N   0  0  0  0  0
  -47.9280  -47.7410   -0.5350 C   0  0  0  0  0
  -48.5370  -48.3140    0.4620 N   0  0  0  0  0
  -48.6050  -46.8440   -1.3060 N   0  0  0  0  0
  -41.0100  -45.7490    3.9590 C   0  0  0  0  0
  -41.6630  -44.7190    4.1540 O   0  0  0  0  0
  -39.6680  -45.7370    3.8750 N   0  0  0  0  0
  -38.7770  -44.5470    4.0060 C   0  0  0  0  0
  -38.0680  -44.4820    5.3950 C   0  0  0  0  0
  -38.9820  -44.2170    6.6360 C   0  0  0  0  0
  -38.3050  -44.1650    8.0130 C   0  0  0  0  0
  -37.1980  -43.5880    8.1380 O   0  0  0  0  0
  -38.8800  -44.7040    8.9860 O   0  0  0  0  0
  -37.7740  -44.5180    2.7860 C   0  0  0  0  0
  -37.5120  -43.4480    2.1570 O   0  0  0  0  0
  -37.2190  -45.6100    2.4630 O   0  0  0  0  0
  -41.2935  -50.5238    3.3354 H   0  0  0  0  0
  -39.9793  -48.4025    3.5100 H   0  0  0  0  0
  -43.6669  -46.1747    4.0884 H   0  0  0  0  0
  -44.9649  -48.2809    3.9170 H   0  0  0  0  0
  -44.8486  -50.7729    4.2325 H   0  0  0  0  0
  -43.3248  -51.6742    3.6828 H   0  0  0  0  0
  -44.8316  -52.2459    2.0596 H   0  0  0  0  0
  -44.0702  -50.7527    1.3597 H   0  0  0  0  0
  -47.1957  -51.4542    3.6713 H   0  0  0  0  0
  -46.1140  -47.5631   -1.6393 H   0  0  0  0  0
  -49.5800  -46.6273   -1.0992 H   0  0  0  0  0
  -48.1367  -46.3894   -2.0898 H   0  0  0  0  0
  -39.2122  -46.6334    3.7042 H   0  0  0  0  0
  -39.3818  -43.6409    3.9694 H   0  0  0  0  0
  -37.3798  -43.6384    5.3424 H   0  0  0  0  0
  -37.6240  -45.4649    5.5526 H   0  0  0  0  0
  -39.6720  -45.0597    6.6788 H   0  0  0  0  0
  -39.4097  -43.2265    6.4806 H   0  0  0  0  0
  -36.9216  -43.2405    7.2868 H   0  0  0  0  0
  -38.0183  -42.7246    2.5337 H   0  0  0  0  0
  1  2  4  0  0  0
  1  6  4  0  0  0
  1  7  1  0  0  0
  2  3  4  0  0  0
  3  4  4  0  0  0
  4  5  4  0  0  0
  4 20  1  0  0  0
  5  6  4  0  0  0
  7  8  1  0  0  0
  8  9  1  0  0  0
  9 10  4  0  0  0
  9 13  4  0  0  0
 10 11  4  0  0  0
 11 12  4  0  0  0
 12 13  4  0  0  0
 12 18  1  0  0  0
 13 14  1  0  0  0
 14 15  2  0  0  0
 14 16  1  0  0  0
 16 17  1  0  0  0
 17 18  2  0  0  0
 17 19  1  0  0  0
 20 21  2  0  0  0
 20 22  1  0  0  0
 22 23  1  0  0  0
 23 24  1  0  0  0
 23 29  1  0  0  0
 24 25  1  0  0  0
 25 26  1  0  0  0
 26 27  1  0  0  0
 26 28  2  0  0  0
 29 30  1  0  0  0
 29 31  2  0  0  0
  2 32  1  0  0  0
  3 33  1  0  0  0
  5 34  1  0  0  0
  6 35  1  0  0  0
  7 36  1  0  0  0
  7 37  1  0  0  0
  8 38  1  0  0  0
  8 39  1  0  0  0
 10 40  1  0  0  0
 16 41  1  0  0  0
 19 42  1  0  0  0
 19 43  1  0  0  0
 22 44  1  0  0  0
 23 45  1  0  0  0
 24 46  1  0  0  0
 24 47  1  0  0  0
 25 48  1  0  0  0
 25 49  1  0  0  0
 27 50  1  0  0  0
 30 51  1  0  0  0
M  END
$$$$
