2yi5_ligand
  -I-interpret- 

 39 41  0  0  0  0  0  0  0  0999 V2000
    2.0290   33.2530    7.1110 N   0  0  0  0  0
    2.2330   32.9080    5.9290 N   0  0  0  0  0
    1.7750   33.7170    4.9430 C   0  0  0  0  0
    0.8550   34.6420    5.4720 C   0  0  0  0  0
    1.7970   33.3460    3.5880 C   0  0  0  0  0
    0.2650   35.7280    4.8310 C   0  0  0  0  0
   -0.8150   36.4200    5.3540 C   0  0  0  0  0
   -1.3190   37.5410    4.6900 C   0  0  0  0  0
   -0.6640   38.0390    3.5610 C   0  0  0  0  0
    0.4680   37.3940    3.0910 C   0  0  0  0  0
    0.9390   36.2690    3.7470 C   0  0  0  0  0
    2.9590   32.8810    2.9690 C   0  0  0  0  0
    2.9710   32.4880    1.6210 C   0  0  0  0  0
    1.7770   32.3400    0.9280 C   0  0  0  0  0
    0.5790   32.6500    1.5870 C   0  0  0  0  0
    0.5870   33.1140    2.9160 C   0  0  0  0  0
    1.7690   31.8950   -0.3720 O   0  0  0  0  0
    4.1380   33.0700    3.6080 O   0  0  0  0  0
   -1.0810   39.1480    2.8910 O   0  0  0  0  0
    1.0890   34.6350    7.1500 S   0  0  0  0  0
   -1.6540   40.0970    3.8060 C   0  0  0  0  0
   -0.9200   32.4330    0.7220 Cl  0  0  0  0  0
   -2.6580   37.8870    6.5900 C   0  0  0  0  0
   -2.4350   38.1480    5.1770 O   0  0  0  0  0
    2.6166   34.2894    4.5530 H   0  0  0  0  0
   -0.1084   34.3308    5.0681 H   0  0  0  0  0
   -1.2728   36.0890    6.2862 H   0  0  0  0  0
    0.9858   37.7702    2.2087 H   0  0  0  0  0
    1.8602   35.7984    3.4034 H   0  0  0  0  0
    3.9192   32.2988    1.1178 H   0  0  0  0  0
   -0.3575   33.2952    3.4290 H   0  0  0  0  0
    0.8639   31.8541   -0.6895 H   0  0  0  0  0
    4.8503   32.7060    3.0772 H   0  0  0  0  0
   -2.5070   39.6436    4.3109 H   0  0  0  0  0
   -0.9054   40.3863    4.5435 H   0  0  0  0  0
   -1.9826   40.9782    3.2550 H   0  0  0  0  0
   -2.7707   36.8142    6.7466 H   0  0  0  0  0
   -1.8065   38.2519    7.1644 H   0  0  0  0  0
   -3.5634   38.4000    6.9145 H   0  0  0  0  0
  1  2  2  0  0  0
  1 20  1  0  0  0
  2  3  1  0  0  0
  3  4  1  0  0  0
  3  5  1  0  0  0
  4  6  1  0  0  0
  4 20  1  0  0  0
  5 12  4  0  0  0
  5 16  4  0  0  0
  6  7  4  0  0  0
  6 11  4  0  0  0
  7  8  4  0  0  0
  8  9  4  0  0  0
  8 24  1  0  0  0
  9 10  4  0  0  0
  9 19  1  0  0  0
 10 11  4  0  0  0
 12 13  4  0  0  0
 12 18  1  0  0  0
 13 14  4  0  0  0
 14 15  4  0  0  0
 14 17  1  0  0  0
 15 16  4  0  0  0
 15 22  1  0  0  0
 19 21  1  0  0  0
 24 23  1  0  0  0
  3 25  1  0  0  0
  4 26  1  0  0  0
  7 27  1  0  0  0
 10 28  1  0  0  0
 11 29  1  0  0  0
 13 30  1  0  0  0
 16 31  1  0  0  0
 17 32  1  0  0  0
 18 33  1  0  0  0
 21 34  1  0  0  0
 21 35  1  0  0  0
 21 36  1  0  0  0
 23 37  1  0  0  0
 23 38  1  0  0  0
 23 39  1  0  0  0
M  END
$$$$
