4xm7_ligand
  -I-interpret- 

 50 50  0  0  0  0  0  0  0  0999 V2000
   11.0250   19.7030   27.5870 C   0  0  0  0  0
   11.9110   19.6050   28.7930 C   0  0  0  0  0
    5.3540   24.6600   27.8830 C   0  0  0  0  0
   13.6490   20.3900   30.0700 O   0  0  0  0  0
    9.6610   20.0530   27.9510 N   0  0  0  0  0
   12.2960   17.7320   26.6870 C   0  0  0  0  0
   10.1260   18.4180   25.6240 C   0  0  0  0  0
    8.8370   22.3930   27.3840 C   0  0  0  0  0
    7.6840   23.1680   27.4240 C   0  0  0  0  0
    7.7670   24.5210   27.7330 C   0  0  0  0  0
    8.9970   25.0970   28.0010 C   0  0  0  0  0
   10.1510   24.3230   27.9620 C   0  0  0  0  0
   10.0720   22.9710   27.6540 C   0  0  0  0  0
    6.6310   25.2850   27.7710 O   0  0  0  0  0
    8.5270   20.7800   29.8940 C   0  0  0  0  0
    9.2450   19.5910   29.2670 C   0  0  0  0  0
   10.9170   18.3340   26.9240 C   0  0  0  0  0
   12.8770   20.5110   28.9800 N   0  0  0  0  0
   11.7780   18.5590   29.7950 O   0  0  0  0  0
    8.7420   20.8400   27.0300 S   0  0  0  0  0
    7.3900   20.3910   27.2050 O   0  0  0  0  0
    9.1420   20.6360   25.6660 O   0  0  0  0  0
    9.0750   26.4060   28.2990 F   0  0  0  0  0
    7.3110   20.3250   30.6910 C   0  0  0  0  0
    9.4760   21.5950   30.7640 C   0  0  0  0  0
   11.4631   20.4606   26.9372 H   0  0  0  0  0
    5.1987   23.9984   27.0308 H   0  0  0  0  0
    5.3138   24.0813   28.8058 H   0  0  0  0  0
    4.5769   25.4242   27.8977 H   0  0  0  0  0
   14.2965   21.0987   30.0824 H   0  0  0  0  0
   12.1871   16.7274   26.2782 H   0  0  0  0  0
   12.8467   18.3548   25.9820 H   0  0  0  0  0
   12.8375   17.6845   27.6318 H   0  0  0  0  0
   10.6639   19.0449   24.9128 H   0  0  0  0  0
   10.0043   17.4175   25.2089 H   0  0  0  0  0
    9.1461   18.8515   25.8238 H   0  0  0  0  0
    6.7151   22.7153   27.2132 H   0  0  0  0  0
   11.1189   24.7776   28.1734 H   0  0  0  0  0
   10.9770   22.3642   27.6241 H   0  0  0  0  0
    8.1772   21.4234   29.0866 H   0  0  0  0  0
   10.0946   19.2689   29.8691 H   0  0  0  0  0
    8.5974   18.7166   29.2020 H   0  0  0  0  0
   10.3763   17.6744   27.6027 H   0  0  0  0  0
   13.0220   21.2702   28.3144 H   0  0  0  0  0
    6.6175   19.8065   30.0290 H   0  0  0  0  0
    7.6304   19.6502   31.4852 H   0  0  0  0  0
    6.8181   21.1939   31.1271 H   0  0  0  0  0
    9.8690   20.9636   31.5609 H   0  0  0  0  0
   10.2991   21.9657   30.1530 H   0  0  0  0  0
    8.9364   22.4366   31.1983 H   0  0  0  0  0
  1  2  1  0  0  0
  5  1  1  0  0  0
  1 17  1  0  0  0
  2 18  1  0  0  0
  2 19  2  0  0  0
 14  3  1  0  0  0
 18  4  1  0  0  0
  5 16  1  0  0  0
 20  5  1  0  0  0
 17  6  1  0  0  0
 17  7  1  0  0  0
  9  8  4  0  0  0
  8 13  4  0  0  0
  8 20  1  0  0  0
 10  9  4  0  0  0
 10 11  4  0  0  0
 10 14  1  0  0  0
 11 12  4  0  0  0
 11 23  1  0  0  0
 12 13  4  0  0  0
 16 15  1  0  0  0
 15 24  1  0  0  0
 15 25  1  0  0  0
 20 21  2  0  0  0
 20 22  2  0  0  0
  1 26  1  0  0  0
  3 27  1  0  0  0
  3 28  1  0  0  0
  3 29  1  0  0  0
  4 30  1  0  0  0
  6 31  1  0  0  0
  6 32  1  0  0  0
  6 33  1  0  0  0
  7 34  1  0  0  0
  7 35  1  0  0  0
  7 36  1  0  0  0
  9 37  1  0  0  0
 12 38  1  0  0  0
 13 39  1  0  0  0
 15 40  1  0  0  0
 16 41  1  0  0  0
 16 42  1  0  0  0
 17 43  1  0  0  0
 18 44  1  0  0  0
 24 45  1  0  0  0
 24 46  1  0  0  0
 24 47  1  0  0  0
 25 48  1  0  0  0
 25 49  1  0  0  0
 25 50  1  0  0  0
M  END
$$$$
