3t4v_ligand
  -I-interpret- 

 38 39  0  0  0  0  0  0  0  0999 V2000
   -1.7340    5.2050    6.3600 C   0  0  0  0  0
   -3.3650    0.5850    1.0330 N   0  0  0  0  0
   -1.5000   -1.2090    1.8320 O   0  0  0  0  0
   -3.0860    3.9080    0.1400 S   0  0  0  0  0
   -2.1510   -0.6860    2.7790 C   0  0  0  0  0
   -4.1270    0.0620   -1.4300 O   0  0  0  0  0
   -3.2460    0.2300    2.4010 C   0  0  0  0  0
   -4.7060    2.1220   -1.7700 O   0  0  0  0  0
   -4.3950    1.4060    0.4960 C   0  0  0  0  0
   -4.0120    0.6340    3.2280 O   0  0  0  0  0
   -4.4070    1.1960   -0.9840 C   0  0  0  0  0
   -1.9180   -0.9550    3.9970 O   0  0  0  0  0
   -4.3410    2.8650    0.8490 C   0  0  0  0  0
   -2.6680    4.9440    1.5220 C   0  0  0  0  0
   -2.0630    4.3640    2.7620 C   0  0  0  0  0
   -1.3280    3.1830    2.7080 C   0  0  0  0  0
   -0.7400    2.6940    3.8680 C   0  0  0  0  0
   -0.8740    3.3530    5.0910 C   0  0  0  0  0
   -2.1910    5.0380    3.9700 C   0  0  0  0  0
   -1.5940    4.5390    5.1390 C   0  0  0  0  0
   -0.2890    2.8320    6.2630 C   0  0  0  0  0
   -0.4140    3.5120    7.4730 C   0  0  0  0  0
   -1.1550    4.7010    7.5180 C   0  0  0  0  0
   -2.3052    6.1323    6.4042 H   0  0  0  0  0
   -2.6614    0.2257    0.3878 H   0  0  0  0  0
   -4.8913    2.9190   -1.2680 H   0  0  0  0  0
   -5.3277    1.0914    0.9642 H   0  0  0  0  0
   -2.5191   -0.4555    4.5545 H   0  0  0  0  0
   -5.2785    3.2714    0.4696 H   0  0  0  0  0
   -4.1331    2.8784    1.9189 H   0  0  0  0  0
   -3.6268    5.3409    1.8554 H   0  0  0  0  0
   -1.8934    5.6050    1.1332 H   0  0  0  0  0
   -1.2150    2.6474    1.7654 H   0  0  0  0  0
   -0.1595    1.7726    3.8217 H   0  0  0  0  0
   -2.7619    5.9656    4.0109 H   0  0  0  0  0
    0.2635    1.8933    6.2226 H   0  0  0  0  0
    0.0594    3.1235    8.3747 H   0  0  0  0  0
   -1.2771    5.2308    8.4627 H   0  0  0  0  0
 20  1  4  0  0  0
  1 23  4  0  0  0
  2  7  1  0  0  0
  9  2  1  0  0  0
  5  3  2  0  0  0
  4 13  1  0  0  0
 14  4  1  0  0  0
  7  5  1  0  0  0
  5 12  1  0  0  0
 11  6  2  0  0  0
  7 10  2  0  0  0
 11  8  1  0  0  0
  9 11  1  0  0  0
 13  9  1  0  0  0
 15 14  1  0  0  0
 16 15  4  0  0  0
 15 19  4  0  0  0
 17 16  4  0  0  0
 18 17  4  0  0  0
 18 20  4  0  0  0
 18 21  4  0  0  0
 19 20  4  0  0  0
 21 22  4  0  0  0
 22 23  4  0  0  0
  1 24  1  0  0  0
  2 25  1  0  0  0
  8 26  1  0  0  0
  9 27  1  0  0  0
 12 28  1  0  0  0
 13 29  1  0  0  0
 13 30  1  0  0  0
 14 31  1  0  0  0
 14 32  1  0  0  0
 16 33  1  0  0  0
 17 34  1  0  0  0
 19 35  1  0  0  0
 21 36  1  0  0  0
 22 37  1  0  0  0
 23 38  1  0  0  0
M  END
$$$$
