3s56_ligand
  -I-interpret- 

100104  0  0  0  0  0  0  0  0999 V2000
    5.9410    7.4990   41.2560 C   0  0  0  0  0
    5.9960    6.3410   41.5470 O   0  0  0  0  0
    6.9990    9.5440   40.7250 N   0  0  0  0  0
    7.1880    8.2990   41.1580 C   0  0  0  0  0
    8.4550    7.8340   41.5270 C   0  0  0  0  0
    9.5130    8.7640   41.4070 C   0  0  0  0  0
   10.3130   11.0140   40.7460 C   0  0  0  0  0
   10.0010   12.2950   40.2500 C   0  0  0  0  0
    8.6970   12.6290   39.9080 C   0  0  0  0  0
    7.6890   11.6870   40.0600 C   0  0  0  0  0
    9.2780   10.0650   40.9250 C   0  0  0  0  0
    7.9780   10.4370   40.5970 C   0  0  0  0  0
    4.7650    8.1640   41.0830 N   0  0  0  0  0
    3.5260    7.3740   41.1560 C   0  0  0  0  0
    2.6910    7.7850   39.8990 C   0  0  0  0  0
    2.0820    8.8920   39.8120 O   0  0  0  0  0
    2.7660    7.8540   42.3470 C   0  0  0  0  0
    3.5820    7.5720   43.6370 C   0  0  0  0  0
    4.2090    8.5190   44.1900 O   0  0  0  0  0
    3.5860    6.3680   44.0280 N   0  0  0  0  0
    0.9560    5.8740   37.6430 C   0  0  0  0  0
    1.4750    4.5270   37.4700 O   0  0  0  0  0
    1.9870    6.9990   37.6630 C   0  0  0  0  0
    2.7210    6.8610   38.9580 N   0  0  0  0  0
    2.9990    6.7490   36.5280 C   0  0  0  0  0
    4.2480    7.5510   36.7820 C   0  0  0  0  0
    4.2930    8.9070   36.5500 C   0  0  0  0  0
    5.4010    6.8550   37.1920 C   0  0  0  0  0
    5.4820    9.6440   36.8670 C   0  0  0  0  0
    6.5410    7.5420   37.4580 C   0  0  0  0  0
    6.6300    8.9470   37.2380 C   0  0  0  0  0
   -1.0890    7.0120   36.8900 N   0  3  0  0  0
   -0.0480    6.0370   36.5160 C   0  0  0  0  0
   -1.6970    7.7940   35.8130 C   0  0  0  0  0
   -0.6760    8.4060   34.9250 C   0  0  0  0  0
    0.2610    9.1230   35.3690 O   0  0  0  0  0
   -2.5590    8.9100   36.4270 C   0  0  0  0  0
   -3.7000    8.3100   37.3380 C   0  0  0  0  0
   -4.6520    9.3580   37.9330 C   0  0  0  0  0
   -3.8790   10.3080   38.8740 C   0  0  0  0  0
   -3.1770    9.4130   39.9410 C   0  0  0  0  0
   -2.2860    8.2630   39.3320 C   0  0  0  0  0
   -3.1500    7.3570   38.3480 C   0  0  0  0  0
   -2.2210    6.3460   37.6800 C   0  0  0  0  0
   -0.9350    8.1440   33.6290 N   0  0  0  0  0
   -0.0900    8.6800   32.5650 C   0  0  0  0  0
   -0.6800    8.1950   31.1560 C   0  0  0  0  0
    1.2960    8.1610   32.6720 C   0  0  0  0  0
   -0.0360   10.2170   32.6380 C   0  0  0  0  0
    8.6164    6.8172   41.8850 H   0  0  0  0  0
   10.5232    8.4696   41.6914 H   0  0  0  0  0
   11.3434   10.7555   40.9901 H   0  0  0  0  0
   10.7936   13.0340   40.1330 H   0  0  0  0  0
    8.4671   13.6226   39.5234 H   0  0  0  0  0
    6.6696   11.9272   39.7581 H   0  0  0  0  0
    4.7441    9.1690   40.9099 H   0  0  0  0  0
    3.7181    6.3024   41.2087 H   0  0  0  0  0
    1.8116    7.3304   42.4016 H   0  0  0  0  0
    2.5923    8.9263   42.2566 H   0  0  0  0  0
    4.1260    6.1009   44.8510 H   0  0  0  0  0
    3.0492    5.6650   43.5200 H   0  0  0  0  0
    0.5207    5.9701   38.6377 H   0  0  0  0  0
    0.7465    3.9018   37.4721 H   0  0  0  0  0
    1.5211    7.9777   37.5479 H   0  0  0  0  0
    3.2686    6.0160   39.1210 H   0  0  0  0  0
    2.5603    7.0519   35.5773 H   0  0  0  0  0
    3.2495    5.6888   36.4921 H   0  0  0  0  0
    3.4285    9.4187   36.1271 H   0  0  0  0  0
    5.3784    5.7701   37.2953 H   0  0  0  0  0
    5.4874   10.7329   36.8184 H   0  0  0  0  0
    7.4070    7.0074   37.8483 H   0  0  0  0  0
    7.5801    9.4677   37.3579 H   0  0  0  0  0
   -0.5580    7.6772   37.4520 H   0  0  0  0  0
   -0.5188    5.0739   36.3187 H   0  0  0  0  0
    0.4715    6.3963   35.6277 H   0  0  0  0  0
   -2.3047    7.1183   35.2112 H   0  0  0  0  0
   -3.0200    9.4790   35.6197 H   0  0  0  0  0
   -1.9210    9.5462   37.0404 H   0  0  0  0  0
   -4.3426    7.7312   36.6745 H   0  0  0  0  0
   -5.4317    8.8501   38.5007 H   0  0  0  0  0
   -5.0935    9.9392   37.1235 H   0  0  0  0  0
   -4.5558   11.0183   39.3488 H   0  0  0  0  0
   -3.1473   10.8937   38.3175 H   0  0  0  0  0
   -3.9617    8.9361   40.5283 H   0  0  0  0  0
   -2.5175   10.0592   40.5203 H   0  0  0  0  0
   -1.9026    7.6429   40.1423 H   0  0  0  0  0
   -1.4622    8.7085   38.7744 H   0  0  0  0  0
   -3.9438    6.8045   38.8507 H   0  0  0  0  0
   -1.7688    5.7389   38.4643 H   0  0  0  0  0
   -2.8151    5.7577   36.9807 H   0  0  0  0  0
   -1.7358    7.5607   33.3865 H   0  0  0  0  0
   -0.6802    7.1056   31.1192 H   0  0  0  0  0
   -1.6996    8.5638   31.0442 H   0  0  0  0  0
   -0.0601    8.5869   30.3497 H   0  0  0  0  0
    1.7183    8.4520   33.6338 H   0  0  0  0  0
    1.2826    7.0739   32.5936 H   0  0  0  0  0
    1.9016    8.5772   31.8670 H   0  0  0  0  0
   -1.0426   10.6203   32.5273 H   0  0  0  0  0
    0.3741   10.5195   33.6016 H   0  0  0  0  0
    0.5986   10.5955   31.8367 H   0  0  0  0  0
  1  2  2  0  0  0
  1  4  1  0  0  0
 13  1  1  0  0  0
  4  3  4  0  0  0
  3 12  4  0  0  0
  4  5  4  0  0  0
  5  6  4  0  0  0
  6 11  4  0  0  0
  7  8  4  0  0  0
 11  7  4  0  0  0
  9  8  4  0  0  0
 10  9  4  0  0  0
 12 10  4  0  0  0
 12 11  4  0  0  0
 14 13  1  0  0  0
 15 14  1  0  0  0
 14 17  1  0  0  0
 15 16  2  0  0  0
 24 15  1  0  0  0
 17 18  1  0  0  0
 18 19  2  0  0  0
 18 20  1  0  0  0
 21 22  1  0  0  0
 23 21  1  0  0  0
 21 33  1  0  0  0
 23 24  1  0  0  0
 23 25  1  0  0  0
 25 26  1  0  0  0
 26 27  4  0  0  0
 26 28  4  0  0  0
 27 29  4  0  0  0
 28 30  4  0  0  0
 29 31  4  0  0  0
 30 31  4  0  0  0
 33 32  1  0  0  0
 32 34  1  0  0  0
 32 44  1  0  0  0
 34 35  1  0  0  0
 34 37  1  0  0  0
 35 36  2  0  0  0
 35 45  1  0  0  0
 37 38  1  0  0  0
 38 39  1  0  0  0
 38 43  1  0  0  0
 39 40  1  0  0  0
 40 41  1  0  0  0
 41 42  1  0  0  0
 42 43  1  0  0  0
 43 44  1  0  0  0
 45 46  1  0  0  0
 46 47  1  0  0  0
 46 48  1  0  0  0
 46 49  1  0  0  0
  5 50  1  0  0  0
  6 51  1  0  0  0
  7 52  1  0  0  0
  8 53  1  0  0  0
  9 54  1  0  0  0
 10 55  1  0  0  0
 13 56  1  0  0  0
 14 57  1  0  0  0
 17 58  1  0  0  0
 17 59  1  0  0  0
 20 60  1  0  0  0
 20 61  1  0  0  0
 21 62  1  0  0  0
 22 63  1  0  0  0
 23 64  1  0  0  0
 24 65  1  0  0  0
 25 66  1  0  0  0
 25 67  1  0  0  0
 27 68  1  0  0  0
 28 69  1  0  0  0
 29 70  1  0  0  0
 30 71  1  0  0  0
 31 72  1  0  0  0
 32 73  1  0  0  0
 33 74  1  0  0  0
 33 75  1  0  0  0
 34 76  1  0  0  0
 37 77  1  0  0  0
 37 78  1  0  0  0
 38 79  1  0  0  0
 39 80  1  0  0  0
 39 81  1  0  0  0
 40 82  1  0  0  0
 40 83  1  0  0  0
 41 84  1  0  0  0
 41 85  1  0  0  0
 42 86  1  0  0  0
 42 87  1  0  0  0
 43 88  1  0  0  0
 44 89  1  0  0  0
 44 90  1  0  0  0
 45 91  1  0  0  0
 47 92  1  0  0  0
 47 93  1  0  0  0
 47 94  1  0  0  0
 48 95  1  0  0  0
 48 96  1  0  0  0
 48 97  1  0  0  0
 49 98  1  0  0  0
 49 99  1  0  0  0
 49100  1  0  0  0
M  END
$$$$
