3vbq_ligand
  -I-interpret- 

 50 53  0  0  0  0  0  0  0  0999 V2000
  -23.7340  -36.8950    2.6490 C   0  0  0  0  0
  -23.3650  -34.4490    2.5990 C   0  0  0  0  0
  -22.6470  -32.1290    2.8120 C   0  0  0  0  0
  -21.4800  -31.3880    1.0980 C   0  0  0  0  0
  -22.4730  -33.5340   -3.4880 C   0  0  0  0  0
  -21.2850  -32.7990   -4.1430 C   0  0  0  0  0
  -22.4380  -30.6290   -3.2610 C   0  0  0  0  0
  -23.7140  -32.6230   -3.5420 C   0  0  0  0  0
  -23.2080  -31.9970    3.9200 O   0  0  0  0  0
  -22.0150  -31.0440    2.2900 N   0  0  0  0  0
  -20.8640  -30.6360    0.3570 O   0  0  0  0  0
  -21.8560  -33.0740    0.6120 S   0  0  0  0  0
  -22.6580  -33.3370    2.0960 C   0  0  0  0  0
  -23.4990  -35.7170    1.8790 C   0  0  0  0  0
  -23.4200  -35.7650    0.4940 C   0  0  0  0  0
  -23.9150  -38.0910    1.9400 C   0  0  0  0  0
  -23.8370  -38.1350    0.5240 C   0  0  0  0  0
  -23.5760  -36.9990   -0.2370 C   0  0  0  0  0
  -23.5750  -36.9990   -1.6770 C   0  0  0  0  0
  -23.2190  -35.8760   -2.3550 N   0  0  0  0  0
  -23.8960  -38.1150   -2.4630 C   0  0  0  0  0
  -23.8870  -38.0650   -3.8300 N   0  0  0  0  0
  -23.5090  -36.9050   -4.5460 C   0  0  0  0  0
  -23.1810  -35.8300   -3.7130 C   0  0  0  0  0
  -22.8310  -34.7090   -4.2780 N   0  0  0  0  0
  -21.1210  -31.4780   -3.3340 C   0  0  0  0  0
  -22.3060  -29.3900   -2.4670 N   0  3  0  0  0
  -23.3730  -31.4830   -2.5650 C   0  0  0  0  0
  -23.7711  -36.8665    3.7380 H   0  0  0  0  0
  -23.8375  -34.3596    3.5772 H   0  0  0  0  0
  -22.1875  -33.8016   -2.4707 H   0  0  0  0  0
  -21.4687  -32.6020   -5.1992 H   0  0  0  0  0
  -20.3768  -33.4011   -4.1156 H   0  0  0  0  0
  -22.7294  -30.3254   -4.2665 H   0  0  0  0  0
  -24.6279  -33.1485   -3.2649 H   0  0  0  0  0
  -23.9197  -32.2599   -4.5490 H   0  0  0  0  0
  -21.9549  -30.1237    2.7258 H   0  0  0  0  0
  -23.2347  -34.8433   -0.0575 H   0  0  0  0  0
  -24.1206  -39.0093    2.4900 H   0  0  0  0  0
  -23.9861  -39.0879    0.0163 H   0  0  0  0  0
  -24.1606  -39.0504   -1.9699 H   0  0  0  0  0
  -23.4766  -36.8540   -5.6343 H   0  0  0  0  0
  -22.8065  -34.6509   -5.2960 H   0  0  0  0  0
  -20.3667  -30.8739   -3.8382 H   0  0  0  0  0
  -20.8454  -31.7476   -2.3145 H   0  0  0  0  0
  -23.1966  -28.8929   -2.4642 H   0  0  0  0  0
  -22.0446  -29.6271   -1.5100 H   0  0  0  0  0
  -21.5859  -28.7977   -2.8806 H   0  0  0  0  0
  -24.2674  -30.9332   -2.2719 H   0  0  0  0  0
  -22.9425  -31.8699   -1.6414 H   0  0  0  0  0
 14  1  4  0  0  0
 16  1  4  0  0  0
  2 13  2  0  0  0
 14  2  1  0  0  0
  3  9  2  0  0  0
  3 10  1  0  0  0
 13  3  1  0  0  0
  4 10  1  0  0  0
  4 11  2  0  0  0
 12  4  1  0  0  0
  5  6  1  0  0  0
  5  8  1  0  0  0
 25  5  1  0  0  0
  6 26  1  0  0  0
 26  7  1  0  0  0
  7 27  1  0  0  0
 28  7  1  0  0  0
  8 28  1  0  0  0
 13 12  1  0  0  0
 15 14  4  0  0  0
 18 15  4  0  0  0
 17 16  4  0  0  0
 18 17  4  0  0  0
 19 18  1  0  0  0
 20 19  4  0  0  0
 19 21  4  0  0  0
 24 20  4  0  0  0
 22 21  4  0  0  0
 23 22  4  0  0  0
 24 23  4  0  0  0
 24 25  1  0  0  0
  1 29  1  0  0  0
  2 30  1  0  0  0
  5 31  1  0  0  0
  6 32  1  0  0  0
  6 33  1  0  0  0
  7 34  1  0  0  0
  8 35  1  0  0  0
  8 36  1  0  0  0
 10 37  1  0  0  0
 15 38  1  0  0  0
 16 39  1  0  0  0
 17 40  1  0  0  0
 21 41  1  0  0  0
 23 42  1  0  0  0
 25 43  1  0  0  0
 26 44  1  0  0  0
 26 45  1  0  0  0
 27 46  1  0  0  0
 27 47  1  0  0  0
 27 48  1  0  0  0
 28 49  1  0  0  0
 28 50  1  0  0  0
M  END
$$$$
