3u9c_ligand
  -I-interpret- 

 25 27  0  0  0  0  0  0  0  0999 V2000
   47.1010   -2.1770   43.1530 O   0  0  0  0  0
   45.1650   -4.9940   39.7680 O   0  0  0  0  0
   47.0150   -4.0860   37.8800 N   0  0  0  0  0
   43.1090   -7.8660   36.5080 O   0  0  0  0  0
   48.0040   -2.6470   39.6150 C   0  0  0  0  0
   48.0160   -2.1780   40.9280 C   0  0  0  0  0
   47.0790   -2.6470   41.8590 C   0  0  0  0  0
   46.1270   -3.5870   41.4700 C   0  0  0  0  0
   46.1110   -4.0700   40.1240 C   0  0  0  0  0
   47.0300   -3.6090   39.2170 C   0  0  0  0  0
   46.0240   -5.0430   37.5390 C   0  0  0  0  0
   45.1280   -5.4720   38.4850 C   0  0  0  0  0
   44.1300   -6.4350   38.1390 C   0  0  0  0  0
   44.0690   -6.9380   36.8400 C   0  0  0  0  0
   44.9860   -6.5000   35.8740 C   0  0  0  0  0
   45.9610   -5.5590   36.2100 C   0  0  0  0  0
   46.3991   -2.5960   43.6564 H   0  0  0  0  0
   47.6901   -3.7539   37.1913 H   0  0  0  0  0
   43.2043   -8.1066   35.5835 H   0  0  0  0  0
   48.7362   -2.2797   38.8959 H   0  0  0  0  0
   48.7594   -1.4413   41.2327 H   0  0  0  0  0
   45.3957   -3.9536   42.1903 H   0  0  0  0  0
   43.4173   -6.7758   38.8900 H   0  0  0  0  0
   44.9376   -6.8948   34.8592 H   0  0  0  0  0
   46.6732   -5.2189   35.4582 H   0  0  0  0  0
  7  1  1  0  0  0
  2  9  1  0  0  0
 12  2  1  0  0  0
  3 10  1  0  0  0
 11  3  1  0  0  0
 14  4  1  0  0  0
  5  6  4  0  0  0
 10  5  4  0  0  0
  7  6  4  0  0  0
  8  7  4  0  0  0
  9  8  4  0  0  0
  9 10  4  0  0  0
 12 11  4  0  0  0
 11 16  4  0  0  0
 13 12  4  0  0  0
 13 14  4  0  0  0
 14 15  4  0  0  0
 15 16  4  0  0  0
  1 17  1  0  0  0
  3 18  1  0  0  0
  4 19  1  0  0  0
  5 20  1  0  0  0
  6 21  1  0  0  0
  8 22  1  0  0  0
 13 23  1  0  0  0
 15 24  1  0  0  0
 16 25  1  0  0  0
M  END
$$$$
