4rfr_ligand
  -I-interpret- 

 31 33  0  0  0  0  0  0  0  0999 V2000
   -4.3940    2.4690   -1.4880 O   0  0  0  0  0
   -2.0430    5.0570    2.1620 O   0  0  0  0  0
   -1.4710    0.5190    5.0400 O   0  0  0  0  0
   -4.3020    0.3140   -1.4270 O   0  0  0  0  0
   -0.6980    1.7670    7.0300 O   0  0  0  0  0
   -3.0470   -0.7210    3.2980 O   0  0  0  0  0
   -1.2850    5.2770    6.2920 C   0  0  0  0  0
   -0.9370    4.1190    6.9710 C   0  0  0  0  0
   -1.7030    5.2040    4.9590 C   0  0  0  0  0
   -3.5020    0.3860    1.3010 C   0  0  0  0  0
   -3.0630    2.7070    1.0500 C   0  0  0  0  0
   -4.0960    1.4230   -0.8770 C   0  0  0  0  0
   -3.5060    1.5060    0.5050 C   0  0  0  0  0
   -0.9960    2.8910    6.3220 C   0  0  0  0  0
   -2.9170    0.4000    2.5600 C   0  0  0  0  0
   -2.0980    3.9270    2.9420 C   0  0  0  0  0
   -1.5760    1.6400    4.2810 C   0  0  0  0  0
   -1.7100    3.9880    4.2820 C   0  0  0  0  0
   -2.5340    2.7460    2.3500 C   0  0  0  0  0
   -1.4910    2.8190    5.0110 C   0  0  0  0  0
   -2.3740    1.5680    3.0880 C   0  0  0  0  0
   -2.3411    4.8464    1.2741 H   0  0  0  0  0
   -1.5376   -0.2552    4.4763 H   0  0  0  0  0
   -4.0238   -0.3908   -0.8376 H   0  0  0  0  0
   -0.7796    0.9995    6.4591 H   0  0  0  0  0
   -2.6075   -0.5994    4.1428 H   0  0  0  0  0
   -1.2329    6.2421    6.7959 H   0  0  0  0  0
   -0.6177    4.1715    8.0119 H   0  0  0  0  0
   -2.0267    6.1091    4.4451 H   0  0  0  0  0
   -3.9667   -0.5304    0.9373 H   0  0  0  0  0
   -3.1270    3.6238    0.4639 H   0  0  0  0  0
 12  1  2  0  0  0
 16  2  1  0  0  0
 17  3  1  0  0  0
 12  4  1  0  0  0
 14  5  1  0  0  0
 15  6  1  0  0  0
  8  7  4  0  0  0
  7  9  4  0  0  0
 14  8  4  0  0  0
  9 18  4  0  0  0
 13 10  4  0  0  0
 10 15  4  0  0  0
 11 13  4  0  0  0
 19 11  4  0  0  0
 13 12  1  0  0  0
 20 14  4  0  0  0
 15 21  4  0  0  0
 18 16  4  0  0  0
 16 19  4  0  0  0
 17 20  4  0  0  0
 17 21  4  0  0  0
 18 20  4  0  0  0
 19 21  4  0  0  0
  2 22  1  0  0  0
  3 23  1  0  0  0
  4 24  1  0  0  0
  5 25  1  0  0  0
  6 26  1  0  0  0
  7 27  1  0  0  0
  8 28  1  0  0  0
  9 29  1  0  0  0
 10 30  1  0  0  0
 11 31  1  0  0  0
M  END
$$$$
