1mrx_ligand
  -I-interpret- 

 74 76  0  0  0  0  0  0  0  0999 V2000
   10.8540   17.8030   18.9150 C   0  0  0  0  0
   10.8460   18.4860   17.6850 C   0  0  0  0  0
   11.9030   19.3690   17.3700 C   0  0  0  0  0
   12.9890   19.5810   18.2850 C   0  0  0  0  0
   12.9970   18.8820   19.5480 C   0  0  0  0  0
   11.9130   17.9960   19.8320 C   0  0  0  0  0
   14.1020   19.0350   20.5900 C   0  0  0  0  0
   14.0800   20.5240   17.8970 C   0  0  0  0  0
   13.7210   21.7790   17.5260 N   0  0  0  0  0
   14.6400   22.8260   17.0820 C   0  0  0  0  0
   14.3450   23.5460   15.7420 C   0  0  0  0  0
   14.7910   24.0120   18.0640 C   0  0  0  0  0
   16.1510   24.7410   18.2180 C   0  0  0  0  0
   17.2660   24.0940   18.7350 N   0  0  0  0  0
   18.5740   24.7910   18.6420 C   0  0  0  0  0
   19.5090   24.1940   19.7340 C   0  0  0  0  0
   19.0750   22.4510   19.8340 S   0  0  0  0  0
   17.3560   22.7620   19.3800 C   0  0  0  0  0
   14.1540   22.5370   14.6290 C   0  0  0  0  0
   15.2790   22.3390   13.7900 C   0  0  0  0  0
   15.2400   21.4220   12.7100 C   0  0  0  0  0
   14.0490   20.6920   12.4740 C   0  0  0  0  0
   12.9140   20.8770   13.3040 C   0  0  0  0  0
   12.9640   21.8000   14.3820 C   0  0  0  0  0
   13.6730   24.4750   18.7440 O   0  0  0  0  0
   16.1730   25.8630   17.7130 O   0  0  0  0  0
   19.2230   24.8250   21.1090 C   0  0  0  0  0
   21.0220   24.3140   19.4160 C   0  0  0  0  0
   19.0320   24.6000   17.1560 C   0  0  0  0  0
   19.5710   25.7230   16.5970 N   0  0  0  0  0
   20.0920   25.8960   15.2210 C   0  0  0  0  0
   18.8890   23.5170   16.5900 O   0  0  0  0  0
   11.8860   17.3100   21.0240 O   0  0  0  0  0
   15.2680   20.1750   17.8920 O   0  0  0  0  0
   20.5710   27.3550   15.1520 C   0  0  0  0  0
   18.9750   25.6600   14.1830 C   0  0  0  0  0
   21.2910   24.9600   14.9330 C   0  0  0  0  0
   10.0399   17.1217   19.1623 H   0  0  0  0  0
   10.0292   18.3348   16.9793 H   0  0  0  0  0
   11.8939   19.8978   16.4169 H   0  0  0  0  0
   15.0543   18.7315   20.1551 H   0  0  0  0  0
   14.1606   20.0768   20.9053 H   0  0  0  0  0
   13.8773   18.4056   21.4511 H   0  0  0  0  0
   12.7283   22.0110   17.5596 H   0  0  0  0  0
   15.5240   22.1947   16.9918 H   0  0  0  0  0
   15.1873   24.1919   15.4940 H   0  0  0  0  0
   13.4327   24.1329   15.8485 H   0  0  0  0  0
   15.2328   23.3824   18.8363 H   0  0  0  0  0
   18.5606   25.8619   18.8446 H   0  0  0  0  0
   17.0114   21.9928   18.6889 H   0  0  0  0  0
   16.7287   22.7398   20.2711 H   0  0  0  0  0
   16.1923   22.9031   13.9791 H   0  0  0  0  0
   16.1120   21.2807   12.0715 H   0  0  0  0  0
   14.0046   19.9824   11.6478 H   0  0  0  0  0
   12.0025   20.3102   13.1143 H   0  0  0  0  0
   12.0912   21.9431   15.0190 H   0  0  0  0  0
   13.9252   25.2077   19.3106 H   0  0  0  0  0
   18.1657   24.7093   21.3476 H   0  0  0  0  0
   19.8249   24.3261   21.8686 H   0  0  0  0  0
   19.4766   25.8847   21.0809 H   0  0  0  0  0
   21.5975   23.8340   20.2075 H   0  0  0  0  0
   21.2319   23.8250   18.4647 H   0  0  0  0  0
   21.2963   25.3670   19.3530 H   0  0  0  0  0
   19.6211   26.5435   17.2009 H   0  0  0  0  0
   12.6620   17.5383   21.5410 H   0  0  0  0  0
   19.7315   28.0214   15.3498 H   0  0  0  0  0
   21.3485   27.5165   15.8986 H   0  0  0  0  0
   20.9715   27.5580   14.1588 H   0  0  0  0  0
   18.5895   24.6461   14.2902 H   0  0  0  0  0
   18.1697   26.3757   14.3487 H   0  0  0  0  0
   19.3795   25.7921   13.1795 H   0  0  0  0  0
   22.0974   25.1788   15.6330 H   0  0  0  0  0
   20.9771   23.9228   15.0509 H   0  0  0  0  0
   21.6397   25.1217   13.9130 H   0  0  0  0  0
  1  2  4  0  0  0
  1  6  4  0  0  0
  2  3  4  0  0  0
  3  4  4  0  0  0
  4  5  4  0  0  0
  4  8  1  0  0  0
  5  6  4  0  0  0
  5  7  1  0  0  0
  6 33  1  0  0  0
  8  9  1  0  0  0
  8 34  2  0  0  0
  9 10  1  0  0  0
 10 11  1  0  0  0
 10 12  1  0  0  0
 11 19  1  0  0  0
 12 13  1  0  0  0
 12 25  1  0  0  0
 13 14  1  0  0  0
 13 26  2  0  0  0
 14 15  1  0  0  0
 14 18  1  0  0  0
 15 16  1  0  0  0
 15 29  1  0  0  0
 16 17  1  0  0  0
 16 27  1  0  0  0
 16 28  1  0  0  0
 17 18  1  0  0  0
 19 20  4  0  0  0
 19 24  4  0  0  0
 20 21  4  0  0  0
 21 22  4  0  0  0
 22 23  4  0  0  0
 23 24  4  0  0  0
 29 30  1  0  0  0
 29 32  2  0  0  0
 30 31  1  0  0  0
 31 35  1  0  0  0
 31 36  1  0  0  0
 31 37  1  0  0  0
  1 38  1  0  0  0
  2 39  1  0  0  0
  3 40  1  0  0  0
  7 41  1  0  0  0
  7 42  1  0  0  0
  7 43  1  0  0  0
  9 44  1  0  0  0
 10 45  1  0  0  0
 11 46  1  0  0  0
 11 47  1  0  0  0
 12 48  1  0  0  0
 15 49  1  0  0  0
 18 50  1  0  0  0
 18 51  1  0  0  0
 20 52  1  0  0  0
 21 53  1  0  0  0
 22 54  1  0  0  0
 23 55  1  0  0  0
 24 56  1  0  0  0
 25 57  1  0  0  0
 27 58  1  0  0  0
 27 59  1  0  0  0
 27 60  1  0  0  0
 28 61  1  0  0  0
 28 62  1  0  0  0
 28 63  1  0  0  0
 30 64  1  0  0  0
 33 65  1  0  0  0
 35 66  1  0  0  0
 35 67  1  0  0  0
 35 68  1  0  0  0
 36 69  1  0  0  0
 36 70  1  0  0  0
 36 71  1  0  0  0
 37 72  1  0  0  0
 37 73  1  0  0  0
 37 74  1  0  0  0
M  END
$$$$
