1g98_ligand
  -I-interpret- 

 26 25  0  0  0  0  0  0  0  0999 V2000
   13.8520    9.7460   28.4480 O   0  0  0  0  0
   14.8530   10.4270   28.9870 C   0  0  0  0  0
   15.2550   11.4550   28.4560 O   0  0  0  0  0
   15.2620    9.6400   30.2750 C   0  0  0  0  0
   14.5510    8.4270   30.6060 O   0  0  0  0  0
   16.7350    9.2390   29.9410 C   0  0  0  0  0
   16.7520    8.3060   28.8820 O   0  0  0  0  0
   17.3870    8.4810   31.1480 C   0  0  0  0  0
   17.3890    9.4260   32.2260 O   0  0  0  0  0
   18.8390    8.1100   30.7400 C   0  0  0  0  0
   19.4830    9.4260   30.4310 O   0  0  0  0  0
   21.0060    9.1200   29.9410 P   0  0  0  0  0
   21.7690    8.3250   31.0230 O   0  0  0  0  0
   20.9980    8.2320   28.7070 O   0  0  0  0  0
   21.6260   10.4930   29.6350 O   0  0  0  0  0
   13.6652    8.9736   28.9867 H   0  0  0  0  0
   15.0602   10.2738   31.1386 H   0  0  0  0  0
   13.6389    8.6395   30.8171 H   0  0  0  0  0
   17.2678   10.1586   29.6991 H   0  0  0  0  0
   16.3636    8.7045   28.0997 H   0  0  0  0  0
   16.8620    7.5688   31.4314 H   0  0  0  0  0
   16.4840    9.6417   32.4626 H   0  0  0  0  0
   18.8654    7.4299   29.8886 H   0  0  0  0  0
   19.3628    7.5718   31.5300 H   0  0  0  0  0
   21.8057    8.8413   31.8315 H   0  0  0  0  0
   21.6178   11.0309   30.4301 H   0  0  0  0  0
  1  2  1  0  0  0
  2  4  1  0  0  0
  2  3  2  0  0  0
  4  6  1  0  0  0
  4  5  1  0  0  0
  6  8  1  0  0  0
  6  7  1  0  0  0
  8 10  1  0  0  0
  8  9  1  0  0  0
 10 11  1  0  0  0
 11 12  1  0  0  0
 12 15  1  0  0  0
 12 14  2  0  0  0
 12 13  1  0  0  0
  1 16  1  0  0  0
  4 17  1  0  0  0
  5 18  1  0  0  0
  6 19  1  0  0  0
  7 20  1  0  0  0
  8 21  1  0  0  0
  9 22  1  0  0  0
 10 23  1  0  0  0
 10 24  1  0  0  0
 13 25  1  0  0  0
 15 26  1  0  0  0
M  END
$$$$
