1x0n_ligand
  -I-interpret- 

 94 98  0  0  0  0  0  0  0  0999 V2000
   20.3270  -10.7830   -8.4540 C   0  0  0  0  0
   21.1480   -9.6480   -8.3740 C   0  0  0  0  0
   21.8310   -9.3390   -7.2050 C   0  0  0  0  0
   21.7360  -10.1730   -6.0990 C   0  0  0  0  0
   20.9400  -11.3100   -6.1350 C   0  0  0  0  0
   20.2170  -11.6260   -7.2890 C   0  0  0  0  0
   19.3920  -12.7460   -7.3230 C   0  0  0  0  0
   18.6920  -13.0680   -8.4770 C   0  0  0  0  0
   18.8020  -12.2770   -9.6130 C   0  0  0  0  0
   19.6040  -11.1300   -9.6230 C   0  0  0  0  0
   19.6930  -10.3540  -10.9680 C   0  0  0  0  0
   19.0930   -8.9040  -10.9630 C   0  0  0  0  0
   17.5830   -8.9700  -11.3410 C   0  0  0  0  0
   16.8340   -7.6620  -11.5150 C   0  0  0  0  0
   15.8970   -7.4800  -12.4530 C   0  0  0  0  0
   20.0230   -7.9340  -11.7690 C   0  0  0  0  0
   19.7950   -6.4800  -11.5650 N   0  0  0  0  0
   19.9520   -5.8460  -10.3810 C   0  0  0  0  0
   20.4060   -6.4330   -9.3950 O   0  0  0  0  0
   19.5830   -4.3150  -10.2710 C   0  0  0  0  0
   19.1510   -3.8090   -8.8630 C   0  0  0  0  0
   17.9990   -4.5400   -8.1590 C   0  0  0  0  0
   16.8240   -4.3060   -8.4130 O   0  0  0  0  0
   18.2950   -5.4240   -7.2440 N   0  0  0  0  0
   18.5380   -3.8080  -11.2130 N   0  0  0  0  0
   18.7720   -2.8870  -12.1670 C   0  0  0  0  0
   19.9060   -2.4130  -12.2970 O   0  0  0  0  0
   17.5550   -2.3690  -13.0720 C   0  0  0  0  0
   18.0840   -1.7780  -14.4330 C   0  0  0  0  0
   17.1090   -0.8940  -15.2600 C   0  0  0  0  0
   16.3750    0.1660  -14.4040 C   0  0  0  0  0
   15.7830   -0.3890  -13.0900 C   0  0  0  0  0
   16.8380   -1.2070  -12.2890 C   0  0  0  0  0
   16.4490   -3.3570  -13.3220 N   0  0  0  0  0
   16.6020   -4.5860  -13.8140 C   0  0  0  0  0
   17.6800   -5.0500  -14.1780 O   0  0  0  0  0
   15.3160   -5.4140  -13.8580 C   0  0  0  0  0
   15.0110   -6.2400  -12.5710 C   0  0  0  0  0
   13.5180   -6.6650  -12.4720 C   0  0  0  0  0
   12.7800   -6.3450  -11.3230 C   0  0  0  0  0
   11.4570   -6.7620  -11.1920 C   0  0  0  0  0
   12.8850   -7.3810  -13.5020 C   0  0  0  0  0
   11.5660   -7.7970  -13.3700 C   0  0  0  0  0
   10.8520   -7.5050  -12.2070 C   0  0  0  0  0
    9.4310   -8.0440  -12.0290 C   0  0  0  0  0
    8.4080   -7.8840  -13.4290 P   0  0  0  0  0
    8.9080   -8.8090  -14.5570 O   0  0  0  0  0
    8.3710   -6.4360  -13.9700 O   0  0  0  0  0
    6.9240   -8.3120  -13.0460 O   0  0  0  0  0
   21.2514   -8.9985   -9.2432 H   0  0  0  0  0
   22.4436   -8.4388   -7.1556 H   0  0  0  0  0
   22.2922   -9.9326   -5.1929 H   0  0  0  0  0
   20.8786  -11.9582   -5.2608 H   0  0  0  0  0
   19.2950  -13.3743   -6.4376 H   0  0  0  0  0
   18.0505  -13.9491   -8.4919 H   0  0  0  0  0
   18.2538  -12.5544  -10.5133 H   0  0  0  0  0
   19.1106  -10.9249  -11.6912 H   0  0  0  0  0
   20.7545  -10.2464  -11.1909 H   0  0  0  0  0
   19.0843   -8.4510   -9.9716 H   0  0  0  0  0
   17.0973   -9.4720  -10.5042 H   0  0  0  0  0
   17.5503   -9.4538  -12.3172 H   0  0  0  0  0
   17.0695   -6.8340  -10.8464 H   0  0  0  0  0
   15.7553   -8.2739  -13.1863 H   0  0  0  0  0
   19.8219   -8.1273  -12.8227 H   0  0  0  0  0
   21.0383   -8.1326  -11.4256 H   0  0  0  0  0
   19.5015   -5.9250  -12.3689 H   0  0  0  0  0
   20.5596   -3.9127  -10.5401 H   0  0  0  0  0
   18.7964   -2.7899   -9.0174 H   0  0  0  0  0
   20.0211   -3.9549   -8.2229 H   0  0  0  0  0
   17.5502   -5.9131   -6.7475 H   0  0  0  0  0
   19.2709   -5.6252   -7.0260 H   0  0  0  0  0
   17.5927   -4.1817  -11.1279 H   0  0  0  0  0
   18.3022   -2.6410  -15.0621 H   0  0  0  0  0
   18.9156   -1.1260  -14.1657 H   0  0  0  0  0
   16.3541   -1.5501  -15.6933 H   0  0  0  0  0
   17.6972   -0.3646  -16.0096 H   0  0  0  0  0
   15.5437    0.5436  -14.9994 H   0  0  0  0  0
   17.1072    0.9267  -14.1331 H   0  0  0  0  0
   14.9508   -1.0480  -13.3377 H   0  0  0  0  0
   15.4587    0.4510  -12.4757 H   0  0  0  0  0
   17.6199   -0.5021  -12.0064 H   0  0  0  0  0
   16.2983   -1.6799  -11.4686 H   0  0  0  0  0
   15.4996   -3.0608  -13.0954 H   0  0  0  0  0
   15.4349   -6.1324  -14.6691 H   0  0  0  0  0
   14.4942   -4.7081  -13.9779 H   0  0  0  0  0
   15.2346   -5.5683  -11.7422 H   0  0  0  0  0
   13.2454   -5.7652  -10.5259 H   0  0  0  0  0
   10.8931   -6.5074  -10.2947 H   0  0  0  0  0
   13.4346   -7.6125  -14.4143 H   0  0  0  0  0
   11.0878   -8.3527  -14.1766 H   0  0  0  0  0
    8.9693   -7.4615  -11.2317 H   0  0  0  0  0
    9.5208   -9.1106  -11.8231 H   0  0  0  0  0
    8.0613   -5.8454  -13.2794 H   0  0  0  0  0
    6.5994   -7.7436  -12.3437 H   0  0  0  0  0
  1  2  4  0  0  0
  1  6  4  0  0  0
  1 10  4  0  0  0
  2  3  4  0  0  0
  3  4  4  0  0  0
  4  5  4  0  0  0
  5  6  4  0  0  0
  6  7  4  0  0  0
  7  8  4  0  0  0
  8  9  4  0  0  0
  9 10  4  0  0  0
 10 11  1  0  0  0
 11 12  1  0  0  0
 12 13  1  0  0  0
 12 16  1  0  0  0
 13 14  1  0  0  0
 14 15  2  0  0  0
 15 38  1  0  0  0
 16 17  1  0  0  0
 17 18  1  0  0  0
 18 19  2  0  0  0
 18 20  1  0  0  0
 20 21  1  0  0  0
 20 25  1  0  0  0
 21 22  1  0  0  0
 22 23  2  0  0  0
 22 24  1  0  0  0
 25 26  1  0  0  0
 26 27  2  0  0  0
 26 28  1  0  0  0
 28 29  1  0  0  0
 28 33  1  0  0  0
 28 34  1  0  0  0
 29 30  1  0  0  0
 30 31  1  0  0  0
 31 32  1  0  0  0
 32 33  1  0  0  0
 34 35  1  0  0  0
 35 36  2  0  0  0
 35 37  1  0  0  0
 37 38  1  0  0  0
 38 39  1  0  0  0
 39 40  4  0  0  0
 39 42  4  0  0  0
 40 41  4  0  0  0
 41 44  4  0  0  0
 42 43  4  0  0  0
 43 44  4  0  0  0
 44 45  1  0  0  0
 45 46  1  0  0  0
 46 47  2  0  0  0
 46 48  1  0  0  0
 46 49  1  0  0  0
  2 50  1  0  0  0
  3 51  1  0  0  0
  4 52  1  0  0  0
  5 53  1  0  0  0
  7 54  1  0  0  0
  8 55  1  0  0  0
  9 56  1  0  0  0
 11 57  1  0  0  0
 11 58  1  0  0  0
 12 59  1  0  0  0
 13 60  1  0  0  0
 13 61  1  0  0  0
 14 62  1  0  0  0
 15 63  1  0  0  0
 16 64  1  0  0  0
 16 65  1  0  0  0
 17 66  1  0  0  0
 20 67  1  0  0  0
 21 68  1  0  0  0
 21 69  1  0  0  0
 24 70  1  0  0  0
 24 71  1  0  0  0
 25 72  1  0  0  0
 29 73  1  0  0  0
 29 74  1  0  0  0
 30 75  1  0  0  0
 30 76  1  0  0  0
 31 77  1  0  0  0
 31 78  1  0  0  0
 32 79  1  0  0  0
 32 80  1  0  0  0
 33 81  1  0  0  0
 33 82  1  0  0  0
 34 83  1  0  0  0
 37 84  1  0  0  0
 37 85  1  0  0  0
 38 86  1  0  0  0
 40 87  1  0  0  0
 41 88  1  0  0  0
 42 89  1  0  0  0
 43 90  1  0  0  0
 45 91  1  0  0  0
 45 92  1  0  0  0
 48 93  1  0  0  0
 49 94  1  0  0  0
M  END
$$$$
