### 
### Created by X-TOOL on Mon Sep 10 21:12:53 2018
### 

@<TRIPOS>MOLECULE
1x0n_ligand
   92    96     1     0     0
SMALL
GAST_HUCK


@<TRIPOS>ATOM
      1 CBR        20.3270  -10.7830   -8.4540 C.ar      1 DTF        -0.0121
      2 CAU        21.1480   -9.6480   -8.3740 C.ar      1 DTF        -0.0548
      3 CAL        21.8310   -9.3390   -7.2050 C.ar      1 DTF        -0.0625
      4 CAK        21.7360  -10.1730   -6.0990 C.ar      1 DTF        -0.0629
      5 CAS        20.9400  -11.3100   -6.1350 C.ar      1 DTF        -0.0569
      6 CBQ        20.2170  -11.6260   -7.2890 C.ar      1 DTF        -0.0243
      7 CAT        19.3920  -12.7460   -7.3230 C.ar      1 DTF        -0.0631
      8 CAM        18.6920  -13.0680   -8.4770 C.ar      1 DTF        -0.0707
      9 CAP        18.8020  -12.2770   -9.6130 C.ar      1 DTF        -0.0607
     10 CBP        19.6040  -11.1300   -9.6230 C.ar      1 DTF        -0.0319
     11 CBE        19.6930  -10.3540  -10.9680 C.3       1 DTF        -0.0106
     12 CBT        19.0930   -8.9040  -10.9630 C.3       1 DTF        -0.0037
     13 CAY        17.5830   -8.9700  -11.3410 C.3       1 DTF        -0.0292
     14 CAI        16.8340   -7.6620  -11.5150 C.2       1 DTF        -0.0955
     15 CAJ        15.8970   -7.4800  -12.4530 C.2       1 DTF        -0.0832
     16 CBB        20.0230   -7.9340  -11.7690 C.3       1 DTF         0.0373
     17 NBG        19.7950   -6.4800  -11.5650 N.am      1 DTF        -0.2843
     18 C          19.9520   -5.8460  -10.3810 C.2       1 DTF         0.2042
     19 O          20.4060   -6.4330   -9.3950 O.2       1 DTF        -0.3943
     20 CA         19.5830   -4.3150  -10.2710 C.3       1 DTF         0.1476
     21 CB         19.1510   -3.8090   -8.8630 C.3       1 DTF         0.0774
     22 CG         17.9990   -4.5400   -8.1590 C.2       1 DTF         0.1781
     23 OD1        16.8240   -4.3060   -8.4130 O.2       1 DTF        -0.3970
     24 ND2        18.2950   -5.4240   -7.2440 N.am      1 DTF        -0.3007
     25 N          18.5380   -3.8080  -11.2130 N.am      1 DTF        -0.2608
     26 CBM        18.7720   -2.8870  -12.1670 C.2       1 DTF         0.2267
     27 OAE        19.9060   -2.4130  -12.2970 O.2       1 DTF        -0.3419
     28 CBV        17.5550   -2.3690  -13.0720 C.3       1 DTF         0.1330
     29 CAZ        18.0840   -1.7780  -14.4330 C.3       1 DTF        -0.0199
     30 CAW        17.1090   -0.8940  -15.2600 C.3       1 DTF        -0.0516
     31 CAV        16.3750    0.1660  -14.4040 C.3       1 DTF        -0.0532
     32 CAX        15.7830   -0.3890  -13.0900 C.3       1 DTF        -0.0516
     33 CBA        16.8380   -1.2070  -12.2890 C.3       1 DTF        -0.0199
     34 NBI        16.4490   -3.3570  -13.3220 N.am      1 DTF        -0.2756
     35 CBK        16.6020   -4.5860  -13.8140 C.2       1 DTF         0.1791
     36 OAC        17.6800   -5.0500  -14.1780 O.2       1 DTF        -0.3969
     37 CBC        15.3160   -5.4140  -13.8580 C.3       1 DTF         0.0549
     38 CBS        15.0110   -6.2400  -12.5710 C.3       1 DTF         0.0223
     39 CBO        13.5180   -6.6650  -12.4720 C.ar      1 DTF        -0.0368
     40 CAR        12.7800   -6.3450  -11.3230 C.ar      1 DTF        -0.0648
     41 CAO        11.4570   -6.7620  -11.1920 C.ar      1 DTF        -0.0652
     42 CAQ        12.8850   -7.3810  -13.5020 C.ar      1 DTF        -0.0648
     43 CAN        11.5660   -7.7970  -13.3700 C.ar      1 DTF        -0.0652
     44 CBN        10.8520   -7.5050  -12.2070 C.ar      1 DTF        -0.0333
     45 CBF         9.4310   -8.0440  -12.0290 C.3       1 DTF         0.0499
     46 PBW         8.4080   -7.8840  -13.4290 P.3       1 DTF         0.0688
     47 OAG         8.9080   -8.8090  -14.5570 O.co2     1 DTF        -0.5608
     48 OAH         8.3710   -6.4360  -13.9700 O.co2     1 DTF        -0.5608
     49 OAF         6.9240   -8.3120  -13.0460 O.co2     1 DTF        -0.5608
     50 H1         21.2508   -9.0020   -9.2384 H         1 DTF         0.0628
     51 H2         22.4403   -8.4438   -7.1558 H         1 DTF         0.0601
     52 H3         22.2891   -9.9339   -5.1979 H         1 DTF         0.0616
     53 H4         20.8790  -11.9546   -5.2656 H         1 DTF         0.0609
     54 H5         19.2955  -13.3709   -6.4425 H         1 DTF         0.0542
     55 H6         18.0540  -13.9443   -8.4918 H         1 DTF         0.0595
     56 H7         18.2568  -12.5529  -10.5084 H         1 DTF         0.0530
     57 H8         19.1567  -10.9381  -11.7304 H         1 DTF         0.0443
     58 H9         20.7551  -10.2784  -11.2440 H         1 DTF         0.0443
     59 H10        19.1222   -8.5422   -9.9246 H         1 DTF         0.0364
     60 H11        17.0720   -9.5365  -10.5486 H         1 DTF         0.0395
     61 H12        17.5074   -9.5189  -12.2912 H         1 DTF         0.0395
     62 H13        17.0693   -6.8347  -10.8470 H         1 DTF         0.0460
     63 H14        15.7554   -8.2732  -13.1857 H         1 DTF         0.0469
     64 H15        19.8831   -8.1479  -12.8389 H         1 DTF         0.0526
     65 H16        21.0626   -8.1531  -11.4841 H         1 DTF         0.0526
     66 H17        19.5073   -5.9359  -12.3531 H         1 DTF         0.1851
     67 H18        20.5151   -3.7881  -10.5231 H         1 DTF         0.0828
     68 H19        18.8532   -2.7556   -8.9707 H         1 DTF         0.0551
     69 H20        20.0311   -3.8760   -8.2066 H         1 DTF         0.0551
     70 H21        17.5651   -5.9155   -6.7690 H         1 DTF         0.1814
     71 H22        19.2515   -5.6092   -7.0186 H         1 DTF         0.1814
     72 H23        17.6113   -4.1744  -11.1295 H         1 DTF         0.1891
     73 H24        18.3783   -2.6265  -15.0682 H         1 DTF         0.0277
     74 H25        18.9694   -1.1666  -14.2045 H         1 DTF         0.0277
     75 H26        16.3577   -1.5462  -15.7292 H         1 DTF         0.0265
     76 H27        17.6839   -0.3756  -16.0415 H         1 DTF         0.0265
     77 H28        15.5538    0.5864  -15.0031 H         1 DTF         0.0265
     78 H29        17.0902    0.9628  -14.1519 H         1 DTF         0.0265
     79 H30        14.9312   -1.0424  -13.3297 H         1 DTF         0.0265
     80 H31        15.4374    0.4517  -12.4706 H         1 DTF         0.0265
     81 H32        17.6129   -0.5074  -11.9425 H         1 DTF         0.0277
     82 H33        16.3298   -1.6510  -11.4203 H         1 DTF         0.0277
     83 H34        15.5183   -3.0666  -13.0998 H         1 DTF         0.1838
     84 H35        15.3921   -6.1155  -14.7019 H         1 DTF         0.0546
     85 H36        14.4745   -4.7262  -14.0277 H         1 DTF         0.0546
     86 H37        15.2299   -5.5896  -11.7113 H         1 DTF         0.0594
     87 H38        13.2428   -5.7684  -10.5303 H         1 DTF         0.0543
     88 H39        10.8962   -6.5088  -10.2996 H         1 DTF         0.0540
     89 H40        13.4316   -7.6113  -14.4093 H         1 DTF         0.0543
     90 H41        11.0904   -8.3496  -14.1722 H         1 DTF         0.0540
     91 H42         8.9602   -7.4994  -11.1973 H         1 DTF         0.0601
     92 H43         9.4995   -9.1122  -11.7757 H         1 DTF         0.0601
@<TRIPOS>BOND
     1    1    2 ar 
     2    1    6 ar 
     3    1   10 ar 
     4    2    3 ar 
     5    3    4 ar 
     6    4    5 ar 
     7    5    6 ar 
     8    6    7 ar 
     9    7    8 ar 
    10    8    9 ar 
    11    9   10 ar 
    12   10   11 1  
    13   11   12 1  
    14   12   13 1  
    15   12   16 1  
    16   13   14 1  
    17   14   15 2  
    18   15   38 1  
    19   16   17 1  
    20   17   18 am 
    21   18   19 2  
    22   18   20 1  
    23   20   21 1  
    24   20   25 1  
    25   21   22 1  
    26   22   23 2  
    27   22   24 am 
    28   25   26 am 
    29   26   27 2  
    30   26   28 1  
    31   28   29 1  
    32   28   33 1  
    33   28   34 1  
    34   29   30 1  
    35   30   31 1  
    36   31   32 1  
    37   32   33 1  
    38   34   35 am 
    39   35   36 2  
    40   35   37 1  
    41   37   38 1  
    42   38   39 1  
    43   39   40 ar 
    44   39   42 ar 
    45   40   41 ar 
    46   41   44 ar 
    47   42   43 ar 
    48   43   44 ar 
    49   44   45 1  
    50   45   46 1  
    51   46   47 ar 
    52   46   48 ar 
    53   46   49 ar 
    54    2   50 1  
    55    3   51 1  
    56    4   52 1  
    57    5   53 1  
    58    7   54 1  
    59    8   55 1  
    60    9   56 1  
    61   11   57 1  
    62   11   58 1  
    63   12   59 1  
    64   13   60 1  
    65   13   61 1  
    66   14   62 1  
    67   15   63 1  
    68   16   64 1  
    69   16   65 1  
    70   17   66 1  
    71   20   67 1  
    72   21   68 1  
    73   21   69 1  
    74   24   70 1  
    75   24   71 1  
    76   25   72 1  
    77   29   73 1  
    78   29   74 1  
    79   30   75 1  
    80   30   76 1  
    81   31   77 1  
    82   31   78 1  
    83   32   79 1  
    84   32   80 1  
    85   33   81 1  
    86   33   82 1  
    87   34   83 1  
    88   37   84 1  
    89   37   85 1  
    90   38   86 1  
    91   40   87 1  
    92   41   88 1  
    93   42   89 1  
    94   43   90 1  
    95   45   91 1  
    96   45   92 1  
@<TRIPOS>SUBSTRUCTURE
     1 DTF         1

