2wa3_ligand
  -I-interpret- 

 18 18  0  0  0  0  0  0  0  0999 V2000
   22.6840   26.0610   27.7960 C   0  0  0  0  0
   22.6770   25.0670   27.0470 O   0  0  0  0  0
   23.7170   26.8100   27.8990 O   0  0  0  0  0
   21.3890   26.4540   28.5550 C   0  0  0  0  0
   20.0360   25.7500   28.4510 C   0  0  0  0  0
   18.9410   26.3420   29.0740 C   0  0  0  0  0
   17.6460   25.8150   28.9940 C   0  0  0  0  0
   17.3950   24.6550   28.2730 C   0  0  0  0  0
   18.4710   24.0420   27.6250 C   0  0  0  0  0
   19.7790   24.5890   27.7110 C   0  0  0  0  0
   16.6200   26.4460   29.6500 O   0  0  0  0  0
   21.4370   27.4510   29.2660 O   0  0  0  0  0
   23.5352   27.5206   28.5183 H   0  0  0  0  0
   19.0982   27.2548   29.6487 H   0  0  0  0  0
   16.3905   24.2358   28.2143 H   0  0  0  0  0
   18.3044   23.1332   27.0467 H   0  0  0  0  0
   20.5995   24.0951   27.1905 H   0  0  0  0  0
   15.8022   25.9665   29.4988 H   0  0  0  0  0
  1  2  2  0  0  0
  1  3  1  0  0  0
  1  4  1  0  0  0
  4  5  1  0  0  0
  4 12  2  0  0  0
  5  6  4  0  0  0
  5 10  4  0  0  0
  6  7  4  0  0  0
  7  8  4  0  0  0
  7 11  1  0  0  0
  8  9  4  0  0  0
  9 10  4  0  0  0
  3 13  1  0  0  0
  6 14  1  0  0  0
  8 15  1  0  0  0
  9 16  1  0  0  0
 10 17  1  0  0  0
 11 18  1  0  0  0
M  END
$$$$
