3s74_ligand
  -I-interpret- 

 20 21  0  0  0  0  0  0  0  0999 V2000
   32.5240   -0.2140   15.5730 N   0  0  0  0  0
   31.6050   -0.4980   14.2630 S   0  0  0  0  0
   30.9660    0.7390   14.0110 O   0  0  0  0  0
   33.1720    0.3110   11.7830 S   0  0  0  0  0
   32.6230   -0.8760   12.9220 C   0  0  0  0  0
   30.7180   -1.5830   14.5260 O   0  0  0  0  0
   33.2180   -2.1260   12.5330 C   0  0  0  0  0
   34.8370   -2.8760   10.4940 C   0  0  0  0  0
   35.5210   -2.4450    9.3540 C   0  0  0  0  0
   35.4810   -1.1170    8.9400 C   0  0  0  0  0
   34.7410   -0.2330    9.6900 C   0  0  0  0  0
   34.0460   -0.6910   10.8010 C   0  0  0  0  0
   34.0560   -1.9770   11.3010 C   0  0  0  0  0
   32.5276    0.7111   16.0026 H   0  0  0  0  0
   33.0971   -0.9609   15.9656 H   0  0  0  0  0
   33.0766   -3.0650   13.0682 H   0  0  0  0  0
   34.8972   -3.9259   10.7805 H   0  0  0  0  0
   36.0992   -3.1657    8.7758 H   0  0  0  0  0
   36.0185   -0.7882    8.0506 H   0  0  0  0  0
   34.7005    0.8206    9.4138 H   0  0  0  0  0
  2  1  1  0  0  0
  2  3  2  0  0  0
  5  2  1  0  0  0
  2  6  2  0  0  0
  5  4  4  0  0  0
  4 12  4  0  0  0
  7  5  4  0  0  0
 13  7  4  0  0  0
  8  9  4  0  0  0
  8 13  4  0  0  0
  9 10  4  0  0  0
 10 11  4  0  0  0
 11 12  4  0  0  0
 12 13  4  0  0  0
  1 14  1  0  0  0
  1 15  1  0  0  0
  7 16  1  0  0  0
  8 17  1  0  0  0
  9 18  1  0  0  0
 10 19  1  0  0  0
 11 20  1  0  0  0
M  END
$$$$
