6qr0_ligand
  -I-interpret- 

 37 40  0  0  0  0  0  0  0  0999 V2000
  -23.0700   18.0910  -11.7820 C   0  0  0  0  0
  -23.5230   20.8060  -11.1950 C   0  0  0  0  0
  -22.3640   23.4360   -9.6060 C   0  0  0  0  0
  -20.4710   24.3630   -8.4560 C   0  0  0  0  0
  -21.2130   24.2360   -9.6070 C   0  0  0  0  0
  -25.7050   20.6750  -10.6100 C   0  0  0  0  0
  -17.7530   16.5030  -12.8660 N   0  0  0  0  0
  -18.7290   17.5330  -12.6270 C   0  0  0  0  0
  -18.4920   18.8350  -12.5390 N   0  0  0  0  0
  -19.6960   19.4810  -12.2930 N   0  0  0  0  0
  -20.6540   18.6190  -12.2790 C   0  0  0  0  0
  -20.0940   17.3270  -12.4350 C   0  0  0  0  0
  -20.7350   15.9920  -12.4820 C   0  0  0  0  0
  -21.1690   14.9830  -12.5290 N   0  0  0  0  0
  -22.0670   19.0260  -11.9340 C   0  0  0  0  0
  -24.3340   18.5060  -11.3600 C   0  0  0  0  0
  -24.5500   19.8960  -11.0750 C   0  0  0  0  0
  -22.2600   20.3880  -11.6130 C   0  0  0  0  0
  -23.9900   22.0560  -10.8560 N   0  0  0  0  0
  -23.2060   23.2920  -10.8700 C   0  0  0  0  0
  -22.7290   22.7900   -8.3620 C   0  0  0  0  0
  -21.9190   22.9730   -7.2310 C   0  0  0  0  0
  -20.8610   23.7160   -7.2990 N   0  0  0  0  0
  -25.3100   21.9770  -10.5060 C   0  0  0  0  0
  -22.8772   17.0384  -11.9895 H   0  0  0  0  0
  -19.5706   24.9773   -8.4565 H   0  0  0  0  0
  -20.9075   24.7549  -10.5156 H   0  0  0  0  0
  -26.6979   20.2839  -10.3881 H   0  0  0  0  0
  -16.7705   16.7493  -12.9859 H   0  0  0  0  0
  -18.0437   15.5266  -12.9156 H   0  0  0  0  0
  -25.1445   17.7857  -11.2486 H   0  0  0  0  0
  -21.4373   21.0988  -11.6906 H   0  0  0  0  0
  -22.5360   23.2656  -11.7294 H   0  0  0  0  0
  -23.8937   24.1359  -10.9241 H   0  0  0  0  0
  -23.6228   22.1687   -8.3051 H   0  0  0  0  0
  -22.1817   22.4875   -6.2911 H   0  0  0  0  0
  -25.9390   22.8117  -10.1968 H   0  0  0  0  0
 15  1  4  0  0  0
 16  1  4  0  0  0
  2 17  4  0  0  0
  2 18  4  0  0  0
 19  2  4  0  0  0
  3  5  4  0  0  0
 20  3  1  0  0  0
  3 21  4  0  0  0
  5  4  4  0  0  0
  4 23  4  0  0  0
 17  6  4  0  0  0
  6 24  4  0  0  0
  8  7  1  0  0  0
  8  9  4  0  0  0
 12  8  4  0  0  0
 10  9  4  0  0  0
 11 10  4  0  0  0
 11 12  4  0  0  0
 15 11  1  0  0  0
 12 13  1  0  0  0
 13 14  3  0  0  0
 18 15  4  0  0  0
 17 16  4  0  0  0
 19 20  1  0  0  0
 19 24  4  0  0  0
 21 22  4  0  0  0
 22 23  4  0  0  0
  1 25  1  0  0  0
  4 26  1  0  0  0
  5 27  1  0  0  0
  6 28  1  0  0  0
  7 29  1  0  0  0
  7 30  1  0  0  0
 16 31  1  0  0  0
 18 32  1  0  0  0
 20 33  1  0  0  0
 20 34  1  0  0  0
 21 35  1  0  0  0
 22 36  1  0  0  0
 24 37  1  0  0  0
M  END
$$$$
