2y5k_ligand
  -I-interpret- 

 53 54  0  0  0  0  0  0  0  0999 V2000
   16.6550   58.9840   18.5350 S   0  0  0  0  0
   18.3840   58.7730   18.7280 C   0  0  0  0  0
   16.0970   59.9680   19.7540 N   0  0  0  0  0
   19.5360   59.9090   18.0840 S   0  0  0  0  0
   15.8220   59.5850   21.0300 C   0  0  0  0  0
   15.0190   60.5190   23.1800 C   0  0  0  0  0
   14.2000   61.7640   24.9610 C   0  0  0  0  0
   19.0280   57.7710   19.3340 C   0  0  0  0  0
   14.6430   61.6700   23.7180 N   0  0  0  0  0
   20.8830   58.9560   18.6800 C   0  0  0  0  0
   15.4180   60.5790   21.8520 N   0  0  0  0  0
   13.8110   62.9990   25.4800 N   0  0  0  0  0
   20.4100   57.8750   19.3050 C   0  0  0  0  0
   13.3370   63.9940   24.6880 C   0  0  0  0  0
   14.9370   59.3380   23.9110 C   0  0  0  0  0
   14.1100   60.6330   25.7630 C   0  0  0  0  0
   16.5320   59.7420   17.3380 O   0  0  0  0  0
   16.0790   57.7050   18.7020 O   0  0  0  0  0
   14.4760   59.3950   25.2350 C   0  0  0  0  0
   15.9600   58.4300   21.4120 O   0  0  0  0  0
   12.9920   65.0360   25.2040 O   0  0  0  0  0
   13.2610   63.8500   23.3430 N   0  0  0  0  0
   22.3510   59.3070   18.5230 C   0  0  0  0  0
   14.3920   58.2790   26.0190 O   0  0  0  0  0
   21.3280   56.8500   19.9330 C   0  0  0  0  0
   24.2230   59.5130   16.9840 O   0  0  0  0  0
   22.8150   59.2090   17.0600 C   0  0  0  0  0
   12.7790   64.9050   22.4410 C   0  0  0  0  0
   13.5380   58.3570   27.1660 C   0  0  0  0  0
   24.7280   59.8130   15.6740 C   0  0  0  0  0
   15.9470   60.9502   19.5234 H   0  0  0  0  0
   18.5091   56.9401   19.8119 H   0  0  0  0  0
   15.4043   61.5098   21.4352 H   0  0  0  0  0
   13.8850   63.1590   26.4846 H   0  0  0  0  0
   15.2254   58.3867   23.4637 H   0  0  0  0  0
   13.7579   60.7122   26.7915 H   0  0  0  0  0
   13.5539   62.9622   22.9350 H   0  0  0  0  0
   22.9348   58.6007   19.1132 H   0  0  0  0  0
   22.4928   60.3349   18.8569 H   0  0  0  0  0
   21.1213   56.7851   21.0013 H   0  0  0  0  0
   21.1574   55.8786   19.4689 H   0  0  0  0  0
   22.3646   57.1502   19.7798 H   0  0  0  0  0
   22.2553   59.9195   16.4517 H   0  0  0  0  0
   22.6396   58.1993   16.6888 H   0  0  0  0  0
   11.7528   65.1636   22.7021 H   0  0  0  0  0
   13.4138   65.7853   22.5417 H   0  0  0  0  0
   12.8141   64.5459   21.4125 H   0  0  0  0  0
   13.8863   59.1538   27.8232 H   0  0  0  0  0
   12.5183   58.5692   26.8444 H   0  0  0  0  0
   13.5617   57.4072   27.7003 H   0  0  0  0  0
   24.5647   58.9576   15.0184 H   0  0  0  0  0
   24.2061   60.6829   15.2752 H   0  0  0  0  0
   25.7952   60.0254   15.7373 H   0  0  0  0  0
  1  2  1  0  0  0
  3  1  1  0  0  0
  1 17  2  0  0  0
  1 18  2  0  0  0
  2  4  4  0  0  0
  2  8  4  0  0  0
  5  3  1  0  0  0
  4 10  4  0  0  0
 11  5  1  0  0  0
  5 20  2  0  0  0
  6  9  4  0  0  0
  6 11  1  0  0  0
  6 15  4  0  0  0
  9  7  4  0  0  0
  7 12  1  0  0  0
  7 16  4  0  0  0
  8 13  4  0  0  0
 10 13  4  0  0  0
 10 23  1  0  0  0
 12 14  1  0  0  0
 13 25  1  0  0  0
 14 21  2  0  0  0
 14 22  1  0  0  0
 15 19  4  0  0  0
 16 19  4  0  0  0
 19 24  1  0  0  0
 22 28  1  0  0  0
 23 27  1  0  0  0
 24 29  1  0  0  0
 27 26  1  0  0  0
 26 30  1  0  0  0
  3 31  1  0  0  0
  8 32  1  0  0  0
 11 33  1  0  0  0
 12 34  1  0  0  0
 15 35  1  0  0  0
 16 36  1  0  0  0
 22 37  1  0  0  0
 23 38  1  0  0  0
 23 39  1  0  0  0
 25 40  1  0  0  0
 25 41  1  0  0  0
 25 42  1  0  0  0
 27 43  1  0  0  0
 27 44  1  0  0  0
 28 45  1  0  0  0
 28 46  1  0  0  0
 28 47  1  0  0  0
 29 48  1  0  0  0
 29 49  1  0  0  0
 29 50  1  0  0  0
 30 51  1  0  0  0
 30 52  1  0  0  0
 30 53  1  0  0  0
M  END
$$$$
