6fob_ligand
  -I-interpret- 

 82 83  0  0  0  0  0  0  0  0999 V2000
   -3.1370   31.7090   32.5700 C   0  0  0  0  0
   -3.0040   32.9630   33.3270 C   0  0  0  0  0
   -2.7650   32.6940   34.7930 C   0  0  0  0  0
   -2.9050   33.9360   35.6440 C   0  0  0  0  0
   -2.6580   33.7280   37.1200 C   0  0  0  0  0
   -1.2190   34.0120   37.4380 C   0  0  0  0  0
   -0.9340   34.1440   38.9170 C   0  0  0  0  0
    0.4950   34.5360   39.1690 C   0  0  0  0  0
    5.6210   27.6470   33.8970 O   0  0  0  0  0
    5.4700   28.9470   33.3030 C   0  0  0  0  0
    6.8340   29.6200   33.3120 C   0  0  0  0  0
    4.9750   28.7540   31.8810 C   0  0  0  0  0
    4.4550   29.7160   34.1270 C   0  0  0  0  0
    4.7280   29.9920   35.5990 C   0  0  0  0  0
    3.4690   30.3910   36.3510 C   0  0  0  0  0
    2.9110   29.3190   37.2810 C   0  0  0  0  0
    1.8490   29.7890   38.2910 C   0  0  0  0  0
    2.1100   31.1120   38.9720 C   0  0  0  0  0
    1.2110   32.1630   38.8120 C   0  0  0  0  0
    3.2610   31.3270   39.7190 C   0  0  0  0  0
    3.5150   32.5650   40.2910 C   0  0  0  0  0
    2.6130   33.6030   40.1330 C   0  0  0  0  0
    1.4520   33.4150   39.3830 C   0  0  0  0  0
    0.9720   35.8210   39.1110 C   0  0  0  0  0
    0.2530   37.0400   38.8160 C   0  0  0  0  0
    0.7520   38.2430   38.4110 C   0  0  0  0  0
    2.1530   38.5520   38.0850 C   0  0  0  0  0
    2.8710   37.7380   37.3350 C   0  0  0  0  0
    2.6320   39.8520   38.6870 C   0  0  0  0  0
    3.9420   40.1160   38.2230 O   0  0  0  0  0
    1.6970   40.9890   38.2950 C   0  0  0  0  0
    0.2850   40.6980   38.7670 C   0  0  0  0  0
    0.2380   40.6170   40.1950 O   0  0  0  0  0
   -0.1960   39.3930   38.1600 C   0  0  0  0  0
   -2.2219   31.1257   32.6721 H   0  0  0  0  0
   -3.9791   31.1378   32.9608 H   0  0  0  0  0
   -3.3082   31.9375   31.5181 H   0  0  0  0  0
   -3.9287   33.5309   33.2240 H   0  0  0  0  0
   -2.1534   33.5187   32.9324 H   0  0  0  0  0
   -1.7453   32.3253   34.9039 H   0  0  0  0  0
   -3.5112   31.9732   35.1272 H   0  0  0  0  0
   -3.9363   34.2738   35.5415 H   0  0  0  0  0
   -2.1529   34.6436   35.2952 H   0  0  0  0  0
   -2.8888   32.6956   37.3826 H   0  0  0  0  0
   -3.2941   34.4041   37.6912 H   0  0  0  0  0
   -0.9656   34.9644   36.9724 H   0  0  0  0  0
   -0.6328   33.1707   37.0683 H   0  0  0  0  0
   -1.1166   33.1798   39.3915 H   0  0  0  0  0
   -1.5822   34.9190   39.3260 H   0  0  0  0  0
    4.7720   27.1990   33.9039 H   0  0  0  0  0
    7.1863   29.7104   34.3395 H   0  0  0  0  0
    7.5381   29.0189   32.7367 H   0  0  0  0  0
    6.7516   30.6113   32.8662 H   0  0  0  0  0
    5.7014   28.1645   31.3216 H   0  0  0  0  0
    4.0180   28.2325   31.8984 H   0  0  0  0  0
    4.8514   29.7270   31.4055 H   0  0  0  0  0
    3.5667   29.0843   34.1268 H   0  0  0  0  0
    4.4184   30.7027   33.6654 H   0  0  0  0  0
    5.4376   30.8169   35.6636 H   0  0  0  0  0
    5.1169   29.0786   36.0490 H   0  0  0  0  0
    2.7027   30.5891   35.6015 H   0  0  0  0  0
    3.7312   31.2454   36.9751 H   0  0  0  0  0
    3.7534   28.9552   37.8693 H   0  0  0  0  0
    2.4219   28.5837   36.6421 H   0  0  0  0  0
    1.8305   29.0394   39.0821 H   0  0  0  0  0
    0.9270   29.9169   37.7238 H   0  0  0  0  0
    0.3025   32.0061   38.2306 H   0  0  0  0  0
    3.9731   30.5134   39.8574 H   0  0  0  0  0
    4.4275   32.7208   40.8665 H   0  0  0  0  0
    2.8105   34.5699   40.5959 H   0  0  0  0  0
    2.0363   35.9387   39.3148 H   0  0  0  0  0
   -0.8297   36.9913   38.9325 H   0  0  0  0  0
    2.4276   36.8210   36.9471 H   0  0  0  0  0
    3.9076   37.9825   37.1033 H   0  0  0  0  0
    2.6373   39.7720   39.7740 H   0  0  0  0  0
    4.2540   40.9413   38.6013 H   0  0  0  0  0
    1.6952   41.0894   37.2096 H   0  0  0  0  0
    2.0443   41.9113   38.7607 H   0  0  0  0  0
   -0.3665   41.5106   38.4455 H   0  0  0  0  0
   -0.6617   40.4326   40.4745 H   0  0  0  0  0
   -1.1516   39.1435   38.6212 H   0  0  0  0  0
   -0.2696   39.5345   37.0817 H   0  0  0  0  0
  2  1  1  0  0  0
  3  2  1  0  0  0
  4  3  1  0  0  0
  5  4  1  0  0  0
  6  5  1  0  0  0
  7  6  1  0  0  0
  8  7  1  0  0  0
 23  8  1  0  0  0
  8 24  2  0  0  0
 10  9  1  0  0  0
 10 11  1  0  0  0
 10 12  1  0  0  0
 13 10  1  0  0  0
 14 13  1  0  0  0
 15 14  1  0  0  0
 16 15  1  0  0  0
 17 16  1  0  0  0
 18 17  1  0  0  0
 19 18  4  0  0  0
 18 20  4  0  0  0
 19 23  4  0  0  0
 20 21  4  0  0  0
 21 22  4  0  0  0
 22 23  4  0  0  0
 24 25  1  0  0  0
 25 26  2  0  0  0
 26 27  1  0  0  0
 26 34  1  0  0  0
 27 28  2  0  0  0
 27 29  1  0  0  0
 29 30  1  0  0  0
 29 31  1  0  0  0
 31 32  1  0  0  0
 32 33  1  0  0  0
 32 34  1  0  0  0
  1 35  1  0  0  0
  1 36  1  0  0  0
  1 37  1  0  0  0
  2 38  1  0  0  0
  2 39  1  0  0  0
  3 40  1  0  0  0
  3 41  1  0  0  0
  4 42  1  0  0  0
  4 43  1  0  0  0
  5 44  1  0  0  0
  5 45  1  0  0  0
  6 46  1  0  0  0
  6 47  1  0  0  0
  7 48  1  0  0  0
  7 49  1  0  0  0
  9 50  1  0  0  0
 11 51  1  0  0  0
 11 52  1  0  0  0
 11 53  1  0  0  0
 12 54  1  0  0  0
 12 55  1  0  0  0
 12 56  1  0  0  0
 13 57  1  0  0  0
 13 58  1  0  0  0
 14 59  1  0  0  0
 14 60  1  0  0  0
 15 61  1  0  0  0
 15 62  1  0  0  0
 16 63  1  0  0  0
 16 64  1  0  0  0
 17 65  1  0  0  0
 17 66  1  0  0  0
 19 67  1  0  0  0
 20 68  1  0  0  0
 21 69  1  0  0  0
 22 70  1  0  0  0
 24 71  1  0  0  0
 25 72  1  0  0  0
 28 73  1  0  0  0
 28 74  1  0  0  0
 29 75  1  0  0  0
 30 76  1  0  0  0
 31 77  1  0  0  0
 31 78  1  0  0  0
 32 79  1  0  0  0
 33 80  1  0  0  0
 34 81  1  0  0  0
 34 82  1  0  0  0
M  END
$$$$
