5unp_ligand
  -I-interpret- 

 46 50  0  0  0  0  0  0  0  0999 V2000
   -1.4510  -39.4090  -27.7940 C   0  0  0  0  0
   -1.4480  -38.5080  -30.0490 C   0  0  0  0  0
   -0.3770  -38.1930  -31.0500 C   0  0  0  0  0
    0.2390  -37.7570  -33.2090 C   0  0  0  0  0
    0.2830  -39.1320  -25.7520 C   0  0  0  0  0
    1.5310  -38.5320  -26.3080 C   0  0  0  0  0
    2.8360  -38.8160  -25.8670 C   0  0  0  0  0
    3.7400  -37.1900  -27.4520 C   0  0  0  0  0
    4.6190  -35.6350  -28.9910 C   0  0  0  0  0
    2.2340  -35.8940  -28.8850 C   0  0  0  0  0
   -5.3270  -39.9440  -28.8180 C   0  0  0  0  0
   -4.7780  -40.5370  -27.5770 N   0  0  0  0  0
   -3.5050  -40.1900  -27.1340 C   0  0  0  0  0
   -2.6790  -39.7850  -28.0730 N   0  0  0  0  0
   -0.7250  -39.0090  -28.8750 N   0  0  0  0  0
   -0.7070  -38.0290  -32.3110 N   0  0  0  0  0
    1.5720  -37.6410  -32.8270 C   0  0  0  0  0
    1.8730  -37.8110  -31.4800 C   0  0  0  0  0
    0.8860  -38.0910  -30.6370 N   0  0  0  0  0
   -0.9790  -39.4500  -26.4620 C   0  0  0  0  0
    0.0310  -39.4030  -24.4450 C   0  0  0  0  0
   -1.2460  -39.8750  -24.2740 N   0  0  0  0  0
   -1.8940  -39.9110  -25.4780 C   0  0  0  0  0
   -3.1360  -40.2750  -25.8550 N   0  0  0  0  0
    3.9070  -38.1750  -26.4370 C   0  0  0  0  0
    4.7750  -36.5440  -28.0370 N   0  0  0  0  0
    3.3400  -35.2860  -29.4300 C   0  0  0  0  0
    2.4290  -36.8710  -27.8750 C   0  0  0  0  0
    1.3550  -37.5430  -27.2700 C   0  0  0  0  0
   -2.1593  -39.2401  -30.4314 H   0  0  0  0  0
   -2.0525  -37.6327  -29.8112 H   0  0  0  0  0
   -0.0346  -37.6237  -34.2556 H   0  0  0  0  0
    2.9965  -39.5450  -25.0727 H   0  0  0  0  0
    5.4934  -35.1584  -29.4342 H   0  0  0  0  0
    1.2308  -35.6316  -29.2210 H   0  0  0  0  0
   -5.3751  -38.8603  -28.7109 H   0  0  0  0  0
   -4.6807  -40.1991  -29.6578 H   0  0  0  0  0
   -6.3278  -40.3377  -28.9954 H   0  0  0  0  0
   -5.3361  -41.2037  -27.0437 H   0  0  0  0  0
    0.2939  -39.0566  -28.8683 H   0  0  0  0  0
    2.3520  -37.4247  -33.5571 H   0  0  0  0  0
    2.8986  -37.7163  -31.1233 H   0  0  0  0  0
    0.7496  -39.2637  -23.6373 H   0  0  0  0  0
    4.9138  -38.4267  -26.1036 H   0  0  0  0  0
    3.2185  -34.5303  -30.2060 H   0  0  0  0  0
    0.3401  -37.2784  -27.5668 H   0  0  0  0  0
 14  1  4  0  0  0
  1 15  1  0  0  0
  1 20  4  0  0  0
  2  3  1  0  0  0
 15  2  1  0  0  0
  3 16  4  0  0  0
  3 19  4  0  0  0
 16  4  4  0  0  0
  4 17  4  0  0  0
  5  6  1  0  0  0
 20  5  4  0  0  0
  5 21  4  0  0  0
  6  7  4  0  0  0
  6 29  4  0  0  0
  7 25  4  0  0  0
 25  8  4  0  0  0
  8 26  4  0  0  0
  8 28  4  0  0  0
 26  9  4  0  0  0
  9 27  4  0  0  0
 10 27  4  0  0  0
 28 10  4  0  0  0
 12 11  1  0  0  0
 13 12  1  0  0  0
 13 14  4  0  0  0
 13 24  4  0  0  0
 17 18  4  0  0  0
 18 19  4  0  0  0
 20 23  4  0  0  0
 21 22  4  0  0  0
 22 23  4  0  0  0
 23 24  4  0  0  0
 28 29  4  0  0  0
  2 30  1  0  0  0
  2 31  1  0  0  0
  4 32  1  0  0  0
  7 33  1  0  0  0
  9 34  1  0  0  0
 10 35  1  0  0  0
 11 36  1  0  0  0
 11 37  1  0  0  0
 11 38  1  0  0  0
 12 39  1  0  0  0
 15 40  1  0  0  0
 17 41  1  0  0  0
 18 42  1  0  0  0
 21 43  1  0  0  0
 25 44  1  0  0  0
 27 45  1  0  0  0
 29 46  1  0  0  0
M  END
$$$$
