### 
### Created by X-TOOL on Mon Sep 10 21:13:19 2018
### 

@<TRIPOS>MOLECULE
4n84_ligand
  174   173     1     0     0
SMALL
GAST_HUCK


@<TRIPOS>ATOM
      1 N          30.2030  -12.4910   12.1580 N.4       1 GLY         0.2244
      2 CA         31.2370  -13.1750   13.0220 C.3       1 GLY         0.0354
      3 C          31.6530  -12.2500   14.1640 C.3       1 GLY         0.1216
      4 O          32.3640  -11.2140   14.0000 O.3       1 GLY        -0.3481
      5 O          34.0820   -9.6680   15.3150 O.3       1 MKD        -0.3475
      6 C          34.4250  -10.8620   15.4860 C.3       1 MKD         0.1286
      7 CA         33.3520  -11.8310   16.0260 C.3       1 MKD         0.0581
      8 CB1        32.1560  -10.9660   16.5030 C.3       1 MKD        -0.0109
      9 N          32.9150  -12.7580   14.9940 N.4       1 MKD         0.2628
     10 CB         34.0210  -12.6620   17.1240 C.3       1 MKD         0.0008
     11 CG         34.7540  -11.7490   18.1150 C.3       1 MKD        -0.0474
     12 CD         36.1000  -12.3020   18.6110 C.3       1 MKD        -0.0529
     13 CE         37.1960  -12.0740   17.5670 C.3       1 MKD        -0.0533
     14 CF         37.8070  -10.6750   17.6730 C.3       1 MKD        -0.0559
     15 CH         38.0050  -10.2350   19.1370 C.3       1 MKD        -0.0653
     16 N          34.7550  -11.5730   14.1550 N.4       1 LEU         0.2721
     17 CA         35.9690  -11.4410   13.2930 C.3       1 LEU         0.0698
     18 C          35.7440  -10.4400   12.1470 C.2       1 LEU         0.2269
     19 O          36.7130   -9.9270   11.5630 O.2       1 LEU        -0.3907
     20 CB         36.3800  -12.7980   12.7120 C.3       1 LEU         0.0103
     21 CG         37.0880  -13.8660   13.5800 C.3       1 LEU        -0.0394
     22 CD1        37.5820  -15.0130   12.7050 C.3       1 LEU        -0.0623
     23 CD2        38.2510  -13.3430   14.3820 C.3       1 LEU        -0.0623
     24 N          34.4810  -10.1710   11.8350 N.am      1 ASP        -0.2595
     25 CA         34.1370   -9.2390   10.7670 C.3       1 ASP         0.1421
     26 C          34.6110   -7.8260   11.0950 C.2       1 ASP         0.2027
     27 O          35.4270   -7.2530   10.3740 O.2       1 ASP        -0.3946
     28 CB         32.6280   -9.2420   10.5180 C.3       1 ASP         0.0406
     29 CG         32.1880   -8.1270    9.5900 C.2       1 ASP         0.0393
     30 OD1        32.7860   -7.9860    8.5020 O.co2     1 ASP        -0.5688
     31 OD2        31.2440   -7.3910    9.9480 O.co2     1 ASP        -0.5688
     32 O          37.4300   -4.8260   11.9080 O.2       1 MKD        -0.3419
     33 C          36.9330   -5.8880   12.3520 C.2       1 MKD         0.2263
     34 CA         35.4370   -6.0070   12.6800 C.3       1 MKD         0.1302
     35 CB1        34.6270   -5.0390   11.8000 C.3       1 MKD        -0.0320
     36 N          35.0680   -7.4260   12.4400 N.am      1 MKD        -0.2742
     37 CB         35.1570   -5.7140   14.1780 C.3       1 MKD        -0.0201
     38 CG         36.2530   -6.4200   14.9490 C.3       1 MKD        -0.0516
     39 CD         35.9110   -6.6260   16.4110 C.3       1 MKD        -0.0531
     40 CE         37.2980   -7.0080   16.9890 C.3       1 MKD        -0.0533
     41 CF         37.1790   -8.0220   18.0600 C.3       1 MKD        -0.0559
     42 CH         38.5160   -8.7170   18.1800 C.3       1 MKD        -0.0653
     43 N          37.6310   -7.3150   12.0860 N.am      1 LEU        -0.2629
     44 CA         39.1040   -7.3260   11.9890 C.3       1 LEU         0.1314
     45 C          39.4650   -7.0060   10.5650 C.2       1 LEU         0.2041
     46 O          40.6240   -6.8310   10.2260 O.2       1 LEU        -0.3944
     47 CB         39.6130   -8.6850   12.3960 C.3       1 LEU        -0.0099
     48 CG         39.9850   -8.6580   13.8740 C.3       1 LEU        -0.0425
     49 CD1        40.3430  -10.0390   14.2930 C.3       1 LEU        -0.0625
     50 CD2        41.1410   -7.7190   14.1610 C.3       1 LEU        -0.0625
     51 N          38.4450   -6.9250    9.7180 N.am      1 ASP        -0.2622
     52 CA         38.6520   -6.6980    8.2740 C.3       1 ASP         0.1423
     53 C          39.7540   -7.5910    7.6950 C.2       1 ASP         0.2056
     54 O          40.7610   -7.1180    7.1430 O.2       1 ASP        -0.3943
     55 CB         38.9740   -5.2150    7.9850 C.3       1 ASP         0.0406
     56 CG         38.5850   -4.7880    6.5360 C.2       1 ASP         0.0393
     57 OD1        38.0590   -5.6720    5.7840 O.co2     1 ASP        -0.5688
     58 OD2        38.7680   -3.5630    6.1780 O.co2     1 ASP        -0.5688
     59 N          39.5780   -8.8880    7.8430 N.am      1 LEU        -0.2636
     60 CA         40.6790   -9.8490    7.5310 C.3       1 LEU         0.1312
     61 C          40.9580   -9.8840    6.0340 C.2       1 LEU         0.2039
     62 O          40.0270   -9.8180    5.2690 O.2       1 LEU        -0.3944
     63 CB         40.2690  -11.2370    8.0010 C.3       1 LEU        -0.0101
     64 CG         40.1740  -11.3810    9.5450 C.3       1 LEU        -0.0425
     65 CD1        39.6530  -12.7710    9.9880 C.3       1 LEU        -0.0625
     66 CD2        41.4720  -11.0390   10.2280 C.3       1 LEU        -0.0625
     67 N          42.2110   -9.9060    5.6000 N.am      1 ALA        -0.2640
     68 CA         42.4520  -10.1210    4.1460 C.3       1 ALA         0.1282
     69 C          42.1850  -11.6060    3.6420 C.2       1 ALA         0.2032
     70 O          41.6540  -12.4490    4.3930 O.2       1 ALA        -0.3944
     71 CB         43.8410   -9.6010    3.7700 C.3       1 ALA        -0.0244
     72 N          42.5520  -11.9420    2.4000 N.am      1 SER        -0.2648
     73 CA         42.0770  -13.2190    1.7310 C.3       1 SER         0.1454
     74 C          40.5510  -13.3480    1.7480 C.2       1 SER         0.2172
     75 O          39.8750  -12.9720    0.7890 O.co2     1 SER        -0.4119
     76 CB         42.6470  -14.5090    2.3500 C.3       1 SER         0.0812
     77 OG         43.8910  -14.2730    2.9490 O.3       1 SER        -0.3909
     78 H          29.9328  -13.1063   11.4067 H         1 GLY         0.1997
     79 H          30.5924  -11.6438   11.7749 H         1 GLY         0.1997
     80 H          29.3941  -12.2667   12.7160 H         1 GLY         0.1997
     81 H          32.1185  -13.4200   12.4113 H         1 GLY         0.0896
     82 H          30.8108  -14.0997   13.4383 H         1 GLY         0.0896
     83 H          30.7532  -12.0540   14.7656 H         1 GLY         0.1239
     84 H          32.5684  -10.8343   14.8465 H         1 GLY         0.2156
     85 H          33.3083   -9.6377   14.7647 H         1 MKD         0.2156
     86 H          35.2974  -10.8604   16.1560 H         1 MKD         0.1246
     87 H          31.3646  -11.6203   16.8974 H         1 MKD         0.0290
     88 H          31.7629  -10.3848   15.6559 H         1 MKD         0.0290
     89 H          32.4923  -10.2796   17.2940 H         1 MKD         0.0290
     90 H          33.6793  -12.9030   14.3530 H         1 MKD         0.2052
     91 H          32.6748  -13.6326   15.4338 H         1 MKD         0.2052
     92 H          34.7435  -13.3533   16.6657 H         1 MKD         0.0326
     93 H          33.2530  -13.2375   17.6615 H         1 MKD         0.0326
     94 H          34.1025  -11.5952   18.9879 H         1 MKD         0.0267
     95 H          34.9395  -10.7837   17.6212 H         1 MKD         0.0267
     96 H          35.9997  -13.3811   18.7995 H         1 MKD         0.0265
     97 H          36.3785  -11.7910   19.5444 H         1 MKD         0.0265
     98 H          36.7619  -12.1967   16.5638 H         1 MKD         0.0265
     99 H          37.9899  -12.8204   17.7168 H         1 MKD         0.0265
    100 H          37.1381   -9.9577   17.1750 H         1 MKD         0.0263
    101 H          38.7844  -10.6762   17.1683 H         1 MKD         0.0263
    102 H          38.4450   -9.2271   19.1606 H         1 MKD         0.0230
    103 H          38.6788  -10.9412   19.6442 H         1 MKD         0.0230
    104 H          37.0325  -10.2226   19.6509 H         1 MKD         0.0230
    105 H          33.9884  -11.3331   13.5461 H         1 LEU         0.2066
    106 H          34.7121  -12.5550   14.3783 H         1 LEU         0.2066
    107 H          36.7920  -11.0681   13.9203 H         1 LEU         0.1100
    108 H          37.0553  -12.5841   11.8704 H         1 LEU         0.0348
    109 H          35.4592  -13.2658   12.3335 H         1 LEU         0.0348
    110 H          36.3439  -14.2607   14.2875 H         1 LEU         0.0299
    111 H          38.0827  -15.7642   13.3335 H         1 LEU         0.0232
    112 H          38.2926  -14.6260   11.9598 H         1 LEU         0.0232
    113 H          36.7272  -15.4762   12.1906 H         1 LEU         0.0232
    114 H          37.9127  -12.5135   15.0203 H         1 LEU         0.0232
    115 H          39.0353  -12.9840   13.6994 H         1 LEU         0.0232
    116 H          38.6542  -14.1495   15.0120 H         1 LEU         0.0232
    117 H          33.7471  -10.6191   12.3456 H         1 ASP         0.1886
    118 H          34.6421   -9.5683    9.8470 H         1 ASP         0.0819
    119 H          32.1116   -9.1224   11.4819 H         1 ASP         0.0478
    120 H          32.3470  -10.2058   10.0685 H         1 ASP         0.0478
    121 H          33.5578   -5.1311   12.0417 H         1 MKD         0.0242
    122 H          34.7859   -5.2867   10.7401 H         1 MKD         0.0242
    123 H          34.9580   -4.0072   11.9891 H         1 MKD         0.0242
    124 H          35.1283   -8.0987   13.1774 H         1 MKD         0.1839
    125 H          34.1712   -6.1070   14.4673 H         1 MKD         0.0277
    126 H          35.1907   -4.6313   14.3693 H         1 MKD         0.0277
    127 H          37.1706   -5.8167   14.8855 H         1 MKD         0.0265
    128 H          36.4280   -7.4034   14.4882 H         1 MKD         0.0265
    129 H          35.1805   -7.4375   16.5444 H         1 MKD         0.0265
    130 H          35.5228   -5.7042   16.8687 H         1 MKD         0.0265
    131 H          37.7738   -6.1063   17.4019 H         1 MKD         0.0265
    132 H          37.9227   -7.4144   16.1800 H         1 MKD         0.0265
    133 H          36.3984   -8.7522   17.8005 H         1 MKD         0.0263
    134 H          36.9228   -7.5341   19.0120 H         1 MKD         0.0263
    135 H          38.4628   -9.4802   18.9704 H         1 MKD         0.0230
    136 H          39.2913   -7.9793   18.4343 H         1 MKD         0.0230
    137 H          38.7668   -9.1974   17.2228 H         1 MKD         0.0230
    138 H          37.0929   -8.1525   11.9912 H         1 LEU         0.1889
    139 H          39.5316   -6.5639   12.6571 H         1 LEU         0.0802
    140 H          40.5002   -8.9401   11.7978 H         1 LEU         0.0315
    141 H          38.8285   -9.4375   12.2277 H         1 LEU         0.0315
    142 H          39.1116   -8.3199   14.4509 H         1 LEU         0.0298
    143 H          40.6150  -10.0399   15.3588 H         1 LEU         0.0232
    144 H          41.1965  -10.3935   13.6965 H         1 LEU         0.0232
    145 H          39.4824  -10.7053   14.1337 H         1 LEU         0.0232
    146 H          40.8711   -6.6992   13.8493 H         1 LEU         0.0232
    147 H          42.0294   -8.0498   13.6030 H         1 LEU         0.0232
    148 H          41.3609   -7.7268   15.2388 H         1 LEU         0.0232
    149 H          37.5129   -7.0202   10.0674 H         1 ASP         0.1884
    150 H          37.7119   -6.9488    7.7609 H         1 ASP         0.0819
    151 H          40.0539   -5.0559    8.1212 H         1 ASP         0.0478
    152 H          38.4182   -4.5884    8.6981 H         1 ASP         0.0478
    153 H          38.6976   -9.2335    8.1678 H         1 LEU         0.1883
    154 H          41.5917   -9.5375    8.0600 H         1 LEU         0.0800
    155 H          41.0110  -11.9601    7.6316 H         1 LEU         0.0315
    156 H          39.2838  -11.4704    7.5710 H         1 LEU         0.0315
    157 H          39.4320  -10.6428    9.8833 H         1 LEU         0.0298
    158 H          39.6077  -12.8126   11.0863 H         1 LEU         0.0232
    159 H          40.3338  -13.5524    9.6193 H         1 LEU         0.0232
    160 H          38.6475  -12.9350    9.5731 H         1 LEU         0.0232
    161 H          41.8132  -10.0487    9.8921 H         1 LEU         0.0232
    162 H          42.2304  -11.7939    9.9733 H         1 LEU         0.0232
    163 H          41.3204  -11.0245   11.3174 H         1 LEU         0.0232
    164 H          42.9749   -9.7813    6.2332 H         1 ALA         0.1883
    165 H          41.7242   -9.4903    3.6145 H         1 ALA         0.0797
    166 H          44.0143   -9.7619    2.6957 H         1 ALA         0.0277
    167 H          44.6041  -10.1413    4.3494 H         1 ALA         0.0277
    168 H          43.9032   -8.5259    3.9944 H         1 ALA         0.0277
    169 H          43.1607  -11.3303    1.8947 H         1 SER         0.1877
    170 H          42.4080  -13.1727    0.6830 H         1 SER         0.0774
    171 O1         39.9798  -13.8448    2.7552 O.co2     1 SER        -0.4119
    172 H          42.7663  -15.2647    1.5596 H         1 SER         0.0600
    173 H          41.9465  -14.8823    3.1115 H         1 SER         0.0600
    174 H          43.7927  -13.6234    3.6352 H         1 SER         0.2096
@<TRIPOS>BOND
     1    2    1 1  
     2    3    2 1  
     3    3    4 1  
     4    9    3 1  
     5    6    5 1  
     6    6    7 1  
     7   16    6 1  
     8    7    8 1  
     9    7    9 1  
    10    7   10 1  
    11   10   11 1  
    12   11   12 1  
    13   12   13 1  
    14   13   14 1  
    15   14   15 1  
    16   17   16 1  
    17   18   17 1  
    18   17   20 1  
    19   18   19 2  
    20   24   18 am 
    21   20   21 1  
    22   21   22 1  
    23   21   23 1  
    24   25   24 1  
    25   26   25 1  
    26   25   28 1  
    27   26   27 2  
    28   36   26 am 
    29   28   29 1  
    30   29   30 ar 
    31   29   31 ar 
    32   33   32 2  
    33   34   33 1  
    34   33   43 am 
    35   34   35 1  
    36   34   36 1  
    37   34   37 1  
    38   37   38 1  
    39   38   39 1  
    40   39   40 1  
    41   40   41 1  
    42   41   42 1  
    43   43   44 1  
    44   44   45 1  
    45   44   47 1  
    46   45   46 2  
    47   45   51 am 
    48   47   48 1  
    49   48   49 1  
    50   48   50 1  
    51   51   52 1  
    52   52   53 1  
    53   52   55 1  
    54   53   54 2  
    55   53   59 am 
    56   55   56 1  
    57   56   57 ar 
    58   56   58 ar 
    59   59   60 1  
    60   60   61 1  
    61   60   63 1  
    62   61   62 2  
    63   61   67 am 
    64   63   64 1  
    65   64   65 1  
    66   64   66 1  
    67   67   68 1  
    68   68   69 1  
    69   68   71 1  
    70   69   70 2  
    71   69   72 am 
    72   72   73 1  
    73   73   74 1  
    74   73   76 1  
    75   74   75 ar 
    76   76   77 1  
    77    1   78 1  
    78    1   79 1  
    79    1   80 1  
    80    2   81 1  
    81    2   82 1  
    82    3   83 1  
    83    4   84 1  
    84    5   85 1  
    85    6   86 1  
    86    8   87 1  
    87    8   88 1  
    88    8   89 1  
    89    9   90 1  
    90    9   91 1  
    91   10   92 1  
    92   10   93 1  
    93   11   94 1  
    94   11   95 1  
    95   12   96 1  
    96   12   97 1  
    97   13   98 1  
    98   13   99 1  
    99   14  100 1  
   100   14  101 1  
   101   15  102 1  
   102   15  103 1  
   103   15  104 1  
   104   16  105 1  
   105   16  106 1  
   106   17  107 1  
   107   20  108 1  
   108   20  109 1  
   109   21  110 1  
   110   22  111 1  
   111   22  112 1  
   112   22  113 1  
   113   23  114 1  
   114   23  115 1  
   115   23  116 1  
   116   24  117 1  
   117   25  118 1  
   118   28  119 1  
   119   28  120 1  
   120   35  121 1  
   121   35  122 1  
   122   35  123 1  
   123   36  124 1  
   124   37  125 1  
   125   37  126 1  
   126   38  127 1  
   127   38  128 1  
   128   39  129 1  
   129   39  130 1  
   130   40  131 1  
   131   40  132 1  
   132   41  133 1  
   133   41  134 1  
   134   42  135 1  
   135   42  136 1  
   136   42  137 1  
   137   43  138 1  
   138   44  139 1  
   139   47  140 1  
   140   47  141 1  
   141   48  142 1  
   142   49  143 1  
   143   49  144 1  
   144   49  145 1  
   145   50  146 1  
   146   50  147 1  
   147   50  148 1  
   148   51  149 1  
   149   52  150 1  
   150   55  151 1  
   151   55  152 1  
   152   59  153 1  
   153   60  154 1  
   154   63  155 1  
   155   63  156 1  
   156   64  157 1  
   157   65  158 1  
   158   65  159 1  
   159   65  160 1  
   160   66  161 1  
   161   66  162 1  
   162   66  163 1  
   163   67  164 1  
   164   68  165 1  
   165   71  166 1  
   166   71  167 1  
   167   71  168 1  
   168   72  169 1  
   169   73  170 1  
   170   74  171 ar 
   171   76  172 1  
   172   76  173 1  
   173   77  174 1  
@<TRIPOS>SUBSTRUCTURE
     1 GLY         1

