4n84_ligand
  -I-interpret- 

177176  0  0  0  0  0  0  0  0999 V2000
   30.2030  -12.4910   12.1580 N   0  3  0  0  0
   31.2370  -13.1750   13.0220 C   0  0  0  0  0
   31.6530  -12.2500   14.1640 C   0  0  0  0  0
   32.3640  -11.2140   14.0000 O   0  0  0  0  0
   34.0820   -9.6680   15.3150 O   0  0  0  0  0
   34.4250  -10.8620   15.4860 C   0  0  0  0  0
   33.3520  -11.8310   16.0260 C   0  0  0  0  0
   32.1560  -10.9660   16.5030 C   0  0  0  0  0
   32.9150  -12.7580   14.9940 N   0  3  0  0  0
   34.0210  -12.6620   17.1240 C   0  0  0  0  0
   34.7540  -11.7490   18.1150 C   0  0  0  0  0
   36.1000  -12.3020   18.6110 C   0  0  0  0  0
   37.1960  -12.0740   17.5670 C   0  0  0  0  0
   37.8070  -10.6750   17.6730 C   0  0  0  0  0
   38.0050  -10.2350   19.1370 C   0  0  0  0  0
   34.7550  -11.5730   14.1550 N   0  3  0  0  0
   35.9690  -11.4410   13.2930 C   0  0  0  0  0
   35.7440  -10.4400   12.1470 C   0  0  0  0  0
   36.7130   -9.9270   11.5630 O   0  0  0  0  0
   36.3800  -12.7980   12.7120 C   0  0  0  0  0
   37.0880  -13.8660   13.5800 C   0  0  0  0  0
   37.5820  -15.0130   12.7050 C   0  0  0  0  0
   38.2510  -13.3430   14.3820 C   0  0  0  0  0
   34.4810  -10.1710   11.8350 N   0  0  0  0  0
   34.1370   -9.2390   10.7670 C   0  0  0  0  0
   34.6110   -7.8260   11.0950 C   0  0  0  0  0
   35.4270   -7.2530   10.3740 O   0  0  0  0  0
   32.6280   -9.2420   10.5180 C   0  0  0  0  0
   32.1880   -8.1270    9.5900 C   0  0  0  0  0
   32.7860   -7.9860    8.5020 O   0  0  0  0  0
   31.2440   -7.3910    9.9480 O   0  0  0  0  0
   37.4300   -4.8260   11.9080 O   0  0  0  0  0
   36.9330   -5.8880   12.3520 C   0  0  0  0  0
   35.4370   -6.0070   12.6800 C   0  0  0  0  0
   34.6270   -5.0390   11.8000 C   0  0  0  0  0
   35.0680   -7.4260   12.4400 N   0  0  0  0  0
   35.1570   -5.7140   14.1780 C   0  0  0  0  0
   36.2530   -6.4200   14.9490 C   0  0  0  0  0
   35.9110   -6.6260   16.4110 C   0  0  0  0  0
   37.2980   -7.0080   16.9890 C   0  0  0  0  0
   37.1790   -8.0220   18.0600 C   0  0  0  0  0
   38.5160   -8.7170   18.1800 C   0  0  0  0  0
   37.6310   -7.3150   12.0860 N   0  0  0  0  0
   39.1040   -7.3260   11.9890 C   0  0  0  0  0
   39.4650   -7.0060   10.5650 C   0  0  0  0  0
   40.6240   -6.8310   10.2260 O   0  0  0  0  0
   39.6130   -8.6850   12.3960 C   0  0  0  0  0
   39.9850   -8.6580   13.8740 C   0  0  0  0  0
   40.3430  -10.0390   14.2930 C   0  0  0  0  0
   41.1410   -7.7190   14.1610 C   0  0  0  0  0
   38.4450   -6.9250    9.7180 N   0  0  0  0  0
   38.6520   -6.6980    8.2740 C   0  0  0  0  0
   39.7540   -7.5910    7.6950 C   0  0  0  0  0
   40.7610   -7.1180    7.1430 O   0  0  0  0  0
   38.9740   -5.2150    7.9850 C   0  0  0  0  0
   38.5850   -4.7880    6.5360 C   0  0  0  0  0
   38.0590   -5.6720    5.7840 O   0  0  0  0  0
   38.7680   -3.5630    6.1780 O   0  0  0  0  0
   39.5780   -8.8880    7.8430 N   0  0  0  0  0
   40.6790   -9.8490    7.5310 C   0  0  0  0  0
   40.9580   -9.8840    6.0340 C   0  0  0  0  0
   40.0270   -9.8180    5.2690 O   0  0  0  0  0
   40.2690  -11.2370    8.0010 C   0  0  0  0  0
   40.1740  -11.3810    9.5450 C   0  0  0  0  0
   39.6530  -12.7710    9.9880 C   0  0  0  0  0
   41.4720  -11.0390   10.2280 C   0  0  0  0  0
   42.2110   -9.9060    5.6000 N   0  0  0  0  0
   42.4520  -10.1210    4.1460 C   0  0  0  0  0
   42.1850  -11.6060    3.6420 C   0  0  0  0  0
   41.6540  -12.4490    4.3930 O   0  0  0  0  0
   43.8410   -9.6010    3.7700 C   0  0  0  0  0
   42.5520  -11.9420    2.4000 N   0  0  0  0  0
   42.0770  -13.2190    1.7310 C   0  0  0  0  0
   40.5510  -13.3480    1.7480 C   0  0  0  0  0
   39.8750  -12.9720    0.7890 O   0  0  0  0  0
   42.6470  -14.5090    2.3500 C   0  0  0  0  0
   43.8910  -14.2730    2.9490 O   0  0  0  0  0
   39.9798  -13.8448    2.7552 O   0  0  0  0  0
   29.9304  -13.1145   11.3982 H   0  0  0  0  0
   29.3850  -12.2645   12.7237 H   0  0  0  0  0
   30.5981  -11.6340   11.7710 H   0  0  0  0  0
   32.1109  -13.4142   12.4161 H   0  0  0  0  0
   30.8120  -14.0893   13.4361 H   0  0  0  0  0
   30.6223  -12.1481   14.5038 H   0  0  0  0  0
   31.8804  -10.5760   13.4702 H   0  0  0  0  0
   33.8872   -9.2673   16.1653 H   0  0  0  0  0
   35.2445  -10.7144   16.1894 H   0  0  0  0  0
   31.7575  -10.4025   15.6593 H   0  0  0  0  0
   31.3791  -11.6144   16.9081 H   0  0  0  0  0
   32.4940  -10.2754   17.2756 H   0  0  0  0  0
   33.6872  -12.8668   14.3366 H   0  0  0  0  0
   32.6440  -13.6245   15.4589 H   0  0  0  0  0
   34.7416  -13.3399   16.6665 H   0  0  0  0  0
   33.2559  -13.2245   17.6591 H   0  0  0  0  0
   34.1104  -11.6424   18.9882 H   0  0  0  0  0
   34.9641  -10.8148   17.5943 H   0  0  0  0  0
   35.9979  -13.3729   18.7867 H   0  0  0  0  0
   36.3760  -11.7855   19.5303 H   0  0  0  0  0
   36.7508  -12.1773   16.5775 H   0  0  0  0  0
   37.9865  -12.8049   17.7376 H   0  0  0  0  0
   37.1254   -9.9704   17.1965 H   0  0  0  0  0
   38.7838  -10.6942   17.1898 H   0  0  0  0  0
   37.0407  -10.2232   19.6451 H   0  0  0  0  0
   38.6728  -10.9355   19.6384 H   0  0  0  0  0
   38.4410   -9.2362   19.1591 H   0  0  0  0  0
   34.0449  -11.1693   13.5441 H   0  0  0  0  0
   34.8546  -12.5363   14.4752 H   0  0  0  0  0
   36.7707  -11.0657   13.9290 H   0  0  0  0  0
   37.1215  -12.5438   11.9546 H   0  0  0  0  0
   35.4322  -13.2653   12.4448 H   0  0  0  0  0
   36.3338  -14.2027   14.2913 H   0  0  0  0  0
   36.7341  -15.4711   12.1958 H   0  0  0  0  0
   38.2859  -14.6282   11.9671 H   0  0  0  0  0
   38.0779  -15.7567   13.3288 H   0  0  0  0  0
   39.0013  -12.9323   13.7063 H   0  0  0  0  0
   37.9026  -12.5621   15.0580 H   0  0  0  0  0
   38.6876  -14.1575   14.9600 H   0  0  0  0  0
   33.7325  -10.6280   12.3558 H   0  0  0  0  0
   34.6456   -9.5683    9.8609 H   0  0  0  0  0
   32.1296   -9.0969   11.4765 H   0  0  0  0  0
   32.3673  -10.1909   10.0493 H   0  0  0  0  0
   33.4729   -8.6524    8.4270 H   0  0  0  0  0
   34.9560   -4.0170   11.9883 H   0  0  0  0  0
   34.7854   -5.2854   10.7501 H   0  0  0  0  0
   33.5678   -5.1312   12.0404 H   0  0  0  0  0
   35.1295   -8.1122   13.1922 H   0  0  0  0  0
   34.1708   -6.0714   14.4741 H   0  0  0  0  0
   35.1578   -4.6427   14.3792 H   0  0  0  0  0
   37.1462   -5.7970   14.9017 H   0  0  0  0  0
   36.3946   -7.4029   14.4996 H   0  0  0  0  0
   35.1402   -7.3775   16.5817 H   0  0  0  0  0
   35.4607   -5.7541   16.8854 H   0  0  0  0  0
   37.7547   -6.1126   17.4107 H   0  0  0  0  0
   37.9041   -7.4250   16.1847 H   0  0  0  0  0
   36.3964   -8.7412   17.8182 H   0  0  0  0  0
   36.9098   -7.5487   19.0042 H   0  0  0  0  0
   38.7634   -9.1925   17.2309 H   0  0  0  0  0
   39.2833   -7.9849   18.4319 H   0  0  0  0  0
   38.4621   -9.4730   18.9634 H   0  0  0  0  0
   37.0821   -8.1693   11.9893 H   0  0  0  0  0
   39.5585   -6.5886   12.6506 H   0  0  0  0  0
   40.4907   -8.9401   11.8022 H   0  0  0  0  0
   38.8374   -9.4320   12.2273 H   0  0  0  0  0
   39.1280   -8.2883   14.4370 H   0  0  0  0  0
   39.4895  -10.6981   14.1346 H   0  0  0  0  0
   41.1888  -10.3891   13.7013 H   0  0  0  0  0
   40.6123  -10.0386   15.3492 H   0  0  0  0  0
   42.0172   -8.0408   13.5981 H   0  0  0  0  0
   40.8678   -6.7067   13.8630 H   0  0  0  0  0
   41.3659   -7.7370   15.2274 H   0  0  0  0  0
   37.4943   -7.0221   10.0744 H   0  0  0  0  0
   37.7158   -6.9635    7.7829 H   0  0  0  0  0
   40.0493   -5.0771    8.0980 H   0  0  0  0  0
   38.3977   -4.6049    8.6806 H   0  0  0  0  0
   39.1767   -3.0779    6.8986 H   0  0  0  0  0
   38.6800   -9.2404    8.1743 H   0  0  0  0  0
   41.5857   -9.5273    8.0434 H   0  0  0  0  0
   41.0349  -11.9329    7.6586 H   0  0  0  0  0
   39.2761  -11.4343    7.5968 H   0  0  0  0  0
   39.4318  -10.6504    9.8668 H   0  0  0  0  0
   38.6567  -12.9323    9.5762 H   0  0  0  0  0
   40.3284  -13.5443    9.6220 H   0  0  0  0  0
   39.6086  -12.8110   11.0764 H   0  0  0  0  0
   42.2556  -11.7078    9.8721 H   0  0  0  0  0
   41.7409  -10.0078    9.9989 H   0  0  0  0  0
   41.3556  -11.1547   11.3056 H   0  0  0  0  0
   42.9902   -9.7789    6.2458 H   0  0  0  0  0
   41.7026   -9.5386    3.6099 H   0  0  0  0  0
   43.9014   -8.5357    3.9929 H   0  0  0  0  0
   44.5961  -10.1371    4.3448 H   0  0  0  0  0
   44.0115   -9.7610    2.7054 H   0  0  0  0  0
   43.1728  -11.3181    1.8846 H   0  0  0  0  0
   42.4511  -13.1229    0.7117 H   0  0  0  0  0
   42.7748  -15.2486    1.5596 H   0  0  0  0  0
   41.9545  -14.8660    3.1124 H   0  0  0  0  0
   44.2236  -15.0908    3.3262 H   0  0  0  0  0
   40.6397  -14.0856    3.4096 H   0  0  0  0  0
  2  1  1  0  0  0
  3  2  1  0  0  0
  3  4  1  0  0  0
  9  3  1  0  0  0
  6  5  1  0  0  0
  6  7  1  0  0  0
 16  6  1  0  0  0
  7  8  1  0  0  0
  7  9  1  0  0  0
  7 10  1  0  0  0
 10 11  1  0  0  0
 11 12  1  0  0  0
 12 13  1  0  0  0
 13 14  1  0  0  0
 14 15  1  0  0  0
 17 16  1  0  0  0
 18 17  1  0  0  0
 17 20  1  0  0  0
 18 19  2  0  0  0
 24 18  1  0  0  0
 20 21  1  0  0  0
 21 22  1  0  0  0
 21 23  1  0  0  0
 25 24  1  0  0  0
 26 25  1  0  0  0
 25 28  1  0  0  0
 26 27  2  0  0  0
 36 26  1  0  0  0
 28 29  1  0  0  0
 29 30  1  0  0  0
 29 31  2  0  0  0
 33 32  2  0  0  0
 34 33  1  0  0  0
 33 43  1  0  0  0
 34 35  1  0  0  0
 34 36  1  0  0  0
 34 37  1  0  0  0
 37 38  1  0  0  0
 38 39  1  0  0  0
 39 40  1  0  0  0
 40 41  1  0  0  0
 41 42  1  0  0  0
 43 44  1  0  0  0
 44 45  1  0  0  0
 44 47  1  0  0  0
 45 46  2  0  0  0
 45 51  1  0  0  0
 47 48  1  0  0  0
 48 49  1  0  0  0
 48 50  1  0  0  0
 51 52  1  0  0  0
 52 53  1  0  0  0
 52 55  1  0  0  0
 53 54  2  0  0  0
 53 59  1  0  0  0
 55 56  1  0  0  0
 56 57  2  0  0  0
 56 58  1  0  0  0
 59 60  1  0  0  0
 60 61  1  0  0  0
 60 63  1  0  0  0
 61 62  2  0  0  0
 61 67  1  0  0  0
 63 64  1  0  0  0
 64 65  1  0  0  0
 64 66  1  0  0  0
 67 68  1  0  0  0
 68 69  1  0  0  0
 68 71  1  0  0  0
 69 70  2  0  0  0
 69 72  1  0  0  0
 72 73  1  0  0  0
 73 74  1  0  0  0
 73 76  1  0  0  0
 74 75  2  0  0  0
 76 77  1  0  0  0
 74 78  1  0  0  0
  1 79  1  0  0  0
  1 80  1  0  0  0
  1 81  1  0  0  0
  2 82  1  0  0  0
  2 83  1  0  0  0
  3 84  1  0  0  0
  4 85  1  0  0  0
  5 86  1  0  0  0
  6 87  1  0  0  0
  8 88  1  0  0  0
  8 89  1  0  0  0
  8 90  1  0  0  0
  9 91  1  0  0  0
  9 92  1  0  0  0
 10 93  1  0  0  0
 10 94  1  0  0  0
 11 95  1  0  0  0
 11 96  1  0  0  0
 12 97  1  0  0  0
 12 98  1  0  0  0
 13 99  1  0  0  0
 13100  1  0  0  0
 14101  1  0  0  0
 14102  1  0  0  0
 15103  1  0  0  0
 15104  1  0  0  0
 15105  1  0  0  0
 16106  1  0  0  0
 16107  1  0  0  0
 17108  1  0  0  0
 20109  1  0  0  0
 20110  1  0  0  0
 21111  1  0  0  0
 22112  1  0  0  0
 22113  1  0  0  0
 22114  1  0  0  0
 23115  1  0  0  0
 23116  1  0  0  0
 23117  1  0  0  0
 24118  1  0  0  0
 25119  1  0  0  0
 28120  1  0  0  0
 28121  1  0  0  0
 30122  1  0  0  0
 35123  1  0  0  0
 35124  1  0  0  0
 35125  1  0  0  0
 36126  1  0  0  0
 37127  1  0  0  0
 37128  1  0  0  0
 38129  1  0  0  0
 38130  1  0  0  0
 39131  1  0  0  0
 39132  1  0  0  0
 40133  1  0  0  0
 40134  1  0  0  0
 41135  1  0  0  0
 41136  1  0  0  0
 42137  1  0  0  0
 42138  1  0  0  0
 42139  1  0  0  0
 43140  1  0  0  0
 44141  1  0  0  0
 47142  1  0  0  0
 47143  1  0  0  0
 48144  1  0  0  0
 49145  1  0  0  0
 49146  1  0  0  0
 49147  1  0  0  0
 50148  1  0  0  0
 50149  1  0  0  0
 50150  1  0  0  0
 51151  1  0  0  0
 52152  1  0  0  0
 55153  1  0  0  0
 55154  1  0  0  0
 58155  1  0  0  0
 59156  1  0  0  0
 60157  1  0  0  0
 63158  1  0  0  0
 63159  1  0  0  0
 64160  1  0  0  0
 65161  1  0  0  0
 65162  1  0  0  0
 65163  1  0  0  0
 66164  1  0  0  0
 66165  1  0  0  0
 66166  1  0  0  0
 67167  1  0  0  0
 68168  1  0  0  0
 71169  1  0  0  0
 71170  1  0  0  0
 71171  1  0  0  0
 72172  1  0  0  0
 73173  1  0  0  0
 76174  1  0  0  0
 76175  1  0  0  0
 77176  1  0  0  0
 78177  1  0  0  0
M  END
$$$$
